data_PCOD9025874
_publ_section_title
;
Structure prediction by ZEFSAII (Michael W. Deem and Ramdas Pophale) SiO2 
 PCOD9025874
Probable space group: P -1
;
_chemical_formula_sum "Si O2"
_cell_formula_units_Z 14
_cell_length_a 18.959044
_cell_length_b 10.288949
_cell_length_c 5.156688
_cell_angle_alpha 63.178988
_cell_angle_beta 111.452635
_cell_angle_gamma 142.670262
_cell_volume 544.317128
_symmetry_space_group_name_H-M "P -1"
_symmetry_group_IT_number 2
_symmetry_cell_setting 'triclinic'
loop_
_space_group_symop_operation_xyz
x,y,z
-x,-y,-z
loop_
_atom_site_type_symbol
_atom_site_label
_atom_site_fract_x
_atom_site_fract_y
_atom_site_fract_z
Si Si1 0.756131 0.954519 0.813640
Si Si2 0.623923 0.200267 0.144511
Si Si3 0.663190 0.516487 0.290515
Si Si4 0.324386 0.903484 0.161943
Si Si5 0.898497 0.727462 0.612248
Si Si6 0.543942 0.725798 0.387923
Si Si7 0.997418 0.818270 0.167923
O O1 0.669353 0.891441 0.539755
O O2 0.874568 0.060228 0.769627
O O3 0.688400 0.719936 0.064484
O O4 0.771468 0.115556 0.877180
O O5 0.655897 0.405409 0.120556
O O6 0.364652 0.874290 0.500868
O O7 0.500000 0.000000 0.000000
O O8 0.701123 0.242937 0.978768
O O9 0.551961 0.343724 0.485806
O O10 0.776476 0.629294 0.501423
O O11 0.427850 0.155817 0.953333
O O12 0.921115 0.664409 0.447630
O O13 0.929779 0.681090 0.943898
O O14 0.000000 0.000000 0.500000
O O15 0.500000 0.500000 0.500000
O O16 0.000000 0.000000 0.000000
#
# Coordination Sequence:
#
# PCOD9025874 Si02
#       7
#     2   2   2   2   2   2   2
#     4  12  25  46  77 113 152 197 255 326 382 450
#     4  12  30  52  74 106 160 215 254 302 380 478
#     4  12  27  47  80 114 152 204 263 320 370 468
#     4  12  28  51  71 109 160 209 243 310 397 454
#     4  10  22  44  69 110 145 185 257 324 379 421
#     4  12  28  41  75 118 158 192 259 316 391 449
#     4  10  22  40  73 108 144 189 250 318 387 431
#
# _framework density 25.720300000000002
#
# number of rings (size 3 to 8) (size 9 to 14) (size 15 to 20)
#    0.000    0.571    5.714    1.714   10.000    1.143 
#    0.000    0.000    0.000    5.143    0.000    0.000 
#    0.000    0.000    0.000    0.000    0.000    0.000 
#
# Total GULP energy -78273.258230 kJ/mol
# GULP energy per Si atom -5590.947016 kJ/mol
# Density = 2.566176 g / cm^3
# Si number density = 25.720300 Si / 1000 Ang^3
#
#
#
# Elastic Constant Matrix: (Units=GPa)
#
#
# Indices 1 2 3 4 5 6 
#
# 1 188.4455 43.9554 50.2174 15.9574 -8.7425 16.0577
# 2 43.9554 90.2571 27.2523 15.8173 12.8912 12.8116
# 3 50.2174 27.2523 199.6564 18.3474 -22.9219 10.7579
# 4 15.9574 15.8173 18.3474 33.6096 -8.1365 16.4411
# 5 -8.7425 12.8912 -22.9219 -8.1365 39.0416 3.4602
# 6 16.0577 12.8116 10.7579 16.4411 3.4602 60.8426
#
#
#
# Elastic Compliance Matrix: (Units=1/GPa)
#
#
# Indices 1 2 3 4 5 6 
#
# 1 0.006430 -0.002949 -0.000923 -0.000230 0.001909 -0.000959
# 2 -0.002949 0.015392 -0.001666 -0.007013 -0.008200 0.000193
# 3 -0.000923 -0.001666 0.006004 -0.000952 0.003708 -0.000421
# 4 -0.000230 -0.007013 -0.000952 0.041340 0.011216 -0.010103
# 5 0.001909 -0.008200 0.003708 0.011216 0.033651 -0.004377
# 6 -0.000959 0.000193 -0.000421 -0.010103 -0.004377 0.019702
#
#
# Mechanical properties :
#
#
# Convention : Reuss Voigt Hill
#
# Bulk Modulus (GPa) = 59.70484 80.13436 69.91960
# Shear Modulus (GPa) = 35.92512 50.49435 43.20974
#
# Velocity S-wave (km/s) = 3.74138 4.43562 4.10321
# Velocity P-wave (km/s) = 6.47514 7.58002 7.04926
#
# Compressibility (1/GPa) = 0.01674906
#
# Stress axis : x y z
#
# Youngs Moduli (GPa) = 155.51782 64.97068 166.55684
#
# Poissons Ratio (x) = 0.19160 0.15370
# Poissons Ratio (y) = 0.45863 0.27756
# Poissons Ratio (z) = 0.14351 0.10827
#
# Static dielectric constant tensor:
#      x y z
#    x 1.974320 0.071630 -0.161490 
#    y 0.071630 2.037450 0.040520 
#    z -0.161490 0.040520 1.966260 
# 
# From -- ./inp_files/107993.got.cif
#   From: 2010.05.17/outbox.cif.g08.bks.cpg/sg2_54_cif.got.tgz:107993.got - 2010.06.03 11:33:40.
