data_PCOD9025076
_publ_section_title
;
Structure prediction by ZEFSAII (Michael W. Deem and Ramdas Pophale) SiO2 
 PCOD9025076
Probable space group: P -1
;
_chemical_formula_sum "Si O2"
_cell_formula_units_Z 16
_cell_length_a 5.782495
_cell_length_b 27.035674
_cell_length_c 7.723552
_cell_angle_alpha 43.661717
_cell_angle_beta 69.683474
_cell_angle_gamma 94.867976
_cell_volume 668.220944
_symmetry_space_group_name_H-M "P -1"
_symmetry_group_IT_number 2
_symmetry_cell_setting 'triclinic'
loop_
_space_group_symop_operation_xyz
x,y,z
-x,-y,-z
loop_
_atom_site_type_symbol
_atom_site_label
_atom_site_fract_x
_atom_site_fract_y
_atom_site_fract_z
Si Si1 0.604355 0.741239 0.443585
Si Si2 0.900142 0.259472 0.300152
Si Si3 0.092686 0.896955 0.767917
Si Si4 0.519554 0.585899 0.318145
Si Si5 0.364674 0.403823 0.329166
Si Si6 0.236108 0.680625 0.170427
Si Si7 0.800308 0.825307 0.555300
Si Si8 0.233798 0.048345 0.567126
O O1 0.324806 0.749225 0.476173
O O2 0.522227 0.646470 0.681593
O O3 0.711621 0.782031 0.501066
O O4 0.869304 0.799605 0.103713
O O5 0.910573 0.175915 0.483910
O O6 0.835773 0.283770 0.069139
O O7 0.213279 0.341008 0.043138
O O8 0.417427 0.914041 0.622986
O O9 0.940832 0.924472 0.590906
O O10 0.109746 0.952222 0.791325
O O11 0.500000 0.500000 0.500000
O O12 0.564555 0.598939 0.480186
O O13 0.257891 0.600532 0.312688
O O14 0.015930 0.352202 0.542267
O O15 0.500000 0.500000 0.000000
O O16 0.558965 0.758414 0.923828
O O17 0.811600 0.911624 0.350172
#
# Coordination Sequence:
#
# PCOD9025076 Si02
#       8
#     2   2   2   2   2   2   2   2
#     4  11  25  40  62  94 132 166 214 274 333 386
#     4   9  22  39  61  91 122 168 213 266 324 397
#     4  10  24  44  70 103 134 174 219 279 325 395
#     4  10  23  40  64  83 116 170 218 266 329 399
#     4  11  26  39  59  91 126 161 213 275 324 382
#     4   9  21  41  61  85 118 169 211 264 322 398
#     4  10  22  40  67  91 125 172 215 261 323 404
#     4  10  23  44  72  99 135 176 223 264 332 402
#
# _framework density 23.944175000000001
#
# number of rings (size 3 to 8) (size 9 to 14) (size 15 to 20)
#    0.000    2.000    0.000    0.750   17.500    3.000 
#    0.000    0.625    0.000    0.000    0.000    0.000 
#    0.000    0.000    0.000    0.000    0.000    0.000 
#
# Total GULP energy -89223.702543 kJ/mol
# GULP energy per Si atom -5576.481409 kJ/mol
# Density = 2.388968 g / cm^3
# Si number density = 23.944175 Si / 1000 Ang^3
#
#
#
# Elastic Constant Matrix: (Units=GPa)
#
#
# Indices 1 2 3 4 5 6 
#
# 1 96.4645 46.8139 18.9937 2.1627 -2.8850 -25.2416
# 2 46.8139 159.2663 12.6385 -28.3503 8.1292 -21.1966
# 3 18.9937 12.6385 68.3510 -13.5921 -7.4601 -10.6912
# 4 2.1627 -28.3503 -13.5921 34.2520 -10.6065 11.6536
# 5 -2.8850 8.1292 -7.4601 -10.6065 22.9310 3.4543
# 6 -25.2416 -21.1966 -10.6912 11.6536 3.4543 51.5569
#
#
#
# Elastic Compliance Matrix: (Units=1/GPa)
#
#
# Indices 1 2 3 4 5 6 
#
# 1 0.015812 -0.005001 -0.004895 -0.010811 -0.003943 0.007378
# 2 -0.005001 0.009104 0.001477 0.008829 0.000775 -0.000447
# 3 -0.004895 0.001477 0.019390 0.013340 0.011574 -0.001560
# 4 -0.010811 0.008829 0.013340 0.055529 0.027537 -0.013293
# 5 -0.003943 0.000775 0.011574 0.027537 0.060773 -0.009508
# 6 0.007378 -0.000447 -0.001560 -0.013293 -0.009508 0.026143
#
#
# Mechanical properties :
#
#
# Convention : Reuss Voigt Hill
#
# Bulk Modulus (GPa) = 36.40686 53.44156 44.92421
# Shear Modulus (GPa) = 23.50217 38.12369 30.81293
#
# Velocity S-wave (km/s) = 3.13635 3.99456 3.59118
# Velocity P-wave (km/s) = 5.32480 6.60628 5.99985
#
# Compressibility (1/GPa) = 0.02746735
#
# Stress axis : x y z
#
# Youngs Moduli (GPa) = 63.24187 109.84091 51.57340
#
# Poissons Ratio (x) = 0.54927 0.25248
# Poissons Ratio (y) = 0.31624 -0.07615
# Poissons Ratio (z) = 0.30960 -0.16219
#
# Static dielectric constant tensor:
#      x y z
#    x 2.175570 0.005050 -0.016410 
#    y 0.005050 1.939830 0.018680 
#    z -0.016410 0.018680 1.910340 
# 
# From -- ./inp_files/47993.got.cif
#   From: 2010.05.17/outbox.cif.g08.bks.cpg/sg2_24_cif.got.tgz:47993.got - 2010.06.03 11:33:40.
