data_PCOD9025313
_publ_section_title
;
Structure prediction by ZEFSAII (Michael W. Deem and Ramdas Pophale) SiO2 
 PCOD9025313
Probable space group: P -1
;
_chemical_formula_sum "Si O2"
_cell_formula_units_Z 16
_cell_length_a 14.202561
_cell_length_b 7.822266
_cell_length_c 15.168861
_cell_angle_alpha 67.242038
_cell_angle_beta 27.507876
_cell_angle_gamma 71.882002
_cell_volume 715.703888
_symmetry_space_group_name_H-M "P -1"
_symmetry_group_IT_number 2
_symmetry_cell_setting 'triclinic'
loop_
_space_group_symop_operation_xyz
x,y,z
-x,-y,-z
loop_
_atom_site_type_symbol
_atom_site_label
_atom_site_fract_x
_atom_site_fract_y
_atom_site_fract_z
Si Si1 0.412017 0.813578 0.157424
Si Si2 0.460958 0.143320 0.277027
Si Si3 0.476425 0.518275 0.284633
Si Si4 0.863877 0.517233 0.196246
Si Si5 0.531466 0.736864 0.370086
Si Si6 0.116339 0.968474 0.501102
Si Si7 0.316868 0.629704 0.104753
Si Si8 0.992514 0.428151 0.289700
O O1 0.541074 0.650081 0.120841
O O2 0.316630 0.885179 0.311033
O O3 0.262405 0.717783 0.226530
O O4 0.500000 0.000000 0.000000
O O5 0.504527 0.307753 0.278318
O O6 0.511539 0.947175 0.315199
O O7 0.221638 0.125059 0.446121
O O8 0.595873 0.210253 0.066746
O O9 0.567460 0.609568 0.279390
O O10 0.233307 0.527760 0.499163
O O11 0.727595 0.696028 0.273691
O O12 0.683968 0.348698 0.392395
O O13 0.009152 0.514751 0.161587
O O14 0.000000 0.500000 0.000000
O O15 0.999011 0.795007 0.681244
O O16 0.000000 0.000000 0.500000
O O17 0.139617 0.510386 0.226711
O O18 0.500000 0.500000 0.000000
#
# Coordination Sequence:
#
# PCOD9025313 Si02
#       8
#     2   2   2   2   2   2   2   2
#     4  11  21  38  58  90 133 179 220 264 323 398
#     4  12  22  42  66  98 132 184 219 276 350 398
#     4  10  22  40  68  91 140 178 216 283 344 392
#     4  10  22  45  78  94 131 186 226 285 360 402
#     4  10  22  48  69 101 136 175 232 288 345 417
#     4  11  23  39  63  91 134 177 222 265 337 404
#     4  12  24  38  62  96 135 175 226 271 330 406
#     4  10  24  45  60  98 135 169 227 285 328 415
#
# _framework density 22.355615
#
# number of rings (size 3 to 8) (size 9 to 14) (size 15 to 20)
#    0.000    1.250    6.250    0.750    3.500    1.000 
#    4.500    6.250    0.000    0.000    0.000    0.000 
#    0.000    0.000    0.000    0.000    0.000    0.000 
#
# Total GULP energy -89273.368192 kJ/mol
# GULP energy per Si atom -5579.585512 kJ/mol
# Density = 2.230473 g / cm^3
# Si number density = 22.355615 Si / 1000 Ang^3
#
#
#
# Elastic Constant Matrix: (Units=GPa)
#
#
# Indices 1 2 3 4 5 6 
#
# 1 99.6271 24.3613 7.3666 -13.1891 4.0753 -3.8688
# 2 24.3613 104.0357 17.9359 -26.0152 11.8766 -5.4753
# 3 7.3666 17.9359 74.1348 -11.4179 18.1371 0.2799
# 4 -13.1891 -26.0152 -11.4179 29.5045 -3.3751 7.0883
# 5 4.0753 11.8766 18.1371 -3.3751 38.8715 -2.2941
# 6 -3.8688 -5.4753 0.2799 7.0883 -2.2941 44.5854
#
#
#
# Elastic Compliance Matrix: (Units=1/GPa)
#
#
# Indices 1 2 3 4 5 6 
#
# 1 0.010908 -0.001673 -0.000105 0.003278 -0.000287 0.000206
# 2 -0.001673 0.012952 -0.000778 0.010150 -0.002555 -0.000295
# 3 -0.000105 -0.000778 0.016169 0.005059 -0.006937 -0.001367
# 4 0.003278 0.010150 0.005059 0.047512 -0.002044 -0.006160
# 5 -0.000287 -0.002555 -0.006937 -0.002044 0.029688 0.001557
# 6 0.000206 -0.000295 -0.001367 -0.006160 0.001557 0.023479
#
#
# Mechanical properties :
#
#
# Convention : Reuss Voigt Hill
#
# Bulk Modulus (GPa) = 28.63844 41.90280 35.27062
# Shear Modulus (GPa) = 31.75439 37.80121 34.77780
#
# Velocity S-wave (km/s) = 3.77294 4.11652 3.94847
# Velocity P-wave (km/s) = 5.64077 6.43263 6.04967
#
# Compressibility (1/GPa) = 0.03491811
#
# Stress axis : x y z
#
# Youngs Moduli (GPa) = 91.67637 77.20673 61.84620
#
# Poissons Ratio (x) = 0.12915 0.00649
# Poissons Ratio (y) = 0.15336 0.04811
# Poissons Ratio (z) = 0.00962 0.06006
#
# Static dielectric constant tensor:
#      x y z
#    x 1.883980 -0.051210 -0.037270 
#    y -0.051210 1.951570 0.023650 
#    z -0.037270 0.023650 1.909700 
# 
# From -- ./inp_files/529460.got.cif
#   From: 2010.05.17/outbox.cif.g08.bks.cpg/sg2_265_cif.got.tgz:529460.got - 2010.06.03 11:33:40.
