data_PCOD9025122
_publ_section_title
;
Structure prediction by ZEFSAII (Michael W. Deem and Ramdas Pophale) SiO2 
 PCOD9025122
Probable space group: P -1
;
_chemical_formula_sum "Si O2"
_cell_formula_units_Z 16
_cell_length_a 9.390949
_cell_length_b 16.165482
_cell_length_c 10.494132
_cell_angle_alpha 136.367744
_cell_angle_beta 129.861015
_cell_angle_gamma 82.078998
_cell_volume 664.946377
_symmetry_space_group_name_H-M "P -1"
_symmetry_group_IT_number 2
_symmetry_cell_setting 'triclinic'
loop_
_space_group_symop_operation_xyz
x,y,z
-x,-y,-z
loop_
_atom_site_type_symbol
_atom_site_label
_atom_site_fract_x
_atom_site_fract_y
_atom_site_fract_z
Si Si1 0.724190 0.758420 0.324995
Si Si2 0.943073 0.677644 0.894786
Si Si3 0.145504 0.390333 0.950131
Si Si4 0.609820 0.095945 0.299918
Si Si5 0.129715 0.943695 0.940372
Si Si6 0.936415 0.614418 0.553792
Si Si7 0.662987 0.996717 0.485032
Si Si8 0.709395 0.403028 0.951569
O O1 0.710219 0.652212 0.092666
O O2 0.991303 0.875552 0.652779
O O3 0.628528 0.843416 0.309388
O O4 0.564744 0.686425 0.279549
O O5 0.816075 0.606306 0.608645
O O6 0.167635 0.674111 0.028323
O O7 0.810371 0.600345 0.863911
O O8 0.069369 0.856318 0.167689
O O9 0.216421 0.538262 0.083000
O O10 0.867612 0.254878 0.613027
O O11 0.634883 0.012868 0.338004
O O12 0.500000 0.000000 0.000000
O O13 0.397071 0.088840 0.229927
O O14 0.105254 0.799470 0.830050
O O15 0.000000 0.000000 0.000000
O O16 0.817914 0.543211 0.270081
O O17 0.000000 0.500000 0.500000
O O18 0.500000 0.000000 0.500000
#
# Coordination Sequence:
#
# PCOD9025122 Si02
#       8
#     2   2   2   2   2   2   2   2
#     4  12  24  42  71 102 136 183 226 289 338 412
#     4  10  22  40  67  94 132 175 229 276 336 404
#     4  11  24  42  65 101 138 177 225 276 354 403
#     4  11  23  44  66 100 138 182 221 285 346 406
#     4  12  25  43  72 104 140 177 240 286 339 410
#     4  10  22  42  69 101 134 184 229 283 340 421
#     4  11  22  41  71  98 133 180 236 275 339 412
#     4  11  22  43  70  92 134 180 228 271 337 417
#
# _framework density 24.062090000000001
#
# number of rings (size 3 to 8) (size 9 to 14) (size 15 to 20)
#    0.000    1.000    3.750    3.000    3.500    2.000 
#    2.250    0.625    0.000    0.000    0.000    0.000 
#    0.000    0.000    0.000    0.000    0.000    0.000 
#
# Total GULP energy -89268.840780 kJ/mol
# GULP energy per Si atom -5579.302549 kJ/mol
# Density = 2.400732 g / cm^3
# Si number density = 24.062090 Si / 1000 Ang^3
#
#
#
# Elastic Constant Matrix: (Units=GPa)
#
#
# Indices 1 2 3 4 5 6 
#
# 1 128.7588 45.3292 27.2676 7.7982 -8.0092 15.0748
# 2 45.3292 77.1156 19.7715 14.8558 -1.1062 11.2311
# 3 27.2676 19.7715 59.5445 8.8917 -1.4264 11.4065
# 4 7.7982 14.8558 8.8917 28.8987 10.6742 -11.3133
# 5 -8.0092 -1.1062 -1.4264 10.6742 51.3795 -4.7115
# 6 15.0748 11.2311 11.4065 -11.3133 -4.7115 55.2415
#
#
#
# Elastic Compliance Matrix: (Units=1/GPa)
#
#
# Indices 1 2 3 4 5 6 
#
# 1 0.010408 -0.005172 -0.002754 -0.000266 0.001384 -0.001156
# 2 -0.005172 0.018931 -0.001648 -0.009855 0.001235 -0.004010
# 3 -0.002754 -0.001648 0.020512 -0.006884 0.001126 -0.004463
# 4 -0.000266 -0.009855 -0.006884 0.050560 -0.009755 0.013020
# 5 0.001384 0.001235 0.001126 -0.009755 0.021670 -0.001011
# 6 -0.001156 -0.004010 -0.004463 0.013020 -0.001011 0.022735
#
#
# Mechanical properties :
#
#
# Convention : Reuss Voigt Hill
#
# Bulk Modulus (GPa) = 32.57113 50.01729 41.29421
# Shear Modulus (GPa) = 28.70266 38.64063 33.67164
#
# Velocity S-wave (km/s) = 3.45752 4.01168 3.74487
# Velocity P-wave (km/s) = 5.43185 6.50308 5.99145
#
# Compressibility (1/GPa) = 0.03070204
#
# Stress axis : x y z
#
# Youngs Moduli (GPa) = 96.07744 52.82458 48.75078
#
# Poissons Ratio (x) = 0.27323 0.13428
# Poissons Ratio (y) = 0.49694 0.08033
# Poissons Ratio (z) = 0.26464 0.08705
#
# Static dielectric constant tensor:
#      x y z
#    x 1.946460 -0.012160 -0.011110 
#    y -0.012160 1.951920 0.001480 
#    z -0.011110 0.001480 1.968580 
# 
# From -- ./inp_files/403423.got.cif
#   From: 2010.05.17/outbox.cif.g08.bks.cpg/sg2_202_cif.got.tgz:403423.got - 2010.06.03 11:33:40.
