data_PCOD9025324
_publ_section_title
;
Structure prediction by ZEFSAII (Michael W. Deem and Ramdas Pophale) SiO2 
 PCOD9025324
Probable space group: P -1
;
_chemical_formula_sum "Si O2"
_cell_formula_units_Z 16
_cell_length_a 7.645521
_cell_length_b 11.598913
_cell_length_c 20.058752
_cell_angle_alpha 48.600311
_cell_angle_beta 80.143437
_cell_angle_gamma 121.897483
_cell_volume 652.427723
_symmetry_space_group_name_H-M "P -1"
_symmetry_group_IT_number 2
_symmetry_cell_setting 'triclinic'
loop_
_space_group_symop_operation_xyz
x,y,z
-x,-y,-z
loop_
_atom_site_type_symbol
_atom_site_label
_atom_site_fract_x
_atom_site_fract_y
_atom_site_fract_z
Si Si1 0.321141 0.174543 0.517509
Si Si2 0.480959 0.664698 0.951747
Si Si3 0.577604 0.256537 0.333634
Si Si4 0.228525 0.039875 0.309089
Si Si5 0.829800 0.078827 0.003545
Si Si6 0.769242 0.819041 0.234158
Si Si7 0.727080 0.346524 0.905722
Si Si8 0.699124 0.398767 0.541342
O O1 0.361367 0.114480 0.469247
O O2 0.489757 0.469892 0.377490
O O3 0.546082 0.271457 0.526032
O O4 0.927854 0.916015 0.670868
O O5 0.460768 0.719564 0.858129
O O6 0.500000 0.500000 0.000000
O O7 0.212185 0.518255 0.081556
O O8 0.865658 0.983626 0.839356
O O9 0.914469 0.395681 0.260216
O O10 0.343457 0.038623 0.368295
O O11 0.781318 0.570532 0.180468
O O12 0.906588 0.716045 0.415387
O O13 0.828685 0.962560 0.109050
O O14 0.592617 0.839162 0.049556
O O15 0.650342 0.110051 0.021358
O O16 0.615921 0.821003 0.299697
O O17 0.000000 0.500000 0.500000
#
# Coordination Sequence:
#
# PCOD9025324 Si02
#       8
#     2   2   2   2   2   2   2   2
#     4  11  22  45  66  92 129 174 215 270 312 393
#     4  12  24  39  64  93 136 168 210 273 322 387
#     4  10  22  40  68  93 132 167 209 271 331 374
#     4  11  23  43  62  97 130 166 217 267 325 377
#     4   9  21  40  65  98 124 172 215 268 324 383
#     4  11  22  39  65  95 126 168 227 260 320 384
#     4   9  23  41  61  97 131 173 213 263 326 384
#     4  11  25  40  70  93 123 179 220 261 319 386
#
# _framework density 24.523790000000002
#
# number of rings (size 3 to 8) (size 9 to 14) (size 15 to 20)
#    0.750    0.750    2.500    2.625    3.500    4.500 
#    0.000    0.625    0.000    0.000    0.000    0.000 
#    0.000    0.000    0.000    0.000    0.000    0.000 
#
# Total GULP energy -89423.612558 kJ/mol
# GULP energy per Si atom -5588.975785 kJ/mol
# Density = 2.446797 g / cm^3
# Si number density = 24.523790 Si / 1000 Ang^3
#
#
#
# Elastic Constant Matrix: (Units=GPa)
#
#
# Indices 1 2 3 4 5 6 
#
# 1 75.3465 25.3594 30.4422 27.1555 4.1077 8.5299
# 2 25.3594 119.2769 26.7086 37.7373 9.0585 4.2785
# 3 30.4422 26.7086 53.3699 24.6914 22.7625 -3.2731
# 4 27.1555 37.7373 24.6914 44.1246 5.6308 -8.0866
# 5 4.1077 9.0585 22.7625 5.6308 27.9467 6.9124
# 6 8.5299 4.2785 -3.2731 -8.0866 6.9124 44.0579
#
#
#
# Elastic Compliance Matrix: (Units=1/GPa)
#
#
# Indices 1 2 3 4 5 6 
#
# 1 0.023017 0.001004 -0.015161 -0.009949 0.013006 -0.009547
# 2 0.001004 0.012042 -0.002413 -0.010334 0.000882 -0.003578
# 3 -0.015161 -0.002413 0.050353 -0.009777 -0.038803 0.011204
# 4 -0.009949 -0.010334 -0.009777 0.044817 0.001213 0.010239
# 5 0.013006 0.000882 -0.038803 0.001213 0.068922 -0.016077
# 6 -0.009547 -0.003578 0.011204 0.010239 -0.016077 0.030127
#
#
# Mechanical properties :
#
#
# Convention : Reuss Voigt Hill
#
# Bulk Modulus (GPa) = 19.13120 45.89039 32.51079
# Shear Modulus (GPa) = 17.86717 34.25804 26.06261
#
# Velocity S-wave (km/s) = 2.70212 3.74161 3.26352
# Velocity P-wave (km/s) = 4.18967 6.11714 5.24274
#
# Compressibility (1/GPa) = 0.05227064
#
# Stress axis : x y z
#
# Youngs Moduli (GPa) = 43.44573 83.04403 19.85992
#
# Poissons Ratio (x) = -0.08335 0.30109
# Poissons Ratio (y) = -0.04361 0.04793
# Poissons Ratio (z) = 0.65868 0.20041
#
# Static dielectric constant tensor:
#      x y z
#    x 2.008240 -0.034500 -0.015290 
#    y -0.034500 1.958140 -0.010350 
#    z -0.015290 -0.010350 1.992150 
# 
# From -- ./inp_files/559827.got.cif
#   From: 2010.05.17/outbox.cif.g08.bks.cpg/sg2_280_cif.got.tgz:559827.got - 2010.06.03 11:33:40.
