data_PCOD9025336
_publ_section_title
;
Structure prediction by ZEFSAII (Michael W. Deem and Ramdas Pophale) SiO2 
 PCOD9025336
Probable space group: P -1
;
_chemical_formula_sum "Si O2"
_cell_formula_units_Z 15
_cell_length_a 7.561122
_cell_length_b 14.559066
_cell_length_c 6.520240
_cell_angle_alpha 95.621385
_cell_angle_beta 120.134935
_cell_angle_gamma 70.854560
_cell_volume 584.465319
_symmetry_space_group_name_H-M "P -1"
_symmetry_group_IT_number 2
_symmetry_cell_setting 'triclinic'
loop_
_space_group_symop_operation_xyz
x,y,z
-x,-y,-z
loop_
_atom_site_type_symbol
_atom_site_label
_atom_site_fract_x
_atom_site_fract_y
_atom_site_fract_z
Si Si1 0.508726 0.370936 0.921081
Si Si2 0.661588 0.452224 0.406086
Si Si3 0.942511 0.153526 0.402703
Si Si4 0.844109 0.838724 0.081538
Si Si5 0.002312 0.678342 0.829541
Si Si6 0.449567 0.837617 0.083975
Si Si7 0.000000 0.500000 0.500000
Si Si8 0.736391 0.997892 0.702088
O O1 0.555346 0.389615 0.189142
O O2 0.455287 0.274723 0.825960
O O3 0.743761 0.359671 0.959123
O O4 0.323593 0.462398 0.734520
O O5 0.500000 0.500000 0.500000
O O6 0.912692 0.423452 0.587257
O O7 0.000155 0.237044 0.321399
O O8 0.101133 0.048388 0.396542
O O9 0.707005 0.157702 0.196475
O O10 0.958214 0.175522 0.653280
O O11 0.858769 0.741199 0.942689
O O12 0.641216 0.872473 0.124478
O O13 0.819287 0.923269 0.922238
O O14 0.952254 0.587579 0.681532
O O15 0.307614 0.897314 0.198820
O O16 0.500000 0.000000 0.500000
#
# Coordination Sequence:
#
# PCOD9025336 Si02
#       8
#     2   2   2   2   2   2   1   2
#     4   9  22  43  59  91 130 159 220 275 317 405
#     4  10  22  42  64  93 129 171 218 274 334 397
#     4  10  23  44  64  92 135 167 222 275 325 402
#     4  11  24  42  65  97 131 172 223 274 333 405
#     4   9  22  43  61  94 129 168 217 277 330 395
#     4  11  23  42  69  95 129 177 219 273 342 390
#     4  10  22  40  68  94 134 174 220 276 340 396
#     4  11  23  44  64  94 137 171 216 281 328 397
#
# _framework density 25.664483000000001
#
# number of rings (size 3 to 8) (size 9 to 14) (size 15 to 20)
#    0.000    1.867    1.333    0.800    3.733    3.733 
#    7.200    2.667    0.000    0.000    0.000    0.000 
#    0.000    0.000    0.000    0.000    0.000    0.000 
#
# Total GULP energy -83716.891033 kJ/mol
# GULP energy per Si atom -5581.126069 kJ/mol
# Density = 2.560607 g / cm^3
# Si number density = 25.664483 Si / 1000 Ang^3
#
#
#
# Elastic Constant Matrix: (Units=GPa)
#
#
# Indices 1 2 3 4 5 6 
#
# 1 78.6079 11.3214 15.4797 10.9244 -7.2461 -9.0478
# 2 11.3214 134.5285 43.6055 32.3454 -21.3636 -14.3140
# 3 15.4797 43.6055 108.1913 13.9440 7.6908 3.7053
# 4 10.9244 32.3454 13.9440 44.7894 -7.4964 1.2448
# 5 -7.2461 -21.3636 7.6908 -7.4964 30.9055 5.4063
# 6 -9.0478 -14.3140 3.7053 1.2448 5.4063 31.5970
#
#
#
# Elastic Compliance Matrix: (Units=1/GPa)
#
#
# Indices 1 2 3 4 5 6 
#
# 1 0.014331 0.001471 -0.002620 -0.003298 0.003420 0.004622
# 2 0.001471 0.012320 -0.005056 -0.006572 0.007552 0.005562
# 3 -0.002620 -0.005056 0.012323 -0.000582 -0.006738 -0.003310
# 4 -0.003298 -0.006572 -0.000582 0.028668 0.002736 -0.005451
# 5 0.003420 0.007552 -0.006738 0.002736 0.041059 -0.001942
# 6 0.004622 0.005562 -0.003310 -0.005451 -0.001942 0.036427
#
#
# Mechanical properties :
#
#
# Convention : Reuss Voigt Hill
#
# Bulk Modulus (GPa) = 37.64483 51.34899 44.49691
# Shear Modulus (GPa) = 30.04961 38.18646 34.11804
#
# Velocity S-wave (km/s) = 3.42550 3.86153 3.65003
# Velocity P-wave (km/s) = 5.50866 6.31927 5.92783
#
# Compressibility (1/GPa) = 0.02656407
#
# Stress axis : x y z
#
# Youngs Moduli (GPa) = 69.77873 81.17072 81.15023
#
# Poissons Ratio (x) = -0.11940 0.21259
# Poissons Ratio (y) = -0.10265 0.41030
# Poissons Ratio (z) = 0.18280 0.41041
#
# Static dielectric constant tensor:
#      x y z
#    x 3.530000 -0.495170 1.066040 
#    y -0.495170 2.281250 -0.413470 
#    z 1.066040 -0.413470 2.802090 
# 
# From -- ./inp_files/34441.got.cif
#   From: 2010.05.17/outbox.cif.g08.bks.cpg/sg2_18_cif.got.tgz:34441.got - 2010.06.03 11:33:40.
