data_PCOD9025677
_publ_section_title
;
Structure prediction by ZEFSAII (Michael W. Deem and Ramdas Pophale) SiO2 
 PCOD9025677
Probable space group: P -1
;
_chemical_formula_sum "Si O2"
_cell_formula_units_Z 12
_cell_length_a 7.015546
_cell_length_b 12.469880
_cell_length_c 17.559259
_cell_angle_alpha 32.220854
_cell_angle_beta 35.295609
_cell_angle_gamma 31.051099
_cell_volume 398.447116
_symmetry_space_group_name_H-M "P -1"
_symmetry_group_IT_number 2
_symmetry_cell_setting 'triclinic'
loop_
_space_group_symop_operation_xyz
x,y,z
-x,-y,-z
loop_
_atom_site_type_symbol
_atom_site_label
_atom_site_fract_x
_atom_site_fract_y
_atom_site_fract_z
Si Si1 0.960851 0.911232 0.649709
Si Si2 0.865856 0.741936 0.578441
Si Si3 0.222769 0.651862 0.225512
Si Si4 0.580855 0.553820 0.304727
Si Si5 0.534512 0.013764 0.094420
Si Si6 0.667139 0.362907 0.106649
O O1 0.818938 0.994796 0.424912
O O2 0.578941 0.987700 0.778324
O O3 0.193276 0.624241 0.734431
O O4 0.000000 0.000000 0.500000
O O5 0.908868 0.539510 0.629664
O O6 0.562917 0.770953 0.724816
O O7 0.280816 0.609613 0.568997
O O8 0.174933 0.680448 0.317133
O O9 0.510510 0.547215 0.117831
O O10 0.169433 0.911704 0.072309
O O11 0.675002 0.749606 0.178905
O O12 0.126338 0.191777 0.076468
O O13 0.500000 0.500000 0.000000
#
# Coordination Sequence:
#
# PCOD9025677 Si02
#       6
#     2   2   2   2   2   2
#     4  10  23  43  68  93 136 180 213 269 328 390
#     4   9  23  41  68  92 134 174 220 261 332 385
#     4  10  23  41  70  91 133 172 215 274 332 379
#     4  11  23  44  66 100 134 170 221 274 326 391
#     4  12  24  41  71  99 131 174 221 271 330 390
#     4  10  22  40  70  96 129 172 222 266 335 393
#
# _framework density 30.116921000000001
#
# number of rings (size 3 to 8) (size 9 to 14) (size 15 to 20)
#    1.000    0.667    1.667    2.000    4.667    6.000 
#    3.000    3.333    0.000    0.000    0.000    0.000 
#    0.000    0.000    0.000    0.000    0.000    0.000 
#
# Total GULP energy -66802.779297 kJ/mol
# GULP energy per Si atom -5566.898275 kJ/mol
# Density = 3.004837 g / cm^3
# Si number density = 30.116921 Si / 1000 Ang^3
#
#
#
# Elastic Constant Matrix: (Units=GPa)
#
#
# Indices 1 2 3 4 5 6 
#
# 1 232.5821 11.9384 105.7509 -21.1602 -10.6151 36.7623
# 2 11.9384 125.0330 51.0809 8.3692 -18.2485 23.9608
# 3 105.7509 51.0809 219.9571 -10.0583 -12.6144 25.0266
# 4 -21.1602 8.3692 -10.0583 65.4977 17.4341 -20.8863
# 5 -10.6151 -18.2485 -12.6144 17.4341 82.9802 -4.2031
# 6 36.7623 23.9608 25.0266 -20.8863 -4.2031 57.5915
#
#
#
# Elastic Compliance Matrix: (Units=1/GPa)
#
#
# Indices 1 2 3 4 5 6 
#
# 1 0.006027 0.001172 -0.002794 0.000316 0.000387 -0.002978
# 2 0.001172 0.010504 -0.002430 -0.003691 0.002602 -0.005211
# 3 -0.002794 -0.002430 0.006458 0.000446 0.000004 0.000151
# 4 0.000316 -0.003691 0.000446 0.019616 -0.004423 0.007932
# 5 0.000387 0.002602 0.000004 -0.004423 0.013504 -0.001950
# 6 -0.002978 -0.005211 0.000151 0.007932 -0.001950 0.024101
#
#
# Mechanical properties :
#
#
# Convention : Reuss Voigt Hill
#
# Bulk Modulus (GPa) = 67.18171 101.67916 84.43043
# Shear Modulus (GPa) = 53.60449 68.46737 61.03593
#
# Velocity S-wave (km/s) = 4.22344 4.77318 4.50670
# Velocity P-wave (km/s) = 6.79254 8.01326 7.42802
#
# Compressibility (1/GPa) = 0.01488500
#
# Stress axis : x y z
#
# Youngs Moduli (GPa) = 165.91912 95.20135 154.85722
#
# Poissons Ratio (x) = -0.11159 0.43274
# Poissons Ratio (y) = -0.19448 0.37623
# Poissons Ratio (z) = 0.46365 0.23129
#
# Static dielectric constant tensor:
#      x y z
#    x 1.700610 0.511720 -0.130280 
#    y 0.511720 1.977230 0.037240 
#    z -0.130280 0.037240 2.339480 
# 
# From -- ./inp_files/590215.got.cif
#   From: 2010.05.17/outbox.cif.g08.bks.cpg/sg2_296_cif.got.tgz:590215.got - 2010.06.03 11:33:40.
