data_PCOD9025835
_publ_section_title
;
Structure prediction by ZEFSAII (Michael W. Deem and Ramdas Pophale) SiO2 
 PCOD9025835
Probable space group: P -1
;
_chemical_formula_sum "Si O2"
_cell_formula_units_Z 14
_cell_length_a 10.315179
_cell_length_b 11.170583
_cell_length_c 12.183965
_cell_angle_alpha 123.815770
_cell_angle_beta 38.535905
_cell_angle_gamma 139.789604
_cell_volume 561.750432
_symmetry_space_group_name_H-M "P -1"
_symmetry_group_IT_number 2
_symmetry_cell_setting 'triclinic'
loop_
_space_group_symop_operation_xyz
x,y,z
-x,-y,-z
loop_
_atom_site_type_symbol
_atom_site_label
_atom_site_fract_x
_atom_site_fract_y
_atom_site_fract_z
Si Si1 0.196371 0.336786 0.074836
Si Si2 0.199081 0.925637 0.146737
Si Si3 0.507267 0.659911 0.299528
Si Si4 0.634759 0.711323 0.492513
Si Si5 0.860026 0.773225 0.707760
Si Si6 0.595914 0.100287 0.606236
Si Si7 0.228359 0.772228 0.840283
O O1 0.065997 0.220736 0.211160
O O2 0.012482 0.378672 0.161314
O O3 0.500000 0.500000 0.000000
O O4 0.238676 0.244431 0.900615
O O5 0.957602 0.830929 0.347531
O O6 0.232239 0.105505 0.180929
O O7 0.104354 0.773997 0.036455
O O8 0.500000 0.000000 0.000000
O O9 0.584359 0.732893 0.408964
O O10 0.358079 0.441148 0.291439
O O11 0.338328 0.705520 0.368777
O O12 0.500000 0.500000 0.500000
O O13 0.459527 0.753877 0.694667
O O14 0.136247 0.859615 0.508208
O O15 0.500000 0.000000 0.500000
O O16 0.373558 0.967097 0.777302
#
# Coordination Sequence:
#
# PCOD9025835 Si02
#       7
#     2   2   2   2   2   2   2
#     4  10  22  40  72 111 147 178 233 302 378 436
#     4  12  29  50  74 105 147 205 254 301 361 436
#     4  11  23  42  70 108 147 183 235 305 370 440
#     4  12  28  48  75 105 145 201 256 302 363 433
#     4  11  23  43  70 108 149 183 241 300 369 443
#     4  12  21  39  72 109 145 179 233 299 379 437
#     4  12  25  46  79 105 149 193 243 304 372 440
#
# _framework density 24.922101000000001
#
# number of rings (size 3 to 8) (size 9 to 14) (size 15 to 20)
#    0.000    0.571    5.714    1.286    2.000    6.857 
#    0.000    0.000    0.000    0.000    0.000    0.000 
#    0.000    0.000    0.000    0.000    0.000    0.000 
#
# Total GULP energy -78196.457164 kJ/mol
# GULP energy per Si atom -5585.461226 kJ/mol
# Density = 2.486538 g / cm^3
# Si number density = 24.922101 Si / 1000 Ang^3
#
#
#
# Elastic Constant Matrix: (Units=GPa)
#
#
# Indices 1 2 3 4 5 6 
#
# 1 75.0682 5.6566 26.0570 1.1108 -30.4349 8.0563
# 2 5.6566 88.3578 27.0185 1.4730 -22.4373 -10.0901
# 3 26.0570 27.0185 126.6862 -0.6785 -37.1808 1.9575
# 4 1.1108 1.4730 -0.6785 38.9332 2.5839 -9.5278
# 5 -30.4349 -22.4373 -37.1808 2.5839 53.4865 2.1901
# 6 8.0563 -10.0901 1.9575 -9.5278 2.1901 28.0743
#
#
#
# Elastic Compliance Matrix: (Units=1/GPa)
#
#
# Indices 1 2 3 4 5 6 
#
# 1 0.018746 0.001106 -0.000768 -0.002986 0.011020 -0.006801
# 2 0.001106 0.013516 -0.001736 0.000162 0.004907 0.004333
# 3 -0.000768 -0.001736 0.010218 -0.000571 0.006038 -0.001781
# 4 -0.002986 0.000162 -0.000571 0.028702 -0.003865 0.010997
# 5 0.011020 0.004907 0.006038 -0.003865 0.031639 -0.005599
# 6 -0.006801 0.004333 -0.001781 0.010997 -0.005599 0.043422
#
#
# Mechanical properties :
#
#
# Convention : Reuss Voigt Hill
#
# Bulk Modulus (GPa) = 25.19880 45.28628 35.24254
# Shear Modulus (GPa) = 30.81324 39.52414 35.16869
#
# Velocity S-wave (km/s) = 3.52004 3.98667 3.76060
# Velocity P-wave (km/s) = 5.16274 6.27709 5.74699
#
# Compressibility (1/GPa) = 0.03968443
#
# Stress axis : x y z
#
# Youngs Moduli (GPa) = 53.34352 73.98676 97.86260
#
# Poissons Ratio (x) = -0.08185 0.07521
# Poissons Ratio (y) = -0.05901 0.16988
# Poissons Ratio (z) = 0.04099 0.12844
#
# Static dielectric constant tensor:
#      x y z
#    x 2.067260 0.047860 -0.036140 
#    y 0.047860 2.015830 -0.030420 
#    z -0.036140 -0.030420 2.074740 
# 
# From -- ./inp_files/418763.got.cif
#   From: 2010.05.17/outbox.cif.g08.bks.cpg/sg2_210_cif.got.tgz:418763.got - 2010.06.03 11:33:40.
