data_PCOD9025657
_publ_section_title
;
Structure prediction by ZEFSAII (Michael W. Deem and Ramdas Pophale) SiO2 
 PCOD9025657
Probable space group: P -1
;
_chemical_formula_sum "Si O2"
_cell_formula_units_Z 16
_cell_length_a 5.449559
_cell_length_b 17.258329
_cell_length_c 24.580482
_cell_angle_alpha 17.688909
_cell_angle_beta 92.314632
_cell_angle_gamma 85.338646
_cell_volume 644.967056
_symmetry_space_group_name_H-M "P -1"
_symmetry_group_IT_number 2
_symmetry_cell_setting 'triclinic'
loop_
_space_group_symop_operation_xyz
x,y,z
-x,-y,-z
loop_
_atom_site_type_symbol
_atom_site_label
_atom_site_fract_x
_atom_site_fract_y
_atom_site_fract_z
Si Si1 0.195466 0.468169 0.573189
Si Si2 0.657607 0.089999 0.684113
Si Si3 0.164126 0.044156 0.691215
Si Si4 0.484554 0.176474 0.992512
Si Si5 0.671387 0.279472 0.193565
Si Si6 0.789824 0.820782 0.680498
Si Si7 0.885315 0.449202 0.830793
Si Si8 0.523714 0.361769 0.381139
O O1 0.365303 0.662010 0.441539
O O2 0.000000 0.500000 0.500000
O O3 0.994920 0.634329 0.509150
O O4 0.374166 0.149907 0.797003
O O5 0.450780 0.951845 0.783371
O O6 0.584640 0.225897 0.531713
O O7 0.971314 0.904618 0.806952
O O8 0.193357 0.983840 0.668641
O O9 0.198069 0.260765 0.961936
O O10 0.428115 0.358323 0.814755
O O11 0.695453 0.281757 0.953930
O O12 0.450629 0.251478 0.249528
O O13 0.916763 0.324989 0.192559
O O14 0.500000 0.500000 0.000000
O O15 0.823003 0.719224 0.686919
O O16 0.695625 0.141607 0.483566
O O17 0.780259 0.546971 0.703502
#
# Coordination Sequence:
#
# PCOD9025657 Si02
#       8
#     2   2   2   2   2   2   2   2
#     4  10  25  46  70  94 132 177 220 273 335 392
#     4  10  22  40  70  94 125 175 214 269 325 397
#     4  10  22  43  64  98 126 172 217 260 337 380
#     4  10  25  42  62 101 134 170 229 272 326 383
#     4  12  25  43  68 102 134 176 223 274 319 402
#     4  12  23  42  69  95 137 180 219 266 343 383
#     4  10  25  40  63 100 137 170 219 277 327 390
#     4  10  23  41  70  96 139 167 227 269 332 402
#
# _framework density 24.807466999999999
#
# number of rings (size 3 to 8) (size 9 to 14) (size 15 to 20)
#    1.500    0.000    2.500    1.500    5.250    3.500 
#    2.250    1.250    0.000    0.000    0.000    0.000 
#    0.000    0.000    0.000    0.000    0.000    0.000 
#
# Total GULP energy -89335.406367 kJ/mol
# GULP energy per Si atom -5583.462898 kJ/mol
# Density = 2.475100 g / cm^3
# Si number density = 24.807467 Si / 1000 Ang^3
#
#
#
# Elastic Constant Matrix: (Units=GPa)
#
#
# Indices 1 2 3 4 5 6 
#
# 1 211.7406 35.4079 33.2009 0.7041 20.8456 13.8753
# 2 35.4079 98.6473 20.3226 -9.3478 7.8908 14.7994
# 3 33.2009 20.3226 91.1391 -13.9823 11.2951 -8.2227
# 4 0.7041 -9.3478 -13.9823 31.1710 -1.1607 -1.4375
# 5 20.8456 7.8908 11.2951 -1.1607 38.4661 -2.9973
# 6 13.8753 14.7994 -8.2227 -1.4375 -2.9973 44.5462
#
#
#
# Elastic Compliance Matrix: (Units=1/GPa)
#
#
# Indices 1 2 3 4 5 6 
#
# 1 0.005595 -0.001298 -0.001851 -0.001522 -0.002413 -0.001865
# 2 -0.001298 0.011954 -0.001995 0.002485 -0.001396 -0.003949
# 3 -0.001851 -0.001995 0.013556 0.005620 -0.002104 0.003781
# 4 -0.001522 0.002485 0.005620 0.035461 -0.000123 0.001822
# 5 -0.002413 -0.001396 -0.002104 -0.000123 0.028418 0.002735
# 6 -0.001865 -0.003949 0.003781 0.001822 0.002735 0.025282
#
#
# Mechanical properties :
#
#
# Convention : Reuss Voigt Hill
#
# Bulk Modulus (GPa) = 48.04042 64.37662 56.20852
# Shear Modulus (GPa) = 36.36559 43.67636 40.02097
#
# Velocity S-wave (km/s) = 3.83288 4.20052 4.02090
# Velocity P-wave (km/s) = 6.24462 7.03794 6.65312
#
# Compressibility (1/GPa) = 0.02081581
#
# Stress axis : x y z
#
# Youngs Moduli (GPa) = 178.73131 83.65706 73.77058
#
# Poissons Ratio (x) = 0.10861 0.13657
# Poissons Ratio (y) = 0.23204 0.14714
# Poissons Ratio (z) = 0.33089 0.16686
#
# Static dielectric constant tensor:
#      x y z
#    x 2.075830 -0.042240 -0.000360 
#    y -0.042240 1.965720 0.031020 
#    z -0.000360 0.031020 2.015030 
# 
# From -- ./inp_files/369792.got.cif
#   From: 2010.05.17/outbox.cif.g08.bks.cpg/sg2_185_cif.got.tgz:369792.got - 2010.06.03 11:33:40.
