data_PCOD9025189
_publ_section_title
;
Structure prediction by ZEFSAII (Michael W. Deem and Ramdas Pophale) SiO2 
 PCOD9025189
Probable space group: P -1
;
_chemical_formula_sum "Si O2"
_cell_formula_units_Z 15
_cell_length_a 6.560857
_cell_length_b 11.110772
_cell_length_c 11.312573
_cell_angle_alpha 100.303019
_cell_angle_beta 85.551184
_cell_angle_gamma 56.883576
_cell_volume 664.002053
_symmetry_space_group_name_H-M "P -1"
_symmetry_group_IT_number 2
_symmetry_cell_setting 'triclinic'
loop_
_space_group_symop_operation_xyz
x,y,z
-x,-y,-z
loop_
_atom_site_type_symbol
_atom_site_label
_atom_site_fract_x
_atom_site_fract_y
_atom_site_fract_z
Si Si1 0.838224 0.906674 0.199653
Si Si2 0.224332 0.578883 0.076841
Si Si3 0.862065 0.656076 0.885783
Si Si4 0.500000 0.000000 0.000000
Si Si5 0.321786 0.221945 0.628637
Si Si6 0.203767 0.612924 0.447952
Si Si7 0.789462 0.109787 0.435216
Si Si8 0.716182 0.494958 0.328376
O O1 0.662600 0.878689 0.283424
O O2 0.104640 0.745128 0.161657
O O3 0.719140 0.952465 0.084223
O O4 0.848052 0.030503 0.292199
O O5 0.207715 0.463378 0.138339
O O6 0.500000 0.500000 0.000000
O O7 0.038957 0.612768 0.983163
O O8 0.037817 0.639072 0.767217
O O9 0.625865 0.822961 0.937450
O O10 0.535671 0.141375 0.506799
O O11 0.334557 0.355581 0.700227
O O12 0.052826 0.300291 0.594093
O O13 0.224737 0.739052 0.532232
O O14 0.453056 0.515806 0.341215
O O15 0.221442 0.512174 0.536887
O O16 0.000000 0.000000 0.500000
#
# Coordination Sequence:
#
# PCOD9025189 Si02
#       8
#     2   2   2   1   2   2   2   2
#     4  11  23  46  70  97 138 184 226 288 344 407
#     4  10  23  44  69  96 123 174 246 276 335 403
#     4  10  22  44  68  94 130 180 219 295 338 396
#     4  10  26  46  66 100 136 178 240 278 358 398
#     4  11  22  40  71  99 132 189 225 283 346 416
#     4  10  23  41  61 109 140 172 231 277 350 422
#     4  11  24  40  65 106 137 176 226 275 353 416
#     4  10  22  40  67  97 141 178 226 286 346 411
#
# _framework density 22.590294
#
# number of rings (size 3 to 8) (size 9 to 14) (size 15 to 20)
#    0.000    1.600    2.667    0.800    3.733    0.000 
#    4.800    1.333    0.000    0.000    0.000    0.000 
#    0.000    0.000    0.000    0.000    0.000    0.000 
#
# Total GULP energy -83554.968501 kJ/mol
# GULP energy per Si atom -5570.331233 kJ/mol
# Density = 2.253888 g / cm^3
# Si number density = 22.590294 Si / 1000 Ang^3
#
#
#
# Elastic Constant Matrix: (Units=GPa)
#
#
# Indices 1 2 3 4 5 6 
#
# 1 81.7337 39.6295 30.2222 3.5568 -9.2415 -23.2550
# 2 39.6295 117.8216 24.6863 16.7750 -5.1003 -22.0324
# 3 30.2222 24.6863 61.3274 20.6908 -4.6108 -7.0311
# 4 3.5568 16.7750 20.6908 28.2383 -3.8220 0.0931
# 5 -9.2415 -5.1003 -4.6108 -3.8220 35.6972 0.1159
# 6 -23.2550 -22.0324 -7.0311 0.0931 0.1159 35.8473
#
#
#
# Elastic Compliance Matrix: (Units=1/GPa)
#
#
# Indices 1 2 3 4 5 6 
#
# 1 0.020433 -0.004085 -0.009602 0.007433 0.004233 0.008828
# 2 -0.004085 0.011611 0.000015 -0.006422 -0.000099 0.004506
# 3 -0.009602 0.000015 0.027235 -0.018886 -0.000985 -0.000826
# 4 0.007433 -0.006422 -0.018886 0.052711 0.004221 -0.002980
# 5 0.004233 -0.000099 -0.000985 0.004221 0.029412 0.002386
# 6 0.008828 0.004506 -0.000826 -0.002980 0.002386 0.036231
#
#
# Mechanical properties :
#
#
# Convention : Reuss Voigt Hill
#
# Bulk Modulus (GPa) = 31.31369 49.99540 40.65455
# Shear Modulus (GPa) = 23.18871 31.04620 27.11746
#
# Velocity S-wave (km/s) = 3.20736 3.71120 3.46844
# Velocity P-wave (km/s) = 5.25432 6.36737 5.83744
#
# Compressibility (1/GPa) = 0.03193491
#
# Stress axis : x y z
#
# Youngs Moduli (GPa) = 48.94006 86.12559 36.71767
#
# Poissons Ratio (x) = 0.35181 0.35258
# Poissons Ratio (y) = 0.19992 -0.00056
# Poissons Ratio (z) = 0.46994 -0.00132
#
# Static dielectric constant tensor:
#      x y z
#    x 1.834610 0.033850 -0.009250 
#    y 0.033850 1.851190 0.020390 
#    z -0.009250 0.020390 1.910970 
# 
# From -- ./inp_files/363154.got.cif
#   From: 2010.05.17/outbox.cif.g08.bks.cpg/sg2_182_cif.got.tgz:363154.got - 2010.06.03 11:33:40.
