data_PCOD9025790
_publ_section_title
;
Structure prediction by ZEFSAII (Michael W. Deem and Ramdas Pophale) SiO2 
 PCOD9025790
Probable space group: P -1
;
_chemical_formula_sum "Si O2"
_cell_formula_units_Z 16
_cell_length_a 5.799997
_cell_length_b 9.537113
_cell_length_c 18.189973
_cell_angle_alpha 50.683332
_cell_angle_beta 108.187022
_cell_angle_gamma 108.139686
_cell_volume 730.668025
_symmetry_space_group_name_H-M "P -1"
_symmetry_group_IT_number 2
_symmetry_cell_setting 'triclinic'
loop_
_space_group_symop_operation_xyz
x,y,z
-x,-y,-z
loop_
_atom_site_type_symbol
_atom_site_label
_atom_site_fract_x
_atom_site_fract_y
_atom_site_fract_z
Si Si1 0.491601 0.977915 0.919672
Si Si2 0.804782 0.739599 0.286463
Si Si3 0.744486 0.403421 0.044751
Si Si4 0.897921 0.253247 0.815663
Si Si5 0.244163 0.573871 0.794596
Si Si6 0.782263 0.601308 0.479905
Si Si7 0.432296 0.434545 0.287377
Si Si8 0.070338 0.208627 0.415600
O O1 0.365061 0.778101 0.950176
O O2 0.329964 0.114408 0.818303
O O3 0.768428 0.056130 0.894315
O O4 0.500000 0.000000 0.000000
O O5 0.778389 0.756089 0.365038
O O6 0.671574 0.535024 0.320166
O O7 0.064536 0.754243 0.265890
O O8 0.805575 0.369257 0.147476
O O9 0.500000 0.500000 0.000000
O O10 0.000000 0.500000 0.000000
O O11 0.737902 0.409578 0.769838
O O12 0.147839 0.354815 0.844633
O O13 0.519569 0.594025 0.783952
O O14 0.123577 0.704647 0.682870
O O15 0.500000 0.500000 0.500000
O O16 0.874931 0.679176 0.541451
O O17 0.000000 0.500000 0.500000
O O18 0.316370 0.251025 0.377014
O O19 0.000000 0.000000 0.500000
#
# Coordination Sequence:
#
# PCOD9025790 Si02
#       8
#     2   2   2   2   2   2   2   2
#     4  11  26  45  73 106 139 184 240 296 356 430
#     4  10  22  40  71  99 139 183 239 303 344 415
#     4  12  31  51  75 109 146 190 235 296 368 437
#     4   9  20  40  73 100 135 183 238 289 355 417
#     4  10  23  45  72  98 145 191 232 295 365 430
#     4  12  25  46  73 107 143 193 247 292 355 425
#     4   9  18  40  67  97 133 187 230 286 354 415
#     4  11  25  42  67 104 144 193 239 296 359 430
#
# _framework density 21.897767000000002
#
# number of rings (size 3 to 8) (size 9 to 14) (size 15 to 20)
#    0.000    1.500    1.250    3.000   14.000    1.000 
#    2.250    0.000    0.000    0.000    0.000    0.000 
#    0.000    0.000    0.000    0.000    0.000    0.000 
#
# Total GULP energy -89162.602168 kJ/mol
# GULP energy per Si atom -5572.662636 kJ/mol
# Density = 2.184793 g / cm^3
# Si number density = 21.897767 Si / 1000 Ang^3
#
#
#
# Elastic Constant Matrix: (Units=GPa)
#
#
# Indices 1 2 3 4 5 6 
#
# 1 126.8643 53.6315 62.7475 -2.1362 -36.5628 -4.5314
# 2 53.6315 125.9499 64.1566 3.0833 -22.1849 6.1224
# 3 62.7475 64.1566 135.7131 16.1873 -21.6980 -1.2453
# 4 -2.1362 3.0833 16.1873 48.5844 -1.8277 -16.9593
# 5 -36.5628 -22.1849 -21.6980 -1.8277 55.0503 0.1191
# 6 -4.5314 6.1224 -1.2453 -16.9593 0.1191 27.3823
#
#
#
# Elastic Compliance Matrix: (Units=1/GPa)
#
#
# Indices 1 2 3 4 5 6 
#
# 1 0.013154 -0.002699 -0.004287 0.004211 0.006087 0.005167
# 2 -0.002699 0.011516 -0.003932 -0.000779 0.001280 -0.003688
# 3 -0.004287 -0.003932 0.011747 -0.004600 0.000050 -0.002145
# 4 0.004211 -0.000779 -0.004600 0.028882 0.001589 0.018543
# 5 0.006087 0.001280 0.000050 0.001589 0.022793 0.001608
# 6 0.005167 -0.003688 -0.002145 0.018543 0.001608 0.049580
#
#
# Mechanical properties :
#
#
# Convention : Reuss Voigt Hill
#
# Bulk Modulus (GPa) = 68.59296 83.28872 75.94084
# Shear Modulus (GPa) = 30.41934 40.06952 35.24443
#
# Velocity S-wave (km/s) = 3.73118 4.28231 4.01621
# Velocity P-wave (km/s) = 7.06784 7.91004 7.50077
#
# Compressibility (1/GPa) = 0.01457876
#
# Stress axis : x y z
#
# Youngs Moduli (GPa) = 76.02299 86.83615 85.13163
#
# Poissons Ratio (x) = 0.23440 0.36498
# Poissons Ratio (y) = 0.20521 0.33476
# Poissons Ratio (z) = 0.32593 0.34146
#
# Static dielectric constant tensor:
#      x y z
#    x 2.081640 0.012790 0.053200 
#    y 0.012790 1.793910 0.031510 
#    z 0.053200 0.031510 1.883690 
# 
# From -- ./inp_files/547793.got.cif
#   From: 2010.05.17/outbox.cif.g08.bks.cpg/sg2_274_cif.got.tgz:547793.got - 2010.06.03 11:33:40.
