data_PCOD9025321
_publ_section_title
;
Structure prediction by ZEFSAII (Michael W. Deem and Ramdas Pophale) SiO2 
 PCOD9025321
Probable space group: P -1
;
_chemical_formula_sum "Si O2"
_cell_formula_units_Z 14
_cell_length_a 10.914450
_cell_length_b 8.445080
_cell_length_c 7.917062
_cell_angle_alpha 107.513470
_cell_angle_beta 102.969569
_cell_angle_gamma 111.446989
_cell_volume 599.983372
_symmetry_space_group_name_H-M "P -1"
_symmetry_group_IT_number 2
_symmetry_cell_setting 'triclinic'
loop_
_space_group_symop_operation_xyz
x,y,z
-x,-y,-z
loop_
_atom_site_type_symbol
_atom_site_label
_atom_site_fract_x
_atom_site_fract_y
_atom_site_fract_z
Si Si1 0.534666 0.251865 0.694092
Si Si2 0.231929 0.403860 0.774379
Si Si3 0.871668 0.851066 0.652995
Si Si4 0.048213 0.699623 0.491632
Si Si5 0.693564 0.666203 0.848923
Si Si6 0.493153 0.799530 0.951293
Si Si7 0.732028 0.096341 0.632981
O O1 0.583028 0.454619 0.698145
O O2 0.677804 0.227529 0.752458
O O3 0.415323 0.092177 0.495290
O O4 0.472409 0.229544 0.854586
O O5 0.227084 0.269607 0.574504
O O6 0.341092 0.615791 0.821716
O O7 0.069514 0.363504 0.712928
O O8 0.265975 0.354507 0.952969
O O9 0.819632 0.747127 0.780633
O O10 0.017088 0.846567 0.641908
O O11 0.847236 0.033439 0.713659
O O12 0.203058 0.800966 0.492249
O O13 0.000000 0.500000 0.500000
O O14 0.610096 0.787633 0.865213
O O15 0.500000 0.000000 0.000000
#
# Coordination Sequence:
#
# PCOD9025321 Si02
#       7
#     2   2   2   2   2   2   2
#     4  10  23  36  65  94 129 166 212 267 319 372
#     4   9  23  41  62  93 127 170 210 257 323 370
#     4  10  22  40  68  93 125 172 210 258 320 376
#     4  10  23  42  64  91 132 172 213 259 318 382
#     4  11  21  43  64  95 132 163 213 262 325 374
#     4  11  22  37  61  94 132 164 213 269 314 374
#     4  11  21  40  63  98 127 166 218 264 311 382
#
# _framework density 23.333981000000001
#
# number of rings (size 3 to 8) (size 9 to 14) (size 15 to 20)
#    0.857    0.857    0.000    5.571    2.000    3.429 
#    0.000    7.143    0.000    0.000    0.000    0.000 
#    0.000    0.000    0.000    0.000    0.000    0.000 
#
# Total GULP energy -78117.499617 kJ/mol
# GULP energy per Si atom -5579.821401 kJ/mol
# Density = 2.328087 g / cm^3
# Si number density = 23.333981 Si / 1000 Ang^3
#
#
#
# Elastic Constant Matrix: (Units=GPa)
#
#
# Indices 1 2 3 4 5 6 
#
# 1 80.2082 31.6512 27.0177 3.2069 -15.2378 -0.1045
# 2 31.6512 88.9874 16.0505 -14.4581 -1.7716 -12.2877
# 3 27.0177 16.0505 47.4916 -14.2314 -16.1715 3.2794
# 4 3.2069 -14.4581 -14.2314 26.7663 0.7305 -12.2067
# 5 -15.2378 -1.7716 -16.1715 0.7305 27.9381 -4.3156
# 6 -0.1045 -12.2877 3.2794 -12.2067 -4.3156 27.0675
#
#
#
# Elastic Compliance Matrix: (Units=1/GPa)
#
#
# Indices 1 2 3 4 5 6 
#
# 1 0.022845 -0.010839 -0.014371 -0.022092 0.002066 -0.012724
# 2 -0.010839 0.020892 0.005430 0.024577 0.001008 0.020029
# 3 -0.014371 0.005430 0.042973 0.034099 0.018898 0.015594
# 4 -0.022092 0.024577 0.034099 0.094734 0.014806 0.052024
# 5 0.002066 0.001008 0.018898 0.014806 0.049505 0.012746
# 6 -0.012724 0.020029 0.015594 0.052024 0.012746 0.069592
#
#
# Mechanical properties :
#
#
# Convention : Reuss Voigt Hill
#
# Bulk Modulus (GPa) = 21.20844 40.68067 30.94456
# Shear Modulus (GPa) = 14.05220 25.81890 19.93555
#
# Velocity S-wave (km/s) = 2.45668 3.33001 2.92611
# Velocity P-wave (km/s) = 4.14196 5.67954 4.97057
#
# Compressibility (1/GPa) = 0.04715103
#
# Stress axis : x y z
#
# Youngs Moduli (GPa) = 43.77401 47.86493 23.27045
#
# Poissons Ratio (x) = 0.51879 0.33442
# Poissons Ratio (y) = 0.47445 -0.12636
# Poissons Ratio (z) = 0.62908 -0.25992
#
# Static dielectric constant tensor:
#      x y z
#    x 1.915970 -0.036380 0.027240 
#    y -0.036380 1.899350 0.017950 
#    z 0.027240 0.017950 1.881560 
# 
# From -- ./inp_files/235231.got.cif
#   From: 2010.05.17/outbox.cif.g08.bks.cpg/sg2_118_cif.got.tgz:235231.got - 2010.06.03 11:33:40.
