data_PCOD9025185
_publ_section_title
;
Structure prediction by ZEFSAII (Michael W. Deem and Ramdas Pophale) SiO2 
 PCOD9025185
Probable space group: P -1
;
_chemical_formula_sum "Si O2"
_cell_formula_units_Z 16
_cell_length_a 10.976814
_cell_length_b 8.484482
_cell_length_c 9.318686
_cell_angle_alpha 89.613249
_cell_angle_beta 72.546096
_cell_angle_gamma 54.437343
_cell_volume 657.580005
_symmetry_space_group_name_H-M "P -1"
_symmetry_group_IT_number 2
_symmetry_cell_setting 'triclinic'
loop_
_space_group_symop_operation_xyz
x,y,z
-x,-y,-z
loop_
_atom_site_type_symbol
_atom_site_label
_atom_site_fract_x
_atom_site_fract_y
_atom_site_fract_z
Si Si1 0.133175 0.395255 0.828577
Si Si2 0.352498 0.411885 0.956474
Si Si3 0.715632 0.045378 0.161288
Si Si4 0.676184 0.297027 0.418251
Si Si5 0.206593 0.022429 0.396737
Si Si6 0.725097 0.211739 0.874694
Si Si7 0.884880 0.422366 0.463493
Si Si8 0.648082 0.779466 0.761413
O O1 0.080400 0.497450 0.690770
O O2 0.188683 0.172132 0.805744
O O3 0.277233 0.400797 0.837268
O O4 0.000000 0.500000 0.000000
O O5 0.258977 0.628901 0.061295
O O6 0.338046 0.282474 0.078399
O O7 0.537952 0.332220 0.888741
O O8 0.718011 0.207413 0.245619
O O9 0.530253 0.132819 0.222928
O O10 0.764932 0.053105 0.982655
O O11 0.500000 0.500000 0.500000
O O12 0.795561 0.337757 0.433572
O O13 0.700760 0.120363 0.502844
O O14 0.319311 0.062198 0.274546
O O15 0.046142 0.239319 0.481571
O O16 0.170986 0.906145 0.300102
O O17 0.769668 0.593990 0.616524
#
# Coordination Sequence:
#
# PCOD9025185 Si02
#       8
#     2   2   2   2   2   2   2   2
#     4  12  26  43  68  99 140 177 225 276 340 402
#     4  10  22  40  67  97 132 175 225 277 330 399
#     4  11  24  43  68 102 133 179 231 280 333 400
#     4  12  27  45  70 100 137 177 232 277 332 404
#     4  12  26  43  68  99 137 177 225 277 345 399
#     4  10  22  40  68  97 134 176 222 275 337 397
#     4  12  26  45  68  98 140 179 222 282 340 399
#     4  11  23  42  69 100 136 177 228 279 340 400
#
# _framework density 24.33164
#
# number of rings (size 3 to 8) (size 9 to 14) (size 15 to 20)
#    0.000    0.750    1.250    6.000    7.000    5.000 
#    0.000    2.500    0.000    0.000    0.000    0.000 
#    0.000    0.000    0.000    0.000    0.000    0.000 
#
# Total GULP energy -89687.350936 kJ/mol
# GULP energy per Si atom -5605.459433 kJ/mol
# Density = 2.427626 g / cm^3
# Si number density = 24.331640 Si / 1000 Ang^3
#
#
#
# Elastic Constant Matrix: (Units=GPa)
#
#
# Indices 1 2 3 4 5 6 
#
# 1 71.1927 5.9724 -10.4329 -6.4617 12.5797 11.0906
# 2 5.9724 128.3960 33.1771 -5.9743 -1.7631 -9.5295
# 3 -10.4329 33.1771 92.6891 1.9910 6.4408 -13.3041
# 4 -6.4617 -5.9743 1.9910 44.4572 11.0716 6.3144
# 5 12.5797 -1.7631 6.4408 11.0716 35.3413 6.9399
# 6 11.0906 -9.5295 -13.3041 6.3144 6.9399 31.6575
#
#
#
# Elastic Compliance Matrix: (Units=1/GPa)
#
#
# Indices 1 2 3 4 5 6 
#
# 1 0.016901 -0.001588 0.002156 0.004573 -0.006963 -0.004879
# 2 -0.001588 0.008850 -0.003221 0.000614 0.001107 0.001502
# 3 0.002156 -0.003221 0.013169 -0.000354 -0.004158 0.004791
# 4 0.004573 0.000614 -0.000354 0.026129 -0.008765 -0.004857
# 5 -0.006963 0.001107 -0.004158 -0.008765 0.035308 -0.004967
# 6 -0.004879 0.001502 0.004791 -0.004857 -0.004967 0.037820
#
#
# Mechanical properties :
#
#
# Convention : Reuss Voigt Hill
#
# Bulk Modulus (GPa) = 29.75007 38.85678 34.30342
# Shear Modulus (GPa) = 32.32321 39.86194 36.09257
#
# Velocity S-wave (km/s) = 3.64874 4.05195 3.85562
# Velocity P-wave (km/s) = 5.47763 6.15593 5.82666
#
# Compressibility (1/GPa) = 0.03361337
#
# Stress axis : x y z
#
# Youngs Moduli (GPa) = 59.16791 112.99704 75.93806
#
# Poissons Ratio (x) = 0.17946 -0.16373
# Poissons Ratio (y) = 0.09397 0.24460
# Poissons Ratio (z) = -0.12757 0.36396
#
# Static dielectric constant tensor:
#      x y z
#    x 1.955070 0.003250 0.018190 
#    y 0.003250 1.943610 0.009980 
#    z 0.018190 0.009980 1.935240 
# 
# From -- ./inp_files/184222.got.cif
#   From: 2010.05.17/outbox.cif.g08.bks.cpg/sg2_93_cif.got.tgz:184222.got - 2010.06.03 11:33:40.
