data_PCOD9025329
_publ_section_title
;
Structure prediction by ZEFSAII (Michael W. Deem and Ramdas Pophale) SiO2 
 PCOD9025329
Probable space group: P -1
;
_chemical_formula_sum "Si O2"
_cell_formula_units_Z 16
_cell_length_a 11.402163
_cell_length_b 8.521538
_cell_length_c 11.120361
_cell_angle_alpha 65.393027
_cell_angle_beta 128.450466
_cell_angle_gamma 114.340639
_cell_volume 751.314969
_symmetry_space_group_name_H-M "P -1"
_symmetry_group_IT_number 2
_symmetry_cell_setting 'triclinic'
loop_
_space_group_symop_operation_xyz
x,y,z
-x,-y,-z
loop_
_atom_site_type_symbol
_atom_site_label
_atom_site_fract_x
_atom_site_fract_y
_atom_site_fract_z
Si Si1 0.045311 0.709239 0.977748
Si Si2 0.243255 0.785528 0.312088
Si Si3 0.146485 0.104204 0.682662
Si Si4 0.826691 0.916710 0.660689
Si Si5 0.464561 0.299229 0.592968
Si Si6 0.058602 0.446261 0.426922
Si Si7 0.532008 0.801415 0.092013
Si Si8 0.780640 0.251791 0.166469
O O1 0.172167 0.769112 0.935376
O O2 0.895719 0.783558 0.830581
O O3 0.118625 0.774616 0.130222
O O4 0.000000 0.500000 0.000000
O O5 0.404651 0.789480 0.352152
O O6 0.187495 0.603621 0.407789
O O7 0.242188 0.947040 0.347779
O O8 0.121007 0.268360 0.536544
O O9 0.291005 0.182451 0.837185
O O10 0.202085 0.938690 0.708085
O O11 0.981466 0.025532 0.660568
O O12 0.697733 0.804981 0.528881
O O13 0.500000 0.500000 0.500000
O O14 0.475107 0.277357 0.751565
O O15 0.000000 0.500000 0.500000
O O16 0.911761 0.399591 0.261488
O O17 0.386690 0.704195 0.952171
O O18 0.500000 0.000000 0.000000
#
# Coordination Sequence:
#
# PCOD9025329 Si02
#       8
#     2   2   2   2   2   2   2   2
#     4  11  21  41  67  95 126 175 233 277 330 402
#     4  12  24  44  65  98 144 176 223 284 349 407
#     4  10  23  41  67  98 127 176 228 272 333 404
#     4  11  26  42  67  98 136 180 221 285 350 407
#     4  12  26  43  70 102 134 177 237 289 340 411
#     4  12  24  41  67  99 138 176 224 277 338 410
#     4  10  23  41  67  99 130 171 230 283 331 398
#     4  10  22  40  68  94 127 174 227 279 330 394
#
# _framework density 21.295995999999999
#
# number of rings (size 3 to 8) (size 9 to 14) (size 15 to 20)
#    0.000    1.000    3.750    2.625    8.750    0.000 
#    0.000    0.625    0.000    0.000    0.000    0.000 
#    0.000    0.000    0.000    0.000    0.000    0.000 
#
# Total GULP energy -89375.554726 kJ/mol
# GULP energy per Si atom -5585.972170 kJ/mol
# Density = 2.124753 g / cm^3
# Si number density = 21.295996 Si / 1000 Ang^3
#
#
#
# Elastic Constant Matrix: (Units=GPa)
#
#
# Indices 1 2 3 4 5 6 
#
# 1 85.8147 34.4336 37.9481 10.0871 15.6174 9.0705
# 2 34.4336 98.7989 39.3182 -11.8086 3.0630 0.2329
# 3 37.9481 39.3182 110.0723 -5.4397 16.6972 2.6830
# 4 10.0871 -11.8086 -5.4397 35.9139 10.6186 -4.5288
# 5 15.6174 3.0630 16.6972 10.6186 42.8962 3.7743
# 6 9.0705 0.2329 2.6830 -4.5288 3.7743 24.8832
#
#
#
# Elastic Compliance Matrix: (Units=1/GPa)
#
#
# Indices 1 2 3 4 5 6 
#
# 1 0.017586 -0.005346 -0.004066 -0.007626 -0.001933 -0.007017
# 2 -0.005346 0.013842 -0.002942 0.005897 0.000366 0.003154
# 3 -0.004066 -0.002942 0.012288 0.003417 -0.004064 0.001423
# 4 -0.007626 0.005897 0.003417 0.036372 -0.008886 0.010324
# 5 -0.001933 0.000366 -0.004064 -0.008886 0.028190 -0.004754
# 6 -0.007017 0.003154 0.001423 0.010324 -0.004754 0.045163
#
#
# Mechanical properties :
#
#
# Convention : Reuss Voigt Hill
#
# Bulk Modulus (GPa) = 52.61050 57.56509 55.08779
# Shear Modulus (GPa) = 27.10254 32.93771 30.02012
#
# Velocity S-wave (km/s) = 3.57130 3.93703 3.75862
# Velocity P-wave (km/s) = 6.46248 6.91061 6.69030
#
# Compressibility (1/GPa) = 0.01900761
#
# Stress axis : x y z
#
# Youngs Moduli (GPa) = 56.86331 72.24553 81.37848
#
# Poissons Ratio (x) = 0.38623 0.33087
# Poissons Ratio (y) = 0.30400 0.23943
# Poissons Ratio (z) = 0.23120 0.21256
#
# Static dielectric constant tensor:
#      x y z
#    x 1.803110 0.046430 -0.016540 
#    y 0.046430 1.786210 -0.007720 
#    z -0.016540 -0.007720 1.819360 
# 
# From -- ./inp_files/416713.got.cif
#   From: 2010.05.17/outbox.cif.g08.bks.cpg/sg2_209_cif.got.tgz:416713.got - 2010.06.03 11:33:40.
