data_PCOD9025563
_publ_section_title
;
Structure prediction by ZEFSAII (Michael W. Deem and Ramdas Pophale) SiO2 
 PCOD9025563
Probable space group: P -1
;
_chemical_formula_sum "Si O2"
_cell_formula_units_Z 16
_cell_length_a 6.228432
_cell_length_b 8.873284
_cell_length_c 23.512884
_cell_angle_alpha 46.497591
_cell_angle_beta 117.407632
_cell_angle_gamma 84.169551
_cell_volume 635.993472
_symmetry_space_group_name_H-M "P -1"
_symmetry_group_IT_number 2
_symmetry_cell_setting 'triclinic'
loop_
_space_group_symop_operation_xyz
x,y,z
-x,-y,-z
loop_
_atom_site_type_symbol
_atom_site_label
_atom_site_fract_x
_atom_site_fract_y
_atom_site_fract_z
Si Si1 0.493064 0.868712 0.740545
Si Si2 0.784031 0.655853 0.488814
Si Si3 0.033091 0.942099 0.160390
Si Si4 0.785340 0.273561 0.940415
Si Si5 0.307986 0.635564 0.612477
Si Si6 0.176251 0.378182 0.796872
Si Si7 0.027530 0.099513 0.384323
Si Si8 0.829528 0.843321 0.263321
O O1 0.741435 0.541052 0.849510
O O2 0.145600 0.950127 0.668947
O O3 0.509968 0.052422 0.650354
O O4 0.448738 0.974847 0.771912
O O5 0.000000 0.500000 0.500000
O O6 0.977363 0.712801 0.535023
O O7 0.846175 0.416275 0.597285
O O8 0.397508 0.675513 0.281601
O O9 0.912026 0.801379 0.147420
O O10 0.886588 0.013878 0.186966
O O11 0.923218 0.186859 0.043472
O O12 0.446570 0.346681 0.872493
O O13 0.000000 0.000000 0.000000
O O14 0.252754 0.727040 0.646841
O O15 0.316959 0.823720 0.521428
O O16 0.904855 0.705103 0.677387
O O17 0.251778 0.276693 0.766182
#
# Coordination Sequence:
#
# PCOD9025563 Si02
#       8
#     2   2   2   2   2   2   2   2
#     4   9  19  35  56  82 106 146 181 223 271 321
#     4   9  17  34  59  79 110 143 177 222 274 326
#     4  10  21  33  57  79 113 144 180 228 271 326
#     4  11  22  38  58  80 108 146 193 223 265 323
#     4  10  17  31  54  86 105 145 184 221 275 319
#     4   9  19  36  53  81 107 145 178 229 278 314
#     4   9  17  31  56  79 111 139 185 225 264 325
#     4   9  19  35  57  81 109 143 175 225 286 319
#
# _framework density 25.157489999999999
#
# number of rings (size 3 to 8) (size 9 to 14) (size 15 to 20)
#    0.750    1.750    1.250    1.875    0.000    1.000 
#    0.000    6.250    0.000    7.500    0.000    0.000 
#    0.000    0.000    0.000    0.000    0.000    0.000 
#
# Total GULP energy -89119.020514 kJ/mol
# GULP energy per Si atom -5569.938782 kJ/mol
# Density = 2.510023 g / cm^3
# Si number density = 25.157490 Si / 1000 Ang^3
#
#
#
# Elastic Constant Matrix: (Units=GPa)
#
#
# Indices 1 2 3 4 5 6 
#
# 1 2.0648 -3.5518 19.5966 1.7460 6.5876 -8.6902
# 2 -3.5518 95.2319 25.8660 -4.9374 4.1798 -8.8180
# 3 19.5966 25.8660 163.9680 0.3486 -35.1479 -10.8974
# 4 1.7460 -4.9374 0.3486 38.1823 -1.5586 -5.3072
# 5 6.5876 4.1798 -35.1479 -1.5586 24.8451 2.0763
# 6 -8.6902 -8.8180 -10.8974 -5.3072 2.0763 33.8611
#
#
#
# Elastic Compliance Matrix: (Units=1/GPa)
#
#
# Indices 1 2 3 4 5 6 
#
# 1 -0.091021 -0.015277 0.025720 0.001436 0.065088 -0.022827
# 2 -0.015277 0.009415 0.001206 0.001939 0.004382 -0.001046
# 3 0.025720 0.001206 0.002460 -0.000110 -0.004214 0.007948
# 4 0.001436 0.001939 -0.000110 0.027096 0.000415 0.005059
# 5 0.065088 0.004382 -0.004214 0.000415 0.015012 0.015634
# 6 -0.022827 -0.001046 0.007948 0.005059 0.015634 0.025794
#
#
# Mechanical properties :
#
#
# Convention : Reuss Voigt Hill
#
# Bulk Modulus (GPa) = -17.90609 38.34294 10.21842
# Shear Modulus (GPa) = -94.05400 34.00130 -30.02635
#
# Velocity S-wave (km/s) = -6.12105 3.68031 -3.45851
# Velocity P-wave (km/s) = 7.55575 5.77355 3.44641
#
# Compressibility (1/GPa) = -0.05584692
#
# Stress axis : x y z
#
# Youngs Moduli (GPa) = -10.98643 106.21799 406.57550
#
# Poissons Ratio (x) = 1.62265 -10.45725
# Poissons Ratio (y) = -0.16783 -0.49050
# Poissons Ratio (z) = 0.28257 -0.12814
#
# Static dielectric constant tensor:
#      x y z
#    x 2.080220 0.033790 -0.053590 
#    y 0.033790 2.051170 0.004760 
#    z -0.053590 0.004760 2.094690 
# 
# From -- ./inp_files/616646.got.cif
#   From: 2010.05.17/outbox.cif.g08.bks.cpg/sg2_309_cif.got.tgz:616646.got - 2010.06.03 11:33:40.
