data_PCOD9025544
_publ_section_title
;
Structure prediction by ZEFSAII (Michael W. Deem and Ramdas Pophale) SiO2 
 PCOD9025544
Probable space group: P -1
;
_chemical_formula_sum "Si O2"
_cell_formula_units_Z 14
_cell_length_a 17.834003
_cell_length_b 9.372667
_cell_length_c 21.284189
_cell_angle_alpha 32.057915
_cell_angle_beta 160.309359
_cell_angle_gamma 136.536052
_cell_volume 582.189434
_symmetry_space_group_name_H-M "P -1"
_symmetry_group_IT_number 2
_symmetry_cell_setting 'triclinic'
loop_
_space_group_symop_operation_xyz
x,y,z
-x,-y,-z
loop_
_atom_site_type_symbol
_atom_site_label
_atom_site_fract_x
_atom_site_fract_y
_atom_site_fract_z
Si Si1 0.996846 0.840599 0.300835
Si Si2 0.308672 0.322082 0.523228
Si Si3 0.480343 0.324510 0.860690
Si Si4 0.711626 0.502911 0.794119
Si Si5 0.626521 0.932784 0.458295
Si Si6 0.484546 0.269449 0.023562
Si Si7 0.223122 0.388508 0.060387
O O1 0.785275 0.736502 0.192666
O O2 0.211799 0.560992 0.542578
O O3 0.171676 0.937894 0.447318
O O4 0.863056 0.150134 0.044415
O O5 0.434309 0.530654 0.568599
O O6 0.454114 0.153463 0.638379
O O7 0.039162 0.506151 0.216801
O O8 0.340863 0.062396 0.694463
O O9 0.546433 0.364910 0.969607
O O10 0.681355 0.349993 0.964811
O O11 0.500000 0.000000 0.000000
O O12 0.744709 0.648755 0.701773
O O13 0.760540 0.668782 0.831124
O O14 0.417055 0.147258 0.258543
O O15 0.500000 0.500000 0.000000
#
# Coordination Sequence:
#
# PCOD9025544 Si02
#       7
#     2   2   2   2   2   2   2
#     4  10  22  40  69  96 129 178 224 266 332 406
#     4  11  25  44  67 101 141 170 232 278 325 413
#     4  11  24  42  66  97 133 179 225 275 337 394
#     4  11  23  46  71  99 136 179 223 277 342 396
#     4  11  23  46  71  99 136 179 223 277 342 396
#     4  11  24  42  66  97 133 179 225 275 337 394
#     4  11  25  44  67 101 141 170 232 278 325 413
#
# _framework density 24.047155
#
# number of rings (size 3 to 8) (size 9 to 14) (size 15 to 20)
#    0.000    1.143    1.429    5.143    2.000    1.143 
#   20.571    0.000    0.000    0.000    0.000    0.000 
#    0.000    0.000    0.000    0.000    0.000    0.000 
#
# Total GULP energy -78207.253129 kJ/mol
# GULP energy per Si atom -5586.232366 kJ/mol
# Density = 2.399242 g / cm^3
# Si number density = 24.047155 Si / 1000 Ang^3
#
#
#
# Elastic Constant Matrix: (Units=GPa)
#
#
# Indices 1 2 3 4 5 6 
#
# 1 68.7458 16.2104 17.7179 -1.1011 -15.6404 -4.0617
# 2 16.2104 64.3565 31.7888 8.6113 9.8708 -9.6582
# 3 17.7179 31.7888 121.8645 12.0967 5.7690 -17.8262
# 4 -1.1011 8.6113 12.0967 43.8113 -1.3063 -2.0420
# 5 -15.6404 9.8708 5.7690 -1.3063 34.2176 -0.1014
# 6 -4.0617 -9.6582 -17.8262 -2.0420 -0.1014 31.6419
#
#
#
# Elastic Compliance Matrix: (Units=1/GPa)
#
#
# Indices 1 2 3 4 5 6 
#
# 1 0.018901 -0.005777 -0.002038 0.002480 0.010743 -0.000291
# 2 -0.005777 0.020901 -0.003374 -0.003404 -0.008221 0.003491
# 3 -0.002038 -0.003374 0.010313 -0.002084 -0.001764 0.004378
# 4 0.002480 -0.003404 -0.002084 0.024218 0.003391 -0.000321
# 5 0.010743 -0.008221 -0.001764 0.003391 0.036928 -0.001787
# 6 -0.000291 0.003491 0.004378 -0.000321 -0.001787 0.035072
#
#
# Mechanical properties :
#
#
# Convention : Reuss Voigt Hill
#
# Bulk Modulus (GPa) = 36.05588 42.93346 39.49467
# Shear Modulus (GPa) = 28.09653 34.55081 31.32367
#
# Velocity S-wave (km/s) = 3.42188 3.79462 3.61306
# Velocity P-wave (km/s) = 5.53523 6.09028 5.81937
#
# Compressibility (1/GPa) = 0.02773473
#
# Stress axis : x y z
#
# Youngs Moduli (GPa) = 52.90805 47.84541 96.96280
#
# Poissons Ratio (x) = 0.27642 0.19764
# Poissons Ratio (y) = 0.30567 0.32718
# Poissons Ratio (z) = 0.10784 0.16145
#
# Static dielectric constant tensor:
#      x y z
#    x 1.962020 -0.057960 0.049840 
#    y -0.057960 2.006270 -0.041770 
#    z 0.049840 -0.041770 1.985630 
# 
# From -- ./inp_files/599398.got.cif
#   From: 2010.05.17/outbox.cif.g08.bks.cpg/sg2_300_cif.got.tgz:599398.got - 2010.06.03 11:33:40.
