data_PCOD9025131
_publ_section_title
;
Structure prediction by ZEFSAII (Michael W. Deem and Ramdas Pophale) SiO2 
 PCOD9025131
Probable space group: P -1
;
_chemical_formula_sum "Si O2"
_cell_formula_units_Z 14
_cell_length_a 28.500061
_cell_length_b 5.202781
_cell_length_c 11.763172
_cell_angle_alpha 102.172848
_cell_angle_beta 159.736177
_cell_angle_gamma 81.811896
_cell_volume 582.566450
_symmetry_space_group_name_H-M "P -1"
_symmetry_group_IT_number 2
_symmetry_cell_setting 'triclinic'
loop_
_space_group_symop_operation_xyz
x,y,z
-x,-y,-z
loop_
_atom_site_type_symbol
_atom_site_label
_atom_site_fract_x
_atom_site_fract_y
_atom_site_fract_z
Si Si1 0.102915 0.518528 0.340949
Si Si2 0.660599 0.135967 0.866524
Si Si3 0.719852 0.742718 0.145732
Si Si4 0.666349 0.404537 0.303364
Si Si5 0.881014 0.672510 0.008032
Si Si6 0.478876 0.165216 0.098573
Si Si7 0.775291 0.199652 0.877959
O O1 0.144750 0.251360 0.467017
O O2 0.243458 0.638535 0.607845
O O3 0.000000 0.500000 0.000000
O O4 0.025461 0.648335 0.276251
O O5 0.724694 0.164875 0.889223
O O6 0.500000 0.000000 0.500000
O O7 0.681167 0.436403 0.988975
O O8 0.735306 0.939148 0.093616
O O9 0.596617 0.805549 0.949691
O O10 0.766422 0.554014 0.640931
O O11 0.596321 0.111024 0.150247
O O12 0.556751 0.583916 0.028690
O O13 0.854452 0.484272 0.041194
O O14 0.861243 0.969239 0.019933
O O15 0.634562 0.157756 0.482275
#
# Coordination Sequence:
#
# PCOD9025131 Si02
#       7
#     2   2   2   2   2   2   2
#     4   9  22  45  71  97 130 174 225 267 318 393
#     4  12  25  43  68  98 130 172 224 274 327 385
#     4  11  23  42  71 100 125 169 228 279 319 374
#     4  10  22  40  67  95 127 170 224 267 322 389
#     4  11  25  43  61  94 137 178 207 270 329 388
#     4  11  22  38  65 100 127 166 220 273 330 391
#     4  12  26  40  63  93 137 171 216 267 338 387
#
# _framework density 24.031593999999998
#
# number of rings (size 3 to 8) (size 9 to 14) (size 15 to 20)
#    0.000    1.143    1.429    4.714    2.000    6.857 
#    0.000   16.429    0.000    0.000    0.000    0.000 
#    0.000    0.000    0.000    0.000    0.000    0.000 
#
# Total GULP energy -78383.675278 kJ/mol
# GULP energy per Si atom -5598.833948 kJ/mol
# Density = 2.397690 g / cm^3
# Si number density = 24.031594 Si / 1000 Ang^3
#
#
#
# Elastic Constant Matrix: (Units=GPa)
#
#
# Indices 1 2 3 4 5 6 
#
# 1 162.4771 33.6261 30.4342 -25.4084 -9.7012 20.9136
# 2 33.6261 132.8364 32.3958 -22.7762 -0.9275 19.6264
# 3 30.4342 32.3958 67.0146 -26.2235 -1.4419 18.4114
# 4 -25.4084 -22.7762 -26.2235 39.6510 -7.4289 -2.4324
# 5 -9.7012 -0.9275 -1.4419 -7.4289 36.3873 -16.8162
# 6 20.9136 19.6264 18.4114 -2.4324 -16.8162 49.0217
#
#
#
# Elastic Compliance Matrix: (Units=1/GPa)
#
#
# Indices 1 2 3 4 5 6 
#
# 1 0.007437 -0.000703 -0.000986 0.003979 0.001978 -0.001645
# 2 -0.000703 0.009149 -0.002200 0.003076 -0.000612 -0.002594
# 3 -0.000986 -0.002200 0.023495 0.013258 0.000174 -0.006805
# 4 0.003979 0.003076 0.013258 0.039680 0.008343 -0.003078
# 5 0.001978 -0.000612 0.000174 0.008343 0.035163 0.011812
# 6 -0.001645 -0.002594 -0.006805 -0.003078 0.011812 0.028595
#
#
# Mechanical properties :
#
#
# Convention : Reuss Voigt Hill
#
# Bulk Modulus (GPa) = 30.95753 61.69336 46.32544
# Shear Modulus (GPa) = 30.85197 42.73679 36.79438
#
# Velocity S-wave (km/s) = 3.58691 4.22163 3.91715
# Velocity P-wave (km/s) = 5.48312 7.03494 6.30694
#
# Compressibility (1/GPa) = 0.03230232
#
# Stress axis : x y z
#
# Youngs Moduli (GPa) = 134.46198 109.30161 42.56242
#
# Poissons Ratio (x) = 0.07684 0.04196
# Poissons Ratio (y) = 0.09452 0.09366
# Poissons Ratio (z) = 0.13257 0.24051
#
# Static dielectric constant tensor:
#      x y z
#    x 1.975770 -0.016390 -0.024080 
#    y -0.016390 1.877340 0.022000 
#    z -0.024080 0.022000 1.938070 
# 
# From -- ./inp_files/477363.got.cif
#   From: 2010.05.17/outbox.cif.g08.bks.cpg/sg2_239_cif.got.tgz:477363.got - 2010.06.03 11:33:40.
