data_PCOD9025025
_publ_section_title
;
Structure prediction by ZEFSAII (Michael W. Deem and Ramdas Pophale) SiO2 
 PCOD9025025
Probable space group: P -1
;
_chemical_formula_sum "Si O2"
_cell_formula_units_Z 16
_cell_length_a 19.075180
_cell_length_b 10.656892
_cell_length_c 13.677714
_cell_angle_alpha 149.274976
_cell_angle_beta 28.096971
_cell_angle_gamma 135.037130
_cell_volume 653.986834
_symmetry_space_group_name_H-M "P -1"
_symmetry_group_IT_number 2
_symmetry_cell_setting 'triclinic'
loop_
_space_group_symop_operation_xyz
x,y,z
-x,-y,-z
loop_
_atom_site_type_symbol
_atom_site_label
_atom_site_fract_x
_atom_site_fract_y
_atom_site_fract_z
Si Si1 0.567464 0.720998 0.848304
Si Si2 0.344144 0.156457 0.753954
Si Si3 0.818792 0.285443 0.325575
Si Si4 0.965130 0.116346 0.845047
Si Si5 0.260929 0.591835 0.828400
Si Si6 0.730447 0.101324 0.787660
Si Si7 0.453440 0.170411 0.415194
Si Si8 0.143522 0.387158 0.314666
O O1 0.669718 0.452646 0.567810
O O2 0.674843 0.876567 0.762552
O O3 0.417697 0.744313 0.982510
O O4 0.511762 0.879713 0.121360
O O5 0.377688 0.223138 0.647935
O O6 0.500000 0.000000 0.500000
O O7 0.221228 0.980130 0.778595
O O8 0.282310 0.360488 0.049645
O O9 0.954329 0.234206 0.045406
O O10 0.848296 0.436479 0.485449
O O11 0.870453 0.004455 0.479357
O O12 0.877127 0.327950 0.021432
O O13 0.872985 0.888305 0.811735
O O14 0.219795 0.729244 0.074622
O O15 0.334672 0.303624 0.568120
O O16 0.401285 0.702415 0.687188
O O17 0.000000 0.500000 0.500000
#
# Coordination Sequence:
#
# PCOD9025025 Si02
#       8
#     2   2   2   2   2   2   2   2
#     4  10  23  43  66 103 139 178 232 285 352 425
#     4  11  25  44  72 106 136 187 246 287 351 422
#     4  11  26  47  73  99 147 183 234 304 350 416
#     4  11  25  45  71 106 139 186 237 284 362 428
#     4  10  22  41  67 101 146 177 224 294 346 415
#     4  10  23  41  67 102 141 180 230 283 351 429
#     4  10  22  40  67 101 137 181 232 284 352 414
#     4  11  27  48  71 101 141 186 237 297 356 419
#
# _framework density 24.465326000000001
#
# number of rings (size 3 to 8) (size 9 to 14) (size 15 to 20)
#    0.000    1.500    0.000    4.125   10.500    6.500 
#    0.000    0.000    0.000    0.000    0.000    0.000 
#    0.000    0.000    0.000    0.000    0.000    0.000 
#
# Total GULP energy -89716.319234 kJ/mol
# GULP energy per Si atom -5607.269952 kJ/mol
# Density = 2.440964 g / cm^3
# Si number density = 24.465326 Si / 1000 Ang^3
#
#
#
# Elastic Constant Matrix: (Units=GPa)
#
#
# Indices 1 2 3 4 5 6 
#
# 1 117.1175 24.8526 41.3587 -10.6417 35.1080 -10.1510
# 2 24.8526 60.4436 32.3856 -5.9592 20.9636 -11.3067
# 3 41.3587 32.3856 145.3006 -29.5471 37.2386 -15.8388
# 4 -10.6417 -5.9592 -29.5471 37.1745 -13.6722 5.6484
# 5 35.1080 20.9636 37.2386 -13.6722 58.7764 3.5671
# 6 -10.1510 -11.3067 -15.8388 5.6484 3.5671 27.0830
#
#
#
# Elastic Compliance Matrix: (Units=1/GPa)
#
#
# Indices 1 2 3 4 5 6 
#
# 1 0.011274 -0.001304 -0.001087 -0.000644 -0.005971 0.003967
# 2 -0.001304 0.022069 -0.002394 -0.002527 -0.006694 0.008733
# 3 -0.001087 -0.002394 0.010286 0.005400 -0.004001 0.004009
# 4 -0.000644 -0.002527 0.005400 0.033746 0.006078 -0.005977
# 5 -0.005971 -0.006694 -0.004001 0.006078 0.027662 -0.012283
# 6 0.003967 0.008733 0.004009 -0.005977 -0.012283 0.047265
#
#
# Mechanical properties :
#
#
# Convention : Reuss Voigt Hill
#
# Bulk Modulus (GPa) = 29.36052 57.78395 43.57224
# Shear Modulus (GPa) = 28.86421 39.55777 34.21099
#
# Velocity S-wave (km/s) = 3.43855 4.02542 3.74350
# Velocity P-wave (km/s) = 5.27179 6.72870 6.04430
#
# Compressibility (1/GPa) = 0.03405934
#
# Stress axis : x y z
#
# Youngs Moduli (GPa) = 88.69871 45.31180 97.22227
#
# Poissons Ratio (x) = 0.05908 0.10566
# Poissons Ratio (y) = 0.11565 0.23278
# Poissons Ratio (z) = 0.09639 0.10849
#
# Static dielectric constant tensor:
#      x y z
#    x 1.919650 0.020660 0.022450 
#    y 0.020660 1.960250 0.040360 
#    z 0.022450 0.040360 1.910990 
# 
# From -- ./inp_files/541162.got.cif
#   From: 2010.05.17/outbox.cif.g08.bks.cpg/sg2_271_cif.got.tgz:541162.got - 2010.06.03 11:33:40.
