data_PCOD9025530
_publ_section_title
;
Structure prediction by ZEFSAII (Michael W. Deem and Ramdas Pophale) SiO2 
 PCOD9025530
Probable space group: P -1
;
_chemical_formula_sum "Si O2"
_cell_formula_units_Z 16
_cell_length_a 9.872522
_cell_length_b 13.633745
_cell_length_c 12.286176
_cell_angle_alpha 38.637954
_cell_angle_beta 59.242766
_cell_angle_gamma 42.213592
_cell_volume 684.845120
_symmetry_space_group_name_H-M "P -1"
_symmetry_group_IT_number 2
_symmetry_cell_setting 'triclinic'
loop_
_space_group_symop_operation_xyz
x,y,z
-x,-y,-z
loop_
_atom_site_type_symbol
_atom_site_label
_atom_site_fract_x
_atom_site_fract_y
_atom_site_fract_z
Si Si1 0.766295 0.774908 0.089775
Si Si2 0.972825 0.975857 0.406676
Si Si3 0.365378 0.884892 0.265930
Si Si4 0.219890 0.931695 0.010833
Si Si5 0.519438 0.232712 0.360068
Si Si6 0.435292 0.969728 0.694826
Si Si7 0.011718 0.348914 0.436551
Si Si8 0.655625 0.484310 0.628786
O O1 0.569076 0.795557 0.188090
O O2 0.960206 0.544221 0.230945
O O3 0.714538 0.881623 0.900823
O O4 0.792618 0.908392 0.044099
O O5 0.142256 0.949885 0.285283
O O6 0.005784 0.773162 0.541589
O O7 0.000000 0.000000 0.500000
O O8 0.740942 0.168917 0.306704
O O9 0.461661 0.691290 0.473583
O O10 0.332941 0.710314 0.209799
O O11 0.359631 0.910202 0.874689
O O12 0.000000 0.000000 0.000000
O O13 0.558755 0.055132 0.578204
O O14 0.361569 0.445188 0.301118
O O15 0.465457 0.198333 0.294232
O O16 0.226088 0.179073 0.552332
O O17 0.849879 0.426196 0.534131
#
# Coordination Sequence:
#
# PCOD9025530 Si02
#       8
#     2   2   2   2   2   2   2   2
#     4  10  24  41  66 103 129 167 225 276 320 379
#     4  11  22  42  67  95 131 173 217 264 326 389
#     4  10  22  43  68  91 133 171 216 275 316 384
#     4  12  25  39  64 104 133 167 220 275 324 389
#     4  10  23  42  65  94 129 178 213 267 330 389
#     4  10  22  43  66  90 137 169 214 271 329 393
#     4  10  22  40  69  95 127 176 216 266 331 385
#     4  11  22  41  67 100 125 173 219 265 332 379
#
# _framework density 23.362946000000001
#
# number of rings (size 3 to 8) (size 9 to 14) (size 15 to 20)
#    0.000    1.500    2.500    2.250    3.500    7.000 
#    0.000    4.375    0.000    0.000    0.000    0.000 
#    0.000    0.000    0.000    0.000    0.000    0.000 
#
# Total GULP energy -89121.800911 kJ/mol
# GULP energy per Si atom -5570.112557 kJ/mol
# Density = 2.330977 g / cm^3
# Si number density = 23.362946 Si / 1000 Ang^3
#
#
#
# Elastic Constant Matrix: (Units=GPa)
#
#
# Indices 1 2 3 4 5 6 
#
# 1 75.4488 36.2708 18.6157 -2.8173 -19.3547 -11.9478
# 2 36.2708 138.9391 30.4888 -6.2635 -9.6473 9.7408
# 3 18.6157 30.4888 148.7326 -5.5798 5.7421 -2.6789
# 4 -2.8173 -6.2635 -5.5798 39.0300 -2.3945 -8.2628
# 5 -19.3547 -9.6473 5.7421 -2.3945 30.8491 -4.7113
# 6 -11.9478 9.7408 -2.6789 -8.2628 -4.7113 31.1763
#
#
#
# Elastic Compliance Matrix: (Units=1/GPa)
#
#
# Indices 1 2 3 4 5 6 
#
# 1 0.022371 -0.005109 -0.001936 0.004294 0.015183 0.013436
# 2 -0.005109 0.009099 -0.001291 -0.000232 -0.000919 -0.005112
# 3 -0.001936 -0.001291 0.007364 0.000522 -0.002950 -0.000013
# 4 0.004294 -0.000232 0.000522 0.028532 0.006309 0.010278
# 5 0.015183 -0.000919 -0.002950 0.006309 0.044878 0.014306
# 6 0.013436 -0.005112 -0.000013 0.010278 0.014306 0.043707
#
#
# Mechanical properties :
#
#
# Convention : Reuss Voigt Hill
#
# Bulk Modulus (GPa) = 45.12427 59.31900 52.22164
# Shear Modulus (GPa) = 27.77651 38.72744 33.25198
#
# Velocity S-wave (km/s) = 3.45180 4.07583 3.77673
# Velocity P-wave (km/s) = 5.93658 6.89893 6.43577
#
# Compressibility (1/GPa) = 0.02216103
#
# Stress axis : x y z
#
# Youngs Moduli (GPa) = 44.70134 109.90621 135.80258
#
# Poissons Ratio (x) = 0.56155 0.26287
# Poissons Ratio (y) = 0.22840 0.17531
# Poissons Ratio (z) = 0.08653 0.14188
#
# Static dielectric constant tensor:
#      x y z
#    x 2.093770 0.066650 0.061340 
#    y 0.066650 1.913370 0.069050 
#    z 0.061340 0.069050 1.934990 
# 
# From -- ./inp_files/522123.got.cif
#   From: 2010.05.17/outbox.cif.g08.bks.cpg/sg2_262_cif.got.tgz:522123.got - 2010.06.03 11:33:40.
