data_PCOD9025502
_publ_section_title
;
Structure prediction by ZEFSAII (Michael W. Deem and Ramdas Pophale) SiO2 
 PCOD9025502
Probable space group: P -1
;
_chemical_formula_sum "Si O2"
_cell_formula_units_Z 16
_cell_length_a 20.787958
_cell_length_b 11.463674
_cell_length_c 9.601793
_cell_angle_alpha 106.453260
_cell_angle_beta 141.885277
_cell_angle_gamma 43.302431
_cell_volume 707.090108
_symmetry_space_group_name_H-M "P -1"
_symmetry_group_IT_number 2
_symmetry_cell_setting 'triclinic'
loop_
_space_group_symop_operation_xyz
x,y,z
-x,-y,-z
loop_
_atom_site_type_symbol
_atom_site_label
_atom_site_fract_x
_atom_site_fract_y
_atom_site_fract_z
Si Si1 0.100887 0.772910 0.329049
Si Si2 0.950382 0.695424 0.642629
Si Si3 0.339247 0.626814 0.433585
Si Si4 0.847174 0.743624 0.178824
Si Si5 0.335898 0.894334 0.220503
Si Si6 0.891600 0.209814 0.172683
Si Si7 0.620704 0.121567 0.405074
Si Si8 0.248659 0.494092 0.724088
O O1 0.168697 0.735135 0.276157
O O2 0.258249 0.532880 0.596847
O O3 0.070209 0.936961 0.397693
O O4 0.886134 0.924963 0.044372
O O5 0.826233 0.775752 0.320926
O O6 0.124989 0.424174 0.870566
O O7 0.035173 0.739815 0.755420
O O8 0.816354 0.853882 0.602032
O O9 0.534657 0.348883 0.694513
O O10 0.354825 0.755746 0.533582
O O11 0.269065 0.683065 0.173367
O O12 0.065731 0.584048 0.462245
O O13 0.694767 0.974289 0.906121
O O14 0.432643 0.843884 0.512619
O O15 0.808072 0.332011 0.219717
O O16 0.448419 0.248854 0.051201
#
# Coordination Sequence:
#
# PCOD9025502 Si02
#       8
#     2   2   2   2   2   2   2   2
#     4  11  22  38  61  93 128 163 200 249 310 374
#     4  10  22  40  69  84 121 166 213 249 309 363
#     4  12  23  38  62  98 134 156 200 256 313 375
#     4   9  23  46  61  87 121 166 210 260 300 356
#     4  11  23  41  65  91 129 165 200 256 311 365
#     4  11  19  40  61  90 127 163 198 253 313 371
#     4  12  22  38  62  96 124 162 201 253 315 371
#     4  10  23  37  61  91 124 160 205 256 308 362
#
# _framework density 22.627950999999999
#
# number of rings (size 3 to 8) (size 9 to 14) (size 15 to 20)
#    0.000    1.250    3.750    2.625    1.750    3.500 
#    0.000    0.625    0.000    0.000    0.000    0.000 
#    0.000    0.000    0.000    0.000    0.000    0.000 
#
# Total GULP energy -89391.526070 kJ/mol
# GULP energy per Si atom -5586.970379 kJ/mol
# Density = 2.257645 g / cm^3
# Si number density = 22.627951 Si / 1000 Ang^3
#
#
#
# Elastic Constant Matrix: (Units=GPa)
#
#
# Indices 1 2 3 4 5 6 
#
# 1 61.9943 8.5513 -0.9440 -6.0493 -21.1787 -1.5325
# 2 8.5513 75.7358 -7.4922 -11.2322 -0.7293 -3.8490
# 3 -0.9440 -7.4922 37.2456 -6.3674 -3.5604 12.2822
# 4 -6.0493 -11.2322 -6.3674 19.9850 4.3838 -2.2565
# 5 -21.1787 -0.7293 -3.5604 4.3838 26.4845 -8.0152
# 6 -1.5325 -3.8490 12.2822 -2.2565 -8.0152 27.5278
#
#
#
# Elastic Compliance Matrix: (Units=1/GPa)
#
#
# Indices 1 2 3 4 5 6 
#
# 1 0.023950 -0.001714 0.000316 0.002619 0.020909 0.007255
# 2 -0.001714 0.015313 0.004451 0.009959 -0.001902 0.000322
# 3 0.000316 0.004451 0.034359 0.012239 -0.001287 -0.014061
# 4 0.002619 0.009959 0.012239 0.061651 -0.006413 -0.000736
# 5 0.020909 -0.001902 -0.001287 -0.006413 0.060974 0.018700
# 6 0.007255 0.000322 -0.014061 -0.000736 0.018700 0.048434
#
#
# Mechanical properties :
#
#
# Convention : Reuss Voigt Hill
#
# Bulk Modulus (GPa) = 12.54269 19.46731 16.00500
# Shear Modulus (GPa) = 18.85724 26.45683 22.65704
#
# Velocity S-wave (km/s) = 2.88993 3.42308 3.16774
# Velocity P-wave (km/s) = 4.08542 4.92394 4.52415
#
# Compressibility (1/GPa) = 0.07972772
#
# Stress axis : x y z
#
# Youngs Moduli (GPa) = 41.75379 65.30490 29.10484
#
# Poissons Ratio (x) = 0.11195 -0.00920
# Poissons Ratio (y) = 0.07158 -0.12956
# Poissons Ratio (z) = -0.01320 -0.29070
#
# Static dielectric constant tensor:
#      x y z
#    x 1.821880 0.003940 0.024960 
#    y 0.003940 1.831230 -0.001300 
#    z 0.024960 -0.001300 1.931110 
# 
# From -- ./inp_files/177366.got.cif
#   From: 2010.05.17/outbox.cif.g08.bks.cpg/sg2_89_cif.got.tgz:177366.got - 2010.06.03 11:33:40.
