data_PCOD9025671
_publ_section_title
;
Structure prediction by ZEFSAII (Michael W. Deem and Ramdas Pophale) SiO2 
 PCOD9025671
Probable space group: P -1
;
_chemical_formula_sum "Si O2"
_cell_formula_units_Z 16
_cell_length_a 9.639799
_cell_length_b 14.321126
_cell_length_c 14.439625
_cell_angle_alpha 135.577956
_cell_angle_beta 94.506948
_cell_angle_gamma 50.044053
_cell_volume 754.883543
_symmetry_space_group_name_H-M "P -1"
_symmetry_group_IT_number 2
_symmetry_cell_setting 'triclinic'
loop_
_space_group_symop_operation_xyz
x,y,z
-x,-y,-z
loop_
_atom_site_type_symbol
_atom_site_label
_atom_site_fract_x
_atom_site_fract_y
_atom_site_fract_z
Si Si1 0.349453 0.445094 0.433324
Si Si2 0.596951 0.572333 0.032433
Si Si3 0.532404 0.131985 0.603834
Si Si4 0.712229 0.541722 0.353947
Si Si5 0.395807 0.663596 0.805514
Si Si6 0.793841 0.976211 0.808133
Si Si7 0.080446 0.782090 0.366191
Si Si8 0.258394 0.220021 0.209133
O O1 0.423219 0.358587 0.482138
O O2 0.555135 0.343833 0.304397
O O3 0.265275 0.370034 0.336004
O O4 0.089447 0.739768 0.629249
O O5 0.625663 0.648598 0.175539
O O6 0.383466 0.817243 0.132280
O O7 0.500000 0.500000 0.000000
O O8 0.838165 0.353158 0.822122
O O9 0.460850 0.249310 0.583312
O O10 0.500000 0.000000 0.500000
O O11 0.830299 0.915363 0.488860
O O12 0.746878 0.359503 0.199659
O O13 0.985708 0.393942 0.275550
O O14 0.674502 0.425629 0.701066
O O15 0.252902 0.898898 0.014271
O O16 0.718086 0.887456 0.772297
O O17 0.000000 0.000000 0.500000
O O18 0.500000 0.000000 0.000000
#
# Coordination Sequence:
#
# PCOD9025671 Si02
#       8
#     2   2   2   2   2   2   2   2
#     4  11  24  42  70  95 130 181 219 270 351 388
#     4  11  23  42  71 102 133 183 227 272 344 404
#     4  12  27  43  67 103 141 179 225 287 332 402
#     4  11  25  44  64 100 138 164 233 277 321 405
#     4  11  22  43  69 102 130 172 224 278 328 399
#     4  10  22  40  70  95 131 171 226 268 327 405
#     4  11  22  45  71  97 138 181 226 272 341 408
#     4  11  24  46  67  95 132 182 216 277 339 398
#
# _framework density 21.195322000000001
#
# number of rings (size 3 to 8) (size 9 to 14) (size 15 to 20)
#    0.000    1.000    3.750    3.375    5.250    2.500 
#    4.500    0.000    0.000    0.000    0.000    0.000 
#    0.000    0.000    0.000    0.000    0.000    0.000 
#
# Total GULP energy -89446.127391 kJ/mol
# GULP energy per Si atom -5590.382962 kJ/mol
# Density = 2.114708 g / cm^3
# Si number density = 21.195322 Si / 1000 Ang^3
#
#
#
# Elastic Constant Matrix: (Units=GPa)
#
#
# Indices 1 2 3 4 5 6 
#
# 1 102.3120 7.2329 20.1007 5.2814 19.4750 -2.5833
# 2 7.2329 94.3920 26.6801 3.8234 5.3660 3.8718
# 3 20.1007 26.6801 135.1716 -12.6656 12.6282 2.2038
# 4 5.2814 3.8234 -12.6656 33.6387 7.5155 0.5306
# 5 19.4750 5.3660 12.6282 7.5155 21.9664 -4.5975
# 6 -2.5833 3.8718 2.2038 0.5306 -4.5975 25.0762
#
#
#
# Elastic Compliance Matrix: (Units=1/GPa)
#
#
# Indices 1 2 3 4 5 6 
#
# 1 0.011854 -0.000094 -0.000766 0.000153 -0.010219 -0.000574
# 2 -0.000094 0.011460 -0.002290 -0.001871 -0.001125 -0.001744
# 3 -0.000766 -0.002290 0.009047 0.005178 -0.006100 -0.001748
# 4 0.000153 -0.001871 0.005178 0.035399 -0.015552 -0.003751
# 5 -0.010219 -0.001125 -0.006100 -0.015552 0.066225 0.012128
# 6 -0.000574 -0.001744 -0.001748 -0.003751 0.012128 0.042545
#
#
# Mechanical properties :
#
#
# Convention : Reuss Voigt Hill
#
# Bulk Modulus (GPa) = 38.36924 48.87813 43.62369
# Shear Modulus (GPa) = 26.10740 34.66039 30.38389
#
# Velocity S-wave (km/s) = 3.51344 4.04825 3.79029
# Velocity P-wave (km/s) = 5.88226 6.70537 6.30726
#
# Compressibility (1/GPa) = 0.02606254
#
# Stress axis : x y z
#
# Youngs Moduli (GPa) = 84.36088 87.26145 110.52900
#
# Poissons Ratio (x) = 0.00817 0.08465
# Poissons Ratio (y) = 0.00790 0.25309
# Poissons Ratio (z) = 0.06461 0.19981
#
# Static dielectric constant tensor:
#      x y z
#    x 1.777160 -0.008030 0.028350 
#    y -0.008030 1.772910 -0.047920 
#    z 0.028350 -0.047920 1.792940 
# 
# From -- ./inp_files/455124.got.cif
#   From: 2010.05.17/outbox.cif.g08.bks.cpg/sg2_228_cif.got.tgz:455124.got - 2010.06.03 11:33:40.
