data_PCOD9025046
_publ_section_title
;
Structure prediction by ZEFSAII (Michael W. Deem and Ramdas Pophale) SiO2 
 PCOD9025046
Probable space group: P -1
;
_chemical_formula_sum "Si O2"
_cell_formula_units_Z 16
_cell_length_a 8.769712
_cell_length_b 17.756528
_cell_length_c 9.388225
_cell_angle_alpha 39.300098
_cell_angle_beta 77.567663
_cell_angle_gamma 56.173993
_cell_volume 701.757842
_symmetry_space_group_name_H-M "P -1"
_symmetry_group_IT_number 2
_symmetry_cell_setting 'triclinic'
loop_
_space_group_symop_operation_xyz
x,y,z
-x,-y,-z
loop_
_atom_site_type_symbol
_atom_site_label
_atom_site_fract_x
_atom_site_fract_y
_atom_site_fract_z
Si Si1 0.324736 0.506342 0.597298
Si Si2 0.187097 0.864400 0.752334
Si Si3 0.558638 0.850735 0.621453
Si Si4 0.787783 0.694999 0.056424
Si Si5 0.808495 0.415168 0.777354
Si Si6 0.607948 0.992576 0.848907
Si Si7 0.074479 0.957186 0.210326
Si Si8 0.598155 0.401465 0.272769
O O1 0.500000 0.500000 0.500000
O O2 0.340434 0.358058 0.797660
O O3 0.154051 0.616368 0.354146
O O4 0.322968 0.538359 0.716756
O O5 0.388806 0.831682 0.709163
O O6 0.188204 0.720927 0.962340
O O7 0.000000 0.000000 0.500000
O O8 0.130802 0.935887 0.815709
O O9 0.500000 0.000000 0.500000
O O10 0.556791 0.872338 0.423067
O O11 0.758455 0.721937 0.853721
O O12 0.022591 0.578628 0.209397
O O13 0.708074 0.842233 0.951487
O O14 0.591183 0.566097 0.652316
O O15 0.782682 0.000410 0.842947
O O16 0.500000 0.000000 0.000000
O O17 0.213842 0.780254 0.497859
O O18 0.000000 0.000000 0.000000
O O19 0.500000 0.500000 0.000000
#
# Coordination Sequence:
#
# PCOD9025046 Si02
#       8
#     2   2   2   2   2   2   2   2
#     4  10  23  42  68  95 135 188 235 281 349 432
#     4  12  21  43  75 100 140 191 248 295 348 442
#     4  10  22  40  67 104 134 186 237 294 354 425
#     4  11  23  45  72 101 138 190 248 290 352 441
#     4  11  23  45  69 104 138 191 241 288 362 433
#     4  11  26  44  68 104 148 184 237 309 368 412
#     4  12  27  45  72 110 147 185 241 302 369 424
#     4  11  26  45  71 107 146 185 234 302 366 424
#
# _framework density 22.799887999999999
#
# number of rings (size 3 to 8) (size 9 to 14) (size 15 to 20)
#    0.000    1.000    2.500    4.125    8.750    0.000 
#    0.000    0.625    0.000    0.000    0.000    0.000 
#    0.000    0.000    0.000    0.000    0.000    0.000 
#
# Total GULP energy -89269.737534 kJ/mol
# GULP energy per Si atom -5579.358596 kJ/mol
# Density = 2.274799 g / cm^3
# Si number density = 22.799888 Si / 1000 Ang^3
#
#
#
# Elastic Constant Matrix: (Units=GPa)
#
#
# Indices 1 2 3 4 5 6 
#
# 1 110.7447 22.6728 42.8576 11.0607 11.3687 29.4130
# 2 22.6728 74.8498 34.1946 26.1645 4.2753 7.9503
# 3 42.8576 34.1946 121.6556 34.0521 13.2808 20.8571
# 4 11.0607 26.1645 34.0521 52.7233 12.5507 4.6739
# 5 11.3687 4.2753 13.2808 12.5507 40.7582 -1.4188
# 6 29.4130 7.9503 20.8571 4.6739 -1.4188 35.4635
#
#
#
# Elastic Compliance Matrix: (Units=1/GPa)
#
#
# Indices 1 2 3 4 5 6 
#
# 1 0.013090 -0.002210 -0.002473 0.001583 -0.003423 -0.009252
# 2 -0.002210 0.017472 -0.002391 -0.007112 0.001764 0.000330
# 3 -0.002473 -0.002391 0.012105 -0.005419 -0.001470 -0.003877
# 4 0.001583 -0.007112 -0.005419 0.027201 -0.006319 -0.000369
# 5 -0.003423 0.001764 -0.001470 -0.006319 0.027912 0.005257
# 6 -0.009252 0.000330 -0.003877 -0.000369 0.005257 0.038337
#
#
# Mechanical properties :
#
#
# Convention : Reuss Voigt Hill
#
# Bulk Modulus (GPa) = 35.06535 56.30003 45.68269
# Shear Modulus (GPa) = 31.29437 39.62400 35.45918
#
# Velocity S-wave (km/s) = 3.70884 4.17334 3.94793
# Velocity P-wave (km/s) = 5.80979 6.92597 6.39229
#
# Compressibility (1/GPa) = 0.02851818
#
# Stress axis : x y z
#
# Youngs Moduli (GPa) = 76.39367 57.23400 82.60836
#
# Poissons Ratio (x) = 0.12651 0.20433
# Poissons Ratio (y) = 0.16886 0.19751
# Poissons Ratio (z) = 0.18896 0.13684
#
# Static dielectric constant tensor:
#      x y z
#    x 1.960570 0.174100 0.059040 
#    y 0.174100 2.101100 0.039440 
#    z 0.059040 0.039440 2.005530 
# 
# From -- ./inp_files/216458.got.cif
#   From: 2010.05.17/outbox.cif.g08.bks.cpg/sg2_109_cif.got.tgz:216458.got - 2010.06.03 11:33:40.
