data_PCOD9025386
_publ_section_title
;
Structure prediction by ZEFSAII (Michael W. Deem and Ramdas Pophale) SiO2 
 PCOD9025386
Probable space group: P -1
;
_chemical_formula_sum "Si O2"
_cell_formula_units_Z 16
_cell_length_a 8.991891
_cell_length_b 8.757721
_cell_length_c 12.700511
_cell_angle_alpha 79.909433
_cell_angle_beta 50.609254
_cell_angle_gamma 63.511620
_cell_volume 683.349098
_symmetry_space_group_name_H-M "P -1"
_symmetry_group_IT_number 2
_symmetry_cell_setting 'triclinic'
loop_
_space_group_symop_operation_xyz
x,y,z
-x,-y,-z
loop_
_atom_site_type_symbol
_atom_site_label
_atom_site_fract_x
_atom_site_fract_y
_atom_site_fract_z
Si Si1 0.962846 0.284607 0.599260
Si Si2 0.874451 0.658564 0.689354
Si Si3 0.731944 0.146718 0.171672
Si Si4 0.297804 0.479579 0.640820
Si Si5 0.481917 0.467307 0.777095
Si Si6 0.288360 0.120758 0.640279
Si Si7 0.577923 0.760885 0.009877
Si Si8 0.820103 0.967411 0.937963
O O1 0.916459 0.471014 0.648235
O O2 0.724165 0.323770 0.666281
O O3 0.114638 0.242282 0.433312
O O4 0.084393 0.153246 0.653978
O O5 0.678333 0.733689 0.850409
O O6 0.080827 0.625765 0.672426
O O7 0.540426 0.338136 0.240075
O O8 0.702467 0.984388 0.246878
O O9 0.791685 0.100999 0.029445
O O10 0.925077 0.143069 0.157946
O O11 0.500000 0.500000 0.500000
O O12 0.327410 0.468217 0.753625
O O13 0.295917 0.300833 0.630967
O O14 0.410276 0.414141 0.924881
O O15 0.500000 0.000000 0.500000
O O16 0.331183 0.905284 0.099518
O O17 0.711334 0.836222 0.011052
#
# Coordination Sequence:
#
# PCOD9025386 Si02
#       8
#     2   2   2   2   2   2   2   2
#     4  10  23  42  66  98 133 175 220 273 327 400
#     4  10  22  40  68  97 134 173 221 273 328 396
#     4  11  24  42  67  96 133 175 219 273 334 395
#     4  11  22  42  67  97 136 172 219 278 330 391
#     4  12  24  42  73 100 132 175 228 271 332 396
#     4  11  25  41  66  97 132 175 221 270 333 393
#     4  11  24  42  68 101 130 177 222 278 330 393
#     4  10  24  44  65  92 143 169 216 276 340 390
#
# _framework density 23.414090999999999
#
# number of rings (size 3 to 8) (size 9 to 14) (size 15 to 20)
#    0.000    1.250    1.250    3.750    5.250    8.000 
#    0.000    0.625    0.000    0.000    0.000    0.000 
#    0.000    0.000    0.000    0.000    0.000    0.000 
#
# Total GULP energy -89330.495135 kJ/mol
# GULP energy per Si atom -5583.155946 kJ/mol
# Density = 2.336080 g / cm^3
# Si number density = 23.414091 Si / 1000 Ang^3
#
#
#
# Elastic Constant Matrix: (Units=GPa)
#
#
# Indices 1 2 3 4 5 6 
#
# 1 102.1835 20.0902 7.3212 2.0742 -5.4666 -8.2107
# 2 20.0902 86.5363 25.7128 -15.9840 -0.6523 -15.7119
# 3 7.3212 25.7128 75.9939 -5.3942 2.5895 -3.2779
# 4 2.0742 -15.9840 -5.3942 32.3163 1.3505 -1.8441
# 5 -5.4666 -0.6523 2.5895 1.3505 33.6586 7.9251
# 6 -8.2107 -15.7119 -3.2779 -1.8441 7.9251 30.4402
#
#
#
# Elastic Compliance Matrix: (Units=1/GPa)
#
#
# Indices 1 2 3 4 5 6 
#
# 1 0.010505 -0.002524 -0.000309 -0.001982 0.001530 0.000979
# 2 -0.002524 0.016426 -0.004307 0.008131 -0.002055 0.008361
# 3 -0.000309 -0.004307 0.014696 0.000370 -0.001187 -0.000392
# 4 -0.001982 0.008131 0.000370 0.035671 -0.003201 0.006696
# 5 0.001530 -0.002055 -0.001187 -0.003201 0.032350 -0.009392
# 6 0.000979 0.008361 -0.000392 0.006696 -0.009392 0.040240
#
#
# Mechanical properties :
#
#
# Convention : Reuss Voigt Hill
#
# Bulk Modulus (GPa) = 36.56568 41.21801 38.89184
# Shear Modulus (GPa) = 28.85464 33.38898 31.12181
#
# Velocity S-wave (km/s) = 3.51431 3.78037 3.64976
# Velocity P-wave (km/s) = 5.66728 6.05781 5.86579
#
# Compressibility (1/GPa) = 0.02734805
#
# Stress axis : x y z
#
# Youngs Moduli (GPa) = 95.18863 60.87924 68.04735
#
# Poissons Ratio (x) = 0.15366 0.02100
# Poissons Ratio (y) = 0.24026 0.29306
# Poissons Ratio (z) = 0.02938 0.26219
#
# Static dielectric constant tensor:
#      x y z
#    x 1.920380 -0.003040 -0.021210 
#    y -0.003040 1.787400 0.102330 
#    z -0.021210 0.102330 1.808340 
# 
# From -- ./inp_files/381614.got.cif
#   From: 2010.05.17/outbox.cif.g08.bks.cpg/sg2_191_cif.got.tgz:381614.got - 2010.06.03 11:33:40.
