data_PCOD9025696
_publ_section_title
;
Structure prediction by ZEFSAII (Michael W. Deem and Ramdas Pophale) SiO2 
 PCOD9025696
Probable space group: P -1
;
_chemical_formula_sum "Si O2"
_cell_formula_units_Z 16
_cell_length_a 13.326521
_cell_length_b 28.005170
_cell_length_c 9.343013
_cell_angle_alpha 34.452171
_cell_angle_beta 134.245448
_cell_angle_gamma 159.563725
_cell_volume 637.237767
_symmetry_space_group_name_H-M "P -1"
_symmetry_group_IT_number 2
_symmetry_cell_setting 'triclinic'
loop_
_space_group_symop_operation_xyz
x,y,z
-x,-y,-z
loop_
_atom_site_type_symbol
_atom_site_label
_atom_site_fract_x
_atom_site_fract_y
_atom_site_fract_z
Si Si1 0.588179 0.955010 0.935583
Si Si2 0.783638 0.287606 0.096483
Si Si3 0.588935 0.133682 0.588919
Si Si4 0.884561 0.771769 0.834728
Si Si5 0.643134 0.456169 0.324914
Si Si6 0.263034 0.298084 0.802920
Si Si7 0.185278 0.632133 0.513099
Si Si8 0.667032 0.795014 0.111420
O O1 0.364182 0.847295 0.843720
O O2 0.560141 0.017598 0.861640
O O3 0.482541 0.813749 0.262785
O O4 0.943265 0.139784 0.788332
O O5 0.767976 0.238402 0.357127
O O6 0.553761 0.243743 0.992738
O O7 0.103053 0.499395 0.833720
O O8 0.782659 0.286240 0.522960
O O9 0.237727 0.980924 0.622593
O O10 0.625490 0.687946 0.704406
O O11 0.815536 0.638440 0.045790
O O12 0.828546 0.748388 0.006622
O O13 0.467421 0.350629 0.560924
O O14 0.893424 0.515193 0.423686
O O15 0.500000 0.500000 0.500000
O O16 0.358342 0.256791 0.944504
O O17 0.000000 0.000000 0.000000
#
# Coordination Sequence:
#
# PCOD9025696 Si02
#       8
#     2   2   2   2   2   2   2   2
#     4  12  24  44  72 102 138 183 234 280 346 418
#     4  11  26  44  68 101 141 185 225 285 350 413
#     4  12  24  44  74 104 137 177 236 290 338 405
#     4  11  22  42  69 105 136 174 239 288 334 402
#     4  10  22  40  70  97 136 184 223 281 344 406
#     4  12  25  43  70 105 135 183 238 287 339 411
#     4  11  23  46  70 101 140 185 224 282 356 408
#     4  11  22  44  66  91 142 186 225 278 352 412
#
# _framework density 25.108367999999999
#
# number of rings (size 3 to 8) (size 9 to 14) (size 15 to 20)
#    0.000    0.750    5.000    3.000    1.750    0.000 
#    2.250    5.000    0.000    0.000    0.000    0.000 
#    0.000    0.000    0.000    0.000    0.000    0.000 
#
# Total GULP energy -89615.629000 kJ/mol
# GULP energy per Si atom -5600.976812 kJ/mol
# Density = 2.505122 g / cm^3
# Si number density = 25.108368 Si / 1000 Ang^3
#
#
#
# Elastic Constant Matrix: (Units=GPa)
#
#
# Indices 1 2 3 4 5 6 
#
# 1 86.3208 5.3097 9.2327 -5.1158 -5.0987 -5.3732
# 2 5.3097 80.9898 35.0528 -20.0388 1.7790 5.1053
# 3 9.2327 35.0528 122.9751 -22.0045 -18.8150 -3.8042
# 4 -5.1158 -20.0388 -22.0045 41.4422 -1.4649 -3.0736
# 5 -5.0987 1.7790 -18.8150 -1.4649 40.3048 0.2764
# 6 -5.3732 5.1053 -3.8042 -3.0736 0.2764 40.7397
#
#
#
# Elastic Compliance Matrix: (Units=1/GPa)
#
#
# Indices 1 2 3 4 5 6 
#
# 1 0.011908 -0.000495 -0.000251 0.001274 0.001446 0.001696
# 2 -0.000495 0.015510 -0.003885 0.005147 -0.002360 -0.001968
# 3 -0.000251 -0.003885 0.010881 0.004187 0.005359 0.001749
# 4 0.001274 0.005147 0.004187 0.029259 0.002938 0.002102
# 5 0.001446 -0.002360 0.005359 0.002938 0.027700 0.001021
# 6 0.001696 -0.001968 0.001749 0.002102 0.001021 0.025331
#
#
# Mechanical properties :
#
#
# Convention : Reuss Voigt Hill
#
# Bulk Modulus (GPa) = 34.43896 43.27513 38.85704
# Shear Modulus (GPa) = 35.83399 40.54335 38.18867
#
# Velocity S-wave (km/s) = 3.78189 4.02274 3.90417
# Velocity P-wave (km/s) = 5.72854 6.23292 5.98605
#
# Compressibility (1/GPa) = 0.02903688
#
# Stress axis : x y z
#
# Youngs Moduli (GPa) = 83.97375 64.47282 91.90052
#
# Poissons Ratio (x) = 0.03194 0.02309
# Poissons Ratio (y) = 0.04160 0.35703
# Poissons Ratio (z) = 0.02110 0.25048
#
# Static dielectric constant tensor:
#      x y z
#    x 2.022850 -0.014170 -0.000460 
#    y -0.014170 2.013490 -0.001140 
#    z -0.000460 -0.001140 1.983290 
# 
# From -- ./inp_files/320938.got.cif
#   From: 2010.05.17/outbox.cif.g08.bks.cpg/sg2_161_cif.got.tgz:320938.got - 2010.06.03 11:33:40.
