data_PCOD9025225
_publ_section_title
;
Structure prediction by ZEFSAII (Michael W. Deem and Ramdas Pophale) SiO2 
 PCOD9025225
Probable space group: P -1
;
_chemical_formula_sum "Si O2"
_cell_formula_units_Z 15
_cell_length_a 19.312964
_cell_length_b 23.355148
_cell_length_c 10.304646
_cell_angle_alpha 31.989514
_cell_angle_beta 138.072836
_cell_angle_gamma 162.207162
_cell_volume 691.966317
_symmetry_space_group_name_H-M "P -1"
_symmetry_group_IT_number 2
_symmetry_cell_setting 'triclinic'
loop_
_space_group_symop_operation_xyz
x,y,z
-x,-y,-z
loop_
_atom_site_type_symbol
_atom_site_label
_atom_site_fract_x
_atom_site_fract_y
_atom_site_fract_z
Si Si1 0.690584 0.924078 0.877421
Si Si2 0.243945 0.482658 0.616639
Si Si3 0.554934 0.130147 0.704206
Si Si4 0.330186 0.769842 0.609122
Si Si5 0.575152 0.350107 0.720700
Si Si6 0.291883 0.280037 0.847111
Si Si7 0.500000 0.500000 0.000000
Si Si8 0.994677 0.401865 0.070607
O O1 0.478539 0.796849 0.763323
O O2 0.653964 0.894073 0.039353
O O3 0.650055 0.764672 0.078766
O O4 0.971590 0.226322 0.666539
O O5 0.280925 0.613277 0.518006
O O6 0.440853 0.689595 0.377404
O O7 0.307925 0.423971 0.867931
O O8 0.663451 0.182842 0.620730
O O9 0.275916 0.903460 0.718505
O O10 0.500000 0.000000 0.000000
O O11 0.500000 0.000000 0.500000
O O12 0.073938 0.519429 0.811601
O O13 0.635477 0.533899 0.463335
O O14 0.798623 0.489783 0.816703
O O15 0.424415 0.393648 0.951313
O O16 0.000000 0.000000 0.000000
O O17 0.000000 0.500000 0.000000
#
# Coordination Sequence:
#
# PCOD9025225 Si02
#       8
#     2   2   2   2   2   2   1   2
#     4  11  23  43  70  95 134 176 227 277 343 403
#     4  11  24  42  65  99 138 173 221 285 344 405
#     4  12  27  41  65 100 138 173 223 290 348 410
#     4  11  25  43  70  94 126 182 233 274 341 420
#     4  10  23  41  69  98 126 179 229 270 339 417
#     4  11  21  41  70  98 133 179 218 282 343 404
#     4  10  22  40  68 100 128 174 228 262 348 406
#     4  11  23  43  68  93 130 178 229 280 340 411
#
# _framework density 21.677356
#
# number of rings (size 3 to 8) (size 9 to 14) (size 15 to 20)
#    0.000    1.067    4.000    2.800    5.600    1.600 
#    0.000    2.667    0.000    0.000    0.000    0.000 
#    0.000    0.000    0.000    0.000    0.000    0.000 
#
# Total GULP energy -83542.266823 kJ/mol
# GULP energy per Si atom -5569.484455 kJ/mol
# Density = 2.162802 g / cm^3
# Si number density = 21.677356 Si / 1000 Ang^3
#
#
#
# Elastic Constant Matrix: (Units=GPa)
#
#
# Indices 1 2 3 4 5 6 
#
# 1 126.5801 24.1253 34.8262 6.7762 -13.4828 -15.4143
# 2 24.1253 54.1591 9.2441 9.6745 -1.6232 -3.0308
# 3 34.8262 9.2441 61.9644 -0.5470 -28.9516 -4.1637
# 4 6.7762 9.6745 -0.5470 27.2922 0.3811 1.8343
# 5 -13.4828 -1.6232 -28.9516 0.3811 51.3167 3.3194
# 6 -15.4143 -3.0308 -4.1637 1.8343 3.3194 37.1180
#
#
#
# Elastic Compliance Matrix: (Units=1/GPa)
#
#
# Indices 1 2 3 4 5 6 
#
# 1 0.010497 -0.003231 -0.005503 -0.001806 -0.000670 0.003627
# 2 -0.003231 0.021472 -0.002009 -0.006874 -0.001294 0.000641
# 3 -0.005503 -0.002009 0.025539 0.002468 0.012937 -0.000863
# 4 -0.001806 -0.006874 0.002468 0.039772 0.000603 -0.003054
# 5 -0.000670 -0.001294 0.012937 0.000603 0.026651 -0.001346
# 6 0.003627 0.000641 -0.000863 -0.003054 -0.001346 0.028674
#
#
# Mechanical properties :
#
#
# Convention : Reuss Voigt Hill
#
# Bulk Modulus (GPa) = 27.76173 42.12163 34.94168
# Shear Modulus (GPa) = 26.86755 34.77924 30.82340
#
# Velocity S-wave (km/s) = 3.52437 4.00985 3.77492
# Velocity P-wave (km/s) = 5.42183 6.39624 5.92908
#
# Compressibility (1/GPa) = 0.03602081
#
# Stress axis : x y z
#
# Youngs Moduli (GPa) = 95.26527 46.57336 39.15578
#
# Poissons Ratio (x) = 0.15049 0.21547
# Poissons Ratio (y) = 0.30783 0.07867
# Poissons Ratio (z) = 0.52424 0.09357
#
# Static dielectric constant tensor:
#      x y z
#    x 1.830780 -0.004130 -0.036400 
#    y -0.004130 1.779500 0.044870 
#    z -0.036400 0.044870 1.858000 
# 
# From -- ./inp_files/337516.got.cif
#   From: 2010.05.17/outbox.cif.g08.bks.cpg/sg2_169_cif.got.tgz:337516.got - 2010.06.03 11:33:40.
