data_PCOD9025409
_publ_section_title
;
Structure prediction by ZEFSAII (Michael W. Deem and Ramdas Pophale) SiO2 
 PCOD9025409
Probable space group: P -1
;
_chemical_formula_sum "Si O2"
_cell_formula_units_Z 15
_cell_length_a 14.252013
_cell_length_b 8.740193
_cell_length_c 8.434628
_cell_angle_alpha 80.662305
_cell_angle_beta 40.989255
_cell_angle_gamma 66.085512
_cell_volume 611.617050
_symmetry_space_group_name_H-M "P -1"
_symmetry_group_IT_number 2
_symmetry_cell_setting 'triclinic'
loop_
_space_group_symop_operation_xyz
x,y,z
-x,-y,-z
loop_
_atom_site_type_symbol
_atom_site_label
_atom_site_fract_x
_atom_site_fract_y
_atom_site_fract_z
Si Si1 0.674360 0.276819 0.470796
Si Si2 0.945347 0.321563 0.278017
Si Si3 0.408709 0.556330 0.942772
Si Si4 0.000000 0.000000 0.500000
Si Si5 0.407562 0.836979 0.736210
Si Si6 0.750571 0.799097 0.261454
Si Si7 0.178659 0.413539 0.349927
Si Si8 0.790075 0.929208 0.526603
O O1 0.841479 0.281622 0.285623
O O2 0.537239 0.460101 0.661462
O O3 0.647763 0.225166 0.339911
O O4 0.669218 0.130283 0.621396
O O5 0.835825 0.500454 0.473283
O O6 0.987809 0.171233 0.380872
O O7 0.098159 0.331876 0.005388
O O8 0.344105 0.761636 0.973558
O O9 0.500000 0.500000 0.000000
O O10 0.279115 0.485591 0.107603
O O11 0.935726 0.932887 0.436648
O O12 0.597155 0.771135 0.509238
O O13 0.327215 0.041010 0.789817
O O14 0.813848 0.858097 0.327635
O O15 0.254433 0.207603 0.301502
O O16 0.000000 0.500000 0.500000
#
# Coordination Sequence:
#
# PCOD9025409 Si02
#       8
#     2   2   2   1   2   2   2   2
#     4  10  24  44  67  99 134 187 230 275 350 408
#     4  11  24  43  69 104 138 181 232 278 349 404
#     4  12  25  44  69  97 142 179 225 289 343 411
#     4  10  22  40  68  98 140 174 222 280 346 408
#     4  10  24  46  69 103 138 183 232 279 349 408
#     4  10  24  44  73 102 139 183 232 287 336 409
#     4  12  26  43  67 107 139 180 230 287 348 401
#     4  10  23  45  67  99 141 177 234 279 341 411
#
# _framework density 24.525151000000001
#
# number of rings (size 3 to 8) (size 9 to 14) (size 15 to 20)
#    0.000    1.333    2.667    1.200    3.733    6.933 
#    0.000    0.000    0.000    0.000    0.000    0.000 
#    0.000    0.000    0.000    0.000    0.000    0.000 
#
# Total GULP energy -83646.899326 kJ/mol
# GULP energy per Si atom -5576.459955 kJ/mol
# Density = 2.446933 g / cm^3
# Si number density = 24.525151 Si / 1000 Ang^3
#
#
#
# Elastic Constant Matrix: (Units=GPa)
#
#
# Indices 1 2 3 4 5 6 
#
# 1 139.9771 13.4993 15.7408 -10.4989 -7.4088 -2.1976
# 2 13.4993 135.3706 5.6136 -36.6176 -13.3802 -11.1130
# 3 15.7408 5.6136 54.5486 -13.3986 -20.3277 -3.3011
# 4 -10.4989 -36.6176 -13.3986 30.6466 7.6359 4.7607
# 5 -7.4088 -13.3802 -20.3277 7.6359 27.8344 -0.0965
# 6 -2.1976 -11.1130 -3.3011 4.7607 -0.0965 39.3927
#
#
#
# Elastic Compliance Matrix: (Units=1/GPa)
#
#
# Indices 1 2 3 4 5 6 
#
# 1 0.007480 -0.000256 -0.001684 0.001456 0.000239 0.000028
# 2 -0.000256 0.011740 0.004282 0.014320 0.004781 0.001938
# 3 -0.001684 0.004282 0.028602 0.011923 0.019235 0.002117
# 4 0.001456 0.014320 0.011923 0.055512 0.000744 -0.001587
# 5 0.000239 0.004781 0.019235 0.000744 0.052143 0.003012
# 6 0.000028 0.001938 0.002117 -0.001587 0.003012 0.026310
#
#
# Mechanical properties :
#
#
# Convention : Reuss Voigt Hill
#
# Bulk Modulus (GPa) = 19.04520 44.40041 31.72281
# Shear Modulus (GPa) = 25.69293 39.24425 32.46859
#
# Velocity S-wave (km/s) = 3.24020 4.00454 3.64248
# Velocity P-wave (km/s) = 4.66701 6.28690 5.53652
#
# Compressibility (1/GPa) = 0.05250667
#
# Stress axis : x y z
#
# Youngs Moduli (GPa) = 133.68261 85.17770 34.96232
#
# Poissons Ratio (x) = 0.02182 0.05887
# Poissons Ratio (y) = 0.03425 -0.14971
# Poissons Ratio (z) = 0.22509 -0.36472
#
# Static dielectric constant tensor:
#      x y z
#    x 1.911200 -0.046830 0.017100 
#    y -0.046830 2.065950 -0.084960 
#    z 0.017100 -0.084960 2.014410 
# 
# From -- ./inp_files/295127.got.cif
#   From: 2010.05.17/outbox.cif.g08.bks.cpg/sg2_148_cif.got.tgz:295127.got - 2010.06.03 11:33:40.
