data_PCOD9025507
_publ_section_title
;
Structure prediction by ZEFSAII (Michael W. Deem and Ramdas Pophale) SiO2 
 PCOD9025507
Probable space group: P -1
;
_chemical_formula_sum "Si O2"
_cell_formula_units_Z 14
_cell_length_a 12.200824
_cell_length_b 15.494035
_cell_length_c 7.073098
_cell_angle_alpha 97.738537
_cell_angle_beta 125.416403
_cell_angle_gamma 39.869305
_cell_volume 562.129119
_symmetry_space_group_name_H-M "P -1"
_symmetry_group_IT_number 2
_symmetry_cell_setting 'triclinic'
loop_
_space_group_symop_operation_xyz
x,y,z
-x,-y,-z
loop_
_atom_site_type_symbol
_atom_site_label
_atom_site_fract_x
_atom_site_fract_y
_atom_site_fract_z
Si Si1 0.917027 0.633714 0.261134
Si Si2 0.553915 0.722676 0.442725
Si Si3 0.113729 0.897128 0.884644
Si Si4 0.629222 0.091121 0.329069
Si Si5 0.243987 0.167318 0.526636
Si Si6 0.685797 0.319653 0.689114
Si Si7 0.161477 0.154272 0.015980
O O1 0.934556 0.665121 0.495804
O O2 0.151487 0.445365 0.370386
O O3 0.636567 0.745343 0.994113
O O4 0.909457 0.723777 0.147169
O O5 0.463775 0.849749 0.525554
O O6 0.482354 0.676302 0.487197
O O7 0.372989 0.809091 0.102882
O O8 0.879542 0.014177 0.543758
O O9 0.216477 0.745608 0.014449
O O10 0.000000 0.000000 0.000000
O O11 0.728915 0.937806 0.359772
O O12 0.154493 0.193836 0.235552
O O13 0.541791 0.035143 0.781229
O O14 0.500000 0.500000 0.500000
O O15 0.949496 0.194371 0.800758
#
# Coordination Sequence:
#
# PCOD9025507 Si02
#       7
#     2   2   2   2   2   2   2
#     4  11  21  35  57  87 112 141 190 238 276 331
#     4   9  19  32  56  82 111 149 182 230 289 332
#     4   8  16  30  51  83 108 145 195 221 273 350
#     4  10  17  33  54  81 109 148 189 225 278 339
#     4  10  21  34  58  83 109 144 190 232 275 335
#     4  10  17  31  54  85 111 145 191 231 278 339
#     4  10  18  34  56  80 107 149 183 227 280 329
#
# _framework density 24.905311000000001
#
# number of rings (size 3 to 8) (size 9 to 14) (size 15 to 20)
#    0.857    1.429    2.857    2.143    0.000    0.000 
#    0.000    2.857    0.000   18.857    0.000    0.000 
#    0.000    0.000    0.000    0.000    0.000    0.000 
#
# Total GULP energy -78069.941373 kJ/mol
# GULP energy per Si atom -5576.424384 kJ/mol
# Density = 2.484862 g / cm^3
# Si number density = 24.905311 Si / 1000 Ang^3
#
#
#
# Elastic Constant Matrix: (Units=GPa)
#
#
# Indices 1 2 3 4 5 6 
#
# 1 103.0743 8.9703 26.9523 -0.2072 10.9136 6.3245
# 2 8.9703 68.9466 36.3623 -3.5465 -8.4674 -3.6599
# 3 26.9523 36.3623 96.2916 -4.2121 18.9949 -6.1797
# 4 -0.2072 -3.5465 -4.2121 32.8262 1.1990 -3.0868
# 5 10.9136 -8.4674 18.9949 1.1990 27.1027 2.0865
# 6 6.3245 -3.6599 -6.1797 -3.0868 2.0865 23.9232
#
#
#
# Elastic Compliance Matrix: (Units=1/GPa)
#
#
# Indices 1 2 3 4 5 6 
#
# 1 0.010905 -0.000557 -0.002610 -0.000566 -0.002441 -0.003502
# 2 -0.000557 0.022399 -0.011325 0.000349 0.015193 -0.000631
# 3 -0.002610 -0.011325 0.019091 0.002337 -0.016403 0.005621
# 4 -0.000566 0.000349 0.002337 0.031392 -0.003085 0.005126
# 5 -0.002441 0.015193 -0.016403 -0.003085 0.054755 -0.006441
# 6 -0.003502 -0.000631 0.005621 0.005126 -0.006441 0.045305
#
#
# Mechanical properties :
#
#
# Convention : Reuss Voigt Hill
#
# Bulk Modulus (GPa) = 42.71417 45.87583 44.29500
# Shear Modulus (GPa) = 22.66182 29.83892 26.25037
#
# Velocity S-wave (km/s) = 3.01976 3.46511 3.25007
# Velocity P-wave (km/s) = 5.41724 5.87106 5.64871
#
# Compressibility (1/GPa) = 0.02341143
#
# Stress axis : x y z
#
# Youngs Moduli (GPa) = 91.70162 44.64388 52.38074
#
# Poissons Ratio (x) = 0.02488 0.13670
# Poissons Ratio (y) = 0.05110 0.59321
# Poissons Ratio (z) = 0.23933 0.50559
#
# Static dielectric constant tensor:
#      x y z
#    x 2.017360 0.028620 0.006340 
#    y 0.028620 1.968270 -0.007670 
#    z 0.006340 -0.007670 2.028080 
# 
# From -- ./inp_files/337015.got.cif
#   From: 2010.05.17/outbox.cif.g08.bks.cpg/sg2_169_cif.got.tgz:337015.got - 2010.06.03 11:33:40.
