data_PCOD9025569
_publ_section_title
;
Structure prediction by ZEFSAII (Michael W. Deem and Ramdas Pophale) SiO2 
 PCOD9025569
Probable space group: P -1
;
_chemical_formula_sum "Si O2"
_cell_formula_units_Z 15
_cell_length_a 18.235599
_cell_length_b 9.017090
_cell_length_c 23.678526
_cell_angle_alpha 33.443982
_cell_angle_beta 158.448137
_cell_angle_gamma 149.153432
_cell_volume 719.900873
_symmetry_space_group_name_H-M "P -1"
_symmetry_group_IT_number 2
_symmetry_cell_setting 'triclinic'
loop_
_space_group_symop_operation_xyz
x,y,z
-x,-y,-z
loop_
_atom_site_type_symbol
_atom_site_label
_atom_site_fract_x
_atom_site_fract_y
_atom_site_fract_z
Si Si1 0.605327 0.265790 0.534734
Si Si2 0.188999 0.418602 0.636027
Si Si3 0.972176 0.766623 0.102171
Si Si4 0.428311 0.036310 0.066510
Si Si5 0.500000 0.500000 0.500000
Si Si6 0.571054 0.681610 0.909174
Si Si7 0.041350 0.785836 0.789005
Si Si8 0.236665 0.255272 0.600476
O O1 0.483386 0.326801 0.482037
O O2 0.689563 0.553883 0.463837
O O3 0.801368 0.199095 0.721247
O O4 0.500000 0.000000 0.500000
O O5 0.412201 0.633887 0.757462
O O6 0.211658 0.434629 0.579900
O O7 0.000000 0.500000 0.500000
O O8 0.123105 0.082948 0.715858
O O9 0.877073 0.440740 0.111172
O O10 0.816746 0.801779 0.026709
O O11 0.000000 0.000000 0.000000
O O12 0.584446 0.873729 0.214858
O O13 0.453605 0.103592 0.129874
O O14 0.179401 0.869273 0.919746
O O15 0.511500 0.358695 0.995223
O O16 0.777358 0.639823 0.650334
O O17 0.000000 0.000000 0.500000
#
# Coordination Sequence:
#
# PCOD9025569 Si02
#       8
#     2   2   2   2   1   2   2   2
#     4  11  28  44  70 103 138 185 232 289 348 419
#     4  11  24  39  71  99 135 176 227 280 349 407
#     4  11  25  43  67  92 135 179 226 272 341 412
#     4  10  22  40  69  98 133 172 226 284 345 403
#     4  10  24  48  68  90 146 180 226 284 346 410
#     4  10  22  41  65 100 133 172 223 283 335 417
#     4  10  23  43  66  99 131 183 225 286 342 409
#     4  12  24  43  69 100 138 175 234 288 350 415
#
# _framework density 20.836202
#
# number of rings (size 3 to 8) (size 9 to 14) (size 15 to 20)
#    0.000    1.333    0.000    4.800    7.467    6.400 
#    0.000    1.333    0.000    0.000    0.000    0.000 
#    0.000    0.000    0.000    0.000    0.000    0.000 
#
# Total GULP energy -83546.667167 kJ/mol
# GULP energy per Si atom -5569.777811 kJ/mol
# Density = 2.078878 g / cm^3
# Si number density = 20.836202 Si / 1000 Ang^3
#
#
#
# Elastic Constant Matrix: (Units=GPa)
#
#
# Indices 1 2 3 4 5 6 
#
# 1 128.7975 10.1267 22.6514 7.8955 15.6535 -28.6962
# 2 10.1267 52.7861 7.4832 2.6116 -7.7303 -13.7548
# 3 22.6514 7.4832 78.2158 5.4837 -1.2869 -0.7190
# 4 7.8955 2.6116 5.4837 34.4762 -6.2047 1.7298
# 5 15.6535 -7.7303 -1.2869 -6.2047 37.2901 9.2532
# 6 -28.6962 -13.7548 -0.7190 1.7298 9.2532 23.9601
#
#
#
# Elastic Compliance Matrix: (Units=1/GPa)
#
#
# Indices 1 2 3 4 5 6 
#
# 1 0.016811 0.002902 -0.004614 -0.007393 -0.014768 0.027899
# 2 0.002902 0.023292 -0.002711 -0.003119 -0.001347 0.017511
# 3 -0.004614 -0.002711 0.014364 0.000092 0.003913 -0.008170
# 4 -0.007393 -0.003119 0.000092 0.034088 0.012590 -0.017965
# 5 -0.014768 -0.001347 0.003913 0.012590 0.043956 -0.036227
# 6 0.027899 0.017511 -0.008170 -0.017965 -0.036227 0.100244
#
#
# Mechanical properties :
#
#
# Convention : Reuss Voigt Hill
#
# Bulk Modulus (GPa) = 21.92061 37.81357 29.86709
# Shear Modulus (GPa) = 19.46975 33.78116 26.62546
#
# Velocity S-wave (km/s) = 3.06014 4.03087 3.57858
# Velocity P-wave (km/s) = 4.79888 6.31279 5.60716
#
# Compressibility (1/GPa) = 0.04561917
#
# Stress axis : x y z
#
# Youngs Moduli (GPa) = 59.48360 42.93331 69.61973
#
# Poissons Ratio (x) = -0.12459 0.32125
# Poissons Ratio (y) = -0.17261 0.18876
# Poissons Ratio (z) = 0.27448 0.11641
#
# Static dielectric constant tensor:
#      x y z
#    x 1.874290 -0.049630 0.074620 
#    y -0.049630 1.789000 -0.006390 
#    z 0.074620 -0.006390 1.792410 
# 
# From -- ./inp_files/190974.got.cif
#   From: 2010.05.17/outbox.cif.g08.bks.cpg/sg2_96_cif.got.tgz:190974.got - 2010.06.03 11:33:40.
