data_PCOD9025294
_publ_section_title
;
Structure prediction by ZEFSAII (Michael W. Deem and Ramdas Pophale) SiO2 
 PCOD9025294
Probable space group: P -1
;
_chemical_formula_sum "Si O2"
_cell_formula_units_Z 15
_cell_length_a 5.057024
_cell_length_b 12.083152
_cell_length_c 12.194662
_cell_angle_alpha 58.954819
_cell_angle_beta 98.929997
_cell_angle_gamma 80.843721
_cell_volume 604.972136
_symmetry_space_group_name_H-M "P -1"
_symmetry_group_IT_number 2
_symmetry_cell_setting 'triclinic'
loop_
_space_group_symop_operation_xyz
x,y,z
-x,-y,-z
loop_
_atom_site_type_symbol
_atom_site_label
_atom_site_fract_x
_atom_site_fract_y
_atom_site_fract_z
Si Si1 0.303390 0.219041 0.182081
Si Si2 0.827912 0.678113 0.305133
Si Si3 0.092385 0.136076 0.439307
Si Si4 0.258219 0.720683 0.468489
Si Si5 0.501341 0.076793 0.698935
Si Si6 0.983538 0.413757 0.871802
Si Si7 0.500000 0.500000 0.500000
Si Si8 0.412006 0.569283 0.841938
O O1 0.164610 0.176251 0.303370
O O2 0.537027 0.285513 0.208422
O O3 0.429953 0.079999 0.195918
O O4 0.098867 0.322502 0.033518
O O5 0.680664 0.825098 0.271625
O O6 0.912546 0.670712 0.188254
O O7 0.628789 0.585747 0.366306
O O8 0.126417 0.634846 0.415056
O O9 0.353096 0.104022 0.556308
O O10 0.870991 0.249753 0.437343
O O11 0.000000 0.000000 0.500000
O O12 0.241092 0.861616 0.337747
O O13 0.557746 0.614717 0.536173
O O14 0.124448 0.536002 0.817078
O O15 0.656475 0.479039 0.828054
O O16 0.500000 0.500000 0.000000
#
# Coordination Sequence:
#
# PCOD9025294 Si02
#       8
#     2   2   2   2   2   2   1   2
#     4  11  23  43  69  97 135 184 222 285 362 403
#     4  10  24  43  67  97 137 173 236 285 341 415
#     4  11  23  39  66  98 133 172 227 289 338 419
#     4  10  22  42  61  96 132 170 225 284 338 412
#     4  10  23  43  63  96 134 173 229 281 338 415
#     4  11  26  46  71 104 142 181 236 290 343 423
#     4  10  22  40  68  88 130 182 224 280 346 392
#     4  10  24  46  67 101 140 181 234 283 341 423
#
# _framework density 24.794529000000001
#
# number of rings (size 3 to 8) (size 9 to 14) (size 15 to 20)
#    0.000    1.600    1.333    2.400    5.600    6.933 
#    0.000    0.667    0.000    0.000    0.000    0.000 
#    0.000    0.000    0.000    0.000    0.000    0.000 
#
# Total GULP energy -83748.487142 kJ/mol
# GULP energy per Si atom -5583.232476 kJ/mol
# Density = 2.473810 g / cm^3
# Si number density = 24.794529 Si / 1000 Ang^3
#
#
#
# Elastic Constant Matrix: (Units=GPa)
#
#
# Indices 1 2 3 4 5 6 
#
# 1 67.4585 37.0159 19.1280 6.8037 -24.9631 7.9267
# 2 37.0159 179.0166 64.4047 -10.5370 -15.7196 -6.5575
# 3 19.1280 64.4047 106.7118 9.5224 -27.6437 3.1093
# 4 6.8037 -10.5370 9.5224 55.7392 -1.0578 -6.3168
# 5 -24.9631 -15.7196 -27.6437 -1.0578 36.5358 3.9811
# 6 7.9267 -6.5575 3.1093 -6.3168 3.9811 49.8895
#
#
#
# Elastic Compliance Matrix: (Units=1/GPa)
#
#
# Indices 1 2 3 4 5 6 
#
# 1 0.024957 -0.005716 0.004484 -0.005351 0.018610 -0.007159
# 2 -0.005716 0.008833 -0.005999 0.003674 -0.004897 0.003299
# 3 0.004484 -0.005999 0.016082 -0.004650 0.012965 -0.004127
# 4 -0.005351 0.003674 -0.004650 0.020506 -0.005508 0.004659
# 5 0.018610 -0.004897 0.012965 -0.005508 0.048607 -0.008985
# 6 -0.007159 0.003299 -0.004127 0.004659 -0.008985 0.023179
#
#
# Mechanical properties :
#
#
# Convention : Reuss Voigt Hill
#
# Bulk Modulus (GPa) = 28.24248 66.03158 47.13703
# Shear Modulus (GPa) = 29.68554 43.94214 36.81384
#
# Velocity S-wave (km/s) = 3.46390 4.21438 3.85743
# Velocity P-wave (km/s) = 5.23579 7.09723 6.23635
#
# Compressibility (1/GPa) = 0.03540766
#
# Stress axis : x y z
#
# Youngs Moduli (GPa) = 40.06940 113.20562 62.18134
#
# Poissons Ratio (x) = 0.64714 -0.27879
# Poissons Ratio (y) = 0.22906 0.37304
# Poissons Ratio (z) = -0.17965 0.67915
#
# Static dielectric constant tensor:
#      x y z
#    x 2.495570 -0.228450 0.183570 
#    y -0.228450 2.189740 -0.099000 
#    z 0.183570 -0.099000 2.087180 
# 
# From -- ./inp_files/363872.got.cif
#   From: 2010.05.17/outbox.cif.g08.bks.cpg/sg2_182_cif.got.tgz:363872.got - 2010.06.03 11:33:40.
