data_PCOD9025840
_publ_section_title
;
Structure prediction by ZEFSAII (Michael W. Deem and Ramdas Pophale) SiO2 
 PCOD9025840
Probable space group: P -1
;
_chemical_formula_sum "Si O2"
_cell_formula_units_Z 13
_cell_length_a 8.333955
_cell_length_b 6.325290
_cell_length_c 16.678875
_cell_angle_alpha 50.733104
_cell_angle_beta 59.633660
_cell_angle_gamma 92.658922
_cell_volume 491.105562
_symmetry_space_group_name_H-M "P -1"
_symmetry_group_IT_number 2
_symmetry_cell_setting 'triclinic'
loop_
_space_group_symop_operation_xyz
x,y,z
-x,-y,-z
loop_
_atom_site_type_symbol
_atom_site_label
_atom_site_fract_x
_atom_site_fract_y
_atom_site_fract_z
Si Si1 0.745113 0.509562 0.713631
Si Si2 0.876883 0.862986 0.434073
Si Si3 0.649980 0.391222 0.029443
Si Si4 0.543155 0.210093 0.266988
Si Si5 0.009042 0.310029 0.890395
Si Si6 0.065059 0.880091 0.210620
Si Si7 0.500000 0.000000 0.500000
O O1 0.531319 0.531143 0.769983
O O2 0.739958 0.189368 0.814460
O O3 0.924627 0.793718 0.660150
O O4 0.831240 0.610601 0.576687
O O5 0.656954 0.863027 0.475985
O O6 0.956391 0.819124 0.339004
O O7 0.528965 0.139811 0.193418
O O8 0.500000 0.500000 0.000000
O O9 0.780011 0.284482 0.966518
O O10 0.841653 0.751660 0.928183
O O11 0.799055 0.382325 0.184908
O O12 0.424383 0.962610 0.429084
O O13 0.087152 0.353490 0.767537
O O14 0.000000 0.000000 0.000000
#
# Coordination Sequence:
#
# PCOD9025840 Si02
#       7
#     2   2   2   2   2   2   1
#     4  10  23  43  69 100 137 181 227 283 333 418
#     4  10  22  44  67 102 136 179 227 283 340 402
#     4  12  27  44  69 100 136 182 230 284 346 409
#     4  11  23  45  67  99 137 177 231 277 350 400
#     4  12  27  44  67 101 138 180 226 288 338 409
#     4  12  23  42  69  95 138 179 228 276 347 405
#     4  10  22  40  72  92 134 176 218 284 338 402
#
# _framework density 26.470887000000001
#
# number of rings (size 3 to 8) (size 9 to 14) (size 15 to 20)
#    0.000    0.923    1.538    5.538    4.308    1.231 
#    0.000   10.000    0.000    0.000    0.000    0.000 
#    0.000    0.000    0.000    0.000    0.000    0.000 
#
# Total GULP energy -72560.219001 kJ/mol
# GULP energy per Si atom -5581.555308 kJ/mol
# Density = 2.641064 g / cm^3
# Si number density = 26.470887 Si / 1000 Ang^3
#
#
#
# Elastic Constant Matrix: (Units=GPa)
#
#
# Indices 1 2 3 4 5 6 
#
# 1 142.1376 53.7701 31.4595 30.3145 8.8569 -20.9439
# 2 53.7701 92.1982 64.8624 22.2752 18.1701 -11.6310
# 3 31.4595 64.8624 131.4314 47.7614 32.6152 -4.4432
# 4 30.3145 22.2752 47.7614 65.8529 5.5171 8.0962
# 5 8.8569 18.1701 32.6152 5.5171 46.4250 12.6034
# 6 -20.9439 -11.6310 -4.4432 8.0962 12.6034 47.2384
#
#
#
# Elastic Compliance Matrix: (Units=1/GPa)
#
#
# Indices 1 2 3 4 5 6 
#
# 1 0.010770 -0.006029 0.003392 -0.005800 -0.002845 0.005363
# 2 -0.006029 0.020756 -0.009394 0.002482 -0.001052 0.001409
# 3 0.003392 -0.009394 0.018250 -0.011468 -0.009928 0.005522
# 4 -0.005800 0.002482 -0.011468 0.025858 0.007704 -0.009526
# 5 -0.002845 -0.001052 -0.009928 0.007704 0.031888 -0.012282
# 6 0.005363 0.001409 0.005522 -0.009526 -0.012282 0.029323
#
#
# Mechanical properties :
#
#
# Convention : Reuss Voigt Hill
#
# Bulk Modulus (GPa) = 38.88778 73.99457 56.44118
# Shear Modulus (GPa) = 29.50234 46.28161 37.89197
#
# Velocity S-wave (km/s) = 3.34206 4.18592 3.78757
# Velocity P-wave (km/s) = 5.44198 7.16774 6.36363
#
# Compressibility (1/GPa) = 0.02571502
#
# Stress axis : x y z
#
# Youngs Moduli (GPa) = 92.85247 48.17826 54.79436
#
# Poissons Ratio (x) = 0.29048 -0.18588
# Poissons Ratio (y) = 0.55982 0.51472
# Poissons Ratio (z) = -0.31499 0.45257
#
# Static dielectric constant tensor:
#      x y z
#    x 2.103390 0.095920 -0.091810 
#    y 0.095920 2.095270 -0.083520 
#    z -0.091810 -0.083520 2.272840 
# 
# From -- ./inp_files/25670.got.cif
#   From: 2010.05.17/outbox.cif.g08.bks.cpg/sg2_13_cif.got.tgz:25670.got - 2010.06.03 11:33:40.
