data_PCOD9025616
_publ_section_title
;
Structure prediction by ZEFSAII (Michael W. Deem and Ramdas Pophale) SiO2 
 PCOD9025616
Probable space group: P -1
;
_chemical_formula_sum "Si O2"
_cell_formula_units_Z 16
_cell_length_a 11.095334
_cell_length_b 18.428006
_cell_length_c 8.825760
_cell_angle_alpha 38.228169
_cell_angle_beta 137.905817
_cell_angle_gamma 137.327638
_cell_volume 696.249972
_symmetry_space_group_name_H-M "P -1"
_symmetry_group_IT_number 2
_symmetry_cell_setting 'triclinic'
loop_
_space_group_symop_operation_xyz
x,y,z
-x,-y,-z
loop_
_atom_site_type_symbol
_atom_site_label
_atom_site_fract_x
_atom_site_fract_y
_atom_site_fract_z
Si Si1 0.417133 0.143023 0.683140
Si Si2 0.751062 0.113804 0.194717
Si Si3 0.535270 0.619630 0.227223
Si Si4 0.747730 0.899808 0.081321
Si Si5 0.110371 0.507401 0.931932
Si Si6 0.090252 0.346210 0.667109
Si Si7 0.149133 0.886129 0.389562
Si Si8 0.863269 0.724068 0.833998
O O1 0.335025 0.250489 0.392734
O O2 0.361991 0.036057 0.679431
O O3 0.638209 0.182075 0.875519
O O4 0.305454 0.073412 0.844737
O O5 0.758932 0.151722 0.315433
O O6 0.962580 0.150792 0.260883
O O7 0.500000 0.500000 0.500000
O O8 0.694353 0.619559 0.253116
O O9 0.627598 0.753020 0.179117
O O10 0.329262 0.604939 0.990060
O O11 0.715549 0.992573 0.774866
O O12 0.972898 0.920042 0.241330
O O13 0.990089 0.546042 0.628530
O O14 0.132182 0.377407 0.119473
O O15 0.000000 0.500000 0.000000
O O16 0.951652 0.225323 0.640227
O O17 0.093568 0.316340 0.894666
#
# Coordination Sequence:
#
# PCOD9025616 Si02
#       8
#     2   2   2   2   2   2   2   2
#     4  11  25  42  67 104 141 188 231 287 369 420
#     4  11  25  43  70 104 145 183 233 296 355 438
#     4  11  24  44  72 102 139 187 240 293 351 423
#     4  10  22  40  70 102 137 184 232 292 354 420
#     4  12  26  46  72 103 139 191 247 291 355 422
#     4  11  26  46  72 106 142 188 237 300 357 423
#     4  10  22  43  71 104 137 182 236 292 359 418
#     4  12  26  46  72 100 148 189 234 298 357 426
#
# _framework density 22.980253999999999
#
# number of rings (size 3 to 8) (size 9 to 14) (size 15 to 20)
#    0.000    1.000    2.500    3.000    8.750    3.000 
#    2.250    0.000    0.000    0.000    0.000    0.000 
#    0.000    0.000    0.000    0.000    0.000    0.000 
#
# Total GULP energy -89565.412555 kJ/mol
# GULP energy per Si atom -5597.838285 kJ/mol
# Density = 2.292795 g / cm^3
# Si number density = 22.980254 Si / 1000 Ang^3
#
#
#
# Elastic Constant Matrix: (Units=GPa)
#
#
# Indices 1 2 3 4 5 6 
#
# 1 72.2512 40.1101 33.0510 5.2897 0.0389 -6.2826
# 2 40.1101 76.7168 26.5144 4.3313 -7.7099 -0.2101
# 3 33.0510 26.5144 120.8255 11.7221 6.9645 -0.6875
# 4 5.2897 4.3313 11.7221 31.0164 -2.1699 -1.9604
# 5 0.0389 -7.7099 6.9645 -2.1699 45.3028 -3.4899
# 6 -6.2826 -0.2101 -0.6875 -1.9604 -3.4899 30.8163
#
#
#
# Elastic Compliance Matrix: (Units=1/GPa)
#
#
# Indices 1 2 3 4 5 6 
#
# 1 0.021420 -0.010024 -0.003513 -0.000732 -0.000906 0.004071
# 2 -0.010024 0.019197 -0.001655 -0.000208 0.003399 -0.001578
# 3 -0.003513 -0.001655 0.010020 -0.003158 -0.002042 -0.000936
# 4 -0.000732 -0.000208 -0.003158 0.033884 0.002242 0.002188
# 5 -0.000906 0.003399 -0.002042 0.002242 0.023272 0.002571
# 6 0.004071 -0.001578 -0.000936 0.002188 0.002571 0.033679
#
#
# Mechanical properties :
#
#
# Convention : Reuss Voigt Hill
#
# Bulk Modulus (GPa) = 49.37846 52.12717 50.75282
# Shear Modulus (GPa) = 27.99438 32.76831 30.38134
#
# Velocity S-wave (km/s) = 3.49405 3.78025 3.63996
# Velocity P-wave (km/s) = 6.14913 6.46424 6.30865
#
# Compressibility (1/GPa) = 0.02025174
#
# Stress axis : x y z
#
# Youngs Moduli (GPa) = 46.68437 52.09232 99.80455
#
# Poissons Ratio (x) = 0.52215 0.35066
# Poissons Ratio (y) = 0.46794 0.16522
# Poissons Ratio (z) = 0.16402 0.08624
#
# Static dielectric constant tensor:
#      x y z
#    x 1.821590 -0.008940 0.029180 
#    y -0.008940 1.887520 0.014960 
#    z 0.029180 0.014960 1.887400 
# 
# From -- ./inp_files/278887.got.cif
#   From: 2010.05.17/outbox.cif.g08.bks.cpg/sg2_140_cif.got.tgz:278887.got - 2010.06.03 11:33:40.
