data_PCOD9025483
_publ_section_title
;
Structure prediction by ZEFSAII (Michael W. Deem and Ramdas Pophale) SiO2 
 PCOD9025483
Probable space group: P -1
;
_chemical_formula_sum "Si O2"
_cell_formula_units_Z 14
_cell_length_a 5.318623
_cell_length_b 9.300615
_cell_length_c 24.048938
_cell_angle_alpha 36.396591
_cell_angle_beta 116.078724
_cell_angle_gamma 98.238770
_cell_volume 582.443481
_symmetry_space_group_name_H-M "P -1"
_symmetry_group_IT_number 2
_symmetry_cell_setting 'triclinic'
loop_
_space_group_symop_operation_xyz
x,y,z
-x,-y,-z
loop_
_atom_site_type_symbol
_atom_site_label
_atom_site_fract_x
_atom_site_fract_y
_atom_site_fract_z
Si Si1 0.084045 0.976313 0.950994
Si Si2 0.931100 0.164343 0.205921
Si Si3 0.836064 0.292561 0.364970
Si Si4 0.217612 0.649638 0.465509
Si Si5 0.423742 0.308537 0.407218
Si Si6 0.267445 0.450392 0.839537
Si Si7 0.747740 0.797640 0.883433
O O1 0.832301 0.953354 0.892634
O O2 0.173895 0.226084 0.873108
O O3 0.385280 0.707107 0.058974
O O4 0.000000 0.000000 0.000000
O O5 0.909193 0.414149 0.163806
O O6 0.589481 0.199929 0.143317
O O7 0.175500 0.101401 0.199660
O O8 0.036340 0.925867 0.333225
O O9 0.513257 0.414333 0.326520
O O10 0.780452 0.331295 0.281405
O O11 0.077876 0.424080 0.358679
O O12 0.000000 0.000000 0.500000
O O13 0.500000 0.500000 0.500000
O O14 0.352367 0.676158 0.529336
O O15 0.000000 0.500000 0.500000
O O16 0.500000 0.000000 0.500000
O O17 0.000000 0.500000 0.000000
#
# Coordination Sequence:
#
# PCOD9025483 Si02
#       7
#     2   2   2   2   2   2   2
#     4  11  27  48  71 110 149 188 245 313 364 433
#     4  12  27  48  78 107 142 205 241 296 378 438
#     4  10  22  40  69 105 136 182 237 294 349 422
#     4  12  27  49  70 107 153 189 244 304 362 439
#     4  10  22  43  69  98 140 182 237 289 348 422
#     4  11  26  45  75 107 147 194 246 304 367 436
#     4  12  26  48  76 107 148 188 249 302 366 443
#
# _framework density 24.036667000000001
#
# number of rings (size 3 to 8) (size 9 to 14) (size 15 to 20)
#    0.000    0.857    1.429    4.714    6.000    6.857 
#    0.000    0.000    0.000    0.000    0.000    0.000 
#    0.000    0.000    0.000    0.000    0.000    0.000 
#
# Total GULP energy -78337.572412 kJ/mol
# GULP energy per Si atom -5595.540887 kJ/mol
# Density = 2.398196 g / cm^3
# Si number density = 24.036667 Si / 1000 Ang^3
#
#
#
# Elastic Constant Matrix: (Units=GPa)
#
#
# Indices 1 2 3 4 5 6 
#
# 1 125.5696 21.3384 9.4553 5.2903 -13.8740 10.6136
# 2 21.3384 135.6788 15.5727 17.7439 -8.0181 11.5766
# 3 9.4553 15.5727 76.9467 4.6611 -10.4011 -0.7548
# 4 5.2903 17.7439 4.6611 34.5184 -9.2135 2.6042
# 5 -13.8740 -8.0181 -10.4011 -9.2135 41.6316 9.8468
# 6 10.6136 11.5766 -0.7548 2.6042 9.8468 39.9028
#
#
#
# Elastic Compliance Matrix: (Units=1/GPa)
#
#
# Indices 1 2 3 4 5 6 
#
# 1 0.008764 -0.000914 -0.000482 0.000317 0.003388 -0.002932
# 2 -0.000914 0.008361 -0.001288 -0.003640 0.000684 -0.002138
# 3 -0.000482 -0.001288 0.013734 -0.000340 0.002933 0.000060
# 4 0.000317 -0.003640 -0.000340 0.033023 0.007338 -0.003001
# 5 0.003388 0.000684 0.002933 0.007338 0.029733 -0.008860
# 6 -0.002932 -0.002138 0.000060 -0.003001 -0.008860 0.028844
#
#
# Mechanical properties :
#
#
# Convention : Reuss Voigt Hill
#
# Bulk Modulus (GPa) = 39.23010 47.88088 43.55549
# Shear Modulus (GPa) = 36.67725 42.66582 39.67153
#
# Velocity S-wave (km/s) = 3.91050 4.21768 4.06699
# Velocity P-wave (km/s) = 6.06182 6.60921 6.34142
#
# Compressibility (1/GPa) = 0.02549063
#
# Stress axis : x y z
#
# Youngs Moduli (GPa) = 114.10184 119.60577 72.81461
#
# Poissons Ratio (x) = 0.10934 0.03509
# Poissons Ratio (y) = 0.10431 0.09377
# Poissons Ratio (z) = 0.05499 0.15402
#
# Static dielectric constant tensor:
#      x y z
#    x 1.907320 0.012050 -0.017680 
#    y 0.012050 1.923880 -0.027120 
#    z -0.017680 -0.027120 1.962460 
# 
# From -- ./inp_files/582202.got.cif
#   From: 2010.05.17/outbox.cif.g08.bks.cpg/sg2_292_cif.got.tgz:582202.got - 2010.06.03 11:33:40.
