data_PCOD9025991
_publ_section_title
;
Structure prediction by ZEFSAII (Michael W. Deem and Ramdas Pophale) SiO2 
 PCOD9025991
Probable space group: P -1
;
_chemical_formula_sum "Si O2"
_cell_formula_units_Z 16
_cell_length_a 8.222175
_cell_length_b 16.166558
_cell_length_c 7.955620
_cell_angle_alpha 89.555806
_cell_angle_beta 126.465739
_cell_angle_gamma 65.111941
_cell_volume 721.663602
_symmetry_space_group_name_H-M "P -1"
_symmetry_group_IT_number 2
_symmetry_cell_setting 'triclinic'
loop_
_space_group_symop_operation_xyz
x,y,z
-x,-y,-z
loop_
_atom_site_type_symbol
_atom_site_label
_atom_site_fract_x
_atom_site_fract_y
_atom_site_fract_z
Si Si1 0.224765 0.965892 0.258186
Si Si2 0.271339 0.665944 0.356062
Si Si3 0.032010 0.299911 0.115533
Si Si4 0.751833 0.495371 0.488556
Si Si5 0.473887 0.291290 0.204080
Si Si6 0.113107 0.889513 0.512072
Si Si7 0.211791 0.499499 0.862523
Si Si8 0.238905 0.127399 0.496542
O O1 0.210858 0.895736 0.388990
O O2 0.479941 0.912952 0.320337
O O3 0.213963 0.055340 0.352285
O O4 0.000000 0.000000 0.000000
O O5 0.519456 0.581488 0.432067
O O6 0.160983 0.608229 0.373523
O O7 0.344557 0.710441 0.547410
O O8 0.100168 0.729881 0.100023
O O9 0.260326 0.290719 0.165843
O O10 0.109588 0.233284 0.328392
O O11 0.852635 0.413274 0.051465
O O12 0.690821 0.491959 0.256897
O O13 0.956844 0.516696 0.651335
O O14 0.656891 0.187594 0.232946
O O15 0.367304 0.391126 0.034301
O O16 0.900615 0.870018 0.420783
O O17 0.000000 0.000000 0.500000
#
# Coordination Sequence:
#
# PCOD9025991 Si02
#       8
#     2   2   2   2   2   2   2   2
#     4  10  22  46  74  98 131 172 223 285 336 395
#     4  11  24  38  64  94 127 178 229 264 329 401
#     4  12  24  42  65  98 137 178 216 278 335 396
#     4  10  22  41  60  94 132 176 229 266 321 401
#     4  12  24  44  67  94 135 180 219 281 334 392
#     4  10  24  47  69  99 134 173 224 279 336 402
#     4  11  23  41  64  93 139 178 215 278 330 390
#     4  10  24  43  68 101 134 173 223 273 341 403
#
# _framework density 22.170995999999999
#
# number of rings (size 3 to 8) (size 9 to 14) (size 15 to 20)
#    0.000    1.250    3.750    1.875    5.250    1.500 
#    0.000    3.750    0.000    0.000    0.000    0.000 
#    0.000    0.000    0.000    0.000    0.000    0.000 
#
# Total GULP energy -89354.957895 kJ/mol
# GULP energy per Si atom -5584.684868 kJ/mol
# Density = 2.212053 g / cm^3
# Si number density = 22.170996 Si / 1000 Ang^3
#
#
#
# Elastic Constant Matrix: (Units=GPa)
#
#
# Indices 1 2 3 4 5 6 
#
# 1 129.5221 16.8924 34.5717 -20.0472 12.5289 6.5212
# 2 16.8924 51.5400 26.0193 -23.6348 2.4031 -3.1245
# 3 34.5717 26.0193 98.3215 -8.0873 13.0894 5.0928
# 4 -20.0472 -23.6348 -8.0873 42.9269 6.2001 -0.0385
# 5 12.5289 2.4031 13.0894 6.2001 31.7872 -4.3571
# 6 6.5212 -3.1245 5.0928 -0.0385 -4.3571 25.5918
#
#
#
# Elastic Compliance Matrix: (Units=1/GPa)
#
#
# Indices 1 2 3 4 5 6 
#
# 1 0.009586 0.000274 -0.002366 0.004774 -0.004117 -0.002632
# 2 0.000274 0.030417 -0.006805 0.015896 -0.002066 0.004670
# 3 -0.002366 -0.006805 0.013414 -0.001716 -0.004238 -0.003622
# 4 0.004774 0.015896 -0.001716 0.035300 -0.009327 -0.000469
# 5 -0.004117 -0.002066 -0.004238 -0.009327 0.037910 0.008081
# 6 -0.002632 0.004670 -0.003622 -0.000469 0.008081 0.042412
#
#
# Mechanical properties :
#
#
# Convention : Reuss Voigt Hill
#
# Bulk Modulus (GPa) = 28.07162 48.26115 38.16638
# Shear Modulus (GPa) = 25.16258 33.52117 29.34188
#
# Velocity S-wave (km/s) = 3.37253 3.89258 3.64185
# Velocity P-wave (km/s) = 5.27771 6.48212 5.91067
#
# Compressibility (1/GPa) = 0.03562317
#
# Stress axis : x y z
#
# Youngs Moduli (GPa) = 104.31669 32.87671 74.54707
#
# Poissons Ratio (x) = -0.00902 0.17639
# Poissons Ratio (y) = -0.02863 0.50731
# Poissons Ratio (z) = 0.24684 0.22373
#
# Static dielectric constant tensor:
#      x y z
#    x 1.865070 -0.054390 -0.006430 
#    y -0.054390 1.991630 -0.028210 
#    z -0.006430 -0.028210 1.805870 
# 
# From -- ./inp_files/217557.got.cif
#   From: 2010.05.17/outbox.cif.g08.bks.cpg/sg2_109_cif.got.tgz:217557.got - 2010.06.03 11:33:40.
