data_PCOD9025269
_publ_section_title
;
Structure prediction by ZEFSAII (Michael W. Deem and Ramdas Pophale) SiO2 
 PCOD9025269
Probable space group: P -1
;
_chemical_formula_sum "Si O2"
_cell_formula_units_Z 16
_cell_length_a 7.565324
_cell_length_b 22.939755
_cell_length_c 13.619699
_cell_angle_alpha 24.062775
_cell_angle_beta 135.047804
_cell_angle_gamma 137.300611
_cell_volume 647.805301
_symmetry_space_group_name_H-M "P -1"
_symmetry_group_IT_number 2
_symmetry_cell_setting 'triclinic'
loop_
_space_group_symop_operation_xyz
x,y,z
-x,-y,-z
loop_
_atom_site_type_symbol
_atom_site_label
_atom_site_fract_x
_atom_site_fract_y
_atom_site_fract_z
Si Si1 0.796098 0.927744 0.811789
Si Si2 0.110014 0.481987 0.945850
Si Si3 0.770834 0.111021 0.804190
Si Si4 0.418423 0.611810 0.666006
Si Si5 0.291251 0.745221 0.977327
Si Si6 0.907519 0.702005 0.059555
Si Si7 0.995083 0.763456 0.512372
Si Si8 0.528206 0.241831 0.771169
O O1 0.793948 0.821206 0.882989
O O2 0.917692 0.105276 0.575884
O O3 0.498350 0.888993 0.791891
O O4 0.987929 0.889468 0.028722
O O5 0.262898 0.556098 0.793029
O O6 0.100038 0.624192 0.786042
O O7 0.825156 0.382916 0.949877
O O8 0.283569 0.384608 0.205220
O O9 0.625060 0.225948 0.611365
O O10 0.880489 0.160784 0.660901
O O11 0.574507 0.940514 0.986420
O O12 0.283025 0.465927 0.769398
O O13 0.455396 0.698760 0.201545
O O14 0.041931 0.762484 0.913604
O O15 0.166268 0.701450 0.223724
O O16 0.684388 0.712609 0.445292
#
# Coordination Sequence:
#
# PCOD9025269 Si02
#       8
#     2   2   2   2   2   2   2   2
#     4  11  19  34  58  83 108 141 169 221 280 307
#     4   9  19  34  56  75 106 149 180 217 266 310
#     4  10  17  31  55  78 112 139 174 221 265 321
#     4   9  19  36  52  77 109 145 181 219 262 314
#     4   9  18  36  54  80 111 135 180 220 259 322
#     4   9  20  35  54  80 113 135 179 219 261 326
#     4  10  17  31  54  81 108 140 178 216 266 324
#     4   9  17  33  50  82 109 131 170 224 266 307
#
# _framework density 24.698781
#
# number of rings (size 3 to 8) (size 9 to 14) (size 15 to 20)
#    0.750    1.750    2.500    0.750    0.000    4.000 
#    0.000    4.375    0.000    0.000    0.000    0.000 
#    0.000    0.000    0.000    0.000    0.000    0.000 
#
# Total GULP energy -89425.930609 kJ/mol
# GULP energy per Si atom -5589.120663 kJ/mol
# Density = 2.464257 g / cm^3
# Si number density = 24.698781 Si / 1000 Ang^3
#
#
#
# Elastic Constant Matrix: (Units=GPa)
#
#
# Indices 1 2 3 4 5 6 
#
# 1 72.5499 35.6968 34.2537 -24.7056 11.3532 -0.8840
# 2 35.6968 115.5429 68.9563 -27.9181 15.2022 -1.0588
# 3 34.2537 68.9563 154.6935 -21.9524 16.8983 -3.7155
# 4 -24.7056 -27.9181 -21.9524 27.8216 -9.2673 -1.8809
# 5 11.3532 15.2022 16.8983 -9.2673 36.8877 -5.9593
# 6 -0.8840 -1.0588 -3.7155 -1.8809 -5.9593 39.3045
#
#
#
# Elastic Compliance Matrix: (Units=1/GPa)
#
#
# Indices 1 2 3 4 5 6 
#
# 1 0.020672 -0.001644 -0.001556 0.015197 -0.001017 0.000847
# 2 -0.001644 0.014161 -0.004585 0.008816 -0.000985 0.000184
# 3 -0.001556 -0.004585 0.009140 0.000747 -0.001549 0.000506
# 4 0.015197 0.008816 0.000747 0.061737 0.007626 0.004761
# 5 -0.001017 -0.000985 -0.001549 0.007626 0.031246 0.004907
# 6 0.000847 0.000184 0.000506 0.004761 0.004907 0.026486
#
#
# Mechanical properties :
#
#
# Convention : Reuss Voigt Hill
#
# Bulk Modulus (GPa) = 35.20908 68.95556 52.08232
# Shear Modulus (GPa) = 26.52784 34.39473 30.46129
#
# Velocity S-wave (km/s) = 3.28083 3.73576 3.51566
# Velocity P-wave (km/s) = 5.35146 6.82547 6.13291
#
# Compressibility (1/GPa) = 0.02840176
#
# Stress axis : x y z
#
# Youngs Moduli (GPa) = 48.37439 70.61826 109.40549
#
# Poissons Ratio (x) = 0.11610 0.17029
# Poissons Ratio (y) = 0.07953 0.50164
# Poissons Ratio (z) = 0.07529 0.32379
#
# Static dielectric constant tensor:
#      x y z
#    x 2.119530 -0.065840 -0.076820 
#    y -0.065840 1.928320 0.034180 
#    z -0.076820 0.034180 1.919790 
# 
# From -- ./inp_files/563411.got.cif
#   From: 2010.05.17/outbox.cif.g08.bks.cpg/sg2_282_cif.got.tgz:563411.got - 2010.06.03 11:33:40.
