data_PCOD9025550
_publ_section_title
;
Structure prediction by ZEFSAII (Michael W. Deem and Ramdas Pophale) SiO2 
 PCOD9025550
Probable space group: P -1
;
_chemical_formula_sum "Si O2"
_cell_formula_units_Z 16
_cell_length_a 16.108307
_cell_length_b 11.210480
_cell_length_c 22.110449
_cell_angle_alpha 33.514991
_cell_angle_beta 157.146475
_cell_angle_gamma 147.471498
_cell_volume 802.399361
_symmetry_space_group_name_H-M "P -1"
_symmetry_group_IT_number 2
_symmetry_cell_setting 'triclinic'
loop_
_space_group_symop_operation_xyz
x,y,z
-x,-y,-z
loop_
_atom_site_type_symbol
_atom_site_label
_atom_site_fract_x
_atom_site_fract_y
_atom_site_fract_z
Si Si1 0.514882 0.339254 0.461684
Si Si2 0.638969 0.934834 0.758872
Si Si3 0.101085 0.137244 0.348761
Si Si4 0.073638 0.954710 0.985153
Si Si5 0.760778 0.521903 0.153076
Si Si6 0.952914 0.735674 0.869908
Si Si7 0.016144 0.244875 0.378447
Si Si8 0.848913 0.353994 0.407387
O O1 0.358511 0.301267 0.433691
O O2 0.322153 0.322618 0.289083
O O3 0.740924 0.562388 0.520497
O O4 0.582253 0.111508 0.601509
O O5 0.412825 0.732513 0.711116
O O6 0.746762 0.073967 0.834038
O O7 0.823688 0.842976 0.892482
O O8 0.974391 0.137652 0.199657
O O9 0.016196 0.225787 0.313884
O O10 0.100753 0.881524 0.469498
O O11 0.076280 0.874408 0.952685
O O12 0.121527 0.227461 0.901786
O O13 0.874383 0.500118 0.302318
O O14 0.813342 0.330248 0.228916
O O15 0.500000 0.500000 0.000000
O O16 0.000000 0.500000 0.000000
O O17 0.000000 0.000000 0.500000
O O18 0.000000 0.500000 0.500000
#
# Coordination Sequence:
#
# PCOD9025550 Si02
#       8
#     2   2   2   2   2   2   2   2
#     4   9  22  41  65  98 124 178 224 272 327 402
#     4  10  22  40  69  97 122 178 228 272 328 390
#     4   9  22  42  64  95 128 177 223 273 330 397
#     4  11  23  42  66  95 131 170 231 276 329 404
#     4  12  25  41  65 101 132 174 220 282 342 392
#     4  10  24  39  65  96 135 167 217 280 339 383
#     4  12  23  42  70  97 133 174 232 274 330 415
#     4  11  22  42  64  94 138 172 215 272 338 400
#
# _framework density 19.940194999999999
#
# number of rings (size 3 to 8) (size 9 to 14) (size 15 to 20)
#    0.750    0.750    3.750    1.125    1.750    3.500 
#    0.000    0.000    0.000    2.250    0.000    0.000 
#    0.000    0.000    0.000    0.000    0.000    0.000 
#
# Total GULP energy -89230.957033 kJ/mol
# GULP energy per Si atom -5576.934815 kJ/mol
# Density = 1.989481 g / cm^3
# Si number density = 19.940195 Si / 1000 Ang^3
#
#
#
# Elastic Constant Matrix: (Units=GPa)
#
#
# Indices 1 2 3 4 5 6 
#
# 1 84.6012 8.9057 23.8076 9.6962 7.3786 -13.1801
# 2 8.9057 39.6598 10.1891 -3.4099 8.4766 -3.7978
# 3 23.8076 10.1891 93.6433 -0.0075 -2.1051 -5.0777
# 4 9.6962 -3.4099 -0.0075 33.1812 1.4933 -7.7927
# 5 7.3786 8.4766 -2.1051 1.4933 33.9254 -0.5237
# 6 -13.1801 -3.7978 -5.0777 -7.7927 -0.5237 19.7118
#
#
#
# Elastic Compliance Matrix: (Units=1/GPa)
#
#
# Indices 1 2 3 4 5 6 
#
# 1 0.014580 -0.001333 -0.003213 -0.002485 -0.002810 0.007607
# 2 -0.001333 0.028706 -0.002634 0.005013 -0.007178 0.005752
# 3 -0.003213 -0.002634 0.011870 0.000755 0.002072 0.000756
# 4 -0.002485 0.005013 0.000755 0.034546 -0.001984 0.013103
# 5 -0.002810 -0.007178 0.002072 -0.001984 0.032056 -0.002661
# 6 0.007607 0.005752 0.000756 0.013103 -0.002661 0.062230
#
#
# Mechanical properties :
#
#
# Convention : Reuss Voigt Hill
#
# Bulk Modulus (GPa) = 24.51146 33.74548 29.12847
# Shear Modulus (GPa) = 23.59110 29.03048 26.31079
#
# Velocity S-wave (km/s) = 3.44334 3.81974 3.63641
# Velocity P-wave (km/s) = 5.30358 6.03440 5.68075
#
# Compressibility (1/GPa) = 0.04079724
#
# Stress axis : x y z
#
# Youngs Moduli (GPa) = 68.58914 34.83547 84.24792
#
# Poissons Ratio (x) = 0.04644 0.27065
# Poissons Ratio (y) = 0.09144 0.22188
# Poissons Ratio (z) = 0.22034 0.09174
#
# Static dielectric constant tensor:
#      x y z
#    x 1.746710 0.010890 0.014250 
#    y 0.010890 1.681950 0.005690 
#    z 0.014250 0.005690 1.726060 
# 
# From -- ./inp_files/613051.got.cif
#   From: 2010.05.17/outbox.cif.g08.bks.cpg/sg2_307_cif.got.tgz:613051.got - 2010.06.03 11:33:40.
