data_PCOD9025176
_publ_section_title
;
Structure prediction by ZEFSAII (Michael W. Deem and Ramdas Pophale) SiO2 
 PCOD9025176
Probable space group: P -1
;
_chemical_formula_sum "Si O2"
_cell_formula_units_Z 14
_cell_length_a 11.090824
_cell_length_b 9.311748
_cell_length_c 11.962992
_cell_angle_alpha 115.425297
_cell_angle_beta 102.859452
_cell_angle_gamma 36.526962
_cell_volume 646.677008
_symmetry_space_group_name_H-M "P -1"
_symmetry_group_IT_number 2
_symmetry_cell_setting 'triclinic'
loop_
_space_group_symop_operation_xyz
x,y,z
-x,-y,-z
loop_
_atom_site_type_symbol
_atom_site_label
_atom_site_fract_x
_atom_site_fract_y
_atom_site_fract_z
Si Si1 0.287477 0.299495 0.520510
Si Si2 0.381339 0.963478 0.070463
Si Si3 0.902940 0.134840 0.703010
Si Si4 0.252036 0.975814 0.815510
Si Si5 0.801715 0.551287 0.931478
Si Si6 0.385139 0.464403 0.416796
Si Si7 0.887500 0.810005 0.694698
O O1 0.321452 0.413614 0.485096
O O2 0.187798 0.263462 0.414230
O O3 0.133639 0.517376 0.660262
O O4 0.500000 0.000000 0.500000
O O5 0.285369 0.233011 0.103699
O O6 0.253182 0.034701 0.172908
O O7 0.333738 0.896102 0.932645
O O8 0.629875 0.737555 0.057398
O O9 0.780200 0.387963 0.838926
O O10 0.815093 0.273341 0.609555
O O11 0.863149 0.995122 0.679327
O O12 0.136504 0.942374 0.725085
O O13 0.446697 0.800082 0.715824
O O14 0.054668 0.301412 0.893904
O O15 0.500000 0.500000 0.500000
#
# Coordination Sequence:
#
# PCOD9025176 Si02
#       7
#     2   2   2   2   2   2   2
#     4  11  27  46  65  99 129 175 222 265 331 388
#     4  11  21  42  67  97 130 175 216 271 326 385
#     4  10  23  44  62 101 130 170 220 264 329 386
#     4  10  22  40  67  97 128 167 223 264 322 383
#     4   9  22  39  65  94 131 166 223 262 319 392
#     4  12  24  43  72  94 131 173 220 273 320 394
#     4  11  26  43  68  94 140 171 212 276 325 387
#
# _framework density 21.649138000000001
#
# number of rings (size 3 to 8) (size 9 to 14) (size 15 to 20)
#    0.857    0.571    1.429    3.000    4.000    5.714 
#    0.000    0.000    0.000    0.000    0.000    0.000 
#    0.000    0.000    0.000    0.000    0.000    0.000 
#
# Total GULP energy -77934.761845 kJ/mol
# GULP energy per Si atom -5566.768703 kJ/mol
# Density = 2.159986 g / cm^3
# Si number density = 21.649138 Si / 1000 Ang^3
#
#
#
# Elastic Constant Matrix: (Units=GPa)
#
#
# Indices 1 2 3 4 5 6 
#
# 1 110.5203 44.4722 31.2429 -1.2593 -10.0765 3.0931
# 2 44.4722 107.0926 38.4306 17.0948 -23.9204 -11.8279
# 3 31.2429 38.4306 85.7477 14.1571 -22.1284 -20.3396
# 4 -1.2593 17.0948 14.1571 27.3037 -7.0445 -5.0264
# 5 -10.0765 -23.9204 -22.1284 -7.0445 43.8646 9.9453
# 6 3.0931 -11.8279 -20.3396 -5.0264 9.9453 46.7356
#
#
#
# Elastic Compliance Matrix: (Units=1/GPa)
#
#
# Indices 1 2 3 4 5 6 
#
# 1 0.012242 -0.004893 -0.003922 0.005000 -0.000318 -0.003150
# 2 -0.004893 0.014292 -0.002087 -0.006745 0.004214 0.001411
# 3 -0.003922 -0.002087 0.017518 -0.005716 0.004573 0.005768
# 4 0.005000 -0.006745 -0.005716 0.044474 0.001755 -0.000116
# 5 -0.000318 0.004214 0.004573 0.001755 0.028233 -0.002741
# 6 -0.003150 0.001411 0.005768 -0.000116 -0.002741 0.025043
#
#
# Mechanical properties :
#
#
# Convention : Reuss Voigt Hill
#
# Bulk Modulus (GPa) = 44.94761 59.07244 52.01002
# Shear Modulus (GPa) = 29.23567 36.19511 32.71539
#
# Velocity S-wave (km/s) = 3.67881 4.09332 3.89159
# Velocity P-wave (km/s) = 6.23312 7.04882 6.65348
#
# Compressibility (1/GPa) = 0.02224812
#
# Stress axis : x y z
#
# Youngs Moduli (GPa) = 81.68586 69.96732 57.08271
#
# Poissons Ratio (x) = 0.34237 0.22389
# Poissons Ratio (y) = 0.39971 0.11913
# Poissons Ratio (z) = 0.32038 0.14602
#
# Static dielectric constant tensor:
#      x y z
#    x 1.833420 -0.094000 0.025610 
#    y -0.094000 1.832700 0.034780 
#    z 0.025610 0.034780 1.821270 
# 
# From -- ./inp_files/415196.got.cif
#   From: 2010.05.17/outbox.cif.g08.bks.cpg/sg2_208_cif.got.tgz:415196.got - 2010.06.03 11:33:40.
