data_PCOD9025063
_publ_section_title
;
Structure prediction by ZEFSAII (Michael W. Deem and Ramdas Pophale) SiO2 
 PCOD9025063
Probable space group: P -1
;
_chemical_formula_sum "Si O2"
_cell_formula_units_Z 14
_cell_length_a 24.615111
_cell_length_b 14.322386
_cell_length_c 15.528428
_cell_angle_alpha 27.062056
_cell_angle_beta 161.047293
_cell_angle_gamma 162.460450
_cell_volume 532.256185
_symmetry_space_group_name_H-M "P -1"
_symmetry_group_IT_number 2
_symmetry_cell_setting 'triclinic'
loop_
_space_group_symop_operation_xyz
x,y,z
-x,-y,-z
loop_
_atom_site_type_symbol
_atom_site_label
_atom_site_fract_x
_atom_site_fract_y
_atom_site_fract_z
Si Si1 0.757700 0.790568 0.370756
Si Si2 0.425490 0.245385 0.710214
Si Si3 0.754944 0.241976 0.602879
Si Si4 0.978514 0.619712 0.283215
Si Si5 0.722636 0.294732 0.782830
Si Si6 0.489647 0.357639 0.187350
Si Si7 0.535365 0.798152 0.380967
O O1 0.760291 0.937984 0.336092
O O2 0.710005 0.523348 0.558564
O O3 0.522819 0.568782 0.134618
O O4 0.000000 0.000000 0.500000
O O5 0.399048 0.452377 0.463432
O O6 0.398803 0.088372 0.712207
O O7 0.705369 0.469418 0.985169
O O8 0.721827 0.405384 0.482567
O O9 0.954923 0.414214 0.683385
O O10 0.489260 0.009198 0.342188
O O11 0.734434 0.005918 0.818929
O O12 0.000000 0.500000 0.500000
O O13 0.216153 0.987362 0.361695
O O14 0.646604 0.205241 0.842124
O O15 0.000000 0.500000 0.000000
O O16 0.500000 0.500000 0.000000
#
# Coordination Sequence:
#
# PCOD9025063 Si02
#       7
#     2   2   2   2   2   2   2
#     4  10  23  39  57  95 126 157 216 266 317 396
#     4  10  22  43  64  89 131 169 216 268 323 392
#     4   9  22  43  58  99 131 158 227 264 317 401
#     4  11  24  40  65  94 131 173 211 269 329 388
#     4   9  19  37  64  88 128 169 200 267 329 372
#     4  10  22  40  67  89 125 172 208 266 328 379
#     4   9  21  42  64  94 123 173 219 258 327 392
#
# _framework density 26.303124
#
# number of rings (size 3 to 8) (size 9 to 14) (size 15 to 20)
#    0.000    2.286    0.000    1.286    4.000    6.286 
#    5.143    0.000    0.000    0.000    0.000    0.000 
#    0.000    0.000    0.000    0.000    0.000    0.000 
#
# Total GULP energy -78104.627631 kJ/mol
# GULP energy per Si atom -5578.901974 kJ/mol
# Density = 2.624326 g / cm^3
# Si number density = 26.303124 Si / 1000 Ang^3
#
#
#
# Elastic Constant Matrix: (Units=GPa)
#
#
# Indices 1 2 3 4 5 6 
#
# 1 257.1054 37.2859 18.9688 8.3624 -4.6101 23.1329
# 2 37.2859 77.9021 10.5851 -14.1700 1.4380 15.9809
# 3 18.9688 10.5851 54.0007 -4.1529 -11.5842 12.5556
# 4 8.3624 -14.1700 -4.1529 47.9494 22.2811 -4.8150
# 5 -4.6101 1.4380 -11.5842 22.2811 28.3008 5.6786
# 6 23.1329 15.9809 12.5556 -4.8150 5.6786 48.4065
#
#
#
# Elastic Compliance Matrix: (Units=1/GPa)
#
#
# Indices 1 2 3 4 5 6 
#
# 1 0.004665 -0.002544 0.000038 -0.003827 0.004378 -0.002293
# 2 -0.002544 0.016721 -0.003495 0.009601 -0.009999 -0.001270
# 3 0.000038 -0.003495 0.024374 -0.008245 0.018288 -0.008152
# 4 -0.003827 0.009601 -0.008245 0.043604 -0.040807 0.009922
# 5 0.004378 -0.009999 0.018288 -0.040807 0.079565 -0.016927
# 6 -0.002293 -0.001270 -0.008152 0.009922 -0.016927 0.027261
#
#
# Mechanical properties :
#
#
# Convention : Reuss Voigt Hill
#
# Bulk Modulus (GPa) = 29.62316 58.07642 43.84979
# Shear Modulus (GPa) = 22.78469 46.40923 34.59696
#
# Velocity S-wave (km/s) = 2.94638 4.20503 3.63067
# Velocity P-wave (km/s) = 4.78137 6.76047 5.85515
#
# Compressibility (1/GPa) = 0.03375737
#
# Stress axis : x y z
#
# Youngs Moduli (GPa) = 214.36519 59.80588 41.02652
#
# Poissons Ratio (x) = 0.15217 -0.00157
# Poissons Ratio (y) = 0.54542 0.14340
# Poissons Ratio (z) = -0.00818 0.20903
#
# Static dielectric constant tensor:
#      x y z
#    x 2.287930 -0.054900 -0.023960 
#    y -0.054900 2.159730 0.013520 
#    z -0.023960 0.013520 2.052410 
# 
# From -- ./inp_files/259035.got.cif
#   From: 2010.05.17/outbox.cif.g08.bks.cpg/sg2_130_cif.got.tgz:259035.got - 2010.06.03 11:33:40.
