data_PCOD9025607
_publ_section_title
;
Structure prediction by ZEFSAII (Michael W. Deem and Ramdas Pophale) SiO2 
 PCOD9025607
Probable space group: P -1
;
_chemical_formula_sum "Si O2"
_cell_formula_units_Z 16
_cell_length_a 8.042172
_cell_length_b 5.363648
_cell_length_c 27.097947
_cell_angle_alpha 55.361182
_cell_angle_beta 48.658363
_cell_angle_gamma 63.773699
_cell_volume 717.836295
_symmetry_space_group_name_H-M "P -1"
_symmetry_group_IT_number 2
_symmetry_cell_setting 'triclinic'
loop_
_space_group_symop_operation_xyz
x,y,z
-x,-y,-z
loop_
_atom_site_type_symbol
_atom_site_label
_atom_site_fract_x
_atom_site_fract_y
_atom_site_fract_z
Si Si1 0.269326 0.611064 0.059808
Si Si2 0.226912 0.908966 0.786852
Si Si3 0.137396 0.155211 0.212845
Si Si4 0.952221 0.751079 0.939515
Si Si5 0.585035 0.423666 0.745952
Si Si6 0.361219 0.696871 0.357638
Si Si7 0.022511 0.231200 0.333435
Si Si8 0.458228 0.647010 0.545196
O O1 0.233159 0.447404 0.137470
O O2 0.109575 0.455598 0.071078
O O3 0.221675 0.972979 0.036990
O O4 0.500000 0.500000 0.000000
O O5 0.343959 0.568139 0.792439
O O6 0.424193 0.113333 0.712632
O O7 0.016429 0.976999 0.784124
O O8 0.147923 0.925107 0.857150
O O9 0.982962 0.208835 0.285249
O O10 0.346631 0.930365 0.216898
O O11 0.000000 0.500000 0.000000
O O12 0.621038 0.506871 0.672312
O O13 0.773911 0.569290 0.722975
O O14 0.390543 0.529159 0.422452
O O15 0.129508 0.911211 0.371869
O O16 0.799819 0.364854 0.388609
O O17 0.500000 0.500000 0.500000
O O18 0.500000 0.000000 0.500000
#
# Coordination Sequence:
#
# PCOD9025607 Si02
#       8
#     2   2   2   2   2   2   2   2
#     4  11  26  44  68 100 141 187 232 289 353 414
#     4  10  23  40  71  99 135 180 236 286 348 404
#     4  10  23  40  71  99 135 180 236 286 348 404
#     4  11  26  44  68 100 141 187 232 289 353 414
#     4  10  22  40  70 101 130 182 222 302 333 412
#     4  10  24  44  70 100 137 175 234 283 340 420
#     4  10  24  44  70 100 137 175 234 283 340 420
#     4  12  30  46  72 101 138 186 222 286 353 408
#
# _framework density 22.289203000000001
#
# number of rings (size 3 to 8) (size 9 to 14) (size 15 to 20)
#    0.000    1.500    0.000    2.250   19.250    4.000 
#    0.000    0.000    0.000    0.000    0.000    0.000 
#    0.000    0.000    0.000    0.000    0.000    0.000 
#
# Total GULP energy -89354.207772 kJ/mol
# GULP energy per Si atom -5584.637986 kJ/mol
# Density = 2.223847 g / cm^3
# Si number density = 22.289203 Si / 1000 Ang^3
#
#
#
# Elastic Constant Matrix: (Units=GPa)
#
#
# Indices 1 2 3 4 5 6 
#
# 1 54.5288 11.6926 24.0954 1.8740 23.9240 -4.4984
# 2 11.6926 112.7721 55.5559 13.8624 21.9197 -15.8409
# 3 24.0954 55.5559 114.3629 6.7356 35.3289 -19.6142
# 4 1.8740 13.8624 6.7356 42.1025 -5.2911 -5.7040
# 5 23.9240 21.9197 35.3289 -5.2911 36.5438 0.8725
# 6 -4.4984 -15.8409 -19.6142 -5.7040 0.8725 34.2666
#
#
#
# Elastic Compliance Matrix: (Units=1/GPa)
#
#
# Indices 1 2 3 4 5 6 
#
# 1 0.026978 0.001931 0.000599 -0.003824 -0.020063 0.004651
# 2 0.001931 0.012690 -0.004046 -0.003874 -0.005604 0.003302
# 3 0.000599 -0.004046 0.016452 -0.002096 -0.014357 0.007643
# 4 -0.003824 -0.003874 -0.002096 0.026981 0.010742 0.000725
# 5 -0.020063 -0.005604 -0.014357 0.010742 0.059610 -0.013172
# 6 0.004651 0.003302 0.007643 0.000725 -0.013172 0.036151
#
#
# Mechanical properties :
#
#
# Convention : Reuss Voigt Hill
#
# Bulk Modulus (GPa) = 18.83642 51.59462 35.21552
# Shear Modulus (GPa) = 25.05143 35.27055 30.16099
#
# Velocity S-wave (km/s) = 3.35614 3.98226 3.68253
# Velocity P-wave (km/s) = 4.84639 6.65902 5.82366
#
# Compressibility (1/GPa) = 0.05308863
#
# Stress axis : x y z
#
# Youngs Moduli (GPa) = 37.06713 78.80529 60.78108
#
# Poissons Ratio (x) = -0.15217 -0.03640
# Poissons Ratio (y) = -0.07158 0.24589
# Poissons Ratio (z) = -0.02220 0.31881
#
# Static dielectric constant tensor:
#      x y z
#    x 1.828930 0.034950 -0.035270 
#    y 0.034950 1.914650 -0.044470 
#    z -0.035270 -0.044470 1.882300 
# 
# From -- ./inp_files/605582.got.cif
#   From: 2010.05.17/outbox.cif.g08.bks.cpg/sg2_303_cif.got.tgz:605582.got - 2010.06.03 11:33:40.
