data_PCOD9025581
_publ_section_title
;
Structure prediction by ZEFSAII (Michael W. Deem and Ramdas Pophale) SiO2 
 PCOD9025581
Probable space group: P -1
;
_chemical_formula_sum "Si O2"
_cell_formula_units_Z 14
_cell_length_a 10.022523
_cell_length_b 5.321186
_cell_length_c 18.515047
_cell_angle_alpha 100.006740
_cell_angle_beta 146.053243
_cell_angle_gamma 75.973101
_cell_volume 534.286411
_symmetry_space_group_name_H-M "P -1"
_symmetry_group_IT_number 2
_symmetry_cell_setting 'triclinic'
loop_
_space_group_symop_operation_xyz
x,y,z
-x,-y,-z
loop_
_atom_site_type_symbol
_atom_site_label
_atom_site_fract_x
_atom_site_fract_y
_atom_site_fract_z
Si Si1 0.858614 0.373797 0.794862
Si Si2 0.268823 0.868471 0.900261
Si Si3 0.220135 0.048707 0.149856
Si Si4 0.361695 0.554308 0.539107
Si Si5 0.366664 0.489154 0.040466
Si Si6 0.621480 0.259830 0.281644
Si Si7 0.915260 0.915844 0.621520
O O1 0.829016 0.645941 0.838845
O O2 0.647408 0.458447 0.645785
O O3 0.776560 0.141900 0.790813
O O4 0.151201 0.326241 0.916286
O O5 0.375873 0.601686 0.889170
O O6 0.028142 0.973519 0.752655
O O7 0.260906 0.768293 0.973018
O O8 0.500000 0.000000 0.000000
O O9 0.481693 0.024239 0.227641
O O10 0.000000 0.000000 0.000000
O O11 0.333050 0.601600 0.616061
O O12 0.214175 0.330770 0.441870
O O13 0.261921 0.831703 0.473794
O O14 0.439589 0.441181 0.153683
O O15 0.864943 0.152274 0.341170
#
# Coordination Sequence:
#
# PCOD9025581 Si02
#       7
#     2   2   2   2   2   2   2
#     4  11  24  41  64  96 137 176 217 267 332 392
#     4  10  25  46  72  96 125 170 230 290 325 380
#     4  11  22  37  59 100 140 169 212 264 330 396
#     4  11  24  43  63  99 140 177 211 262 328 411
#     4  10  23  43  68 102 124 175 222 285 332 379
#     4  10  22  40  69  99 135 175 215 273 332 392
#     4  11  25  44  67  93 136 176 226 264 325 393
#
# _framework density 26.203175000000002
#
# number of rings (size 3 to 8) (size 9 to 14) (size 15 to 20)
#    0.000    1.429    1.429    3.000   10.000    2.286 
#    2.571    1.429    0.000    0.000    0.000    0.000 
#    0.000    0.000    0.000    0.000    0.000    0.000 
#
# Total GULP energy -78363.120660 kJ/mol
# GULP energy per Si atom -5597.365761 kJ/mol
# Density = 2.614354 g / cm^3
# Si number density = 26.203175 Si / 1000 Ang^3
#
#
#
# Elastic Constant Matrix: (Units=GPa)
#
#
# Indices 1 2 3 4 5 6 
#
# 1 98.5725 20.8303 17.8544 -9.2787 10.4539 12.1410
# 2 20.8303 120.8019 46.0703 -9.2099 -0.3981 31.5994
# 3 17.8544 46.0703 143.8908 -10.6222 -6.6750 3.0224
# 4 -9.2787 -9.2099 -10.6222 65.0826 -4.6442 0.6931
# 5 10.4539 -0.3981 -6.6750 -4.6442 56.5812 -5.1620
# 6 12.1410 31.5994 3.0224 0.6931 -5.1620 41.6361
#
#
#
# Elastic Compliance Matrix: (Units=1/GPa)
#
#
# Indices 1 2 3 4 5 6 
#
# 1 0.011224 -0.000618 -0.001154 0.001186 -0.002394 -0.003036
# 2 -0.000618 0.012172 -0.003598 0.001074 -0.000951 -0.008932
# 3 -0.001154 -0.003598 0.008314 0.000760 0.001471 0.002633
# 4 0.001186 0.001074 0.000760 0.015900 0.001060 -0.001350
# 5 -0.002394 -0.000951 0.001471 0.001060 0.018700 0.003614
# 6 -0.003036 -0.008932 0.002633 -0.001350 0.003614 0.031961
#
#
# Mechanical properties :
#
#
# Convention : Reuss Voigt Hill
#
# Bulk Modulus (GPa) = 47.68948 59.19724 53.44336
# Shear Modulus (GPa) = 43.10280 51.22734 47.16507
#
# Velocity S-wave (km/s) = 4.06019 4.42634 4.24721
# Velocity P-wave (km/s) = 6.34189 6.98312 6.67022
#
# Compressibility (1/GPa) = 0.02096898
#
# Stress axis : x y z
#
# Youngs Moduli (GPa) = 89.09412 82.15630 120.28043
#
# Poissons Ratio (x) = 0.05080 0.13886
# Poissons Ratio (y) = 0.05509 0.43272
# Poissons Ratio (z) = 0.10286 0.29557
#
# Static dielectric constant tensor:
#      x y z
#    x 2.241900 -0.169250 0.039790 
#    y -0.169250 2.158900 -0.044100 
#    z 0.039790 -0.044100 2.092460 
# 
# From -- ./inp_files/592751.got.cif
#   From: 2010.05.17/outbox.cif.g08.bks.cpg/sg2_297_cif.got.tgz:592751.got - 2010.06.03 11:33:40.
