data_PCOD9025632
_publ_section_title
;
Structure prediction by ZEFSAII (Michael W. Deem and Ramdas Pophale) SiO2 
 PCOD9025632
Probable space group: P -1
;
_chemical_formula_sum "Si O2"
_cell_formula_units_Z 10
_cell_length_a 11.843887
_cell_length_b 5.461665
_cell_length_c 11.643923
_cell_angle_alpha 75.709627
_cell_angle_beta 47.696460
_cell_angle_gamma 105.648538
_cell_volume 428.526775
_symmetry_space_group_name_H-M "P -1"
_symmetry_group_IT_number 2
_symmetry_cell_setting 'triclinic'
loop_
_space_group_symop_operation_xyz
x,y,z
-x,-y,-z
loop_
_atom_site_type_symbol
_atom_site_label
_atom_site_fract_x
_atom_site_fract_y
_atom_site_fract_z
Si Si1 0.322670 0.198014 0.056814
Si Si2 0.577939 0.089727 0.307647
Si Si3 0.770298 0.664607 0.675740
Si Si4 0.195168 0.153820 0.916215
Si Si5 0.748715 0.174556 0.629923
O O1 0.292932 0.525978 0.828222
O O2 0.181596 0.020307 0.068369
O O3 0.538520 0.447562 0.830791
O O4 0.253753 0.360819 0.166296
O O5 0.500000 0.000000 0.500000
O O6 0.684771 0.934207 0.225783
O O7 0.409411 0.942019 0.345255
O O8 0.852265 0.536118 0.550485
O O9 0.858447 0.026838 0.541475
O O10 0.668300 0.014502 0.829997
O O11 0.000000 0.000000 0.000000
#
# Coordination Sequence:
#
# PCOD9025632 Si02
#       5
#     2   2   2   2   2
#     4   9  18  29  56  83 116 137 196 253 295 322
#     4  12  24  42  62  88 124 163 201 241 297 366
#     4   9  16  25  51  81 116 125 192 250 299 305
#     4  12  25  40  61  92 125 159 196 248 304 357
#     4  10  17  31  54  88 106 144 196 258 282 324
#
# _framework density 23.335764000000001
#
# number of rings (size 3 to 8) (size 9 to 14) (size 15 to 20)
#    1.200    0.400    4.000    1.800    2.800    0.000 
#    0.000    0.000    0.000    2.400    0.000    0.000 
#    0.000    0.000    0.000    0.000    0.000    0.000 
#
# Total GULP energy -55749.367799 kJ/mol
# GULP energy per Si atom -5574.936780 kJ/mol
# Density = 2.328265 g / cm^3
# Si number density = 23.335764 Si / 1000 Ang^3
#
#
#
# Elastic Constant Matrix: (Units=GPa)
#
#
# Indices 1 2 3 4 5 6 
#
# 1 155.4762 50.4471 41.3293 22.9720 19.4599 43.8916
# 2 50.4471 187.8706 27.9912 36.4100 -7.6136 7.4533
# 3 41.3293 27.9912 67.0930 21.1203 4.2517 8.3596
# 4 22.9720 36.4100 21.1203 39.8050 -2.1278 -3.7346
# 5 19.4599 -7.6136 4.2517 -2.1278 23.8292 10.7353
# 6 43.8916 7.4533 8.3596 -3.7346 10.7353 47.8905
#
#
#
# Elastic Compliance Matrix: (Units=1/GPa)
#
#
# Indices 1 2 3 4 5 6 
#
# 1 0.011928 -0.001644 -0.003718 -0.004574 -0.005932 -0.009054
# 2 -0.001644 0.006984 -0.000437 -0.005085 0.003507 -0.000687
# 3 -0.003718 -0.000437 0.020093 -0.008219 -0.001245 -0.000394
# 4 -0.004574 -0.005085 -0.008219 0.037751 0.003037 0.008681
# 5 -0.005932 0.003507 -0.001245 0.003037 0.051184 -0.006129
# 6 -0.009054 -0.000687 -0.000394 0.008681 -0.006129 0.031405
#
#
# Mechanical properties :
#
#
# Convention : Reuss Voigt Hill
#
# Bulk Modulus (GPa) = 36.48731 72.21943 54.35337
# Shear Modulus (GPa) = 27.76566 41.68309 34.72438
#
# Velocity S-wave (km/s) = 3.45314 4.23097 3.86169
# Velocity P-wave (km/s) = 5.61860 7.40832 6.57464
#
# Compressibility (1/GPa) = 0.02740679
#
# Stress axis : x y z
#
# Youngs Moduli (GPa) = 83.83840 143.18098 49.76975
#
# Poissons Ratio (x) = 0.23534 0.18504
# Poissons Ratio (y) = 0.13780 0.02176
# Poissons Ratio (z) = 0.31170 0.06261
#
# Static dielectric constant tensor:
#      x y z
#    x 1.948780 -0.069360 -0.027460 
#    y -0.069360 2.051010 -0.014120 
#    z -0.027460 -0.014120 1.856170 
# 
# From -- ./inp_files/361079.got.cif
#   From: 2010.05.17/outbox.cif.g08.bks.cpg/sg2_181_cif.got.tgz:361079.got - 2010.06.03 11:33:40.
