data_PCOD9025146
_publ_section_title
;
Structure prediction by ZEFSAII (Michael W. Deem and Ramdas Pophale) SiO2 
 PCOD9025146
Probable space group: P -1
;
_chemical_formula_sum "Si O2"
_cell_formula_units_Z 16
_cell_length_a 9.452525
_cell_length_b 20.666658
_cell_length_c 15.462843
_cell_angle_alpha 162.333755
_cell_angle_beta 81.160670
_cell_angle_gamma 90.265612
_cell_volume 798.164826
_symmetry_space_group_name_H-M "P -1"
_symmetry_group_IT_number 2
_symmetry_cell_setting 'triclinic'
loop_
_space_group_symop_operation_xyz
x,y,z
-x,-y,-z
loop_
_atom_site_type_symbol
_atom_site_label
_atom_site_fract_x
_atom_site_fract_y
_atom_site_fract_z
Si Si1 0.341795 0.967572 0.293162
Si Si2 0.610327 0.574934 0.643368
Si Si3 0.192589 0.049809 0.599008
Si Si4 0.893752 0.281470 0.375835
Si Si5 0.095691 0.510242 0.589192
Si Si6 0.991051 0.972320 0.657789
Si Si7 0.802337 0.479088 0.816132
Si Si8 0.497550 0.257739 0.719979
O O1 0.289416 0.928854 0.346587
O O2 0.399118 0.171913 0.556411
O O3 0.176904 0.037809 0.346548
O O4 0.489712 0.757799 0.959342
O O5 0.500000 0.500000 0.500000
O O6 0.760765 0.377440 0.434193
O O7 0.714790 0.638664 0.644384
O O8 0.059837 0.987369 0.575331
O O9 0.327778 0.957010 0.545101
O O10 0.121117 0.337466 0.958416
O O11 0.806991 0.352260 0.565232
O O12 0.019818 0.391011 0.508641
O O13 0.000000 0.000000 0.000000
O O14 0.000000 0.500000 0.500000
O O15 0.046959 0.780456 0.971633
O O16 0.118421 0.730186 0.386351
O O17 0.615227 0.663349 0.085260
O O18 0.500000 0.500000 0.000000
#
# Coordination Sequence:
#
# PCOD9025146 Si02
#       8
#     2   2   2   2   2   2   2   2
#     4  11  25  41  68  98 135 177 222 280 342 395
#     4  11  22  43  69  94 137 176 218 283 343 392
#     4  11  23  44  67  96 134 173 227 273 334 406
#     4  11  23  40  68  99 129 176 233 273 331 405
#     4  10  22  40  67  96 127 180 223 268 333 402
#     4  12  23  43  68 101 133 176 221 278 342 395
#     4  11  22  40  70  95 137 168 226 278 328 405
#     4  11  23  42  65  98 130 178 222 269 333 405
#
# _framework density 20.045985999999999
#
# number of rings (size 3 to 8) (size 9 to 14) (size 15 to 20)
#    0.000    1.000    3.750    4.875    1.750    3.000 
#    2.250    0.625    0.000    0.000    0.000    0.000 
#    0.000    0.000    0.000    0.000    0.000    0.000 
#
# Total GULP energy -89109.317459 kJ/mol
# GULP energy per Si atom -5569.332341 kJ/mol
# Density = 2.000036 g / cm^3
# Si number density = 20.045986 Si / 1000 Ang^3
#
#
#
# Elastic Constant Matrix: (Units=GPa)
#
#
# Indices 1 2 3 4 5 6 
#
# 1 138.8440 22.5618 45.1317 1.9347 0.9542 -2.9678
# 2 22.5618 69.3099 39.1191 -2.8668 5.3027 3.1896
# 3 45.1317 39.1191 121.9211 -12.6440 3.2473 1.2429
# 4 1.9347 -2.8668 -12.6440 38.6172 4.7551 1.5816
# 5 0.9542 5.3027 3.2473 4.7551 32.7341 -3.0205
# 6 -2.9678 3.1896 1.2429 1.5816 -3.0205 25.4210
#
#
#
# Elastic Compliance Matrix: (Units=1/GPa)
#
#
# Indices 1 2 3 4 5 6 
#
# 1 0.008401 -0.001280 -0.002896 -0.001600 0.000617 0.001456
# 2 -0.001280 0.018118 -0.005231 0.000121 -0.002626 -0.002487
# 3 -0.002896 -0.005231 0.011351 0.003590 -0.000767 -0.000551
# 4 -0.001600 0.000121 0.003590 0.027837 -0.004618 -0.002658
# 5 0.000617 -0.002626 -0.000767 -0.004618 0.032123 0.004543
# 6 0.001456 -0.002487 -0.000551 -0.002658 0.004543 0.040552
#
#
# Mechanical properties :
#
#
# Convention : Reuss Voigt Hill
#
# Bulk Modulus (GPa) = 52.48274 60.41113 56.44693
# Shear Modulus (GPa) = 30.57200 34.23861 32.40530
#
# Velocity S-wave (km/s) = 3.90948 4.13728 4.02499
# Velocity P-wave (km/s) = 6.82764 7.28179 7.05837
#
# Compressibility (1/GPa) = 0.01905388
#
# Stress axis : x y z
#
# Youngs Moduli (GPa) = 119.03401 55.19463 88.09829
#
# Poissons Ratio (x) = 0.07067 0.25514
# Poissons Ratio (y) = 0.15241 0.46087
# Poissons Ratio (z) = 0.34474 0.28874
#
# Static dielectric constant tensor:
#      x y z
#    x 1.656850 -0.298410 -0.017580 
#    y -0.298410 0.937590 -0.133140 
#    z -0.017580 -0.133140 1.697460 
# 
# From -- ./inp_files/508193.got.cif
#   From: 2010.05.17/outbox.cif.g08.bks.cpg/sg2_255_cif.got.tgz:508193.got - 2010.06.03 11:33:40.
