data_PCOD9025368
_publ_section_title
;
Structure prediction by ZEFSAII (Michael W. Deem and Ramdas Pophale) SiO2 
 PCOD9025368
Probable space group: P -1
;
_chemical_formula_sum "Si O2"
_cell_formula_units_Z 12
_cell_length_a 10.910110
_cell_length_b 10.549386
_cell_length_c 7.861150
_cell_angle_alpha 63.547253
_cell_angle_beta 61.883161
_cell_angle_gamma 113.183788
_cell_volume 460.630055
_symmetry_space_group_name_H-M "P -1"
_symmetry_group_IT_number 2
_symmetry_cell_setting 'triclinic'
loop_
_space_group_symop_operation_xyz
x,y,z
-x,-y,-z
loop_
_atom_site_type_symbol
_atom_site_label
_atom_site_fract_x
_atom_site_fract_y
_atom_site_fract_z
Si Si1 0.322532 0.745145 0.083362
Si Si2 0.073124 0.613417 0.665362
Si Si3 0.545243 0.151525 0.523513
Si Si4 0.077683 0.929014 0.377284
Si Si5 0.745242 0.816385 0.229756
Si Si6 0.378888 0.487534 0.237923
O O1 0.182281 0.641375 0.405228
O O2 0.459712 0.710307 0.032757
O O3 0.173684 0.606987 0.095522
O O4 0.444596 0.987222 0.847029
O O5 0.205309 0.633755 0.713721
O O6 0.119581 0.818405 0.525441
O O7 0.395120 0.171186 0.590603
O O8 0.500000 0.000000 0.500000
O O9 0.871862 0.712212 0.533382
O O10 0.000000 0.000000 0.500000
O O11 0.235841 0.119587 0.017185
O O12 0.632101 0.588729 0.520683
O O13 0.000000 0.000000 0.000000
O O14 0.500000 0.500000 0.000000
#
# Coordination Sequence:
#
# PCOD9025368 Si02
#       6
#     2   2   2   2   2   2
#     4  10  22  44  69  93 136 178 225 289 336 413
#     4  10  23  42  68  98 128 184 233 274 353 404
#     4  12  25  41  72 100 137 183 232 286 343 422
#     4  10  22  40  68  96 132 182 227 286 346 411
#     4  10  23  42  65 101 137 180 230 277 352 413
#     4  10  22  41  66  97 137 177 223 282 351 408
#
# _framework density 26.051272999999998
#
# number of rings (size 3 to 8) (size 9 to 14) (size 15 to 20)
#    0.000    1.667    1.667    1.500    9.333    0.667 
#    0.000    6.667    0.000    0.000    0.000    0.000 
#    0.000    0.000    0.000    0.000    0.000    0.000 
#
# Total GULP energy -66988.268990 kJ/mol
# GULP energy per Si atom -5582.355749 kJ/mol
# Density = 2.599198 g / cm^3
# Si number density = 26.051273 Si / 1000 Ang^3
#
#
#
# Elastic Constant Matrix: (Units=GPa)
#
#
# Indices 1 2 3 4 5 6 
#
# 1 130.0121 31.7962 15.4509 -4.7098 -23.9838 4.4739
# 2 31.7962 83.1017 2.8136 0.0556 -10.2418 -4.3794
# 3 15.4509 2.8136 90.7173 -24.5951 0.9574 3.4503
# 4 -4.7098 0.0556 -24.5951 56.9739 5.7953 1.3409
# 5 -23.9838 -10.2418 0.9574 5.7953 34.9190 0.2560
# 6 4.4739 -4.3794 3.4503 1.3409 0.2560 69.7172
#
#
#
# Elastic Compliance Matrix: (Units=1/GPa)
#
#
# Indices 1 2 3 4 5 6 
#
# 1 0.009729 -0.002968 -0.001745 -0.000534 0.005954 -0.000736
# 2 -0.002968 0.013475 -0.000119 -0.000538 0.001998 0.001046
# 3 -0.001745 -0.000119 0.012922 0.005707 -0.002530 -0.000636
# 4 -0.000534 -0.000538 0.005707 0.020400 -0.004062 -0.000659
# 5 0.005954 0.001998 -0.002530 -0.004062 0.034058 -0.000178
# 6 -0.000736 0.001046 -0.000636 -0.000659 -0.000178 0.014501
#
#
# Mechanical properties :
#
#
# Convention : Reuss Voigt Hill
#
# Bulk Modulus (GPa) = 37.78953 44.88360 41.33657
# Shear Modulus (GPa) = 40.46273 49.24003 44.85138
#
# Velocity S-wave (km/s) = 3.94534 4.35227 4.15379
# Velocity P-wave (km/s) = 5.94067 6.52094 6.23756
#
# Compressibility (1/GPa) = 0.02646236
#
# Stress axis : x y z
#
# Youngs Moduli (GPa) = 102.78439 74.21201 77.38665
#
# Poissons Ratio (x) = 0.22027 0.13502
# Poissons Ratio (y) = 0.30508 0.00921
# Poissons Ratio (z) = 0.17933 0.00884
#
# Static dielectric constant tensor:
#      x y z
#    x 2.014550 0.139550 -0.141390 
#    y 0.139550 1.935640 0.096850 
#    z -0.141390 0.096850 1.992150 
# 
# From -- ./inp_files/247091.got.cif
#   From: 2010.05.17/outbox.cif.g08.bks.cpg/sg2_124_cif.got.tgz:247091.got - 2010.06.03 11:33:40.
