data_PCOD9025963
_publ_section_title
;
Structure prediction by ZEFSAII (Michael W. Deem and Ramdas Pophale) SiO2 
 PCOD9025963
Probable space group: P -1
;
_chemical_formula_sum "Si O2"
_cell_formula_units_Z 16
_cell_length_a 8.729680
_cell_length_b 8.092639
_cell_length_c 23.648211
_cell_angle_alpha 133.523038
_cell_angle_beta 149.839689
_cell_angle_gamma 52.805909
_cell_volume 608.437052
_symmetry_space_group_name_H-M "P -1"
_symmetry_group_IT_number 2
_symmetry_cell_setting 'triclinic'
loop_
_space_group_symop_operation_xyz
x,y,z
-x,-y,-z
loop_
_atom_site_type_symbol
_atom_site_label
_atom_site_fract_x
_atom_site_fract_y
_atom_site_fract_z
Si Si1 0.596691 0.671393 0.855621
Si Si2 0.620167 0.164464 0.940590
Si Si3 0.490389 0.262859 0.040468
Si Si4 0.180165 0.485543 0.212392
Si Si5 0.738517 0.243064 0.394596
Si Si6 0.936347 0.744093 0.612987
Si Si7 0.399131 0.767528 0.528330
Si Si8 0.116784 0.316032 0.737457
O O1 0.688877 0.625788 0.938383
O O2 0.680088 0.463652 0.792020
O O3 0.237241 0.732266 0.745694
O O4 0.730591 0.911588 0.933292
O O5 0.430865 0.195139 0.829941
O O6 0.403878 0.246249 0.943609
O O7 0.887013 0.339895 0.070654
O O8 0.793635 0.415797 0.175506
O O9 0.500000 0.000000 0.000000
O O10 0.429884 0.317904 0.281606
O O11 0.111986 0.681089 0.281624
O O12 0.872907 0.481410 0.515604
O O13 0.636120 0.131688 0.395719
O O14 0.964589 0.160683 0.395395
O O15 0.654873 0.851786 0.584965
O O16 0.500000 0.500000 0.500000
O O17 0.062618 0.763948 0.392750
#
# Coordination Sequence:
#
# PCOD9025963 Si02
#       8
#     2   2   2   2   2   2   2   2
#     4  10  20  34  56  83 109 145 188 234 272 329
#     4  10  22  36  53  80 118 148 178 225 292 338
#     4   9  18  33  54  79 105 141 186 224 262 331
#     4  10  18  33  57  79 108 143 189 226 274 337
#     4   9  17  29  52  87 102 135 192 245 269 320
#     4   9  17  29  50  81 109 131 188 243 271 311
#     4  10  17  31  55  81 107 143 196 227 277 340
#     4  11  20  36  55  83 111 148 181 231 284 337
#
# _framework density 26.296883999999999
#
# number of rings (size 3 to 8) (size 9 to 14) (size 15 to 20)
#    0.000    2.250    2.500    3.375    1.750    0.000 
#    0.000    3.125    0.000    3.000    0.000    0.000 
#    0.000    0.000    0.000    0.000    0.000    0.000 
#
# Total GULP energy -89219.715059 kJ/mol
# GULP energy per Si atom -5576.232191 kJ/mol
# Density = 2.623703 g / cm^3
# Si number density = 26.296884 Si / 1000 Ang^3
#
#
#
# Elastic Constant Matrix: (Units=GPa)
#
#
# Indices 1 2 3 4 5 6 
#
# 1 200.4613 29.3072 8.5036 -14.9602 -23.2498 -3.4002
# 2 29.3072 55.0738 4.4135 3.7663 10.4503 6.4510
# 3 8.5036 4.4135 54.7174 -1.8323 4.0517 11.5223
# 4 -14.9602 3.7663 -1.8323 28.2931 10.2115 -2.3937
# 5 -23.2498 10.4503 4.0517 10.2115 35.1820 0.1894
# 6 -3.4002 6.4510 11.5223 -2.3937 0.1894 34.6769
#
#
#
# Elastic Compliance Matrix: (Units=1/GPa)
#
#
# Indices 1 2 3 4 5 6 
#
# 1 0.006562 -0.004781 -0.001392 0.002306 0.005236 0.002126
# 2 -0.004781 0.023204 0.000546 -0.002650 -0.009318 -0.005099
# 3 -0.001392 0.000546 0.020209 0.001271 -0.003742 -0.006845
# 4 0.002306 -0.002650 0.001271 0.040761 -0.009683 0.003163
# 5 0.005236 -0.009318 -0.003742 -0.009683 0.037879 0.002615
# 6 0.002126 -0.005099 -0.006845 0.003163 0.002615 0.032473
#
#
# Mechanical properties :
#
#
# Convention : Reuss Voigt Hill
#
# Bulk Modulus (GPa) = 25.82513 43.85567 34.84040
# Shear Modulus (GPa) = 26.99069 37.49895 32.24482
#
# Velocity S-wave (km/s) = 3.20720 3.78032 3.50549
# Velocity P-wave (km/s) = 4.85353 5.98061 5.44631
#
# Compressibility (1/GPa) = 0.03872197
#
# Stress axis : x y z
#
# Youngs Moduli (GPa) = 152.39500 43.09571 49.48264
#
# Poissons Ratio (x) = 0.20602 0.06890
# Poissons Ratio (y) = 0.72853 -0.02703
# Poissons Ratio (z) = 0.21219 -0.02354
#
# Static dielectric constant tensor:
#      x y z
#    x 2.293480 0.003850 0.047690 
#    y 0.003850 2.132750 0.023980 
#    z 0.047690 0.023980 2.028140 
# 
# From -- ./inp_files/516158.got.cif
#   From: 2010.05.17/outbox.cif.g08.bks.cpg/sg2_259_cif.got.tgz:516158.got - 2010.06.03 11:33:40.
