data_PCOD9025819
_publ_section_title
;
Structure prediction by ZEFSAII (Michael W. Deem and Ramdas Pophale) SiO2 
 PCOD9025819
Probable space group: P -1
;
_chemical_formula_sum "Si O2"
_cell_formula_units_Z 12
_cell_length_a 17.378618
_cell_length_b 8.835252
_cell_length_c 11.387611
_cell_angle_alpha 139.061079
_cell_angle_beta 41.777919
_cell_angle_gamma 152.823012
_cell_volume 507.170001
_symmetry_space_group_name_H-M "P -1"
_symmetry_group_IT_number 2
_symmetry_cell_setting 'triclinic'
loop_
_space_group_symop_operation_xyz
x,y,z
-x,-y,-z
loop_
_atom_site_type_symbol
_atom_site_label
_atom_site_fract_x
_atom_site_fract_y
_atom_site_fract_z
Si Si1 0.199312 0.224960 0.890715
Si Si2 0.466391 0.434436 0.862943
Si Si3 0.989627 0.313410 0.790345
Si Si4 0.794266 0.185311 0.523269
Si Si5 0.257159 0.503353 0.429810
Si Si6 0.711667 0.131017 0.846472
O O1 0.271684 0.202134 0.910183
O O2 0.235192 0.100180 0.673847
O O3 0.294926 0.606383 0.978663
O O4 0.000000 0.000000 0.000000
O O5 0.555248 0.328602 0.660577
O O6 0.576695 0.794371 0.882158
O O7 0.500000 0.500000 0.000000
O O8 0.170877 0.489584 0.635209
O O9 0.897505 0.317442 0.792330
O O10 0.868634 0.902708 0.702197
O O11 0.000000 0.500000 0.000000
O O12 0.744103 0.317790 0.570597
O O13 0.698618 0.057592 0.681151
O O14 0.000000 0.500000 0.500000
#
# Coordination Sequence:
#
# PCOD9025819 Si02
#       6
#     2   2   2   2   2   2
#     4  12  26  45  78 106 143 201 246 294 377 437
#     4  11  27  49  74 106 153 195 244 315 368 429
#     4  10  22  40  72 104 141 192 242 294 364 439
#     4  12  24  43  73 105 147 187 241 307 358 440
#     4  10  23  43  67 102 149 185 238 303 362 427
#     4  11  25  45  71 107 145 188 246 305 367 435
#
# _framework density 23.660706000000001
#
# number of rings (size 3 to 8) (size 9 to 14) (size 15 to 20)
#    0.000    1.000    3.333    1.500    2.333    6.667 
#    0.000    3.333    0.000    0.000    0.000    0.000 
#    0.000    0.000    0.000    0.000    0.000    0.000 
#
# Total GULP energy -67235.148811 kJ/mol
# GULP energy per Si atom -5602.929068 kJ/mol
# Density = 2.360685 g / cm^3
# Si number density = 23.660706 Si / 1000 Ang^3
#
#
#
# Elastic Constant Matrix: (Units=GPa)
#
#
# Indices 1 2 3 4 5 6 
#
# 1 175.3021 60.7232 97.9785 -7.7939 -20.7265 -8.0993
# 2 60.7232 82.6774 65.6358 -7.1178 -3.0063 -19.6073
# 3 97.9785 65.6358 212.5781 21.4677 3.6081 -24.9887
# 4 -7.7939 -7.1178 21.4677 42.5722 0.7561 -11.3685
# 5 -20.7265 -3.0063 3.6081 0.7561 57.1077 -12.6761
# 6 -8.0993 -19.6073 -24.9887 -11.3685 -12.6761 46.9177
#
#
#
# Elastic Compliance Matrix: (Units=1/GPa)
#
#
# Indices 1 2 3 4 5 6 
#
# 1 0.009562 -0.003892 -0.003577 0.002764 0.003389 -0.000295
# 2 -0.003892 0.021128 -0.004554 0.007203 0.001651 0.007924
# 3 -0.003577 -0.004554 0.008362 -0.005586 -0.001982 0.000044
# 4 0.002764 0.007203 -0.005586 0.030291 0.003274 0.008737
# 5 0.003389 0.001651 -0.001982 0.003274 0.020355 0.006512
# 6 -0.000295 0.007924 0.000044 0.008737 0.006512 0.028474
#
#
# Mechanical properties :
#
#
# Convention : Reuss Voigt Hill
#
# Bulk Modulus (GPa) = 66.63768 102.13696 84.38732
# Shear Modulus (GPa) = 33.96308 45.73419 39.84863
#
# Velocity S-wave (km/s) = 3.79281 4.40127 4.10832
# Velocity P-wave (km/s) = 6.88517 8.31199 7.63200
#
# Compressibility (1/GPa) = 0.01500652
#
# Stress axis : x y z
#
# Youngs Moduli (GPa) = 104.58462 47.33049 119.59467
#
# Poissons Ratio (x) = 0.18421 0.42776
# Poissons Ratio (y) = 0.40704 0.54459
# Poissons Ratio (z) = 0.37407 0.21553
#
# Static dielectric constant tensor:
#      x y z
#    x 1.912890 0.114270 -0.012580 
#    y 0.114270 2.032910 -0.047190 
#    z -0.012580 -0.047190 1.968830 
# 
# From -- ./inp_files/266059.got.cif
#   From: 2010.05.17/outbox.cif.g08.bks.cpg/sg2_134_cif.got.tgz:266059.got - 2010.06.03 11:33:40.
