data_PCOD9025886
_publ_section_title
;
Structure prediction by ZEFSAII (Michael W. Deem and Ramdas Pophale) SiO2 
 PCOD9025886
Probable space group: P -1
;
_chemical_formula_sum "Si O2"
_cell_formula_units_Z 14
_cell_length_a 11.408103
_cell_length_b 9.390364
_cell_length_c 15.846428
_cell_angle_alpha 135.265027
_cell_angle_beta 153.593976
_cell_angle_gamma 51.061476
_cell_volume 531.197584
_symmetry_space_group_name_H-M "P -1"
_symmetry_group_IT_number 2
_symmetry_cell_setting 'triclinic'
loop_
_space_group_symop_operation_xyz
x,y,z
-x,-y,-z
loop_
_atom_site_type_symbol
_atom_site_label
_atom_site_fract_x
_atom_site_fract_y
_atom_site_fract_z
Si Si1 0.445374 0.168069 0.625740
Si Si2 0.692890 0.461842 0.772626
Si Si3 0.068660 0.826998 0.790704
Si Si4 0.762774 0.596592 0.250584
Si Si5 0.451519 0.895193 0.805638
Si Si6 0.000000 0.000000 0.500000
Si Si7 0.540546 0.801248 0.639207
Si Si8 0.000000 0.000000 0.000000
O O1 0.594960 0.302404 0.711676
O O2 0.334748 0.294129 0.683198
O O3 0.188479 0.077380 0.375321
O O4 0.618418 0.996501 0.710062
O O5 0.547897 0.671890 0.785880
O O6 0.596331 0.365781 0.578846
O O7 0.000000 0.500000 0.000000
O O8 0.054316 0.584781 0.676843
O O9 0.327799 0.935601 0.965915
O O10 0.084716 0.870751 0.918099
O O11 0.500000 0.500000 0.000000
O O12 0.884561 0.760138 0.334109
O O13 0.371934 0.885930 0.646103
O O14 0.171900 0.963110 0.684558
O O15 0.841044 0.781878 0.852582
#
# Coordination Sequence:
#
# PCOD9025886 Si02
#       8
#     2   2   2   2   2   1   2   1
#     4  12  25  47  73 108 147 197 250 316 378 446
#     4  12  27  45  71 114 156 190 249 317 384 448
#     4  11  23  46  74 104 153 193 251 308 384 446
#     4  12  25  50  73 108 144 205 251 306 380 450
#     4  11  25  47  71 112 144 201 251 308 376 460
#     4  12  24  48  78 104 150 190 270 302 374 460
#     4  11  23  45  70 103 143 199 246 306 379 449
#     4  10  22  40  74 102 132 200 240 298 368 454
#
# _framework density 26.355543000000001
#
# number of rings (size 3 to 8) (size 9 to 14) (size 15 to 20)
#    0.000    0.571    4.286    3.857    4.000    1.143 
#    2.571    1.429    0.000    0.000    0.000    0.000 
#    0.000    0.000    0.000    0.000    0.000    0.000 
#
# Total GULP energy -78014.728220 kJ/mol
# GULP energy per Si atom -5572.480587 kJ/mol
# Density = 2.629556 g / cm^3
# Si number density = 26.355543 Si / 1000 Ang^3
#
#
#
# Elastic Constant Matrix: (Units=GPa)
#
#
# Indices 1 2 3 4 5 6 
#
# 1 54.2155 1.9475 36.3360 4.5124 -8.7118 13.2651
# 2 1.9475 171.5936 37.9304 -0.3844 9.0951 0.9939
# 3 36.3360 37.9304 148.6267 9.7900 32.0572 16.7052
# 4 4.5124 -0.3844 9.7900 48.8067 1.5240 2.5877
# 5 -8.7118 9.0951 32.0572 1.5240 53.4197 7.1646
# 6 13.2651 0.9939 16.7052 2.5877 7.1646 26.4872
#
#
#
# Elastic Compliance Matrix: (Units=1/GPa)
#
#
# Indices 1 2 3 4 5 6 
#
# 1 0.028788 0.000981 -0.008278 -0.000696 0.011149 -0.012181
# 2 0.000981 0.006233 -0.001941 0.000320 0.000199 0.000414
# 3 -0.008278 -0.001941 0.011012 -0.001194 -0.007517 -0.000577
# 4 -0.000696 0.000320 -0.001194 0.020844 0.000084 -0.000970
# 5 0.011149 0.000199 -0.007517 0.000084 0.026073 -0.007911
# 6 -0.012181 0.000414 -0.000577 -0.000970 -0.007911 0.046437
#
#
# Mechanical properties :
#
#
# Convention : Reuss Voigt Hill
#
# Bulk Modulus (GPa) = 36.28860 58.54041 47.41450
# Shear Modulus (GPa) = 29.93119 45.62416 37.77768
#
# Velocity S-wave (km/s) = 3.37363 4.16517 3.79012
# Velocity P-wave (km/s) = 5.38274 6.73732 6.09776
#
# Compressibility (1/GPa) = 0.02755687
#
# Stress axis : x y z
#
# Youngs Moduli (GPa) = 34.73729 160.42468 90.80838
#
# Poissons Ratio (x) = -0.15741 0.75173
# Poissons Ratio (y) = -0.03408 0.17628
# Poissons Ratio (z) = 0.28756 0.31142
#
# Static dielectric constant tensor:
#      x y z
#    x 1.715920 0.394640 -0.384070 
#    y 0.394640 1.583880 0.894530 
#    z -0.384070 0.894530 0.771760 
# 
# From -- ./inp_files/516329.got.cif
#   From: 2010.05.17/outbox.cif.g08.bks.cpg/sg2_259_cif.got.tgz:516329.got - 2010.06.03 11:33:40.
