data_PCOD9025101
_publ_section_title
;
Structure prediction by ZEFSAII (Michael W. Deem and Ramdas Pophale) SiO2 
 PCOD9025101
Probable space group: P -1
;
_chemical_formula_sum "Si O2"
_cell_formula_units_Z 12
_cell_length_a 9.941953
_cell_length_b 10.902687
_cell_length_c 9.813768
_cell_angle_alpha 122.332184
_cell_angle_beta 40.823405
_cell_angle_gamma 121.143094
_cell_volume 575.286059
_symmetry_space_group_name_H-M "P -1"
_symmetry_group_IT_number 2
_symmetry_cell_setting 'triclinic'
loop_
_space_group_symop_operation_xyz
x,y,z
-x,-y,-z
loop_
_atom_site_type_symbol
_atom_site_label
_atom_site_fract_x
_atom_site_fract_y
_atom_site_fract_z
Si Si1 0.973399 0.645402 0.441022
Si Si2 0.870811 0.811523 0.122495
Si Si3 0.743076 0.579226 0.861815
Si Si4 0.650830 0.658787 0.459462
Si Si5 0.293551 0.894129 0.491813
Si Si6 0.355807 0.865054 0.726134
O O1 0.822650 0.595426 0.655690
O O2 0.831461 0.675984 0.443820
O O3 0.110164 0.520350 0.236355
O O4 0.137914 0.789288 0.450603
O O5 0.767494 0.693828 0.246184
O O6 0.802965 0.966294 0.300346
O O7 0.789972 0.736176 0.996517
O O8 0.122782 0.844958 0.948683
O O9 0.500000 0.500000 0.000000
O O10 0.500000 0.500000 0.500000
O O11 0.496213 0.774944 0.651024
O O12 0.334157 0.811036 0.551075
O O13 0.507184 0.969413 0.296775
#
# Coordination Sequence:
#
# PCOD9025101 Si02
#       6
#     2   2   2   2   2   2
#     4  11  25  43  62  98 133 164 211 274 316 373
#     4  11  23  42  68  97 124 173 220 258 314 392
#     4  11  25  39  66  95 128 167 222 260 314 380
#     4  11  25  42  65  94 137 171 206 264 333 375
#     4  10  23  41  71  92 130 169 218 264 316 376
#     4  10  22  40  67  93 127 171 215 256 322 379
#
# _framework density 20.859186999999999
#
# number of rings (size 3 to 8) (size 9 to 14) (size 15 to 20)
#    0.000    1.333    1.667    2.500    9.333    6.667 
#    0.000    1.667    0.000    0.000    0.000    0.000 
#    0.000    0.000    0.000    0.000    0.000    0.000 
#
# Total GULP energy -67098.704497 kJ/mol
# GULP energy per Si atom -5591.558708 kJ/mol
# Density = 2.081171 g / cm^3
# Si number density = 20.859187 Si / 1000 Ang^3
#
#
#
# Elastic Constant Matrix: (Units=GPa)
#
#
# Indices 1 2 3 4 5 6 
#
# 1 142.3159 32.7970 25.2784 2.1460 -16.5357 -1.8234
# 2 32.7970 97.7081 37.9062 -5.1966 -20.5920 11.6587
# 3 25.2784 37.9062 89.1271 -16.0069 -30.2426 0.7537
# 4 2.1460 -5.1966 -16.0069 47.5255 9.9437 -6.3859
# 5 -16.5357 -20.5920 -30.2426 9.9437 30.5765 -5.6032
# 6 -1.8234 11.6587 0.7537 -6.3859 -5.6032 41.1129
#
#
#
# Elastic Compliance Matrix: (Units=1/GPa)
#
#
# Indices 1 2 3 4 5 6 
#
# 1 0.007980 -0.002011 -0.000646 -0.001260 0.002941 0.001141
# 2 -0.002011 0.013666 -0.004143 -0.001064 0.003715 -0.003548
# 3 -0.000646 -0.004143 0.018818 0.003217 0.015041 0.003351
# 4 -0.001260 -0.001064 0.003217 0.023598 -0.005317 0.003128
# 5 0.002941 0.003715 0.015041 -0.005317 0.054390 0.005388
# 6 0.001141 -0.003548 0.003351 0.003128 0.005388 0.026539
#
#
# Mechanical properties :
#
#
# Convention : Reuss Voigt Hill
#
# Bulk Modulus (GPa) = 37.22275 57.90158 47.56217
# Shear Modulus (GPa) = 29.84234 39.38762 34.61498
#
# Velocity S-wave (km/s) = 3.78651 4.35013 4.07807
# Velocity P-wave (km/s) = 6.08279 7.28355 6.71008
#
# Compressibility (1/GPa) = 0.02686529
#
# Stress axis : x y z
#
# Youngs Moduli (GPa) = 125.30972 73.17188 53.13971
#
# Poissons Ratio (x) = 0.14718 0.03432
# Poissons Ratio (y) = 0.25206 0.22014
# Poissons Ratio (z) = 0.08093 0.30312
#
# Static dielectric constant tensor:
#      x y z
#    x 1.742350 -0.025340 -0.021620 
#    y -0.025340 1.758990 0.002330 
#    z -0.021620 0.002330 1.753900 
# 
# From -- ./inp_files/182171.got.cif
#   From: 2010.05.17/outbox.cif.g08.bks.cpg/sg2_92_cif.got.tgz:182171.got - 2010.06.03 11:33:40.
