data_PCOD9025040
_publ_section_title
;
Structure prediction by ZEFSAII (Michael W. Deem and Ramdas Pophale) SiO2 
 PCOD9025040
Probable space group: P -1
;
_chemical_formula_sum "Si O2"
_cell_formula_units_Z 14
_cell_length_a 20.669356
_cell_length_b 8.803392
_cell_length_c 21.966551
_cell_angle_alpha 153.556127
_cell_angle_beta 18.739433
_cell_angle_gamma 149.058954
_cell_volume 570.500366
_symmetry_space_group_name_H-M "P -1"
_symmetry_group_IT_number 2
_symmetry_cell_setting 'triclinic'
loop_
_space_group_symop_operation_xyz
x,y,z
-x,-y,-z
loop_
_atom_site_type_symbol
_atom_site_label
_atom_site_fract_x
_atom_site_fract_y
_atom_site_fract_z
Si Si1 0.083348 0.644514 0.913396
Si Si2 0.766712 0.375467 0.546658
Si Si3 0.279612 0.910223 0.638425
Si Si4 0.629835 0.750963 0.074859
Si Si5 0.264454 0.876551 0.166770
Si Si6 0.150750 0.495673 0.306158
Si Si7 0.901672 0.740036 0.359245
O O1 0.902660 0.837840 0.110696
O O2 0.274815 0.904131 0.854713
O O3 0.000000 0.500000 0.000000
O O4 0.133493 0.364400 0.717247
O O5 0.674407 0.154404 0.495976
O O6 0.986843 0.280807 0.332501
O O7 0.816429 0.759799 0.614422
O O8 0.605804 0.341000 0.732150
O O9 0.193476 0.571092 0.627870
O O10 0.500000 0.000000 0.500000
O O11 0.742132 0.445217 0.898678
O O12 0.663357 0.707046 0.956740
O O13 0.139950 0.783801 0.182532
O O14 0.500000 0.000000 0.000000
O O15 0.000000 0.500000 0.500000
O O16 0.190421 0.905254 0.411468
#
# Coordination Sequence:
#
# PCOD9025040 Si02
#       7
#     2   2   2   2   2   2   2
#     4  12  26  45  68  98 143 185 226 283 348 404
#     4  10  22  40  67 103 130 168 232 289 338 406
#     4  12  25  43  71 103 135 179 239 283 337 415
#     4  11  21  42  69  92 137 180 221 282 349 396
#     4   9  19  35  67  98 124 162 226 279 335 391
#     4  11  23  43  66  97 139 179 225 279 348 415
#     4  11  23  42  68  98 134 181 228 281 342 405
#
# _framework density 24.539863
#
# number of rings (size 3 to 8) (size 9 to 14) (size 15 to 20)
#    0.000    1.143    2.857    3.000    4.000    2.857 
#    5.143    1.429    0.000    0.000    0.000    0.000 
#    0.000    0.000    0.000    0.000    0.000    0.000 
#
# Total GULP energy -78037.679592 kJ/mol
# GULP energy per Si atom -5574.119971 kJ/mol
# Density = 2.448401 g / cm^3
# Si number density = 24.539863 Si / 1000 Ang^3
#
#
#
# Elastic Constant Matrix: (Units=GPa)
#
#
# Indices 1 2 3 4 5 6 
#
# 1 70.7671 24.3641 21.4081 -10.7391 11.5238 32.9302
# 2 24.3641 115.8084 29.1079 -7.0949 -5.7323 15.2231
# 3 21.4081 29.1079 73.5134 -9.3635 17.3992 10.1729
# 4 -10.7391 -7.0949 -9.3635 38.9282 2.6519 -1.3588
# 5 11.5238 -5.7323 17.3992 2.6519 44.9683 -1.3270
# 6 32.9302 15.2231 10.1729 -1.3588 -1.3270 52.9096
#
#
#
# Elastic Compliance Matrix: (Units=1/GPa)
#
#
# Indices 1 2 3 4 5 6 
#
# 1 0.023952 -0.002780 -0.001685 0.005662 -0.006581 -0.013803
# 2 -0.002780 0.010495 -0.004172 -0.000121 0.003660 -0.000398
# 3 -0.001685 -0.004172 0.018131 0.003591 -0.007366 -0.001329
# 4 0.005662 -0.000121 0.003591 0.028283 -0.004629 -0.003569
# 5 -0.006581 0.003660 -0.007366 -0.004629 0.027663 0.005034
# 6 -0.013803 -0.000398 -0.001329 -0.003569 0.005034 0.027896
#
#
# Mechanical properties :
#
#
# Convention : Reuss Voigt Hill
#
# Bulk Modulus (GPa) = 28.32732 45.53881 36.93306
# Shear Modulus (GPa) = 30.21867 39.70845 34.96356
#
# Velocity S-wave (km/s) = 3.51295 4.02695 3.77870
# Velocity P-wave (km/s) = 5.29367 6.34186 5.84132
#
# Compressibility (1/GPa) = 0.03530161
#
# Stress axis : x y z
#
# Youngs Moduli (GPa) = 41.75059 95.28694 55.15553
#
# Poissons Ratio (x) = 0.26489 0.09296
# Poissons Ratio (y) = 0.11606 0.23013
# Poissons Ratio (z) = 0.07037 0.39757
#
# Static dielectric constant tensor:
#      x y z
#    x 2.120380 -0.094310 0.061060 
#    y -0.094310 2.248180 -0.166620 
#    z 0.061060 -0.166620 2.111660 
# 
# From -- ./inp_files/601299.got.cif
#   From: 2010.05.17/outbox.cif.g08.bks.cpg/sg2_301_cif.got.tgz:601299.got - 2010.06.03 11:33:40.
