data_PCOD9025903
_publ_section_title
;
Structure prediction by ZEFSAII (Michael W. Deem and Ramdas Pophale) SiO2 
 PCOD9025903
Probable space group: P -1
;
_chemical_formula_sum "Si O2"
_cell_formula_units_Z 16
_cell_length_a 5.693168
_cell_length_b 9.147676
_cell_length_c 12.758953
_cell_angle_alpha 79.595385
_cell_angle_beta 87.916096
_cell_angle_gamma 81.686213
_cell_volume 646.646731
_symmetry_space_group_name_H-M "P -1"
_symmetry_group_IT_number 2
_symmetry_cell_setting 'triclinic'
loop_
_space_group_symop_operation_xyz
x,y,z
-x,-y,-z
loop_
_atom_site_type_symbol
_atom_site_label
_atom_site_fract_x
_atom_site_fract_y
_atom_site_fract_z
Si Si1 0.247086 0.078416 0.359016
Si Si2 0.218698 0.063825 0.616184
Si Si3 0.373475 0.655457 0.253527
Si Si4 0.299049 0.940841 0.082193
Si Si5 0.009172 0.238680 0.046348
Si Si6 0.111067 0.413679 0.346447
Si Si7 0.692855 0.516605 0.085648
Si Si8 0.705919 0.613372 0.426545
O O1 0.524127 0.017476 0.335799
O O2 0.175240 0.254632 0.311883
O O3 0.018691 0.001350 0.338846
O O4 0.238985 0.060838 0.489379
O O5 0.176453 0.239278 0.624457
O O6 0.363556 0.820388 0.186834
O O7 0.161572 0.556188 0.259448
O O8 0.574356 0.560038 0.191990
O O9 0.451828 0.654355 0.372585
O O10 0.148164 0.844878 0.021042
O O11 0.500000 0.000000 0.000000
O O12 0.166976 0.095416 0.111209
O O13 0.165560 0.348331 0.969083
O O14 0.850645 0.354974 0.107712
O O15 0.283324 0.395484 0.448135
O O16 0.854081 0.463302 0.395904
O O17 0.500000 0.500000 0.000000
#
# Coordination Sequence:
#
# PCOD9025903 Si02
#       8
#     2   2   2   2   2   2   2   2
#     4   9  19  38  66  93 126 175 229 288 352 412
#     4   9  19  38  66  93 126 175 229 288 352 412
#     4  12  25  40  70  96 142 178 237 280 346 414
#     4  11  22  43  69 102 133 177 224 282 348 421
#     4  10  22  40  74  98 136 176 218 280 356 418
#     4  10  24  43  67  98 137 185 236 288 347 413
#     4  11  22  43  69 102 133 177 224 282 348 421
#     4  10  24  43  67  98 137 185 236 288 347 413
#
# _framework density 24.743030999999998
#
# number of rings (size 3 to 8) (size 9 to 14) (size 15 to 20)
#    0.000    1.750    2.500    0.375    5.250    0.000 
#    0.000    5.000    2.750    0.000    0.000    0.000 
#    0.000    0.000    0.000    0.000    0.000    0.000 
#
# Total GULP energy -89413.472758 kJ/mol
# GULP energy per Si atom -5588.342047 kJ/mol
# Density = 2.468671 g / cm^3
# Si number density = 24.743031 Si / 1000 Ang^3
#
#
#
# Elastic Constant Matrix: (Units=GPa)
#
#
# Indices 1 2 3 4 5 6 
#
# 1 119.8935 67.8093 34.9294 -19.0959 -7.9007 13.0781
# 2 67.8093 193.6901 37.9674 -28.7101 -10.1516 -5.0753
# 3 34.9294 37.9674 62.1302 -18.0526 4.0995 1.1157
# 4 -19.0959 -28.7101 -18.0526 38.2117 -2.0508 -10.0337
# 5 -7.9007 -10.1516 4.0995 -2.0508 29.7849 0.4897
# 6 13.0781 -5.0753 1.1157 -10.0337 0.4897 46.0281
#
#
#
# Elastic Compliance Matrix: (Units=1/GPa)
#
#
# Indices 1 2 3 4 5 6 
#
# 1 0.012250 -0.003176 -0.004891 0.000637 0.002943 -0.003605
# 2 -0.003176 0.007384 -0.001777 0.003917 0.002146 0.002591
# 3 -0.004891 -0.001777 0.022245 0.007077 -0.004514 0.002245
# 4 0.000637 0.003917 0.007077 0.034938 0.002809 0.007666
# 5 0.002943 0.002146 -0.004514 0.002809 0.035905 -0.000260
# 6 -0.003605 0.002591 0.002245 0.007666 -0.000260 0.024655
#
#
# Mechanical properties :
#
#
# Convention : Reuss Voigt Hill
#
# Bulk Modulus (GPa) = 45.06195 73.01402 59.03799
# Shear Modulus (GPa) = 30.40211 38.47211 34.43711
#
# Velocity S-wave (km/s) = 3.50910 3.94746 3.73472
# Velocity P-wave (km/s) = 5.88812 7.09574 6.51995
#
# Compressibility (1/GPa) = 0.02219167
#
# Stress axis : x y z
#
# Youngs Moduli (GPa) = 81.62967 135.42858 44.95462
#
# Poissons Ratio (x) = 0.43011 0.21987
# Poissons Ratio (y) = 0.25925 0.07988
# Poissons Ratio (z) = 0.39924 0.24064
#
# Static dielectric constant tensor:
#      x y z
#    x 2.100170 0.004830 0.118240 
#    y 0.004830 1.950920 -0.038190 
#    z 0.118240 -0.038190 2.091730 
# 
# From -- ./inp_files/480278.got.cif
#   From: 2010.05.17/outbox.cif.g08.bks.cpg/sg2_241_cif.got.tgz:480278.got - 2010.06.03 11:33:40.
