data_PCOD9025863
_publ_section_title
;
Structure prediction by ZEFSAII (Michael W. Deem and Ramdas Pophale) SiO2 
 PCOD9025863
Probable space group: P -1
;
_chemical_formula_sum "Si O2"
_cell_formula_units_Z 14
_cell_length_a 21.006429
_cell_length_b 9.324822
_cell_length_c 11.507561
_cell_angle_alpha 135.603163
_cell_angle_beta 22.321696
_cell_angle_gamma 133.663772
_cell_volume 595.275943
_symmetry_space_group_name_H-M "P -1"
_symmetry_group_IT_number 2
_symmetry_cell_setting 'triclinic'
loop_
_space_group_symop_operation_xyz
x,y,z
-x,-y,-z
loop_
_atom_site_type_symbol
_atom_site_label
_atom_site_fract_x
_atom_site_fract_y
_atom_site_fract_z
Si Si1 0.974017 0.906386 0.615791
Si Si2 0.365147 0.543240 0.848571
Si Si3 0.071474 0.459153 0.141583
Si Si4 0.661384 0.086101 0.352721
Si Si5 0.815909 0.083685 0.337798
Si Si6 0.644836 0.526281 0.537356
Si Si7 0.294433 0.009270 0.277691
O O1 0.010999 0.675847 0.400251
O O2 0.000000 0.000000 0.500000
O O3 0.105984 0.999810 0.542612
O O4 0.800622 0.968931 0.987519
O O5 0.500000 0.500000 0.500000
O O6 0.458188 0.477634 0.768297
O O7 0.188103 0.420308 0.035203
O O8 0.352294 0.790417 0.012342
O O9 0.896305 0.319758 0.337602
O O10 0.203557 0.458472 0.808990
O O11 0.696709 0.041732 0.402991
O O12 0.680857 0.334963 0.445692
O O13 0.500000 0.000000 0.500000
O O14 0.708446 0.010870 0.589984
O O15 0.000000 0.000000 0.000000
O O16 0.635245 0.756563 0.737696
#
# Coordination Sequence:
#
# PCOD9025863 Si02
#       7
#     2   2   2   2   2   2   2
#     4  11  23  44  72 104 141 191 251 294 350 433
#     4   9  22  41  68 106 141 182 237 300 351 428
#     4  10  22  40  73 101 134 194 247 288 348 432
#     4  12  29  47  71 107 152 187 234 312 373 418
#     4  12  25  46  71 104 145 185 243 299 354 434
#     4  11  22  42  70 102 143 186 238 299 360 421
#     4  11  24  44  75 104 136 197 248 289 353 438
#
# _framework density 23.518504
#
# number of rings (size 3 to 8) (size 9 to 14) (size 15 to 20)
#    0.000    1.143    4.286    0.429    4.000    5.714 
#    2.571    1.429    0.000    0.000    0.000    0.000 
#    0.000    0.000    0.000    0.000    0.000    0.000 
#
# Total GULP energy -78108.656203 kJ/mol
# GULP energy per Si atom -5579.189729 kJ/mol
# Density = 2.346498 g / cm^3
# Si number density = 23.518504 Si / 1000 Ang^3
#
#
#
# Elastic Constant Matrix: (Units=GPa)
#
#
# Indices 1 2 3 4 5 6 
#
# 1 135.6546 58.3148 45.6361 4.3212 -23.4895 9.5092
# 2 58.3148 85.5870 21.8971 14.7464 -6.3166 -5.6736
# 3 45.6361 21.8971 86.7621 24.7127 -22.5303 2.0559
# 4 4.3212 14.7464 24.7127 36.7804 4.2741 -10.4128
# 5 -23.4895 -6.3166 -22.5303 4.2741 40.5067 -1.2028
# 6 9.5092 -5.6736 2.0559 -10.4128 -1.2028 28.8473
#
#
#
# Elastic Compliance Matrix: (Units=1/GPa)
#
#
# Indices 1 2 3 4 5 6 
#
# 1 0.013497 -0.008587 -0.005049 0.003657 0.003165 -0.004326
# 2 -0.008587 0.018469 0.001317 -0.006030 -0.000607 0.004167
# 3 -0.005049 0.001317 0.021826 -0.017436 0.011095 -0.005463
# 4 0.003657 -0.006030 -0.017436 0.046694 -0.012994 0.015164
# 5 0.003165 -0.000607 0.011095 -0.012994 0.033814 -0.005234
# 6 -0.004326 0.004167 -0.005463 0.015164 -0.005234 0.042556
#
#
# Mechanical properties :
#
#
# Convention : Reuss Voigt Hill
#
# Bulk Modulus (GPa) = 34.30331 62.18885 48.24608
# Shear Modulus (GPa) = 23.67290 33.37060 28.52175
#
# Velocity S-wave (km/s) = 3.17608 3.77093 3.48621
# Velocity P-wave (km/s) = 5.29786 6.74239 6.06330
#
# Compressibility (1/GPa) = 0.02915170
#
# Stress axis : x y z
#
# Youngs Moduli (GPa) = 74.09300 54.14609 45.81697
#
# Poissons Ratio (x) = 0.46498 0.23134
# Poissons Ratio (y) = 0.63627 -0.06034
# Poissons Ratio (z) = 0.37411 -0.07131
#
# Static dielectric constant tensor:
#      x y z
#    x 0.529930 -1.722150 -0.301300 
#    y -1.722150 -0.225040 -0.433590 
#    z -0.301300 -0.433590 1.816550 
# 
# From -- ./inp_files/469543.got.cif
#   From: 2010.05.17/outbox.cif.g08.bks.cpg/sg2_235_cif.got.tgz:469543.got - 2010.06.03 11:33:40.
