data_PCOD9025987
_publ_section_title
;
Structure prediction by ZEFSAII (Michael W. Deem and Ramdas Pophale) SiO2 
 PCOD9025987
Probable space group: P -1
;
_chemical_formula_sum "Si O2"
_cell_formula_units_Z 16
_cell_length_a 8.433452
_cell_length_b 5.724381
_cell_length_c 15.867688
_cell_angle_alpha 59.895788
_cell_angle_beta 91.904135
_cell_angle_gamma 86.057030
_cell_volume 659.099607
_symmetry_space_group_name_H-M "P -1"
_symmetry_group_IT_number 2
_symmetry_cell_setting 'triclinic'
loop_
_space_group_symop_operation_xyz
x,y,z
-x,-y,-z
loop_
_atom_site_type_symbol
_atom_site_label
_atom_site_fract_x
_atom_site_fract_y
_atom_site_fract_z
Si Si1 0.057742 0.302496 0.456657
Si Si2 0.802254 0.628554 0.294680
Si Si3 0.919031 0.365807 0.930374
Si Si4 0.031396 0.884022 0.847813
Si Si5 0.385655 0.263237 0.552366
Si Si6 0.592623 0.681782 0.907546
Si Si7 0.724847 0.197931 0.798794
Si Si8 0.482198 0.669670 0.714073
O O1 0.246948 0.263570 0.480051
O O2 0.000000 0.500000 0.500000
O O3 0.973348 0.464770 0.347399
O O4 0.000000 0.000000 0.500000
O O5 0.708497 0.684031 0.370701
O O6 0.689073 0.444888 0.275528
O O7 0.835725 0.918496 0.205609
O O8 0.774096 0.551669 0.938505
O O9 0.833247 0.290865 0.858374
O O10 0.048890 0.573041 0.873259
O O11 0.969955 0.154784 0.043243
O O12 0.862452 0.021034 0.780560
O O13 0.500000 0.500000 0.500000
O O14 0.476330 0.963293 0.618149
O O15 0.529384 0.681140 0.810979
O O16 0.603296 0.996627 0.871290
O O17 0.500000 0.500000 0.000000
O O18 0.614104 0.448810 0.715549
#
# Coordination Sequence:
#
# PCOD9025987 Si02
#       8
#     2   2   2   2   2   2   2   2
#     4  10  22  48  71 105 147 184 240 304 376 443
#     4  11  25  43  72 101 135 184 235 294 358 438
#     4   9  21  39  63  92 131 185 229 281 340 408
#     4  10  22  41  64  96 132 177 236 282 344 417
#     4  11  26  48  74 105 141 181 236 303 374 445
#     4  10  23  38  63  98 141 181 227 286 344 416
#     4  10  22  41  60  93 137 177 230 284 344 413
#     4  11  24  42  67 100 136 178 237 283 364 421
#
# _framework density 24.275544
#
# number of rings (size 3 to 8) (size 9 to 14) (size 15 to 20)
#    0.000    1.750    1.250    1.125    5.250    6.500 
#    4.500    0.000    0.000    0.000    0.000    0.000 
#    0.000    0.000    0.000    0.000    0.000    0.000 
#
# Total GULP energy -89363.314410 kJ/mol
# GULP energy per Si atom -5585.207151 kJ/mol
# Density = 2.422029 g / cm^3
# Si number density = 24.275544 Si / 1000 Ang^3
#
#
#
# Elastic Constant Matrix: (Units=GPa)
#
#
# Indices 1 2 3 4 5 6 
#
# 1 105.7466 41.1693 78.3451 -23.8949 17.3549 21.6525
# 2 41.1693 91.5791 57.3086 -21.5883 -8.9897 41.1260
# 3 78.3451 57.3086 142.8722 -38.6067 1.3826 20.1568
# 4 -23.8949 -21.5883 -38.6067 49.2921 11.5939 3.0935
# 5 17.3549 -8.9897 1.3826 11.5939 54.8340 -7.5418
# 6 21.6525 41.1260 20.1568 3.0935 -7.5418 54.6097
#
#
#
# Elastic Compliance Matrix: (Units=1/GPa)
#
#
# Indices 1 2 3 4 5 6 
#
# 1 0.019219 -0.000791 -0.008091 0.004797 -0.007763 -0.005382
# 2 -0.000791 0.022795 -0.004719 0.006739 0.000561 -0.015415
# 3 -0.008091 -0.004719 0.014581 0.005249 0.000467 0.001147
# 4 0.004797 0.006739 0.005249 0.032566 -0.009084 -0.012014
# 5 -0.007763 0.000561 0.000467 -0.009084 0.023554 0.006250
# 6 -0.005382 -0.015415 0.001147 -0.012014 0.006250 0.033175
#
#
# Mechanical properties :
#
#
# Convention : Reuss Voigt Hill
#
# Bulk Modulus (GPa) = 34.02273 77.09377 55.55825
# Shear Modulus (GPa) = 27.33900 42.63881 34.98891
#
# Velocity S-wave (km/s) = 3.35952 4.19555 3.80060
# Velocity P-wave (km/s) = 5.39390 7.43619 6.49581
#
# Compressibility (1/GPa) = 0.02939211
#
# Stress axis : x y z
#
# Youngs Moduli (GPa) = 52.03246 43.87010 68.58245
#
# Poissons Ratio (x) = 0.03470 0.55489
# Poissons Ratio (y) = 0.04116 0.32365
# Poissons Ratio (z) = 0.42099 0.20703
#
# Static dielectric constant tensor:
#      x y z
#    x 1.963380 -0.052430 -0.021330 
#    y -0.052430 2.112970 -0.036890 
#    z -0.021330 -0.036890 1.951170 
# 
# From -- ./inp_files/110709.got.cif
#   From: 2010.05.17/outbox.cif.g08.bks.cpg/sg2_56_cif.got.tgz:110709.got - 2010.06.03 11:33:40.
