data_PCOD9025658
_publ_section_title
;
Structure prediction by ZEFSAII (Michael W. Deem and Ramdas Pophale) SiO2 
 PCOD9025658
Probable space group: P -1
;
_chemical_formula_sum "Si O2"
_cell_formula_units_Z 16
_cell_length_a 12.653535
_cell_length_b 8.605536
_cell_length_c 9.069893
_cell_angle_alpha 60.662555
_cell_angle_beta 116.938784
_cell_angle_gamma 106.948668
_cell_volume 764.459583
_symmetry_space_group_name_H-M "P -1"
_symmetry_group_IT_number 2
_symmetry_cell_setting 'triclinic'
loop_
_space_group_symop_operation_xyz
x,y,z
-x,-y,-z
loop_
_atom_site_type_symbol
_atom_site_label
_atom_site_fract_x
_atom_site_fract_y
_atom_site_fract_z
Si Si1 0.968398 0.685985 0.956872
Si Si2 0.287789 0.528918 0.577858
Si Si3 0.670655 0.844329 0.175972
Si Si4 0.512276 0.206470 0.454519
Si Si5 0.286390 0.413996 0.283215
Si Si6 0.594766 0.205466 0.833282
Si Si7 0.040284 0.674737 0.349245
Si Si8 0.072723 0.016233 0.687381
O O1 0.832179 0.683840 0.817685
O O2 0.051575 0.840242 0.856224
O O3 0.000000 0.500000 0.000000
O O4 0.993113 0.682303 0.148566
O O5 0.286219 0.346721 0.759219
O O6 0.403446 0.651555 0.650909
O O7 0.282942 0.443883 0.445950
O O8 0.181766 0.658460 0.449008
O O9 0.540846 0.797144 0.190026
O O10 0.789945 0.929701 0.292625
O O11 0.643862 0.014018 0.980591
O O12 0.389455 0.289400 0.366780
O O13 0.582354 0.221683 0.644673
O O14 0.500000 0.000000 0.500000
O O15 0.324292 0.615249 0.150427
O O16 0.000000 0.500000 0.500000
O O17 0.986970 0.835441 0.324415
O O18 0.000000 0.000000 0.500000
#
# Coordination Sequence:
#
# PCOD9025658 Si02
#       8
#     2   2   2   2   2   2   2   2
#     4  12  25  44  70 101 137 181 229 277 341 408
#     4  11  21  44  69  90 134 175 226 277 338 402
#     4  11  21  41  69  95 128 172 225 275 332 402
#     4  11  24  39  65  97 128 174 220 280 335 398
#     4  11  21  44  69  94 132 176 224 272 341 405
#     4  10  22  40  70  94 125 175 225 270 336 399
#     4  12  26  45  68 102 134 181 228 285 338 403
#     4  12  27  44  70 101 141 183 225 277 344 408
#
# _framework density 20.929817
#
# number of rings (size 3 to 8) (size 9 to 14) (size 15 to 20)
#    0.000    0.750    5.000    3.375    3.500    1.000 
#    0.000    1.875    0.000    0.000    0.000    0.000 
#    0.000    0.000    0.000    0.000    0.000    0.000 
#
# Total GULP energy -89159.873530 kJ/mol
# GULP energy per Si atom -5572.492096 kJ/mol
# Density = 2.088218 g / cm^3
# Si number density = 20.929817 Si / 1000 Ang^3
#
#
#
# Elastic Constant Matrix: (Units=GPa)
#
#
# Indices 1 2 3 4 5 6 
#
# 1 66.2131 9.8235 3.6703 4.5180 16.9219 5.9903
# 2 9.8235 90.4227 15.6300 -22.5851 -5.4809 -0.5597
# 3 3.6703 15.6300 63.2632 -12.8400 1.6981 -5.8467
# 4 4.5180 -22.5851 -12.8400 40.7714 2.7457 -0.4414
# 5 16.9219 -5.4809 1.6981 2.7457 39.3695 -2.5659
# 6 5.9903 -0.5597 -5.8467 -0.4414 -2.5659 44.6152
#
#
#
# Elastic Compliance Matrix: (Units=1/GPa)
#
#
# Indices 1 2 3 4 5 6 
#
# 1 0.018269 -0.003223 -0.001070 -0.003628 -0.008207 -0.003141
# 2 -0.003223 0.013691 -0.001756 0.007199 0.002905 0.000613
# 3 -0.001070 -0.001756 0.017506 0.004733 -0.000712 0.002422
# 4 -0.003628 0.007199 0.004733 0.030401 0.000336 0.001518
# 5 -0.008207 0.002905 -0.000712 0.000336 0.029518 0.002746
# 6 -0.003141 0.000613 0.002422 0.001518 0.002746 0.023334
#
#
# Mechanical properties :
#
#
# Convention : Reuss Voigt Hill
#
# Bulk Modulus (GPa) = 26.75995 30.90515 28.83255
# Shear Modulus (GPa) = 31.79166 37.66959 34.73062
#
# Velocity S-wave (km/s) = 3.90162 4.24701 4.07797
# Velocity P-wave (km/s) = 5.75414 6.23279 5.99824
#
# Compressibility (1/GPa) = 0.03736928
#
# Stress axis : x y z
#
# Youngs Moduli (GPa) = 54.73635 73.04166 57.12184
#
# Poissons Ratio (x) = 0.23541 0.06112
# Poissons Ratio (y) = 0.17641 0.10029
# Poissons Ratio (z) = 0.05857 0.12824
#
# Static dielectric constant tensor:
#      x y z
#    x 1.951050 0.049500 0.057890 
#    y 0.049500 1.763090 -0.053210 
#    z 0.057890 -0.053210 1.784350 
# 
# From -- ./inp_files/207901.got.cif
#   From: 2010.05.17/outbox.cif.g08.bks.cpg/sg2_104_cif.got.tgz:207901.got - 2010.06.03 11:33:40.
