data_PCOD9025467
_publ_section_title
;
Structure prediction by ZEFSAII (Michael W. Deem and Ramdas Pophale) SiO2 
 PCOD9025467
Probable space group: P -1
;
_chemical_formula_sum "Si O2"
_cell_formula_units_Z 16
_cell_length_a 10.533701
_cell_length_b 11.290639
_cell_length_c 12.684415
_cell_angle_alpha 96.104904
_cell_angle_beta 37.166377
_cell_angle_gamma 118.514898
_cell_volume 685.836716
_symmetry_space_group_name_H-M "P -1"
_symmetry_group_IT_number 2
_symmetry_cell_setting 'triclinic'
loop_
_space_group_symop_operation_xyz
x,y,z
-x,-y,-z
loop_
_atom_site_type_symbol
_atom_site_label
_atom_site_fract_x
_atom_site_fract_y
_atom_site_fract_z
Si Si1 0.898110 0.611052 0.276300
Si Si2 0.153648 0.690289 0.417262
Si Si3 0.969329 0.889154 0.602576
Si Si4 0.447274 0.840205 0.015860
Si Si5 0.681525 0.844573 0.223553
Si Si6 0.446998 0.468950 0.714662
Si Si7 0.003211 0.425622 0.097732
Si Si8 0.541216 0.900154 0.534545
O O1 0.747729 0.604348 0.479135
O O2 0.734383 0.586677 0.278307
O O3 0.220526 0.753876 0.064832
O O4 0.903400 0.469528 0.264232
O O5 0.293406 0.748584 0.216055
O O6 0.415163 0.804304 0.336725
O O7 0.000000 0.500000 0.500000
O O8 0.975003 0.748312 0.558004
O O9 0.694373 0.839094 0.835912
O O10 0.000000 0.000000 0.500000
O O11 0.231147 0.004654 0.517365
O O12 0.500000 0.000000 0.000000
O O13 0.619763 0.686689 0.218015
O O14 0.648693 0.845015 0.371561
O O15 0.000000 0.000000 0.000000
O O16 0.319546 0.501343 0.894288
O O17 0.762761 0.239880 0.231235
O O18 0.000000 0.500000 0.000000
O O19 0.500000 0.000000 0.500000
#
# Coordination Sequence:
#
# PCOD9025467 Si02
#       8
#     2   2   2   2   2   2   2   2
#     4  10  23  42  67 104 145 187 246 315 376 465
#     4  12  29  53  76 115 161 210 266 331 400 481
#     4  12  29  51  82 116 160 212 260 329 400 478
#     4  12  28  46  77 109 154 208 264 315 399 478
#     4  12  25  44  76 108 152 200 262 324 390 462
#     4  10  22  40  69 103 138 186 240 312 383 446
#     4  10  23  40  69 108 145 188 250 316 385 453
#     4  12  25  47  77 110 152 195 265 322 385 469
#
# _framework density 23.329166000000001
#
# number of rings (size 3 to 8) (size 9 to 14) (size 15 to 20)
#    0.000    0.750    3.750    2.250    7.000    2.500 
#    2.250    0.000    0.000    0.000    0.000    0.000 
#    0.000    0.000    0.000    0.000    0.000    0.000 
#
# Total GULP energy -89152.366172 kJ/mol
# GULP energy per Si atom -5572.022886 kJ/mol
# Density = 2.327607 g / cm^3
# Si number density = 23.329166 Si / 1000 Ang^3
#
#
#
# Elastic Constant Matrix: (Units=GPa)
#
#
# Indices 1 2 3 4 5 6 
#
# 1 105.3872 41.0625 48.8995 -6.2320 -15.4629 4.3857
# 2 41.0625 93.6254 39.3973 4.5864 -10.2614 -21.7301
# 3 48.8995 39.3973 152.3138 5.6718 -9.5395 -17.9079
# 4 -6.2320 4.5864 5.6718 44.5487 -4.8499 -4.2214
# 5 -15.4629 -10.2614 -9.5395 -4.8499 48.6102 -6.3540
# 6 4.3857 -21.7301 -17.9079 -4.2214 -6.3540 43.1508
#
#
#
# Elastic Compliance Matrix: (Units=1/GPa)
#
#
# Indices 1 2 3 4 5 6 
#
# 1 0.014126 -0.005794 -0.003625 0.002768 0.002146 -0.005271
# 2 -0.005794 0.015934 -0.001087 -0.001272 0.002275 0.008373
# 3 -0.003625 -0.001087 0.008480 -0.001094 0.000607 0.003322
# 4 0.002768 -0.001272 -0.001094 0.023552 0.002925 0.001359
# 5 0.002146 0.002275 0.000607 0.002925 0.022776 0.004819
# 6 -0.005271 0.008373 0.003322 0.001359 0.004819 0.030148
#
#
# Mechanical properties :
#
#
# Convention : Reuss Voigt Hill
#
# Bulk Modulus (GPa) = 57.05098 67.78275 62.41687
# Shear Modulus (GPa) = 35.24337 42.05975 38.65156
#
# Velocity S-wave (km/s) = 3.89099 4.25064 4.07479
# Velocity P-wave (km/s) = 6.68538 7.29443 6.99653
#
# Compressibility (1/GPa) = 0.01752818
#
# Stress axis : x y z
#
# Youngs Moduli (GPa) = 70.79018 62.75758 117.92848
#
# Poissons Ratio (x) = 0.36361 0.42748
# Poissons Ratio (y) = 0.41015 0.12822
# Poissons Ratio (z) = 0.25661 0.06823
#
# Static dielectric constant tensor:
#      x y z
#    x 1.929890 -0.016730 -0.083930 
#    y -0.016730 2.224740 0.070470 
#    z -0.083930 0.070470 1.977990 
# 
# From -- ./inp_files/519751.got.cif
#   From: 2010.05.17/outbox.cif.g08.bks.cpg/sg2_260_cif.got.tgz:519751.got - 2010.06.03 11:33:40.
