data_PCOD9025401
_publ_section_title
;
Structure prediction by ZEFSAII (Michael W. Deem and Ramdas Pophale) SiO2 
 PCOD9025401
Probable space group: P -1
;
_chemical_formula_sum "Si O2"
_cell_formula_units_Z 13
_cell_length_a 10.093068
_cell_length_b 8.732048
_cell_length_c 10.262299
_cell_angle_alpha 77.851817
_cell_angle_beta 62.520002
_cell_angle_gamma 124.732831
_cell_volume 501.558445
_symmetry_space_group_name_H-M "P -1"
_symmetry_group_IT_number 2
_symmetry_cell_setting 'triclinic'
loop_
_space_group_symop_operation_xyz
x,y,z
-x,-y,-z
loop_
_atom_site_type_symbol
_atom_site_label
_atom_site_fract_x
_atom_site_fract_y
_atom_site_fract_z
Si Si1 0.611557 0.509599 0.776899
Si Si2 0.537205 0.209233 0.471737
Si Si3 0.965856 0.477251 0.828824
Si Si4 0.267218 0.261355 0.568799
Si Si5 0.482989 0.090571 0.811779
Si Si6 0.000000 0.500000 0.500000
Si Si7 0.855049 0.731335 0.901636
O O1 0.770314 0.649584 0.549023
O O2 0.504648 0.249047 0.877374
O O3 0.760918 0.672236 0.805793
O O4 0.382040 0.432159 0.881757
O O5 0.354215 0.166770 0.486444
O O6 0.478240 0.173112 0.658601
O O7 0.807012 0.451272 0.269354
O O8 0.500000 0.000000 0.500000
O O9 0.983335 0.525560 0.659024
O O10 0.959290 0.639315 0.877438
O O11 0.733745 0.195792 0.019256
O O12 0.500000 0.500000 0.500000
O O13 0.038952 0.020502 0.791677
O O14 0.733060 0.209705 0.679124
#
# Coordination Sequence:
#
# PCOD9025401 Si02
#       7
#     2   2   2   2   2   1   2
#     4  11  26  46  68 104 139 186 224 284 349 414
#     4  11  25  45  67 101 134 183 236 283 343 402
#     4  11  24  43  70 102 134 178 227 291 337 408
#     4  12  26  48  69  98 141 187 232 283 342 415
#     4  11  24  43  69 103 137 179 232 283 351 405
#     4  10  22  40  68  98 136 172 224 278 342 404
#     4  11  26  46  69 103 140 179 236 282 346 409
#
# _framework density 25.919212999999999
#
# number of rings (size 3 to 8) (size 9 to 14) (size 15 to 20)
#    0.000    0.923    4.615    0.923    4.308    2.462 
#    5.538    0.000    0.000    0.000    0.000    0.000 
#    0.000    0.000    0.000    0.000    0.000    0.000 
#
# Total GULP energy -72423.463013 kJ/mol
# GULP energy per Si atom -5571.035616 kJ/mol
# Density = 2.586022 g / cm^3
# Si number density = 25.919213 Si / 1000 Ang^3
#
#
#
# Elastic Constant Matrix: (Units=GPa)
#
#
# Indices 1 2 3 4 5 6 
#
# 1 34.3464 -13.2211 10.8695 -4.0505 -11.3638 2.4044
# 2 -13.2211 73.9276 17.1504 -16.2847 14.7446 7.2134
# 3 10.8695 17.1504 156.5322 -22.4282 -12.3694 4.7374
# 4 -4.0505 -16.2847 -22.4282 49.7622 5.6095 0.4238
# 5 -11.3638 14.7446 -12.3694 5.6095 42.1875 -2.4105
# 6 2.4044 7.2134 4.7374 0.4238 -2.4105 31.3399
#
#
#
# Elastic Compliance Matrix: (Units=1/GPa)
#
#
# Indices 1 2 3 4 5 6 
#
# 1 0.034921 0.006679 -0.002097 0.003459 0.005797 -0.003500
# 2 0.006679 0.018326 -0.001895 0.006440 -0.006305 -0.005016
# 3 -0.002097 -0.001895 0.007226 0.002256 0.001895 -0.000380
# 4 0.003459 0.006440 0.002256 0.023976 -0.004001 -0.002721
# 5 0.005797 -0.006305 0.001895 -0.004001 0.028727 0.002984
# 6 -0.003500 -0.005016 -0.000380 -0.002721 0.002984 0.033655
#
#
# Mechanical properties :
#
#
# Convention : Reuss Voigt Hill
#
# Bulk Modulus (GPa) = 15.18682 32.71155 23.94918
# Shear Modulus (GPa) = 30.59858 41.32506 35.96182
#
# Velocity S-wave (km/s) = 3.43962 3.99730 3.72890
# Velocity P-wave (km/s) = 4.65260 5.82688 5.27253
#
# Compressibility (1/GPa) = 0.06584659
#
# Stress axis : x y z
#
# Youngs Moduli (GPa) = 28.63625 54.56603 138.38642
#
# Poissons Ratio (x) = -0.36444 0.29019
# Poissons Ratio (y) = -0.19126 0.26229
# Poissons Ratio (z) = 0.06005 0.10342
#
# Static dielectric constant tensor:
#      x y z
#    x 2.215100 -0.052340 0.023760 
#    y -0.052340 2.100470 0.021810 
#    z 0.023760 0.021810 1.926560 
# 
# From -- ./inp_files/26189.got.cif
#   From: 2010.05.17/outbox.cif.g08.bks.cpg/sg2_14_cif.got.tgz:26189.got - 2010.06.03 11:33:40.
