data_PCOD9025966
_publ_section_title
;
Structure prediction by ZEFSAII (Michael W. Deem and Ramdas Pophale) SiO2 
 PCOD9025966
Probable space group: P -1
;
_chemical_formula_sum "Si O2"
_cell_formula_units_Z 16
_cell_length_a 22.594843
_cell_length_b 16.530735
_cell_length_c 12.034250
_cell_angle_alpha 25.825850
_cell_angle_beta 22.574150
_cell_angle_gamma 21.864337
_cell_volume 612.610045
_symmetry_space_group_name_H-M "P -1"
_symmetry_group_IT_number 2
_symmetry_cell_setting 'triclinic'
loop_
_space_group_symop_operation_xyz
x,y,z
-x,-y,-z
loop_
_atom_site_type_symbol
_atom_site_label
_atom_site_fract_x
_atom_site_fract_y
_atom_site_fract_z
Si Si1 0.089111 0.618136 0.516836
Si Si2 0.710419 0.198530 0.940512
Si Si3 0.053647 0.275776 0.780438
Si Si4 0.259624 0.341036 0.995365
Si Si5 0.201435 0.779992 0.465329
Si Si6 0.414237 0.143079 0.588485
Si Si7 0.544245 0.189515 0.879855
Si Si8 0.218326 0.551395 0.131675
O O1 0.168085 0.706487 0.358964
O O2 0.195975 0.350050 0.691551
O O3 0.188516 0.616809 0.230809
O O4 0.863644 0.740897 0.744131
O O5 0.659118 0.244674 0.843743
O O6 0.533204 0.254312 0.252852
O O7 0.855503 0.931392 0.040340
O O8 0.195452 0.341978 0.425934
O O9 0.965392 0.241079 0.869277
O O10 0.885241 0.501599 0.850912
O O11 0.242166 0.532426 0.709740
O O12 0.456109 0.194945 0.905918
O O13 0.260437 0.834865 0.411391
O O14 0.000000 0.000000 0.500000
O O15 0.500000 0.000000 0.500000
O O16 0.434303 0.005044 0.834967
O O17 0.400456 0.443416 0.871886
#
# Coordination Sequence:
#
# PCOD9025966 Si02
#       8
#     2   2   2   2   2   2   2   2
#     4  11  23  37  59  93 127 157 188 242 315 361
#     4  12  23  36  61  93 125 158 191 248 310 354
#     4   9  17  34  58  89 116 154 198 239 289 353
#     4  10  22  41  60  86 118 160 206 244 288 353
#     4  12  23  39  63  88 115 158 215 250 282 344
#     4  12  20  39  63  92 122 151 199 246 298 362
#     4  11  21  37  67  89 113 154 204 255 292 340
#     4   9  17  34  59  87 122 151 190 242 295 361
#
# _framework density 26.117757000000001
#
# number of rings (size 3 to 8) (size 9 to 14) (size 15 to 20)
#    0.000    1.250    5.000    3.000    0.000    1.000 
#    0.000    0.000    0.000    1.500    0.000    0.000 
#    0.000    0.000    0.000    0.000    0.000    0.000 
#
# Total GULP energy -89276.823579 kJ/mol
# GULP energy per Si atom -5579.801474 kJ/mol
# Density = 2.605831 g / cm^3
# Si number density = 26.117757 Si / 1000 Ang^3
#
#
#
# Elastic Constant Matrix: (Units=GPa)
#
#
# Indices 1 2 3 4 5 6 
#
# 1 116.3218 35.8126 27.0060 -14.8446 -17.7271 -36.7097
# 2 35.8126 53.7159 16.6104 9.7236 -26.8648 -19.0537
# 3 27.0060 16.6104 95.1337 -2.9658 -4.6689 -17.3224
# 4 -14.8446 9.7236 -2.9658 31.7811 -12.5253 -3.0383
# 5 -17.7271 -26.8648 -4.6689 -12.5253 43.6827 11.1191
# 6 -36.7097 -19.0537 -17.3224 -3.0383 11.1191 35.1139
#
#
#
# Elastic Compliance Matrix: (Units=1/GPa)
#
#
# Indices 1 2 3 4 5 6 
#
# 1 0.017589 -0.007564 -0.000539 0.012817 0.002451 0.014351
# 2 -0.007564 0.034814 -0.002686 -0.008276 0.014580 0.004325
# 3 -0.000539 -0.002686 0.011923 0.001608 -0.001255 0.004397
# 4 0.012817 -0.008276 0.001608 0.045319 0.010670 0.010245
# 5 0.002451 0.014580 -0.001255 0.010670 0.035932 -0.000600
# 6 0.014351 0.004325 0.004397 0.010245 -0.000600 0.049074
#
#
# Mechanical properties :
#
#
# Convention : Reuss Voigt Hill
#
# Bulk Modulus (GPa) = 23.39363 47.11436 35.25399
# Shear Modulus (GPa) = 21.69394 34.49837 28.09616
#
# Velocity S-wave (km/s) = 2.88518 3.63833 3.28342
# Velocity P-wave (km/s) = 4.48056 5.97732 5.28222
#
# Compressibility (1/GPa) = 0.04274668
#
# Stress axis : x y z
#
# Youngs Moduli (GPa) = 56.85395 28.72387 83.87280
#
# Poissons Ratio (x) = 0.21727 0.04525
# Poissons Ratio (y) = 0.43004 0.22531
# Poissons Ratio (z) = 0.03067 0.07716
#
# Static dielectric constant tensor:
#      x y z
#    x 2.130680 -0.009630 -0.018710 
#    y -0.009630 2.173490 0.084810 
#    z -0.018710 0.084810 2.157960 
# 
# From -- ./inp_files/396233.got.cif
#   From: 2010.05.17/outbox.cif.g08.bks.cpg/sg2_199_cif.got.tgz:396233.got - 2010.06.03 11:33:40.
