data_PCOD9025526
_publ_section_title
;
Structure prediction by ZEFSAII (Michael W. Deem and Ramdas Pophale) SiO2 
 PCOD9025526
Probable space group: P -1
;
_chemical_formula_sum "Si O2"
_cell_formula_units_Z 16
_cell_length_a 9.129599
_cell_length_b 24.534123
_cell_length_c 8.766405
_cell_angle_alpha 48.226176
_cell_angle_beta 49.095167
_cell_angle_gamma 29.448554
_cell_volume 704.857797
_symmetry_space_group_name_H-M "P -1"
_symmetry_group_IT_number 2
_symmetry_cell_setting 'triclinic'
loop_
_space_group_symop_operation_xyz
x,y,z
-x,-y,-z
loop_
_atom_site_type_symbol
_atom_site_label
_atom_site_fract_x
_atom_site_fract_y
_atom_site_fract_z
Si Si1 0.680670 0.383581 0.179449
Si Si2 0.581040 0.655426 0.097250
Si Si3 0.810226 0.143306 0.241147
Si Si4 0.821967 0.053540 0.862088
Si Si5 0.823096 0.436725 0.264703
Si Si6 0.813573 0.712577 0.420532
Si Si7 0.199669 0.162916 0.037440
Si Si8 0.577477 0.686080 0.395897
O O1 0.736933 0.397646 0.283430
O O2 0.506524 0.357913 0.360208
O O3 0.500000 0.500000 0.000000
O O4 0.991680 0.271137 0.092045
O O5 0.586392 0.571304 0.190292
O O6 0.612522 0.648867 0.269510
O O7 0.308246 0.777395 0.974915
O O8 0.880414 0.610194 0.919558
O O9 0.511887 0.210847 0.418923
O O10 0.970691 0.026758 0.274623
O O11 0.051341 0.126158 0.193094
O O12 0.548359 0.073204 0.017026
O O13 0.670772 0.176613 0.708063
O O14 0.000000 0.000000 0.000000
O O15 0.926815 0.377760 0.467006
O O16 0.813229 0.793012 0.199990
O O17 0.846297 0.648147 0.374617
#
# Coordination Sequence:
#
# PCOD9025526 Si02
#       8
#     2   2   2   2   2   2   2   2
#     4  12  27  45  68 102 145 179 234 286 342 419
#     4  10  22  40  69  94 137 175 232 278 347 411
#     4  11  22  46  70  98 141 178 234 286 339 415
#     4  11  24  46  72 100 136 186 229 291 346 403
#     4  10  23  40  67 100 131 183 225 285 344 412
#     4  10  24  42  70 103 138 182 233 283 350 414
#     4  11  25  45  70 102 140 184 231 285 348 411
#     4  11  24  44  65 100 136 180 224 290 341 408
#
# _framework density 22.699615999999999
#
# number of rings (size 3 to 8) (size 9 to 14) (size 15 to 20)
#    0.000    1.250    2.500    2.625    8.750    3.000 
#    2.250    0.625    0.000    0.000    0.000    0.000 
#    0.000    0.000    0.000    0.000    0.000    0.000 
#
# Total GULP energy -89526.193453 kJ/mol
# GULP energy per Si atom -5595.387091 kJ/mol
# Density = 2.264795 g / cm^3
# Si number density = 22.699616 Si / 1000 Ang^3
#
#
#
# Elastic Constant Matrix: (Units=GPa)
#
#
# Indices 1 2 3 4 5 6 
#
# 1 76.2619 12.0047 20.3479 -10.2439 -0.8641 15.6078
# 2 12.0047 55.4001 3.9012 -5.3594 -1.2571 14.6779
# 3 20.3479 3.9012 91.6061 -2.0982 -6.4638 -1.7298
# 4 -10.2439 -5.3594 -2.0982 35.6343 -5.9584 6.7317
# 5 -0.8641 -1.2571 -6.4638 -5.9584 47.4212 -1.1493
# 6 15.6078 14.6779 -1.7298 6.7317 -1.1493 36.9402
#
#
#
# Elastic Compliance Matrix: (Units=1/GPa)
#
#
# Indices 1 2 3 4 5 6 
#
# 1 0.016654 -0.000623 -0.003661 0.006059 0.000354 -0.008053
# 2 -0.000623 0.021108 -0.000762 0.004790 0.000828 -0.009007
# 3 -0.003661 -0.000762 0.011901 -0.000702 0.001510 0.002582
# 4 0.006059 0.004790 -0.000702 0.033127 0.004052 -0.010407
# 5 0.000354 0.000828 0.001510 0.004052 0.021820 -0.000467
# 6 -0.008053 -0.009007 0.002582 -0.010407 -0.000467 0.036055
#
#
# Mechanical properties :
#
#
# Convention : Reuss Voigt Hill
#
# Bulk Modulus (GPa) = 25.27196 32.86397 29.06797
# Shear Modulus (GPa) = 30.49767 36.46675 33.48221
#
# Velocity S-wave (km/s) = 3.66940 4.01246 3.84476
# Velocity P-wave (km/s) = 5.39537 5.99797 5.70463
#
# Compressibility (1/GPa) = 0.03956955
#
# Stress axis : x y z
#
# Youngs Moduli (GPa) = 60.04695 47.37615 84.02535
#
# Poissons Ratio (x) = 0.02952 0.30761
# Poissons Ratio (y) = 0.03741 0.06406
# Poissons Ratio (z) = 0.21983 0.03612
#
# Static dielectric constant tensor:
#      x y z
#    x 1.823090 -0.005290 0.003660 
#    y -0.005290 1.851300 0.016730 
#    z 0.003660 0.016730 1.862640 
# 
# From -- ./inp_files/226095.got.cif
#   From: 2010.05.17/outbox.cif.g08.bks.cpg/sg2_114_cif.got.tgz:226095.got - 2010.06.03 11:33:40.
