data_PCOD9025138
_publ_section_title
;
Structure prediction by ZEFSAII (Michael W. Deem and Ramdas Pophale) SiO2 
 PCOD9025138
Probable space group: P -1
;
_chemical_formula_sum "Si O2"
_cell_formula_units_Z 16
_cell_length_a 11.852225
_cell_length_b 8.235095
_cell_length_c 13.771850
_cell_angle_alpha 31.661251
_cell_angle_beta 76.278680
_cell_angle_gamma 81.239047
_cell_volume 682.176068
_symmetry_space_group_name_H-M "P -1"
_symmetry_group_IT_number 2
_symmetry_cell_setting 'triclinic'
loop_
_space_group_symop_operation_xyz
x,y,z
-x,-y,-z
loop_
_atom_site_type_symbol
_atom_site_label
_atom_site_fract_x
_atom_site_fract_y
_atom_site_fract_z
Si Si1 0.725677 0.156237 0.035589
Si Si2 0.624490 0.694317 0.860051
Si Si3 0.813305 0.012168 0.547220
Si Si4 0.859919 0.613602 0.371193
Si Si5 0.932338 0.935005 0.867869
Si Si6 0.478471 0.761790 0.290441
Si Si7 0.016551 0.701232 0.763299
Si Si8 0.262407 0.687147 0.263884
O O1 0.806040 0.903877 0.185266
O O2 0.600957 0.955009 0.144769
O O3 0.709352 0.416671 0.989068
O O4 0.760067 0.321744 0.842344
O O5 0.681630 0.864776 0.665045
O O6 0.606913 0.994985 0.773844
O O7 0.500000 0.500000 0.000000
O O8 0.835359 0.309860 0.463834
O O9 0.856860 0.126031 0.375555
O O10 0.912914 0.794135 0.669307
O O11 0.800943 0.539065 0.526189
O O12 0.995262 0.737182 0.290960
O O13 0.975900 0.814278 0.817894
O O14 0.797202 0.990733 0.865923
O O15 0.965203 0.659252 0.070050
O O16 0.500000 0.500000 0.500000
O O17 0.399708 0.648047 0.272618
#
# Coordination Sequence:
#
# PCOD9025138 Si02
#       8
#     2   2   2   2   2   2   2   2
#     4  11  25  41  68  98 126 176 220 272 327 392
#     4  10  22  40  67  95 132 169 216 275 331 387
#     4  11  21  40  63  96 128 178 219 273 329 391
#     4  12  24  42  67  95 138 174 219 273 328 393
#     4  11  24  42  61 101 131 178 216 271 336 388
#     4  11  21  46  72  93 130 171 220 273 336 384
#     4  10  23  39  65  92 135 172 223 269 329 398
#     4  12  24  41  69  94 133 172 222 271 323 404
#
# _framework density 23.454355
#
# number of rings (size 3 to 8) (size 9 to 14) (size 15 to 20)
#    0.000    1.000    3.750    2.250    1.750    4.000 
#    0.000    0.625    2.750    0.000    0.000    0.000 
#    0.000    0.000    0.000    0.000    0.000    0.000 
#
# Total GULP energy -89164.937537 kJ/mol
# GULP energy per Si atom -5572.808596 kJ/mol
# Density = 2.340097 g / cm^3
# Si number density = 23.454355 Si / 1000 Ang^3
#
#
#
# Elastic Constant Matrix: (Units=GPa)
#
#
# Indices 1 2 3 4 5 6 
#
# 1 97.9450 27.6621 36.2692 -6.1773 3.3730 -15.3547
# 2 27.6621 72.6761 39.1704 -2.8809 3.4639 -6.2470
# 3 36.2692 39.1704 91.2948 -5.4720 16.3141 5.7792
# 4 -6.1773 -2.8809 -5.4720 38.1620 -11.3958 -4.7991
# 5 3.3730 3.4639 16.3141 -11.3958 49.1765 5.6090
# 6 -15.3547 -6.2470 5.7792 -4.7991 5.6090 20.7462
#
#
#
# Elastic Compliance Matrix: (Units=1/GPa)
#
#
# Indices 1 2 3 4 5 6 
#
# 1 0.015097 -0.001154 -0.006207 0.003231 0.000347 0.013209
# 2 -0.001154 0.019371 -0.008414 0.001282 0.000964 0.007359
# 3 -0.006207 -0.008414 0.018401 -0.001694 -0.004165 -0.011519
# 4 0.003231 0.001282 -0.001694 0.029466 0.006119 0.008411
# 5 0.000347 0.000964 -0.004165 0.006119 0.023408 -0.003206
# 6 0.013209 0.007359 -0.011519 0.008411 -0.003206 0.066215
#
#
# Mechanical properties :
#
#
# Convention : Reuss Voigt Hill
#
# Bulk Modulus (GPa) = 46.90541 52.01325 49.45933
# Shear Modulus (GPa) = 23.73994 32.20456 27.97225
#
# Velocity S-wave (km/s) = 3.18492 3.70952 3.45719
# Velocity P-wave (km/s) = 5.79370 6.36961 6.08847
#
# Compressibility (1/GPa) = 0.02131950
#
# Stress axis : x y z
#
# Youngs Moduli (GPa) = 66.23971 51.62279 54.34351
#
# Poissons Ratio (x) = 0.05956 0.33731
# Poissons Ratio (y) = 0.07643 0.45725
# Poissons Ratio (z) = 0.41115 0.43436
#
# Static dielectric constant tensor:
#      x y z
#    x 1.900690 0.069670 -0.034810 
#    y 0.069670 2.015100 0.023830 
#    z -0.034810 0.023830 1.958760 
# 
# From -- ./inp_files/514796.got.cif
#   From: 2010.05.17/outbox.cif.g08.bks.cpg/sg2_258_cif.got.tgz:514796.got - 2010.06.03 11:33:40.
