data_PCOD9025383
_publ_section_title
;
Structure prediction by ZEFSAII (Michael W. Deem and Ramdas Pophale) SiO2 
 PCOD9025383
Probable space group: P -1
;
_chemical_formula_sum "Si O2"
_cell_formula_units_Z 16
_cell_length_a 18.673719
_cell_length_b 5.179953
_cell_length_c 10.491275
_cell_angle_alpha 119.267003
_cell_angle_beta 46.497132
_cell_angle_gamma 123.883296
_cell_volume 601.697323
_symmetry_space_group_name_H-M "P -1"
_symmetry_group_IT_number 2
_symmetry_cell_setting 'triclinic'
loop_
_space_group_symop_operation_xyz
x,y,z
-x,-y,-z
loop_
_atom_site_type_symbol
_atom_site_label
_atom_site_fract_x
_atom_site_fract_y
_atom_site_fract_z
Si Si1 0.998510 0.039044 0.238048
Si Si2 0.192999 0.930815 0.643061
Si Si3 0.626194 0.205213 0.947030
Si Si4 0.636040 0.662465 0.632164
Si Si5 0.200397 0.834816 0.894395
Si Si6 0.833941 0.694164 0.569599
Si Si7 0.153736 0.675222 0.179396
Si Si8 0.421341 0.191033 0.837585
O O1 0.047919 0.413286 0.290429
O O2 0.909706 0.973350 0.221884
O O3 0.099151 0.947055 0.057355
O O4 0.933573 0.853120 0.393278
O O5 0.174999 0.666634 0.490580
O O6 0.300579 0.212536 0.545706
O O7 0.199488 0.770765 0.730474
O O8 0.583163 0.049712 0.100543
O O9 0.596810 0.500097 0.008073
O O10 0.602009 0.938949 0.804492
O O11 0.750381 0.338062 0.856861
O O12 0.725079 0.647088 0.617358
O O13 0.536144 0.341717 0.669382
O O14 0.320874 0.052722 0.833758
O O15 0.175595 0.600485 0.988925
O O16 0.842792 0.964218 0.727405
#
# Coordination Sequence:
#
# PCOD9025383 Si02
#       8
#     2   2   2   2   2   2   2   2
#     4  11  22  42  66  93 128 173 229 280 340 398
#     4  11  26  43  63  93 136 180 222 274 341 406
#     4  10  22  40  70 105 136 172 225 282 347 396
#     4  10  24  40  67  95 136 174 218 278 339 406
#     4  11  25  42  65  95 132 178 227 277 336 407
#     4  10  24  42  64  99 130 171 222 280 344 403
#     4  10  22  40  68  97 133 170 220 287 338 403
#     4  11  23  43  70 104 133 179 225 286 336 404
#
# _framework density 26.591443000000002
#
# number of rings (size 3 to 8) (size 9 to 14) (size 15 to 20)
#    0.000    1.500    1.250    2.250    7.000    7.500 
#    0.000    0.625    0.000    0.000    0.000    0.000 
#    0.000    0.000    0.000    0.000    0.000    0.000 
#
# Total GULP energy -89552.523638 kJ/mol
# GULP energy per Si atom -5597.032727 kJ/mol
# Density = 2.653092 g / cm^3
# Si number density = 26.591443 Si / 1000 Ang^3
#
#
#
# Elastic Constant Matrix: (Units=GPa)
#
#
# Indices 1 2 3 4 5 6 
#
# 1 107.3237 21.1522 41.0175 -14.3594 -5.1114 15.3478
# 2 21.1522 98.9519 51.8828 -46.2778 -10.0512 16.7167
# 3 41.0175 51.8828 99.6662 -33.9957 7.6645 17.3334
# 4 -14.3594 -46.2778 -33.9957 51.5381 2.9780 -7.6611
# 5 -5.1114 -10.0512 7.6645 2.9780 40.7968 -7.0986
# 6 15.3478 16.7167 17.3334 -7.6611 -7.0986 35.1995
#
#
#
# Elastic Compliance Matrix: (Units=1/GPa)
#
#
# Indices 1 2 3 4 5 6 
#
# 1 0.011482 0.000828 -0.004768 0.000296 0.002070 -0.002570
# 2 0.000828 0.020759 -0.006176 0.014051 0.004804 -0.003152
# 3 -0.004768 -0.006176 0.018087 0.004817 -0.006595 -0.004177
# 4 0.000296 0.014051 0.004817 0.035057 -0.000242 -0.001593
# 5 0.002070 0.004804 -0.006595 -0.000242 0.028203 0.005699
# 6 -0.002570 -0.003152 -0.004177 -0.001593 0.005699 0.033886
#
#
# Mechanical properties :
#
#
# Convention : Reuss Voigt Hill
#
# Bulk Modulus (GPa) = 33.22495 59.33853 46.28174
# Shear Modulus (GPa) = 28.13132 38.29950 33.21541
#
# Velocity S-wave (km/s) = 3.25608 3.79924 3.53810
# Velocity P-wave (km/s) = 5.16312 6.45050 5.84238
#
# Compressibility (1/GPa) = 0.03009786
#
# Stress axis : x y z
#
# Youngs Moduli (GPa) = 87.09048 48.17231 55.28741
#
# Poissons Ratio (x) = -0.03991 0.26360
# Poissons Ratio (y) = -0.07215 0.34145
# Poissons Ratio (z) = 0.41523 0.29751
#
# Static dielectric constant tensor:
#      x y z
#    x 2.051130 -0.026210 -0.052780 
#    y -0.026210 2.078000 0.037210 
#    z -0.052780 0.037210 2.141000 
# 
# From -- ./inp_files/78285.got.cif
#   From: 2010.05.17/outbox.cif.g08.bks.cpg/sg2_40_cif.got.tgz:78285.got - 2010.06.03 11:33:40.
