data_PCOD9025679
_publ_section_title
;
Structure prediction by ZEFSAII (Michael W. Deem and Ramdas Pophale) SiO2 
 PCOD9025679
Probable space group: P -1
;
_chemical_formula_sum "Si O2"
_cell_formula_units_Z 15
_cell_length_a 15.885881
_cell_length_b 24.349630
_cell_length_c 4.965008
_cell_angle_alpha 100.536234
_cell_angle_beta 79.550178
_cell_angle_gamma 160.864915
_cell_volume 618.710682
_symmetry_space_group_name_H-M "P -1"
_symmetry_group_IT_number 2
_symmetry_cell_setting 'triclinic'
loop_
_space_group_symop_operation_xyz
x,y,z
-x,-y,-z
loop_
_atom_site_type_symbol
_atom_site_label
_atom_site_fract_x
_atom_site_fract_y
_atom_site_fract_z
Si Si1 0.950300 0.252319 0.645773
Si Si2 0.616697 0.786397 0.114804
Si Si3 0.822784 0.070576 0.917530
Si Si4 0.500000 0.000000 0.500000
Si Si5 0.698507 0.195061 0.070038
Si Si6 0.003058 0.890674 0.645164
Si Si7 0.507279 0.644292 0.552725
Si Si8 0.891802 0.466703 0.782830
O O1 0.956135 0.206235 0.813993
O O2 0.219623 0.444943 0.590705
O O3 0.774069 0.130780 0.384163
O O4 0.741296 0.172506 0.800751
O O5 0.557767 0.699489 0.276142
O O6 0.407586 0.706489 0.212044
O O7 0.883702 0.980717 0.198925
O O8 0.566404 0.731962 0.798570
O O9 0.848187 0.038659 0.642107
O O10 0.519051 0.895806 0.978107
O O11 0.960538 0.130905 0.154654
O O12 0.404422 0.891956 0.671544
O O13 0.973431 0.390291 0.141052
O O14 0.710117 0.721093 0.577625
O O15 0.000000 0.500000 0.500000
O O16 0.000000 0.500000 0.000000
#
# Coordination Sequence:
#
# PCOD9025679 Si02
#       8
#     2   2   2   1   2   2   2   2
#     4  11  26  43  72 103 135 187 230 284 347 420
#     4  12  24  46  71 102 138 187 236 278 343 413
#     4  11  26  43  70  99 141 182 229 292 350 401
#     4  10  22  40  70  96 132 176 232 270 338 404
#     4  11  24  43  69 100 139 181 233 278 345 426
#     4  12  26  47  69 103 140 184 234 291 342 401
#     4  12  26  46  75 101 137 186 240 282 337 414
#     4  12  25  41  67 105 145 178 215 285 351 407
#
# _framework density 24.243964999999999
#
# number of rings (size 3 to 8) (size 9 to 14) (size 15 to 20)
#    0.000    0.533    1.333    7.200    9.333    1.067 
#    0.000    0.000    0.000    0.000    0.000    0.000 
#    0.000    0.000    0.000    0.000    0.000    0.000 
#
# Total GULP energy -83874.943440 kJ/mol
# GULP energy per Si atom -5591.662896 kJ/mol
# Density = 2.418879 g / cm^3
# Si number density = 24.243965 Si / 1000 Ang^3
#
#
#
# Elastic Constant Matrix: (Units=GPa)
#
#
# Indices 1 2 3 4 5 6 
#
# 1 106.2988 25.6511 6.9871 -0.1125 26.9093 21.2180
# 2 25.6511 136.2195 -19.3916 7.6007 12.0614 4.4847
# 3 6.9871 -19.3916 77.4496 12.3386 4.5905 8.3175
# 4 -0.1125 7.6007 12.3386 15.2284 4.1425 1.3878
# 5 26.9093 12.0614 4.5905 4.1425 53.9927 3.1785
# 6 21.2180 4.4847 8.3175 1.3878 3.1785 47.3460
#
#
#
# Elastic Compliance Matrix: (Units=1/GPa)
#
#
# Indices 1 2 3 4 5 6 
#
# 1 0.012420 -0.002135 -0.001492 0.004340 -0.005633 -0.004851
# 2 -0.002135 0.008707 0.003560 -0.007053 -0.000628 -0.000245
# 3 -0.001492 0.003560 0.016560 -0.014961 -0.000187 -0.002127
# 4 0.004340 -0.007053 -0.014961 0.082938 -0.005638 -0.000701
# 5 -0.005633 -0.000628 -0.000187 -0.005638 0.021840 0.001316
# 6 -0.004851 -0.000245 -0.002127 -0.000701 0.001316 0.023624
#
#
# Mechanical properties :
#
#
# Convention : Reuss Voigt Hill
#
# Bulk Modulus (GPa) = 26.62845 38.49569 32.56207
# Shear Modulus (GPa) = 27.97362 43.76151 35.86756
#
# Velocity S-wave (km/s) = 3.40050 4.25319 3.85053
# Velocity P-wave (km/s) = 5.14055 6.32712 5.76445
#
# Compressibility (1/GPa) = 0.03755382
#
# Stress axis : x y z
#
# Youngs Moduli (GPa) = 80.51851 114.85012 60.38518
#
# Poissons Ratio (x) = 0.24517 0.09006
# Poissons Ratio (y) = 0.17188 -0.21495
# Poissons Ratio (z) = 0.12009 -0.40883
#
# Static dielectric constant tensor:
#      x y z
#    x 2.076630 -0.278620 -0.569350 
#    y -0.278620 2.771490 1.515070 
#    z -0.569350 1.515070 4.595450 
# 
# From -- ./inp_files/100908.got.cif
#   From: 2010.05.17/outbox.cif.g08.bks.cpg/sg2_51_cif.got.tgz:100908.got - 2010.06.03 11:33:40.
