data_PCOD9025761
_publ_section_title
;
Structure prediction by ZEFSAII (Michael W. Deem and Ramdas Pophale) SiO2 
 PCOD9025761
Probable space group: P -1
;
_chemical_formula_sum "Si O2"
_cell_formula_units_Z 16
_cell_length_a 8.760646
_cell_length_b 8.124816
_cell_length_c 10.043885
_cell_angle_alpha 75.593080
_cell_angle_beta 74.177605
_cell_angle_gamma 66.993138
_cell_volume 624.892349
_symmetry_space_group_name_H-M "P -1"
_symmetry_group_IT_number 2
_symmetry_cell_setting 'triclinic'
loop_
_space_group_symop_operation_xyz
x,y,z
-x,-y,-z
loop_
_atom_site_type_symbol
_atom_site_label
_atom_site_fract_x
_atom_site_fract_y
_atom_site_fract_z
Si Si1 0.875319 0.455882 0.779587
Si Si2 0.779179 0.820264 0.323946
Si Si3 0.847860 0.159278 0.371563
Si Si4 0.275789 0.985282 0.978224
Si Si5 0.466178 0.633317 0.137439
Si Si6 0.795144 0.870940 0.737091
Si Si7 0.456709 0.778493 0.392611
Si Si8 0.188500 0.674325 0.928576
O O1 0.717910 0.387776 0.804589
O O2 0.810800 0.669343 0.739682
O O3 0.042830 0.343333 0.683344
O O4 0.916933 0.408402 0.935229
O O5 0.625165 0.769496 0.431705
O O6 0.802031 0.992248 0.355410
O O7 0.725488 0.882823 0.170010
O O8 0.694170 0.257954 0.486084
O O9 0.848542 0.294039 0.222788
O O10 0.044088 0.097131 0.374827
O O11 0.443677 0.818739 0.022198
O O12 0.205201 0.086356 0.112939
O O13 0.173352 0.865549 0.961210
O O14 0.508632 0.656251 0.275090
O O15 0.617701 0.462583 0.081622
O O16 0.631412 0.017252 0.682966
#
# Coordination Sequence:
#
# PCOD9025761 Si02
#       8
#     2   2   2   2   2   2   2   2
#     4  11  24  42  67 104 130 159 216 273 334 373
#     4  11  24  42  69  97 131 168 214 271 323 381
#     4  11  24  46  66  92 131 177 219 257 317 388
#     4   9  20  39  64  97 126 165 209 260 329 379
#     4  10  23  42  65  97 135 170 211 267 326 379
#     4  11  25  41  72  96 129 168 217 270 320 383
#     4  11  26  44  68  92 129 179 221 255 315 391
#     4  10  22  40  71  94 133 169 208 273 326 378
#
# _framework density 25.604409
#
# number of rings (size 3 to 8) (size 9 to 14) (size 15 to 20)
#    0.000    1.500    0.000    5.250    8.750    6.000 
#    0.000    1.250    0.000    0.000    0.000    0.000 
#    0.000    0.000    0.000    0.000    0.000    0.000 
#
# Total GULP energy -89564.728319 kJ/mol
# GULP energy per Si atom -5597.795520 kJ/mol
# Density = 2.554613 g / cm^3
# Si number density = 25.604409 Si / 1000 Ang^3
#
#
#
# Elastic Constant Matrix: (Units=GPa)
#
#
# Indices 1 2 3 4 5 6 
#
# 1 87.2965 19.4186 11.5241 12.9110 -27.5778 -5.6168
# 2 19.4186 80.9016 16.2624 15.2572 -8.9864 -16.5657
# 3 11.5241 16.2624 65.4975 12.5603 -6.9877 1.5172
# 4 12.9110 15.2572 12.5603 21.0699 -7.2175 -12.6332
# 5 -27.5778 -8.9864 -6.9877 -7.2175 39.8409 7.9134
# 6 -5.6168 -16.5657 1.5172 -12.6332 7.9134 37.1031
#
#
#
# Elastic Compliance Matrix: (Units=1/GPa)
#
#
# Indices 1 2 3 4 5 6 
#
# 1 0.015811 -0.002067 0.000121 -0.006615 0.009876 -0.002893
# 2 -0.002067 0.015366 -0.002533 -0.005584 -0.000380 0.004831
# 3 0.000121 -0.002533 0.018652 -0.012689 0.001791 -0.006578
# 4 -0.006615 -0.005584 -0.012689 0.077444 0.001377 0.023100
# 5 0.009876 -0.000380 0.001791 0.001377 0.033490 -0.005422
# 6 -0.002893 0.004831 -0.006578 0.023100 -0.005422 0.037962
#
#
# Mechanical properties :
#
#
# Convention : Reuss Voigt Hill
#
# Bulk Modulus (GPa) = 24.46792 36.45620 30.46206
# Shear Modulus (GPa) = 22.59283 32.03549 27.31416
#
# Velocity S-wave (km/s) = 2.97371 3.54103 3.26970
# Velocity P-wave (km/s) = 4.62250 5.56666 5.11640
#
# Compressibility (1/GPa) = 0.04086984
#
# Stress axis : x y z
#
# Youngs Moduli (GPa) = 63.24643 65.07824 53.61241
#
# Poissons Ratio (x) = 0.13453 -0.00646
# Poissons Ratio (y) = 0.13074 0.13581
# Poissons Ratio (z) = -0.00762 0.16486
#
# Static dielectric constant tensor:
#      x y z
#    x 2.063420 -0.029180 0.041110 
#    y -0.029180 1.988040 -0.068630 
#    z 0.041110 -0.068630 2.064470 
# 
# From -- ./inp_files/307159.got.cif
#   From: 2010.05.17/outbox.cif.g08.bks.cpg/sg2_154_cif.got.tgz:307159.got - 2010.06.03 11:33:40.
