data_PCOD9025133
_publ_section_title
;
Structure prediction by ZEFSAII (Michael W. Deem and Ramdas Pophale) SiO2 
 PCOD9025133
Probable space group: P -1
;
_chemical_formula_sum "Si O2"
_cell_formula_units_Z 16
_cell_length_a 5.204003
_cell_length_b 10.129408
_cell_length_c 17.233726
_cell_angle_alpha 99.839543
_cell_angle_beta 120.335386
_cell_angle_gamma 82.025733
_cell_volume 771.065479
_symmetry_space_group_name_H-M "P -1"
_symmetry_group_IT_number 2
_symmetry_cell_setting 'triclinic'
loop_
_space_group_symop_operation_xyz
x,y,z
-x,-y,-z
loop_
_atom_site_type_symbol
_atom_site_label
_atom_site_fract_x
_atom_site_fract_y
_atom_site_fract_z
Si Si1 0.734310 0.304381 0.143986
Si Si2 0.871916 0.651143 0.005658
Si Si3 0.046739 0.433674 0.744847
Si Si4 0.550946 0.973600 0.727362
Si Si5 0.957316 0.189961 0.319531
Si Si6 0.161657 0.460419 0.440937
Si Si7 0.667156 0.280183 0.787757
Si Si8 0.080795 0.111395 0.082953
O O1 0.956494 0.425327 0.194631
O O2 0.727768 0.271970 0.232451
O O3 0.825170 0.158108 0.108998
O O4 0.483056 0.357404 0.050061
O O5 0.055394 0.717583 0.108916
O O6 0.882769 0.751398 0.944063
O O7 0.000000 0.500000 0.000000
O O8 0.381875 0.363538 0.790164
O O9 0.978080 0.462791 0.647677
O O10 0.800288 0.348315 0.739043
O O11 0.233490 0.908118 0.668075
O O12 0.652472 0.945628 0.828916
O O13 0.790739 0.894503 0.700235
O O14 0.567218 0.132650 0.737107
O O15 0.116681 0.303714 0.402381
O O16 0.500000 0.500000 0.500000
O O17 0.000000 0.500000 0.500000
O O18 0.000000 0.000000 0.000000
#
# Coordination Sequence:
#
# PCOD9025133 Si02
#       8
#     2   2   2   2   2   2   2   2
#     4  10  23  37  61  87 129 173 220 282 323 374
#     4  12  23  37  59  89 132 179 232 277 326 364
#     4  11  25  44  64  98 132 165 213 272 338 392
#     4  11  22  41  62  91 131 184 224 260 323 384
#     4  10  22  40  67  95 129 161 214 276 324 385
#     4  11  23  44  77 104 124 157 206 270 341 408
#     4  12  25  39  64  91 136 183 219 265 322 389
#     4  11  23  38  56  87 128 179 240 283 307 372
#
# _framework density 20.750508
#
# number of rings (size 3 to 8) (size 9 to 14) (size 15 to 20)
#    0.000    1.000    3.750    3.000    1.750    4.500 
#    0.000    0.000    0.000   15.000    0.000    0.000 
#    0.000    0.000    0.000    0.000    0.000    0.000 
#
# Total GULP energy -89217.961750 kJ/mol
# GULP energy per Si atom -5576.122609 kJ/mol
# Density = 2.070328 g / cm^3
# Si number density = 20.750508 Si / 1000 Ang^3
#
#
#
# Elastic Constant Matrix: (Units=GPa)
#
#
# Indices 1 2 3 4 5 6 
#
# 1 98.9944 47.8386 38.8334 21.0086 -1.8721 16.4626
# 2 47.8386 121.2374 31.6106 34.9522 -1.9548 17.5042
# 3 38.8334 31.6106 90.4609 32.0220 4.3496 -6.8433
# 4 21.0086 34.9522 32.0220 35.1512 1.5032 0.4836
# 5 -1.8721 -1.9548 4.3496 1.5032 31.3029 6.0473
# 6 16.4626 17.5042 -6.8433 0.4836 6.0473 33.0469
#
#
#
# Elastic Compliance Matrix: (Units=1/GPa)
#
#
# Indices 1 2 3 4 5 6 
#
# 1 0.015520 -0.003178 -0.006086 -0.000596 0.003125 -0.007871
# 2 -0.003178 0.013817 0.000252 -0.012089 0.002366 -0.005939
# 3 -0.006086 0.000252 0.019392 -0.014221 -0.003873 0.007831
# 4 -0.000596 -0.012089 -0.014221 0.053822 -0.002045 0.003342
# 5 0.003125 0.002366 -0.003873 -0.002045 0.034840 -0.009957
# 6 -0.007871 -0.005939 0.007831 0.003342 -0.009957 0.040722
#
#
# Mechanical properties :
#
#
# Convention : Reuss Voigt Hill
#
# Bulk Modulus (GPa) = 32.56903 60.80644 46.68774
# Shear Modulus (GPa) = 24.22810 32.72753 28.47781
#
# Velocity S-wave (km/s) = 3.42071 3.97570 3.70860
# Velocity P-wave (km/s) = 5.59744 7.10226 6.39427
#
# Compressibility (1/GPa) = 0.03070401
#
# Stress axis : x y z
#
# Youngs Moduli (GPa) = 64.43477 72.37229 51.56832
#
# Poissons Ratio (x) = 0.23002 0.31387
# Poissons Ratio (y) = 0.20479 -0.01301
# Poissons Ratio (z) = 0.39218 -0.01826
#
# Static dielectric constant tensor:
#      x y z
#    x 5.401700 -0.149030 1.024750 
#    y -0.149030 1.758260 -0.064960 
#    z 1.024750 -0.064960 2.009180 
# 
# From -- ./inp_files/50904.got.cif
#   From: 2010.05.17/outbox.cif.g08.bks.cpg/sg2_26_cif.got.tgz:50904.got - 2010.06.03 11:33:40.
