data_PCOD9025203
_publ_section_title
;
Structure prediction by ZEFSAII (Michael W. Deem and Ramdas Pophale) SiO2 
 PCOD9025203
Probable space group: P -1
;
_chemical_formula_sum "Si O2"
_cell_formula_units_Z 16
_cell_length_a 14.756409
_cell_length_b 24.443558
_cell_length_c 15.806108
_cell_angle_alpha 22.848288
_cell_angle_beta 158.536325
_cell_angle_gamma 157.724954
_cell_volume 712.021249
_symmetry_space_group_name_H-M "P -1"
_symmetry_group_IT_number 2
_symmetry_cell_setting 'triclinic'
loop_
_space_group_symop_operation_xyz
x,y,z
-x,-y,-z
loop_
_atom_site_type_symbol
_atom_site_label
_atom_site_fract_x
_atom_site_fract_y
_atom_site_fract_z
Si Si1 0.229253 0.904406 0.956975
Si Si2 0.353582 0.368456 0.789729
Si Si3 0.837694 0.358507 0.413271
Si Si4 0.697589 0.617123 0.881914
Si Si5 0.678075 0.919586 0.729659
Si Si6 0.946168 0.078278 0.568348
Si Si7 0.395198 0.803759 0.410045
Si Si8 0.256964 0.458088 0.277270
O O1 0.316384 0.816618 0.228669
O O2 0.968022 0.777303 0.855703
O O3 0.500000 0.000000 0.000000
O O4 0.122290 0.007256 0.772695
O O5 0.507412 0.495001 0.819153
O O6 0.563364 0.441177 0.790877
O O7 0.064356 0.375196 0.517159
O O8 0.266035 0.184872 0.001549
O O9 0.537381 0.222888 0.314616
O O10 0.875040 0.282324 0.641120
O O11 0.822947 0.519975 0.180353
O O12 0.533377 0.686066 0.696600
O O13 0.500000 0.000000 0.500000
O O14 0.915098 0.038364 0.699769
O O15 0.094246 0.264739 0.410011
O O16 0.628477 0.977798 0.397743
O O17 0.500000 0.500000 0.500000
O O18 0.000000 0.500000 0.000000
#
# Coordination Sequence:
#
# PCOD9025203 Si02
#       8
#     2   2   2   2   2   2   2   2
#     4  11  25  39  65  96 139 186 232 281 356 438
#     4  11  25  42  72 100 138 180 234 298 360 437
#     4  10  22  40  67  98 133 175 232 291 359 428
#     4  10  23  39  65  98 136 175 229 286 360 423
#     4  10  22  44  70  96 135 176 243 301 360 421
#     4  10  25  44  70 102 141 183 241 297 357 432
#     4  10  22  42  65 100 138 182 228 291 354 427
#     4  12  31  51  76 105 147 195 244 301 367 428
#
# _framework density 22.471240000000002
#
# number of rings (size 3 to 8) (size 9 to 14) (size 15 to 20)
#    0.000    1.500    0.000    2.625   12.250    5.500 
#    0.000    0.000    0.000    0.000    0.000    0.000 
#    0.000    0.000    0.000    0.000    0.000    0.000 
#
# Total GULP energy -89303.052090 kJ/mol
# GULP energy per Si atom -5581.440756 kJ/mol
# Density = 2.242009 g / cm^3
# Si number density = 22.471240 Si / 1000 Ang^3
#
#
#
# Elastic Constant Matrix: (Units=GPa)
#
#
# Indices 1 2 3 4 5 6 
#
# 1 72.0795 17.7873 19.2981 -5.5453 6.0585 25.7236
# 2 17.7873 77.3665 37.3549 -10.3942 12.8980 15.3814
# 3 19.2981 37.3549 107.4372 -19.9465 15.3199 10.5405
# 4 -5.5453 -10.3942 -19.9465 36.8117 -0.6084 4.2555
# 5 6.0585 12.8980 15.3199 -0.6084 26.4219 7.1222
# 6 25.7236 15.3814 10.5405 4.2555 7.1222 44.7209
#
#
#
# Elastic Compliance Matrix: (Units=1/GPa)
#
#
# Indices 1 2 3 4 5 6 
#
# 1 0.018355 -0.001158 -0.001362 0.002867 -0.000065 -0.010101
# 2 -0.001158 0.017099 -0.004211 0.002731 -0.004565 -0.003755
# 3 -0.001362 -0.004211 0.012772 0.005511 -0.004764 -0.000544
# 4 0.002867 0.002731 0.005511 0.032062 -0.002693 -0.006509
# 5 -0.000065 -0.004565 -0.004764 -0.002693 0.043869 -0.004000
# 6 -0.010101 -0.003755 -0.000544 -0.006509 -0.004000 0.030847
#
#
# Mechanical properties :
#
#
# Convention : Reuss Voigt Hill
#
# Bulk Modulus (GPa) = 28.76492 45.08486 36.92489
# Shear Modulus (GPa) = 27.76926 33.75378 30.76152
#
# Velocity S-wave (km/s) = 3.51916 3.87988 3.70392
# Velocity P-wave (km/s) = 5.41676 6.33863 5.89574
#
# Compressibility (1/GPa) = 0.03476456
#
# Stress axis : x y z
#
# Youngs Moduli (GPa) = 54.48186 58.48135 78.29430
#
# Poissons Ratio (x) = 0.06774 0.10662
# Poissons Ratio (y) = 0.06311 0.32969
# Poissons Ratio (z) = 0.07419 0.24626
#
# Static dielectric constant tensor:
#      x y z
#    x 1.854410 -0.002970 -0.051290 
#    y -0.002970 1.864500 0.067480 
#    z -0.051290 0.067480 1.936470 
# 
# From -- ./inp_files/77945.got.cif
#   From: 2010.05.17/outbox.cif.g08.bks.cpg/sg2_39_cif.got.tgz:77945.got - 2010.06.03 11:33:40.
