data_PCOD9025731
_publ_section_title
;
Structure prediction by ZEFSAII (Michael W. Deem and Ramdas Pophale) SiO2 
 PCOD9025731
Probable space group: P -1
;
_chemical_formula_sum "Si O2"
_cell_formula_units_Z 16
_cell_length_a 9.626145
_cell_length_b 11.577688
_cell_length_c 19.872236
_cell_angle_alpha 27.191631
_cell_angle_beta 139.461020
_cell_angle_gamma 127.202155
_cell_volume 638.544428
_symmetry_space_group_name_H-M "P -1"
_symmetry_group_IT_number 2
_symmetry_cell_setting 'triclinic'
loop_
_space_group_symop_operation_xyz
x,y,z
-x,-y,-z
loop_
_atom_site_type_symbol
_atom_site_label
_atom_site_fract_x
_atom_site_fract_y
_atom_site_fract_z
Si Si1 0.982243 0.336161 0.253920
Si Si2 0.364033 0.599170 0.260532
Si Si3 0.705839 0.861656 0.205776
Si Si4 0.062989 0.761974 0.865435
Si Si5 0.321800 0.961037 0.328001
Si Si6 0.828410 0.198118 0.787408
Si Si7 0.949043 0.459714 0.393932
Si Si8 0.702939 0.212604 0.326695
O O1 0.118973 0.557756 0.179379
O O2 0.923636 0.249321 0.203913
O O3 0.774592 0.375092 0.207473
O O4 0.162168 0.088044 0.478723
O O5 0.463305 0.814105 0.148768
O O6 0.524876 0.319319 0.450473
O O7 0.369094 0.674714 0.301577
O O8 0.822992 0.697116 0.270899
O O9 0.855490 0.717270 0.398440
O O10 0.724746 0.157537 0.068046
O O11 0.865672 0.973320 0.718936
O O12 0.000000 0.500000 0.000000
O O13 0.237185 0.927218 0.239454
O O14 0.455014 0.185888 0.256389
O O15 0.939974 0.422780 0.687266
O O16 0.000000 0.000000 0.000000
O O17 0.785048 0.310848 0.375459
#
# Coordination Sequence:
#
# PCOD9025731 Si02
#       8
#     2   2   2   2   2   2   2   2
#     4  10  23  40  65 105 141 178 227 289 351 392
#     4  11  24  42  77 104 132 183 242 291 326 423
#     4  11  23  42  72 101 134 184 240 284 336 419
#     4  12  27  46  67  98 152 184 220 291 359 417
#     4  11  25  45  72 106 134 190 238 277 346 418
#     4  12  26  45  69 104 150 177 223 295 360 405
#     4  11  21  44  70 102 139 181 233 292 341 401
#     4  10  22  40  71 101 134 178 237 289 329 410
#
# _framework density 25.056986999999999
#
# number of rings (size 3 to 8) (size 9 to 14) (size 15 to 20)
#    0.000    1.000    5.000    1.125    5.250    1.000 
#    2.250    2.500    0.000    0.000    0.000    0.000 
#    0.000    0.000    0.000    0.000    0.000    0.000 
#
# Total GULP energy -89579.269789 kJ/mol
# GULP energy per Si atom -5598.704362 kJ/mol
# Density = 2.499996 g / cm^3
# Si number density = 25.056987 Si / 1000 Ang^3
#
#
#
# Elastic Constant Matrix: (Units=GPa)
#
#
# Indices 1 2 3 4 5 6 
#
# 1 123.7583 48.7781 -2.7972 7.0541 -4.5571 3.3972
# 2 48.7781 195.4545 16.4875 4.0554 -6.0611 16.6456
# 3 -2.7972 16.4875 44.3427 -7.7715 -4.3360 -1.6276
# 4 7.0541 4.0554 -7.7715 32.4842 -6.3655 -6.9793
# 5 -4.5571 -6.0611 -4.3360 -6.3655 16.9469 -4.7407
# 6 3.3972 16.6456 -1.6276 -6.9793 -4.7407 54.3674
#
#
#
# Elastic Compliance Matrix: (Units=1/GPa)
#
#
# Indices 1 2 3 4 5 6 
#
# 1 0.009152 -0.002353 0.001455 -0.000969 0.001688 0.000215
# 2 -0.002353 0.006130 -0.002769 -0.001396 -0.000236 -0.002012
# 3 0.001455 -0.002769 0.026471 0.009241 0.010670 0.003666
# 4 -0.000969 -0.001396 0.009241 0.038491 0.018100 0.007284
# 5 0.001688 -0.000236 0.010670 0.018100 0.071377 0.008834
# 6 0.000215 -0.002012 0.003666 0.007284 0.008834 0.020811
#
#
# Mechanical properties :
#
#
# Convention : Reuss Voigt Hill
#
# Bulk Modulus (GPa) = 29.05324 54.27691 41.66507
# Shear Modulus (GPa) = 26.14536 40.83220 33.48878
#
# Velocity S-wave (km/s) = 3.23373 4.04118 3.65979
# Velocity P-wave (km/s) = 5.05596 6.59418 5.87563
#
# Compressibility (1/GPa) = 0.03441957
#
# Stress axis : x y z
#
# Youngs Moduli (GPa) = 109.26722 163.13186 37.77774
#
# Poissons Ratio (x) = 0.38378 -0.05498
# Poissons Ratio (y) = 0.25706 0.10461
# Poissons Ratio (z) = -0.15901 0.45174
#
# Static dielectric constant tensor:
#      x y z
#    x 1.950730 0.030830 -0.031340 
#    y 0.030830 2.013370 -0.016150 
#    z -0.031340 -0.016150 2.038960 
# 
# From -- ./inp_files/448197.got.cif
#   From: 2010.05.17/outbox.cif.g08.bks.cpg/sg2_225_cif.got.tgz:448197.got - 2010.06.03 11:33:40.
