data_PCOD9025668
_publ_section_title
;
Structure prediction by ZEFSAII (Michael W. Deem and Ramdas Pophale) SiO2 
 PCOD9025668
Probable space group: P -1
;
_chemical_formula_sum "Si O2"
_cell_formula_units_Z 16
_cell_length_a 7.268108
_cell_length_b 20.521372
_cell_length_c 10.736574
_cell_angle_alpha 142.198742
_cell_angle_beta 42.719004
_cell_angle_gamma 133.669195
_cell_volume 642.152612
_symmetry_space_group_name_H-M "P -1"
_symmetry_group_IT_number 2
_symmetry_cell_setting 'triclinic'
loop_
_space_group_symop_operation_xyz
x,y,z
-x,-y,-z
loop_
_atom_site_type_symbol
_atom_site_label
_atom_site_fract_x
_atom_site_fract_y
_atom_site_fract_z
Si Si1 0.636564 0.751783 0.057165
Si Si2 0.502191 0.679910 0.623164
Si Si3 0.100639 0.825537 0.137770
Si Si4 0.856417 0.550980 0.535560
Si Si5 0.103632 0.154177 0.172571
Si Si6 0.268009 0.592425 0.161937
Si Si7 0.591008 0.007480 0.109549
Si Si8 0.251883 0.353010 0.799791
O O1 0.748303 0.649291 0.795444
O O2 0.689546 0.829168 0.025786
O O3 0.842376 0.819573 0.163586
O O4 0.335016 0.689493 0.172417
O O5 0.289025 0.753057 0.869387
O O6 0.384298 0.557196 0.546017
O O7 0.790042 0.737172 0.635072
O O8 0.555999 0.676951 0.446576
O O9 0.306022 0.947413 0.232798
O O10 0.988418 0.755909 0.211383
O O11 0.000000 0.500000 0.500000
O O12 0.064011 0.587853 0.372963
O O13 0.184772 0.063976 0.085166
O O14 0.782062 0.123937 0.240019
O O15 0.576958 0.614848 0.107799
O O16 0.186671 0.466758 0.961847
O O17 0.500000 0.000000 0.000000
#
# Coordination Sequence:
#
# PCOD9025668 Si02
#       8
#     2   2   2   2   2   2   2   2
#     4  11  20  35  57  90 130 162 206 257 301 368
#     4  11  20  35  56  88 131 164 205 256 299 363
#     4  10  19  33  65  88 115 166 209 250 315 363
#     4  12  18  32  57  90 128 176 212 241 297 371
#     4  10  24  39  62  98 125 155 212 268 318 374
#     4  10  18  30  54  88 125 172 216 240 293 371
#     4  10  20  43  71  92 115 160 213 266 324 379
#     4  10  17  31  54  89 125 165 210 254 292 363
#
# _framework density 24.916195999999999
#
# number of rings (size 3 to 8) (size 9 to 14) (size 15 to 20)
#    0.000    1.500    6.250    0.750    0.000    0.500 
#    0.000    3.750    0.000    6.000    0.000    0.000 
#    0.000    0.000    0.000    0.000    0.000    0.000 
#
# Total GULP energy -89441.021983 kJ/mol
# GULP energy per Si atom -5590.063874 kJ/mol
# Density = 2.485949 g / cm^3
# Si number density = 24.916196 Si / 1000 Ang^3
#
#
#
# Elastic Constant Matrix: (Units=GPa)
#
#
# Indices 1 2 3 4 5 6 
#
# 1 91.1930 41.4632 -6.9912 15.9853 5.2645 -2.3738
# 2 41.4632 173.5851 12.3440 -26.0768 14.8497 24.4160
# 3 -6.9912 12.3440 49.6412 -30.7781 -2.7434 -4.0130
# 4 15.9853 -26.0768 -30.7781 40.1857 2.6180 13.6849
# 5 5.2645 14.8497 -2.7434 2.6180 12.6564 6.5604
# 6 -2.3738 24.4160 -4.0130 13.6849 6.5604 53.7641
#
#
#
# Elastic Compliance Matrix: (Units=1/GPa)
#
#
# Indices 1 2 3 4 5 6 
#
# 1 0.018568 -0.008718 -0.008766 -0.023176 0.000217 0.009997
# 2 -0.008718 0.012706 0.007702 0.021594 -0.008901 -0.009991
# 3 -0.008766 0.007702 0.045584 0.047663 0.001249 -0.012767
# 4 -0.023176 0.021594 0.047663 0.095606 -0.009348 -0.030467
# 5 0.000217 -0.008901 0.001249 -0.009348 0.094141 -0.004963
# 6 0.009997 -0.009991 -0.012767 -0.030467 -0.004963 0.030986
#
#
# Mechanical properties :
#
#
# Convention : Reuss Voigt Hill
#
# Bulk Modulus (GPa) = 17.45458 45.33904 31.39681
# Shear Modulus (GPa) = 14.86969 39.16144 27.01556
#
# Velocity S-wave (km/s) = 2.44557 3.96880 3.29638
# Velocity P-wave (km/s) = 3.87233 6.26402 5.20735
#
# Compressibility (1/GPa) = 0.05729156
#
# Stress axis : x y z
#
# Youngs Moduli (GPa) = 53.85622 78.70085 21.93765
#
# Poissons Ratio (x) = 0.68614 0.19232
# Poissons Ratio (y) = 0.46953 -0.16895
# Poissons Ratio (z) = 0.47213 -0.60612
#
# Static dielectric constant tensor:
#      x y z
#    x 2.072350 0.011090 -0.048520 
#    y 0.011090 2.136270 0.069350 
#    z -0.048520 0.069350 1.958940 
# 
# From -- ./inp_files/406673.got.cif
#   From: 2010.05.17/outbox.cif.g08.bks.cpg/sg2_204_cif.got.tgz:406673.got - 2010.06.03 11:33:40.
