data_PCOD9025591
_publ_section_title
;
Structure prediction by ZEFSAII (Michael W. Deem and Ramdas Pophale) SiO2 
 PCOD9025591
Probable space group: P -1
;
_chemical_formula_sum "Si O2"
_cell_formula_units_Z 16
_cell_length_a 5.393059
_cell_length_b 9.861999
_cell_length_c 14.367165
_cell_angle_alpha 82.140351
_cell_angle_beta 64.552665
_cell_angle_gamma 101.093053
_cell_volume 656.021743
_symmetry_space_group_name_H-M "P -1"
_symmetry_group_IT_number 2
_symmetry_cell_setting 'triclinic'
loop_
_space_group_symop_operation_xyz
x,y,z
-x,-y,-z
loop_
_atom_site_type_symbol
_atom_site_label
_atom_site_fract_x
_atom_site_fract_y
_atom_site_fract_z
Si Si1 0.658109 0.163997 0.971367
Si Si2 0.479370 0.417463 0.916643
Si Si3 0.101242 0.195367 0.373450
Si Si4 0.204508 0.129892 0.558824
Si Si5 0.633822 0.175199 0.190629
Si Si6 0.916732 0.407952 0.277011
Si Si7 0.562743 0.148575 0.682378
Si Si8 0.771666 0.655115 0.212048
O O1 0.725569 0.193504 0.067057
O O2 0.450124 0.255831 0.964122
O O3 0.934982 0.218495 0.855206
O O4 0.500000 0.000000 0.000000
O O5 0.244135 0.422399 0.878473
O O6 0.776469 0.490251 0.811315
O O7 0.500000 0.500000 0.000000
O O8 0.280989 0.202102 0.438926
O O9 0.315870 0.194526 0.253904
O O10 0.961052 0.321812 0.368624
O O11 0.870706 0.041190 0.427156
O O12 0.432118 0.168357 0.600516
O O13 0.899008 0.159688 0.628433
O O14 0.817720 0.290136 0.222364
O O15 0.599619 0.012196 0.242874
O O16 0.741354 0.525227 0.300249
O O17 0.475434 0.267474 0.745573
#
# Coordination Sequence:
#
# PCOD9025591 Si02
#       8
#     2   2   2   2   2   2   2   2
#     4  11  25  40  65  98 135 177 224 277 339 411
#     4  11  23  41  63  91 134 179 230 281 333 403
#     4  10  22  40  70 100 135 168 232 289 344 400
#     4  10  24  43  72 104 134 178 229 294 344 408
#     4  11  23  40  69  99 132 177 231 285 341 406
#     4  11  22  40  66  94 133 176 229 275 347 401
#     4  11  25  44  71 101 142 178 229 283 356 404
#     4  11  26  42  64  96 143 182 222 280 342 415
#
# _framework density 24.389434999999999
#
# number of rings (size 3 to 8) (size 9 to 14) (size 15 to 20)
#    0.000    1.250    1.250    3.750    8.750    6.500 
#    0.000    1.250    0.000    0.000    0.000    0.000 
#    0.000    0.000    0.000    0.000    0.000    0.000 
#
# Total GULP energy -89539.834998 kJ/mol
# GULP energy per Si atom -5596.239687 kJ/mol
# Density = 2.433392 g / cm^3
# Si number density = 24.389435 Si / 1000 Ang^3
#
#
#
# Elastic Constant Matrix: (Units=GPa)
#
#
# Indices 1 2 3 4 5 6 
#
# 1 87.1152 40.0323 34.0568 -9.5473 12.9907 -14.3240
# 2 40.0323 136.5429 36.2563 -25.4036 4.7573 -24.7619
# 3 34.0568 36.2563 91.8472 -7.5615 12.4218 -14.6082
# 4 -9.5473 -25.4036 -7.5615 33.1575 -2.5596 10.9260
# 5 12.9907 4.7573 12.4218 -2.5596 35.2531 -2.5257
# 6 -14.3240 -24.7619 -14.6082 10.9260 -2.5257 47.0792
#
#
#
# Elastic Compliance Matrix: (Units=1/GPa)
#
#
# Indices 1 2 3 4 5 6 
#
# 1 0.015138 -0.002967 -0.003643 0.000434 -0.003747 0.001613
# 2 -0.002967 0.010279 -0.002227 0.005762 0.001091 0.002534
# 3 -0.003643 -0.002227 0.013810 -0.000490 -0.003119 0.001951
# 4 0.000434 0.005762 -0.000490 0.036473 0.001498 -0.005374
# 5 -0.003747 0.001091 -0.003119 0.001498 0.030791 -0.000230
# 6 0.001613 0.002534 0.001951 -0.005374 -0.000230 0.024904
#
#
# Mechanical properties :
#
#
# Convention : Reuss Voigt Hill
#
# Bulk Modulus (GPa) = 46.40068 59.57734 52.98901
# Shear Modulus (GPa) = 31.99917 36.77527 34.38722
#
# Velocity S-wave (km/s) = 3.62610 3.88730 3.75897
# Velocity P-wave (km/s) = 6.04960 6.68047 6.37285
#
# Compressibility (1/GPa) = 0.02155141
#
# Stress axis : x y z
#
# Youngs Moduli (GPa) = 66.05740 97.29011 72.41383
#
# Poissons Ratio (x) = 0.28868 0.26380
# Poissons Ratio (y) = 0.19600 0.16130
# Poissons Ratio (z) = 0.24064 0.21671
#
# Static dielectric constant tensor:
#      x y z
#    x 1.992350 0.015410 0.027120 
#    y 0.015410 1.911650 0.032170 
#    z 0.027120 0.032170 1.974140 
# 
# From -- ./inp_files/37539.got.cif
#   From: 2010.05.17/outbox.cif.g08.bks.cpg/sg2_19_cif.got.tgz:37539.got - 2010.06.03 11:33:40.
