data_PCOD9025639
_publ_section_title
;
Structure prediction by ZEFSAII (Michael W. Deem and Ramdas Pophale) SiO2 
 PCOD9025639
Probable space group: P -1
;
_chemical_formula_sum "Si O2"
_cell_formula_units_Z 15
_cell_length_a 8.250256
_cell_length_b 6.706442
_cell_length_c 14.858934
_cell_angle_alpha 70.406380
_cell_angle_beta 122.068122
_cell_angle_gamma 117.116159
_cell_volume 615.352355
_symmetry_space_group_name_H-M "P -1"
_symmetry_group_IT_number 2
_symmetry_cell_setting 'triclinic'
loop_
_space_group_symop_operation_xyz
x,y,z
-x,-y,-z
loop_
_atom_site_type_symbol
_atom_site_label
_atom_site_fract_x
_atom_site_fract_y
_atom_site_fract_z
Si Si1 0.499913 0.886825 0.721994
Si Si2 0.275175 0.427289 0.814955
Si Si3 0.129337 0.474063 0.363671
Si Si4 0.846287 0.712176 0.796164
Si Si5 0.173031 0.735104 0.489419
Si Si6 0.575062 0.236584 0.835822
Si Si7 0.830156 0.968290 0.033543
Si Si8 0.000000 0.000000 0.500000
O O1 0.412893 0.688915 0.801380
O O2 0.701798 0.857312 0.748511
O O3 0.337384 0.828799 0.602775
O O4 0.531273 0.126030 0.740294
O O5 0.378241 0.288533 0.803259
O O6 0.251275 0.293706 0.921712
O O7 0.054766 0.431109 0.722510
O O8 0.176722 0.390106 0.294664
O O9 0.275196 0.676596 0.438470
O O10 0.067630 0.250645 0.439595
O O11 0.755916 0.478028 0.860370
O O12 0.060420 0.873568 0.873570
O O13 0.000000 0.500000 0.500000
O O14 0.053886 0.908120 0.430329
O O15 0.653275 0.059792 0.937511
O O16 0.000000 0.000000 0.000000
#
# Coordination Sequence:
#
# PCOD9025639 Si02
#       8
#     2   2   2   2   2   2   2   1
#     4  11  24  47  72 108 146 193 235 306 357 432
#     4  11  26  43  75 106 146 185 251 289 366 428
#     4  11  25  43  71 109 139 194 238 297 356 433
#     4  11  27  47  75 101 151 192 241 300 369 435
#     4  10  22  40  70 105 141 185 238 290 352 426
#     4  11  26  48  71 108 148 192 243 303 362 427
#     4  12  25  49  75 106 144 196 242 303 367 434
#     4  10  22  40  72 100 142 178 244 282 354 412
#
# _framework density 24.376277000000002
#
# number of rings (size 3 to 8) (size 9 to 14) (size 15 to 20)
#    0.000    1.067    4.000    1.600    5.600    2.133 
#    0.000    1.333    0.000    0.000    0.000    0.000 
#    0.000    0.000    0.000    0.000    0.000    0.000 
#
# Total GULP energy -83501.677292 kJ/mol
# GULP energy per Si atom -5566.778486 kJ/mol
# Density = 2.432080 g / cm^3
# Si number density = 24.376277 Si / 1000 Ang^3
#
#
#
# Elastic Constant Matrix: (Units=GPa)
#
#
# Indices 1 2 3 4 5 6 
#
# 1 63.8433 33.7339 22.3409 -6.2704 -2.5563 -22.2686
# 2 33.7339 129.6694 31.9862 -0.9483 2.6956 -24.5348
# 3 22.3409 31.9862 126.8244 -32.2093 31.8281 -4.4943
# 4 -6.2704 -0.9483 -32.2093 64.1152 -14.2753 6.4384
# 5 -2.5563 2.6956 31.8281 -14.2753 50.6533 -1.9535
# 6 -22.2686 -24.5348 -4.4943 6.4384 -1.9535 40.9609
#
#
#
# Elastic Compliance Matrix: (Units=1/GPa)
#
#
# Indices 1 2 3 4 5 6 
#
# 1 0.022282 -0.003043 -0.003797 0.000130 0.004096 0.010049
# 2 -0.003043 0.009870 -0.002345 -0.001649 0.000495 0.004283
# 3 -0.003797 -0.002345 0.011737 0.004401 -0.006324 -0.003174
# 4 0.000130 -0.001649 0.004401 0.018672 0.002466 -0.003252
# 5 0.004096 0.000495 -0.006324 0.002466 0.024692 0.002619
# 6 0.010049 0.004283 -0.003174 -0.003252 0.002619 0.032730
#
#
# Mechanical properties :
#
#
# Convention : Reuss Voigt Hill
#
# Bulk Modulus (GPa) = 39.18320 55.16213 47.17267
# Shear Modulus (GPa) = 34.04643 46.63093 40.33868
#
# Velocity S-wave (km/s) = 3.74130 4.37849 4.07238
# Velocity P-wave (km/s) = 5.89681 6.94551 6.44253
#
# Compressibility (1/GPa) = 0.02552114
#
# Stress axis : x y z
#
# Youngs Moduli (GPa) = 44.87988 101.31744 85.19765
#
# Poissons Ratio (x) = 0.30830 0.32346
# Poissons Ratio (y) = 0.13657 0.19975
# Poissons Ratio (z) = 0.17039 0.23754
#
# Static dielectric constant tensor:
#      x y z
#    x 1.327010 -1.443170 -0.436250 
#    y -1.443170 -0.968450 -0.718070 
#    z -0.436250 -0.718070 1.850600 
# 
# From -- ./inp_files/488234.got.cif
#   From: 2010.05.17/outbox.cif.g08.bks.cpg/sg2_245_cif.got.tgz:488234.got - 2010.06.03 11:33:40.
