data_PCOD9025097
_publ_section_title
;
Structure prediction by ZEFSAII (Michael W. Deem and Ramdas Pophale) SiO2 
 PCOD9025097
Probable space group: P -1
;
_chemical_formula_sum "Si O2"
_cell_formula_units_Z 16
_cell_length_a 16.124980
_cell_length_b 14.330871
_cell_length_c 9.614884
_cell_angle_alpha 61.637942
_cell_angle_beta 64.996429
_cell_angle_gamma 22.024666
_cell_volume 732.137560
_symmetry_space_group_name_H-M "P -1"
_symmetry_group_IT_number 2
_symmetry_cell_setting 'triclinic'
loop_
_space_group_symop_operation_xyz
x,y,z
-x,-y,-z
loop_
_atom_site_type_symbol
_atom_site_label
_atom_site_fract_x
_atom_site_fract_y
_atom_site_fract_z
Si Si1 0.754150 0.724781 0.345976
Si Si2 0.637437 0.752111 0.128031
Si Si3 0.376886 0.830436 0.136995
Si Si4 0.264232 0.692108 0.899484
Si Si5 0.019289 0.623204 0.087215
Si Si6 0.118202 0.906472 0.340678
Si Si7 0.404448 0.476218 0.244692
Si Si8 0.651918 0.696083 0.685974
O O1 0.676610 0.725971 0.280951
O O2 0.794435 0.615680 0.533523
O O3 0.947969 0.588676 0.234769
O O4 0.554047 0.016442 0.318837
O O5 0.506320 0.783917 0.161903
O O6 0.862625 0.516030 0.046031
O O7 0.500000 0.000000 0.000000
O O8 0.542109 0.588426 0.096920
O O9 0.248954 0.878685 0.285270
O O10 0.197706 0.078552 0.992947
O O11 0.364435 0.704957 0.806515
O O12 0.249664 0.679993 0.081165
O O13 0.939427 0.109678 0.199805
O O14 0.196398 0.489826 0.157765
O O15 0.000000 0.000000 0.500000
O O16 0.287612 0.638691 0.353430
O O17 0.426148 0.328346 0.315819
#
# Coordination Sequence:
#
# PCOD9025097 Si02
#       8
#     2   2   2   2   2   2   2   2
#     4  11  25  41  62  94 134 174 213 268 326 375
#     4  12  23  41  64  95 127 170 221 267 310 380
#     4  11  24  40  70  95 126 171 212 271 322 372
#     4  10  22  44  67  95 126 164 218 266 312 387
#     4  12  22  42  67  93 130 169 222 264 318 384
#     4  11  25  43  65  99 131 165 209 264 327 393
#     4  10  22  40  67  93 124 170 214 262 318 378
#     4  11  24  42  62  95 135 169 214 268 324 386
#
# _framework density 21.853816999999999
#
# number of rings (size 3 to 8) (size 9 to 14) (size 15 to 20)
#    0.000    1.000    2.500    4.125    0.000    8.000 
#    0.000    0.000    0.000    1.500    0.000    0.000 
#    0.000    0.000    0.000    0.000    0.000    0.000 
#
# Total GULP energy -89549.316240 kJ/mol
# GULP energy per Si atom -5596.832265 kJ/mol
# Density = 2.180408 g / cm^3
# Si number density = 21.853817 Si / 1000 Ang^3
#
#
#
# Elastic Constant Matrix: (Units=GPa)
#
#
# Indices 1 2 3 4 5 6 
#
# 1 134.6464 21.2311 41.6910 10.0501 -26.8471 18.3392
# 2 21.2311 59.1632 23.4897 7.2494 -6.7217 13.2670
# 3 41.6910 23.4897 98.2418 35.1061 -10.2723 13.9898
# 4 10.0501 7.2494 35.1061 30.7892 -3.2156 4.0187
# 5 -26.8471 -6.7217 -10.2723 -3.2156 39.3523 0.0098
# 6 18.3392 13.2670 13.9898 4.0187 0.0098 26.7374
#
#
#
# Elastic Compliance Matrix: (Units=1/GPa)
#
#
# Indices 1 2 3 4 5 6 
#
# 1 0.010470 -0.000681 -0.003701 0.002301 0.006250 -0.005255
# 2 -0.000681 0.020484 -0.003466 0.000621 0.002182 -0.007977
# 3 -0.003701 -0.003466 0.020614 -0.020983 0.000550 -0.003374
# 4 0.002301 0.000621 -0.020983 0.055484 0.000732 0.000753
# 5 0.006250 0.002182 0.000550 0.000732 0.030253 -0.005779
# 6 -0.005255 -0.007977 -0.003374 0.000753 -0.005779 0.046618
#
#
# Mechanical properties :
#
#
# Convention : Reuss Voigt Hill
#
# Bulk Modulus (GPa) = 27.87728 51.65278 39.76503
# Shear Modulus (GPa) = 23.63191 33.08509 28.35850
#
# Velocity S-wave (km/s) = 3.29198 3.89514 3.60619
# Velocity P-wave (km/s) = 5.21856 6.62695 5.96447
#
# Compressibility (1/GPa) = 0.03587150
#
# Stress axis : x y z
#
# Youngs Moduli (GPa) = 95.50689 48.81913 48.50995
#
# Poissons Ratio (x) = 0.03327 0.17953
# Poissons Ratio (y) = 0.06508 0.16815
# Poissons Ratio (z) = 0.35346 0.16922
#
# Static dielectric constant tensor:
#      x y z
#    x 1.805100 -0.021770 -0.008730 
#    y -0.021770 1.786040 0.010430 
#    z -0.008730 0.010430 1.797490 
# 
# From -- ./inp_files/466055.got.cif
#   From: 2010.05.17/outbox.cif.g08.bks.cpg/sg2_234_cif.got.tgz:466055.got - 2010.06.03 11:33:40.
