data_PCOD9025246
_publ_section_title
;
Structure prediction by ZEFSAII (Michael W. Deem and Ramdas Pophale) SiO2 
 PCOD9025246
Probable space group: P -1
;
_chemical_formula_sum "Si O2"
_cell_formula_units_Z 15
_cell_length_a 8.805773
_cell_length_b 9.602534
_cell_length_c 13.711306
_cell_angle_alpha 101.037566
_cell_angle_beta 38.442491
_cell_angle_gamma 118.840702
_cell_volume 593.303605
_symmetry_space_group_name_H-M "P -1"
_symmetry_group_IT_number 2
_symmetry_cell_setting 'triclinic'
loop_
_space_group_symop_operation_xyz
x,y,z
-x,-y,-z
loop_
_atom_site_type_symbol
_atom_site_label
_atom_site_fract_x
_atom_site_fract_y
_atom_site_fract_z
Si Si1 0.741590 0.673719 0.278635
Si Si2 0.063508 0.880215 0.644954
Si Si3 0.875343 0.225356 0.710507
Si Si4 0.313243 0.928092 0.902372
Si Si5 0.211205 0.615013 0.820812
Si Si6 0.639104 0.924201 0.301958
Si Si7 0.000000 0.000000 0.500000
Si Si8 0.184679 0.462842 0.183125
O O1 0.622539 0.478051 0.298543
O O2 0.531826 0.736895 0.368255
O O3 0.888303 0.722847 0.316843
O O4 0.008457 0.791485 0.085691
O O5 0.394579 0.961155 0.455111
O O6 0.938964 0.947829 0.639105
O O7 0.920331 0.683334 0.704253
O O8 0.084738 0.952816 0.752498
O O9 0.828128 0.380691 0.749471
O O10 0.551135 0.062858 0.873854
O O11 0.963427 0.163256 0.562751
O O12 0.404700 0.808157 0.785464
O O13 0.295315 0.035719 0.838590
O O14 0.021642 0.599754 0.819389
O O15 0.000000 0.500000 0.000000
O O16 0.500000 0.500000 0.000000
#
# Coordination Sequence:
#
# PCOD9025246 Si02
#       8
#     2   2   2   2   2   2   1   2
#     4  10  22  40  68 101 142 179 238 297 354 414
#     4  11  25  45  69  99 140 191 238 292 351 430
#     4  11  25  43  68 105 138 191 237 285 362 417
#     4  11  21  40  70  99 139 185 240 292 350 427
#     4   9  21  42  64 103 137 180 229 287 359 413
#     4  11  22  42  68  98 135 185 238 287 356 422
#     4  12  24  48  68  96 142 188 242 286 354 426
#     4  11  26  48  72 104 147 182 237 303 359 415
#
# _framework density 25.282167999999999
#
# number of rings (size 3 to 8) (size 9 to 14) (size 15 to 20)
#    0.000    1.333    4.000    0.800    1.867    5.867 
#    2.400    1.333    0.000    0.000    0.000    0.000 
#    0.000    0.000    0.000    0.000    0.000    0.000 
#
# Total GULP energy -83666.924780 kJ/mol
# GULP energy per Si atom -5577.794985 kJ/mol
# Density = 2.522462 g / cm^3
# Si number density = 25.282168 Si / 1000 Ang^3
#
#
#
# Elastic Constant Matrix: (Units=GPa)
#
#
# Indices 1 2 3 4 5 6 
#
# 1 108.1898 47.5186 28.4495 -11.0434 20.0157 -15.2821
# 2 47.5186 183.7056 11.4489 2.8174 4.4833 -12.1233
# 3 28.4495 11.4489 66.1869 -7.2836 12.8512 -8.0060
# 4 -11.0434 2.8174 -7.2836 43.4225 -9.0020 2.5719
# 5 20.0157 4.4833 12.8512 -9.0020 35.6784 -3.0100
# 6 -15.2821 -12.1233 -8.0060 2.5719 -3.0100 43.2338
#
#
#
# Elastic Compliance Matrix: (Units=1/GPa)
#
#
# Indices 1 2 3 4 5 6 
#
# 1 0.012894 -0.002842 -0.003586 0.001682 -0.004937 0.002653
# 2 -0.002842 0.006235 0.000011 -0.001049 0.000614 0.000851
# 3 -0.003586 0.000011 0.017744 0.001145 -0.003950 0.001678
# 4 0.001682 -0.001049 0.001145 0.024786 0.004978 -0.000615
# 5 -0.004937 0.000614 -0.003950 0.004978 0.033376 -0.000277
# 6 0.002653 0.000851 0.001678 -0.000615 -0.000277 0.024635
#
#
# Mechanical properties :
#
#
# Convention : Reuss Voigt Hill
#
# Bulk Modulus (GPa) = 41.59767 59.21291 50.40529
# Shear Modulus (GPa) = 35.58297 42.51129 39.04713
#
# Velocity S-wave (km/s) = 3.75565 4.10503 3.93422
# Velocity P-wave (km/s) = 5.94101 6.77790 6.37321
#
# Compressibility (1/GPa) = 0.02403981
#
# Stress axis : x y z
#
# Youngs Moduli (GPa) = 77.55558 160.38047 56.35610
#
# Poissons Ratio (x) = 0.45580 0.20211
# Poissons Ratio (y) = 0.22041 -0.00064
# Poissons Ratio (z) = 0.27813 -0.00183
#
# Static dielectric constant tensor:
#      x y z
#    x 1.880940 0.053360 0.073380 
#    y 0.053360 2.017730 -0.002860 
#    z 0.073380 -0.002860 1.921950 
# 
# From -- ./inp_files/492897.got.cif
#   From: 2010.05.17/outbox.cif.g08.bks.cpg/sg2_247_cif.got.tgz:492897.got - 2010.06.03 11:33:40.
