data_PCOD9025272
_publ_section_title
;
Structure prediction by ZEFSAII (Michael W. Deem and Ramdas Pophale) SiO2 
 PCOD9025272
Probable space group: P -1
;
_chemical_formula_sum "Si O2"
_cell_formula_units_Z 16
_cell_length_a 10.371795
_cell_length_b 11.610161
_cell_length_c 21.253708
_cell_angle_alpha 151.352166
_cell_angle_beta 140.018485
_cell_angle_gamma 34.820374
_cell_volume 690.751671
_symmetry_space_group_name_H-M "P -1"
_symmetry_group_IT_number 2
_symmetry_cell_setting 'triclinic'
loop_
_space_group_symop_operation_xyz
x,y,z
-x,-y,-z
loop_
_atom_site_type_symbol
_atom_site_label
_atom_site_fract_x
_atom_site_fract_y
_atom_site_fract_z
Si Si1 0.186702 0.938508 0.305747
Si Si2 0.131912 0.144454 0.943961
Si Si3 0.518889 0.617529 0.792704
Si Si4 0.248278 0.709748 0.609191
Si Si5 0.620148 0.900580 0.664871
Si Si6 0.086470 0.273070 0.124099
Si Si7 0.692404 0.198630 0.947976
Si Si8 0.135473 0.111623 0.644233
O O1 0.302000 0.038174 0.343777
O O2 0.995898 0.174687 0.390794
O O3 0.376999 0.698759 0.303749
O O4 0.047340 0.804132 0.153314
O O5 0.297198 0.817784 0.846365
O O6 0.296900 0.282205 0.072871
O O7 0.009364 0.246895 0.012982
O O8 0.431397 0.670286 0.713280
O O9 0.313328 0.418950 0.462319
O O10 0.222283 0.934194 0.655475
O O11 0.735180 0.998692 0.808511
O O12 0.352789 0.071976 0.665776
O O13 0.047803 0.574089 0.260229
O O14 0.882991 0.262290 0.080996
O O15 0.321570 0.003984 0.100886
O O16 0.500000 0.500000 0.000000
O O17 0.000000 0.000000 0.500000
#
# Coordination Sequence:
#
# PCOD9025272 Si02
#       8
#     2   2   2   2   2   2   2   2
#     4  11  24  47  73 105 144 187 244 295 364 419
#     4  10  22  40  68 104 141 186 235 297 349 434
#     4  10  24  42  69 106 141 193 236 291 361 433
#     4  11  27  49  72 105 145 191 246 297 359 428
#     4  12  26  47  74 103 145 191 241 303 355 427
#     4  11  24  41  73 100 143 183 235 293 357 422
#     4  11  24  44  65 107 139 183 230 293 358 422
#     4  12  28  49  74 106 144 195 243 298 362 430
#
# _framework density 23.163171999999999
#
# number of rings (size 3 to 8) (size 9 to 14) (size 15 to 20)
#    0.000    1.000    2.500    2.625    7.000    2.500 
#    4.500    0.000    0.000    0.000    0.000    0.000 
#    0.000    0.000    0.000    0.000    0.000    0.000 
#
# Total GULP energy -89285.421060 kJ/mol
# GULP energy per Si atom -5580.338816 kJ/mol
# Density = 2.311045 g / cm^3
# Si number density = 23.163172 Si / 1000 Ang^3
#
#
#
# Elastic Constant Matrix: (Units=GPa)
#
#
# Indices 1 2 3 4 5 6 
#
# 1 73.2527 18.0760 7.4633 -2.8319 0.2798 -12.6774
# 2 18.0760 140.0587 40.1259 18.4481 1.2097 14.8852
# 3 7.4633 40.1259 125.6553 19.1057 -8.9548 2.3924
# 4 -2.8319 18.4481 19.1057 38.7323 -4.5657 4.3610
# 5 0.2798 1.2097 -8.9548 -4.5657 31.4925 0.2619
# 6 -12.6774 14.8852 2.3924 4.3610 0.2619 22.9873
#
#
#
# Elastic Compliance Matrix: (Units=1/GPa)
#
#
# Indices 1 2 3 4 5 6 
#
# 1 0.016514 -0.003436 -0.000362 0.001786 0.000050 0.011030
# 2 -0.003436 0.009407 -0.002313 -0.002943 -0.001356 -0.007172
# 3 -0.000362 -0.002313 0.009377 -0.003390 0.002259 0.000939
# 4 0.001786 -0.002943 -0.003390 0.029704 0.003460 -0.002431
# 5 0.000050 -0.001356 0.002259 0.003460 0.032952 -0.000362
# 6 0.011030 -0.007172 0.000939 -0.002431 -0.000362 0.054597
#
#
# Mechanical properties :
#
#
# Convention : Reuss Voigt Hill
#
# Bulk Modulus (GPa) = 43.33109 52.25524 47.79316
# Shear Modulus (GPa) = 28.99152 36.86252 32.92702
#
# Velocity S-wave (km/s) = 3.54166 3.99360 3.77440
# Velocity P-wave (km/s) = 5.95584 6.62372 6.29864
#
# Compressibility (1/GPa) = 0.02307812
#
# Stress axis : x y z
#
# Youngs Moduli (GPa) = 60.55540 106.29919 106.64675
#
# Poissons Ratio (x) = 0.36520 0.03859
# Poissons Ratio (y) = 0.20804 0.24662
# Poissons Ratio (z) = 0.02191 0.24582
#
# Static dielectric constant tensor:
#      x y z
#    x 2.039640 -0.015920 0.042250 
#    y -0.015920 1.931590 -0.001440 
#    z 0.042250 -0.001440 1.831410 
# 
# From -- ./inp_files/595160.got.cif
#   From: 2010.05.17/outbox.cif.g08.bks.cpg/sg2_298_cif.got.tgz:595160.got - 2010.06.03 11:33:40.
