data_PCOD9025155
_publ_section_title
;
Structure prediction by ZEFSAII (Michael W. Deem and Ramdas Pophale) SiO2 
 PCOD9025155
Probable space group: P -1
;
_chemical_formula_sum "Si O2"
_cell_formula_units_Z 16
_cell_length_a 11.568032
_cell_length_b 5.348886
_cell_length_c 13.400154
_cell_angle_alpha 98.597434
_cell_angle_beta 110.162899
_cell_angle_gamma 98.822422
_cell_volume 750.602862
_symmetry_space_group_name_H-M "P -1"
_symmetry_group_IT_number 2
_symmetry_cell_setting 'triclinic'
loop_
_space_group_symop_operation_xyz
x,y,z
-x,-y,-z
loop_
_atom_site_type_symbol
_atom_site_label
_atom_site_fract_x
_atom_site_fract_y
_atom_site_fract_z
Si Si1 0.042318 0.296469 0.073918
Si Si2 0.126393 0.764775 0.782436
Si Si3 0.648713 0.855239 0.587010
Si Si4 0.912437 0.932112 0.603165
Si Si5 0.459575 0.660934 0.356963
Si Si6 0.641025 0.010913 0.005078
Si Si7 0.068181 0.367386 0.595519
Si Si8 0.673662 0.480216 0.885797
O O1 0.967120 0.307191 0.155131
O O2 0.194279 0.403760 0.126801
O O3 0.000000 0.500000 0.000000
O O4 0.000000 0.000000 0.000000
O O5 0.160764 0.537020 0.711206
O O6 0.040326 0.881410 0.685908
O O7 0.254286 0.936434 0.873373
O O8 0.793672 0.843699 0.631175
O O9 0.592645 0.788277 0.455206
O O10 0.577710 0.626886 0.624194
O O11 0.626422 0.137737 0.623487
O O12 0.881663 0.827615 0.474591
O O13 0.948921 0.238586 0.620643
O O14 0.437783 0.631750 0.231709
O O15 0.681599 0.248697 0.951654
O O16 0.645210 0.732255 0.945099
O O17 0.500000 0.000000 0.000000
O O18 0.000000 0.500000 0.500000
#
# Coordination Sequence:
#
# PCOD9025155 Si02
#       8
#     2   2   2   2   2   2   2   2
#     4  12  24  41  68 103 138 172 221 291 333 400
#     4  11  24  42  69  98 134 176 223 282 350 391
#     4  10  22  41  67  98 133 171 215 270 337 398
#     4  10  22  40  67  96 132 170 222 278 338 400
#     4  10  23  42  65  99 133 173 217 268 332 405
#     4  12  28  48  67  95 138 184 232 275 330 410
#     4   9  22  41  60  98 129 167 221 275 330 405
#     4  12  24  47  68 101 136 176 233 276 338 405
#
# _framework density 21.316199000000001
#
# number of rings (size 3 to 8) (size 9 to 14) (size 15 to 20)
#    0.000    1.250    2.500    1.875    8.750    1.000 
#    6.750    0.000    0.000    0.000    0.000    0.000 
#    0.000    0.000    0.000    0.000    0.000    0.000 
#
# Total GULP energy -89147.495163 kJ/mol
# GULP energy per Si atom -5571.718448 kJ/mol
# Density = 2.126768 g / cm^3
# Si number density = 21.316199 Si / 1000 Ang^3
#
#
#
# Elastic Constant Matrix: (Units=GPa)
#
#
# Indices 1 2 3 4 5 6 
#
# 1 68.9429 -0.1684 22.2209 4.3692 14.0032 4.1649
# 2 -0.1684 84.9678 38.7414 3.2603 -1.6376 -11.6970
# 3 22.2209 38.7414 143.5839 21.1317 4.6733 -10.0545
# 4 4.3692 3.2603 21.1317 31.1701 3.1827 -3.8858
# 5 14.0032 -1.6376 4.6733 3.1827 18.6300 -3.7964
# 6 4.1649 -11.6970 -10.0545 -3.8858 -3.7964 25.6646
#
#
#
# Elastic Compliance Matrix: (Units=1/GPa)
#
#
# Indices 1 2 3 4 5 6 
#
# 1 0.018806 0.000232 -0.002942 0.000051 -0.014662 -0.006260
# 2 0.000232 0.014281 -0.003804 0.001456 0.002935 0.005635
# 3 -0.002942 -0.003804 0.009332 -0.005386 0.000803 0.001703
# 4 0.000051 0.001456 -0.005386 0.036421 -0.004077 0.003456
# 5 -0.014662 0.002935 0.000803 -0.004077 0.068202 0.013503
# 6 -0.006260 0.005635 0.001703 0.003456 0.013503 0.045736
#
#
# Mechanical properties :
#
#
# Convention : Reuss Voigt Hill
#
# Bulk Modulus (GPa) = 34.02314 46.56472 40.29393
# Shear Modulus (GPa) = 23.19078 30.87298 27.03188
#
# Velocity S-wave (km/s) = 3.30197 3.80983 3.56496
# Velocity P-wave (km/s) = 5.52568 6.42224 5.99076
#
# Compressibility (1/GPa) = 0.02939176
#
# Stress axis : x y z
#
# Youngs Moduli (GPa) = 53.17342 70.02497 107.15722
#
# Poissons Ratio (x) = -0.01627 0.31523
# Poissons Ratio (y) = -0.01235 0.40765
# Poissons Ratio (z) = 0.15642 0.26639
#
# Static dielectric constant tensor:
#      x y z
#    x 1.690960 -0.119300 -0.233220 
#    y -0.119300 1.858710 -0.127000 
#    z -0.233220 -0.127000 1.440450 
# 
# From -- ./inp_files/410608.got.cif
#   From: 2010.05.17/outbox.cif.g08.bks.cpg/sg2_206_cif.got.tgz:410608.got - 2010.06.03 11:33:40.
