data_PCOD9025425
_publ_section_title
;
Structure prediction by ZEFSAII (Michael W. Deem and Ramdas Pophale) SiO2 
 PCOD9025425
Probable space group: P -1
;
_chemical_formula_sum "Si O2"
_cell_formula_units_Z 16
_cell_length_a 5.300374
_cell_length_b 9.288312
_cell_length_c 17.011003
_cell_angle_alpha 56.128162
_cell_angle_beta 91.481026
_cell_angle_gamma 104.589980
_cell_volume 666.050615
_symmetry_space_group_name_H-M "P -1"
_symmetry_group_IT_number 2
_symmetry_cell_setting 'triclinic'
loop_
_space_group_symop_operation_xyz
x,y,z
-x,-y,-z
loop_
_atom_site_type_symbol
_atom_site_label
_atom_site_fract_x
_atom_site_fract_y
_atom_site_fract_z
Si Si1 0.673097 0.316856 0.778602
Si Si2 0.920876 0.014101 0.869706
Si Si3 0.838285 0.387297 0.242389
Si Si4 0.347760 0.492451 0.418335
Si Si5 0.535310 0.210791 0.440742
Si Si6 0.770236 0.201727 0.603740
Si Si7 0.711431 0.726223 0.077925
Si Si8 0.825725 0.015229 0.281445
O O1 0.733282 0.134976 0.805520
O O2 0.498577 0.385630 0.691661
O O3 0.557087 0.284379 0.875443
O O4 0.926998 0.488150 0.740846
O O5 0.084699 0.142172 0.900405
O O6 0.110106 0.987716 0.809974
O O7 0.757595 0.826109 0.964848
O O8 0.613402 0.293206 0.331153
O O9 0.753509 0.528502 0.142123
O O10 0.901592 0.222663 0.247940
O O11 0.500000 0.500000 0.500000
O O12 0.305787 0.290695 0.447278
O O13 0.156581 0.615576 0.399233
O O14 0.752169 0.263759 0.495157
O O15 0.500000 0.000000 0.500000
O O16 0.472836 0.083680 0.662203
O O17 0.976299 0.088469 0.649150
#
# Coordination Sequence:
#
# PCOD9025425 Si02
#       8
#     2   2   2   2   2   2   2   2
#     4  11  21  42  70  98 137 180 231 291 349 419
#     4  10  23  42  73 102 132 180 232 296 346 424
#     4  11  26  40  68  98 139 186 229 285 349 426
#     4  10  22  40  68  99 133 180 232 286 344 407
#     4  11  23  44  67  99 138 190 227 286 344 422
#     4  11  26  45  70 101 140 181 242 287 351 411
#     4  10  22  45  70 101 135 176 237 285 362 410
#     4  12  26  45  69 104 141 186 232 294 347 417
#
# _framework density 24.022196999999998
#
# number of rings (size 3 to 8) (size 9 to 14) (size 15 to 20)
#    0.000    1.250    3.750    1.125    5.250    3.000 
#    0.000    5.000    0.000    0.000    0.000    0.000 
#    0.000    0.000    0.000    0.000    0.000    0.000 
#
# Total GULP energy -89366.355201 kJ/mol
# GULP energy per Si atom -5585.397200 kJ/mol
# Density = 2.396752 g / cm^3
# Si number density = 24.022197 Si / 1000 Ang^3
#
#
#
# Elastic Constant Matrix: (Units=GPa)
#
#
# Indices 1 2 3 4 5 6 
#
# 1 93.5128 45.4784 45.5974 -12.0236 -4.9910 -26.1123
# 2 45.4784 177.3838 61.0613 -40.1600 8.1354 -45.4129
# 3 45.5974 61.0613 171.2668 -18.4636 -8.7871 -16.0733
# 4 -12.0236 -40.1600 -18.4636 42.3358 -3.9799 5.7065
# 5 -4.9910 8.1354 -8.7871 -3.9799 31.8267 -1.7439
# 6 -26.1123 -45.4129 -16.0733 5.7065 -1.7439 34.2476
#
#
#
# Elastic Compliance Matrix: (Units=1/GPa)
#
#
# Indices 1 2 3 4 5 6 
#
# 1 0.015259 -0.000055 -0.002763 0.001949 0.002439 0.010064
# 2 -0.000055 0.011627 -0.002132 0.008170 -0.001840 0.012921
# 3 -0.002763 -0.002132 0.007395 0.000823 0.002175 -0.001489
# 4 0.001949 0.008170 0.000823 0.031523 0.002803 0.007596
# 5 0.002439 -0.001840 0.002175 0.002803 0.033315 0.001670
# 6 0.010064 0.012921 -0.001489 0.007596 0.001670 0.052126
#
#
# Mechanical properties :
#
#
# Convention : Reuss Voigt Hill
#
# Bulk Modulus (GPa) = 41.01508 82.93749 61.97628
# Shear Modulus (GPa) = 29.53823 41.01711 35.27767
#
# Velocity S-wave (km/s) = 3.51040 4.13663 3.83632
# Velocity P-wave (km/s) = 5.79150 7.57733 6.74379
#
# Compressibility (1/GPa) = 0.02438128
#
# Stress axis : x y z
#
# Youngs Moduli (GPa) = 65.53604 86.00399 135.22478
#
# Poissons Ratio (x) = 0.00474 0.37363
# Poissons Ratio (y) = 0.00361 0.28828
# Poissons Ratio (z) = 0.18108 0.18335
#
# Static dielectric constant tensor:
#      x y z
#    x 2.054950 0.030250 -0.007440 
#    y 0.030250 1.910440 0.015070 
#    z -0.007440 0.015070 1.959310 
# 
# From -- ./inp_files/39361.got.cif
#   From: 2010.05.17/outbox.cif.g08.bks.cpg/sg2_20_cif.got.tgz:39361.got - 2010.06.03 11:33:40.
