data_PCOD9025434
_publ_section_title
;
Structure prediction by ZEFSAII (Michael W. Deem and Ramdas Pophale) SiO2 
 PCOD9025434
Probable space group: P -1
;
_chemical_formula_sum "Si O2"
_cell_formula_units_Z 15
_cell_length_a 16.831247
_cell_length_b 8.337405
_cell_length_c 6.471734
_cell_angle_alpha 73.593225
_cell_angle_beta 51.019648
_cell_angle_gamma 52.088316
_cell_volume 548.910751
_symmetry_space_group_name_H-M "P -1"
_symmetry_group_IT_number 2
_symmetry_cell_setting 'triclinic'
loop_
_space_group_symop_operation_xyz
x,y,z
-x,-y,-z
loop_
_atom_site_type_symbol
_atom_site_label
_atom_site_fract_x
_atom_site_fract_y
_atom_site_fract_z
Si Si1 0.864648 0.673609 0.515476
Si Si2 0.401591 0.925841 0.286350
Si Si3 0.253165 0.615857 0.586667
Si Si4 0.117919 0.993307 0.391517
Si Si5 0.668100 0.289384 0.188270
Si Si6 0.500000 0.500000 0.000000
Si Si7 0.406607 0.042428 0.823925
Si Si8 0.861449 0.570240 0.971057
O O1 0.892045 0.809558 0.572937
O O2 0.853945 0.534237 0.748588
O O3 0.988512 0.536955 0.224353
O O4 0.727571 0.840550 0.584002
O O5 0.371889 0.816162 0.545738
O O6 0.536084 0.876165 0.141587
O O7 0.409489 0.876237 0.040239
O O8 0.291753 0.601658 0.765904
O O9 0.168409 0.848665 0.563252
O O10 0.169680 0.531756 0.763058
O O11 0.373463 0.511979 0.283336
O O12 0.000000 0.000000 0.500000
O O13 0.217640 0.881420 0.081596
O O14 0.555706 0.445354 0.165484
O O15 0.500000 0.000000 0.500000
O O16 0.268033 0.195502 0.903052
#
# Coordination Sequence:
#
# PCOD9025434 Si02
#       8
#     2   2   2   2   2   1   2   2
#     4  10  22  46  68 100 143 180 241 294 359 430
#     4  10  22  40  69 100 131 190 234 286 357 424
#     4  11  23  44  68  99 140 185 232 294 359 429
#     4  11  25  42  69 101 135 185 241 288 355 433
#     4  11  23  40  70  96 137 181 238 291 356 415
#     4  10  24  40  64 106 138 180 238 298 352 422
#     4  10  23  43  68 100 143 183 237 291 357 436
#     4  10  23  42  70 100 138 183 230 297 360 422
#
# _framework density 27.326846
#
# number of rings (size 3 to 8) (size 9 to 14) (size 15 to 20)
#    0.000    1.600    1.333    2.000    5.600    2.133 
#    0.000   14.667    0.000    0.000    0.000    0.000 
#    0.000    0.000    0.000    0.000    0.000    0.000 
#
# Total GULP energy -83520.541067 kJ/mol
# GULP energy per Si atom -5568.036071 kJ/mol
# Density = 2.726465 g / cm^3
# Si number density = 27.326846 Si / 1000 Ang^3
#
#
#
# Elastic Constant Matrix: (Units=GPa)
#
#
# Indices 1 2 3 4 5 6 
#
# 1 108.1395 31.5456 49.9005 18.8404 -16.9157 -20.1091
# 2 31.5456 108.8245 79.7361 12.2732 -7.3830 -32.9793
# 3 49.9005 79.7361 247.9595 -16.5627 -22.3927 -14.3748
# 4 18.8404 12.2732 -16.5627 53.1344 -8.7813 -8.3400
# 5 -16.9157 -7.3830 -22.3927 -8.7813 58.5192 4.3126
# 6 -20.1091 -32.9793 -14.3748 -8.3400 4.3126 26.3077
#
#
#
# Elastic Compliance Matrix: (Units=1/GPa)
#
#
# Indices 1 2 3 4 5 6 
#
# 1 0.012549 0.001355 -0.002602 -0.004002 0.001588 0.008341
# 2 0.001355 0.020083 -0.005833 -0.003717 -0.001492 0.022091
# 3 -0.002602 -0.005833 0.006594 0.003900 0.001973 -0.004785
# 4 -0.004002 -0.003717 0.003900 0.023034 0.003236 0.001184
# 5 0.001588 -0.001492 0.001973 0.003236 0.018719 -0.001622
# 6 0.008341 0.022091 -0.004785 0.001184 -0.001622 0.070106
#
#
# Mechanical properties :
#
#
# Convention : Reuss Voigt Hill
#
# Bulk Modulus (GPa) = 39.89421 87.47643 63.68532
# Shear Modulus (GPa) = 28.80197 47.84168 38.32183
#
# Velocity S-wave (km/s) = 3.25003 4.18870 3.74886
# Velocity P-wave (km/s) = 5.35856 7.44811 6.48801
#
# Compressibility (1/GPa) = 0.02506629
#
# Stress axis : x y z
#
# Youngs Moduli (GPa) = 79.68693 49.79424 151.66438
#
# Poissons Ratio (x) = -0.06749 0.39458
# Poissons Ratio (y) = -0.10800 0.88467
# Poissons Ratio (z) = 0.20732 0.29045
#
# Static dielectric constant tensor:
#      x y z
#    x 2.235530 -0.047940 0.018580 
#    y -0.047940 2.236970 -0.073340 
#    z 0.018580 -0.073340 2.176530 
# 
# From -- ./inp_files/109560.got.cif
#   From: 2010.05.17/outbox.cif.g08.bks.cpg/sg2_55_cif.got.tgz:109560.got - 2010.06.03 11:33:40.
