data_PCOD9025742
_publ_section_title
;
Structure prediction by ZEFSAII (Michael W. Deem and Ramdas Pophale) SiO2 
 PCOD9025742
Probable space group: P -1
;
_chemical_formula_sum "Si O2"
_cell_formula_units_Z 13
_cell_length_a 9.436001
_cell_length_b 5.355663
_cell_length_c 12.556043
_cell_angle_alpha 96.356992
_cell_angle_beta 78.084648
_cell_angle_gamma 65.513347
_cell_volume 551.118893
_symmetry_space_group_name_H-M "P -1"
_symmetry_group_IT_number 2
_symmetry_cell_setting 'triclinic'
loop_
_space_group_symop_operation_xyz
x,y,z
-x,-y,-z
loop_
_atom_site_type_symbol
_atom_site_label
_atom_site_fract_x
_atom_site_fract_y
_atom_site_fract_z
Si Si1 0.500000 0.500000 0.500000
Si Si2 0.602115 0.238680 0.818175
Si Si3 0.126291 0.638796 0.258314
Si Si4 0.151220 0.990253 0.547641
Si Si5 0.640736 0.194349 0.055664
Si Si6 0.824079 0.560404 0.994538
Si Si7 0.647424 0.802549 0.625892
O O1 0.517166 0.728552 0.586140
O O2 0.295300 0.684304 0.537907
O O3 0.790228 0.156030 0.765874
O O4 0.502237 0.576826 0.841093
O O5 0.557509 0.078659 0.727324
O O6 0.579948 0.191539 0.943537
O O7 0.225082 0.439221 0.329954
O O8 0.940981 0.820835 0.327554
O O9 0.165701 0.458885 0.136143
O O10 0.247112 0.123957 0.471707
O O11 0.000000 0.000000 0.500000
O O12 0.765614 0.332048 0.032346
O O13 0.713569 0.876575 0.065652
O O14 0.000000 0.500000 0.000000
#
# Coordination Sequence:
#
# PCOD9025742 Si02
#       7
#     1   2   2   2   2   2   2
#     4  12  28  44  72 104 148 192 252 308 374 456
#     4  10  22  40  71 103 137 190 245 302 375 448
#     4  11  24  43  74 100 144 197 244 303 386 440
#     4  12  25  47  71 107 145 197 246 314 373 450
#     4  10  23  41  71 102 146 188 248 308 369 449
#     4  11  24  45  67 108 149 195 247 309 378 456
#     4  12  23  46  71 106 146 191 255 305 373 459
#
# _framework density 23.588377000000001
#
# number of rings (size 3 to 8) (size 9 to 14) (size 15 to 20)
#    0.000    0.923    4.615    1.385    2.154    3.077 
#    2.769    0.000    0.000    0.000    0.000    0.000 
#    0.000    0.000    0.000    0.000    0.000    0.000 
#
# Total GULP energy -72459.941605 kJ/mol
# GULP energy per Si atom -5573.841662 kJ/mol
# Density = 2.353469 g / cm^3
# Si number density = 23.588377 Si / 1000 Ang^3
#
#
#
# Elastic Constant Matrix: (Units=GPa)
#
#
# Indices 1 2 3 4 5 6 
#
# 1 136.2635 40.1007 58.4619 22.7446 19.0652 -1.1796
# 2 40.1007 72.5993 31.6940 30.2356 -2.5687 1.4398
# 3 58.4619 31.6940 102.8632 38.3030 -5.6187 13.7005
# 4 22.7446 30.2356 38.3030 41.0708 4.1635 -4.0273
# 5 19.0652 -2.5687 -5.6187 4.1635 52.7759 13.3372
# 6 -1.1796 1.4398 13.7005 -4.0273 13.3372 38.2245
#
#
#
# Elastic Compliance Matrix: (Units=1/GPa)
#
#
# Indices 1 2 3 4 5 6 
#
# 1 0.014206 -0.007726 -0.011296 0.010268 -0.009872 0.009304
# 2 -0.007726 0.024733 0.006508 -0.021737 0.008627 -0.008803
# 3 -0.011296 0.006508 0.027580 -0.027484 0.014127 -0.018304
# 4 0.010268 -0.021737 -0.027484 0.064612 -0.018959 0.024409
# 5 -0.009872 0.008627 0.014127 -0.018959 0.030573 -0.018358
# 6 0.009304 -0.008803 -0.018304 0.024409 -0.018358 0.042318
#
#
# Mechanical properties :
#
#
# Convention : Reuss Voigt Hill
#
# Bulk Modulus (GPa) = 24.10050 63.58214 43.84132
# Shear Modulus (GPa) = 20.58627 38.51220 29.54923
#
# Velocity S-wave (km/s) = 2.95740 4.04502 3.54319
# Velocity P-wave (km/s) = 4.67984 6.98782 5.94687
#
# Compressibility (1/GPa) = 0.04149291
#
# Stress axis : x y z
#
# Youngs Moduli (GPa) = 70.39042 40.43164 36.25804
#
# Poissons Ratio (x) = 0.31237 0.40956
# Poissons Ratio (y) = 0.54383 -0.23597
# Poissons Ratio (z) = 0.79510 -0.26313
#
# Static dielectric constant tensor:
#      x y z
#    x 1.935340 0.024320 -0.010650 
#    y 0.024320 2.010190 0.008510 
#    z -0.010650 0.008510 1.953020 
# 
# From -- ./inp_files/33149.got.cif
#   From: 2010.05.17/outbox.cif.g08.bks.cpg/sg2_17_cif.got.tgz:33149.got - 2010.06.03 11:33:40.
