data_PCOD9025556
_publ_section_title
;
Structure prediction by ZEFSAII (Michael W. Deem and Ramdas Pophale) SiO2 
 PCOD9025556
Probable space group: P -1
;
_chemical_formula_sum "Si O2"
_cell_formula_units_Z 14
_cell_length_a 20.774194
_cell_length_b 5.307944
_cell_length_c 16.596642
_cell_angle_alpha 106.896981
_cell_angle_beta 156.293251
_cell_angle_gamma 62.093416
_cell_volume 599.269815
_symmetry_space_group_name_H-M "P -1"
_symmetry_group_IT_number 2
_symmetry_cell_setting 'triclinic'
loop_
_space_group_symop_operation_xyz
x,y,z
-x,-y,-z
loop_
_atom_site_type_symbol
_atom_site_label
_atom_site_fract_x
_atom_site_fract_y
_atom_site_fract_z
Si Si1 0.704991 0.739933 0.741829
Si Si2 0.427978 0.152352 0.733992
Si Si3 0.384260 0.872779 0.901476
Si Si4 0.140574 0.923357 0.939640
Si Si5 0.190534 0.895529 0.531098
Si Si6 0.460469 0.326685 0.307966
Si Si7 0.873640 0.178646 0.795485
O O1 0.659078 0.552958 0.736338
O O2 0.824583 0.531209 0.784571
O O3 0.500000 0.000000 0.500000
O O4 0.803295 0.865279 0.924804
O O5 0.313490 0.522239 0.628015
O O6 0.293390 0.041449 0.610415
O O7 0.503862 0.986174 0.720147
O O8 0.606259 0.044209 0.987535
O O9 0.205422 0.973624 0.649009
O O10 0.500000 0.500000 0.000000
O O11 0.500000 0.000000 0.000000
O O12 0.332339 0.595923 0.123585
O O13 0.019269 0.006817 0.727314
O O14 0.979855 0.965709 0.821604
O O15 0.664334 0.250893 0.556343
O O16 0.000000 0.000000 0.000000
#
# Coordination Sequence:
#
# PCOD9025556 Si02
#       7
#     2   2   2   2   2   2   2
#     4  12  26  43  64  88 127 172 220 278 328 387
#     4  10  22  40  69  97 134 172 215 270 329 388
#     4   8  16  36  63  97 127 167 216 260 317 394
#     4  12  26  42  64  94 129 169 223 272 329 393
#     4  10  22  40  69  98 130 175 219 263 327 398
#     4  12  26  43  62  97 133 163 222 280 330 388
#     4  12  24  45  64  84 125 172 222 269 332 389
#
# _framework density 23.361761999999999
#
# number of rings (size 3 to 8) (size 9 to 14) (size 15 to 20)
#    0.000    1.143    4.286    1.714    8.000    0.000 
#    0.000    0.714    0.000    0.857    0.000    0.000 
#    0.000    0.000    0.000    0.000    0.000    0.000 
#
# Total GULP energy -78040.040640 kJ/mol
# GULP energy per Si atom -5574.288617 kJ/mol
# Density = 2.330859 g / cm^3
# Si number density = 23.361762 Si / 1000 Ang^3
#
#
#
# Elastic Constant Matrix: (Units=GPa)
#
#
# Indices 1 2 3 4 5 6 
#
# 1 28.7820 5.9500 24.1525 5.6449 -0.3309 2.8173
# 2 5.9500 97.0300 42.9408 6.3551 0.0641 4.4193
# 3 24.1525 42.9408 205.4633 10.0442 -38.1013 -17.3714
# 4 5.6449 6.3551 10.0442 40.5632 -14.5791 -11.9637
# 5 -0.3309 0.0641 -38.1013 -14.5791 30.4254 2.3965
# 6 2.8173 4.4193 -17.3714 -11.9637 2.3965 31.5289
#
#
#
# Elastic Compliance Matrix: (Units=1/GPa)
#
#
# Indices 1 2 3 4 5 6 
#
# 1 0.046772 0.003281 -0.010073 -0.015451 -0.018361 -0.014656
# 2 0.003281 0.013034 -0.004982 -0.006364 -0.008759 -0.006614
# 3 -0.010073 -0.004982 0.010477 0.008127 0.016189 0.009224
# 4 -0.015451 -0.006364 0.008127 0.042128 0.028590 0.020563
# 5 -0.018361 -0.008759 0.016189 0.028590 0.065266 0.017675
# 6 -0.014656 -0.006614 0.009224 0.020563 0.017675 0.045495
#
#
# Mechanical properties :
#
#
# Convention : Reuss Voigt Hill
#
# Bulk Modulus (GPa) = 21.39700 53.04020 37.21860
# Shear Modulus (GPa) = 19.06233 37.71899 28.39066
#
# Velocity S-wave (km/s) = 2.85961 4.02252 3.48984
# Velocity P-wave (km/s) = 4.48129 6.65788 5.67492
#
# Compressibility (1/GPa) = 0.04673552
#
# Stress axis : x y z
#
# Youngs Moduli (GPa) = 21.38029 76.72519 95.44731
#
# Poissons Ratio (x) = -0.25175 0.96141
# Poissons Ratio (y) = -0.07015 0.47552
# Poissons Ratio (z) = 0.21536 0.38225
#
# Static dielectric constant tensor:
#      x y z
#    x 2.030060 0.094300 -0.019530 
#    y 0.094300 1.934040 0.040880 
#    z -0.019530 0.040880 1.943180 
# 
# From -- ./inp_files/7543.got.cif
#   From: 2010.05.17/outbox.cif.g08.bks.cpg/sg2_4_cif.got.tgz:7543.got - 2010.06.03 11:33:40.
