data_PCOD9025202
_publ_section_title
;
Structure prediction by ZEFSAII (Michael W. Deem and Ramdas Pophale) SiO2 
 PCOD9025202
Probable space group: P -1
;
_chemical_formula_sum "Si O2"
_cell_formula_units_Z 14
_cell_length_a 22.952581
_cell_length_b 6.347768
_cell_length_c 14.898341
_cell_angle_alpha 116.718521
_cell_angle_beta 161.340495
_cell_angle_gamma 63.061898
_cell_volume 617.547675
_symmetry_space_group_name_H-M "P -1"
_symmetry_group_IT_number 2
_symmetry_cell_setting 'triclinic'
loop_
_space_group_symop_operation_xyz
x,y,z
-x,-y,-z
loop_
_atom_site_type_symbol
_atom_site_label
_atom_site_fract_x
_atom_site_fract_y
_atom_site_fract_z
Si Si1 0.407263 0.609142 0.296797
Si Si2 0.825186 0.892953 0.683344
Si Si3 0.274322 0.111088 0.267891
Si Si4 0.959781 0.367256 0.736509
Si Si5 0.809039 0.835672 0.129139
Si Si6 0.982130 0.776058 0.552906
Si Si7 0.705981 0.008895 0.334528
O O1 0.500000 0.500000 0.500000
O O2 0.563362 0.738289 0.498988
O O3 0.276791 0.841160 0.183212
O O4 0.330718 0.370604 0.100330
O O5 0.700232 0.896245 0.589463
O O6 0.728840 0.996663 0.473034
O O7 0.913480 0.637443 0.736755
O O8 0.000000 0.000000 0.000000
O O9 0.092317 0.249555 0.985912
O O10 0.052388 0.312066 0.765312
O O11 0.769906 0.255886 0.443150
O O12 0.860666 0.893630 0.316687
O O13 0.827312 0.093713 0.153656
O O14 0.862062 0.828984 0.477582
O O15 0.000000 0.500000 0.500000
O O16 0.500000 0.000000 0.000000
#
# Coordination Sequence:
#
# PCOD9025202 Si02
#       7
#     2   2   2   2   2   2   2
#     4  11  24  41  66 102 148 176 235 304 357 420
#     4  12  25  43  76  99 139 192 236 287 359 433
#     4  11  25  40  67 112 136 191 235 294 361 427
#     4  11  23  44  72 102 140 180 245 288 360 434
#     4  10  22  40  67  98 132 180 232 292 347 416
#     4  10  23  43  72  97 132 190 240 284 354 430
#     4  11  27  47  69 104 146 186 238 302 356 425
#
# _framework density 22.670314000000001
#
# number of rings (size 3 to 8) (size 9 to 14) (size 15 to 20)
#    0.000    1.143    2.857    2.143    4.000    2.857 
#    0.000    1.429    0.000    0.000    0.000    0.000 
#    0.000    0.000    0.000    0.000    0.000    0.000 
#
# Total GULP energy -77968.020264 kJ/mol
# GULP energy per Si atom -5569.144305 kJ/mol
# Density = 2.261872 g / cm^3
# Si number density = 22.670314 Si / 1000 Ang^3
#
#
#
# Elastic Constant Matrix: (Units=GPa)
#
#
# Indices 1 2 3 4 5 6 
#
# 1 124.7153 -1.5276 24.8051 10.7351 -12.2477 13.9596
# 2 -1.5276 103.3601 20.6172 40.0887 18.5360 4.1696
# 3 24.8051 20.6172 116.0243 24.6918 0.8071 12.6357
# 4 10.7351 40.0887 24.6918 39.9268 9.7698 -4.5977
# 5 -12.2477 18.5360 0.8071 9.7698 37.4441 10.0128
# 6 13.9596 4.1696 12.6357 -4.5977 10.0128 21.8908
#
#
#
# Elastic Compliance Matrix: (Units=1/GPa)
#
#
# Indices 1 2 3 4 5 6 
#
# 1 0.011249 0.003036 0.000748 -0.010308 0.008678 -0.014318
# 2 0.003036 0.018058 0.001989 -0.021664 0.000712 -0.011400
# 3 0.000748 0.001989 0.012213 -0.012711 0.005858 -0.013255
# 4 -0.010308 -0.021664 -0.012711 0.067432 -0.021167 0.041881
# 5 0.008678 0.000712 0.005858 -0.021167 0.043521 -0.033403
# 6 -0.014318 -0.011400 -0.013255 0.041881 -0.033403 0.088709
#
#
# Mechanical properties :
#
#
# Convention : Reuss Voigt Hill
#
# Bulk Modulus (GPa) = 18.84400 47.98768 33.41584
# Shear Modulus (GPa) = 20.21637 39.86601 30.04119
#
# Velocity S-wave (km/s) = 2.98947 4.19801 3.64419
# Velocity P-wave (km/s) = 4.49957 6.68665 5.69901
#
# Compressibility (1/GPa) = 0.05306728
#
# Stress axis : x y z
#
# Youngs Moduli (GPa) = 88.89812 55.37751 81.87767
#
# Poissons Ratio (x) = -0.16814 -0.06126
# Poissons Ratio (y) = -0.26992 -0.16286
# Poissons Ratio (z) = -0.06652 -0.11015
#
# Static dielectric constant tensor:
#      x y z
#    x 1.883250 0.029020 0.037530 
#    y 0.029020 1.889350 -0.022740 
#    z 0.037530 -0.022740 1.628520 
# 
# From -- ./inp_files/539755.got.cif
#   From: 2010.05.17/outbox.cif.g08.bks.cpg/sg2_270_cif.got.tgz:539755.got - 2010.06.03 11:33:40.
