data_PCOD9025314
_publ_section_title
;
Structure prediction by ZEFSAII (Michael W. Deem and Ramdas Pophale) SiO2 
 PCOD9025314
Probable space group: P -1
;
_chemical_formula_sum "Si O2"
_cell_formula_units_Z 13
_cell_length_a 7.980874
_cell_length_b 10.208220
_cell_length_c 22.415767
_cell_angle_alpha 145.408222
_cell_angle_beta 146.224061
_cell_angle_gamma 45.388475
_cell_volume 575.461746
_symmetry_space_group_name_H-M "P -1"
_symmetry_group_IT_number 2
_symmetry_cell_setting 'triclinic'
loop_
_space_group_symop_operation_xyz
x,y,z
-x,-y,-z
loop_
_atom_site_type_symbol
_atom_site_label
_atom_site_fract_x
_atom_site_fract_y
_atom_site_fract_z
Si Si1 0.860283 0.488526 0.727304
Si Si2 0.663746 0.008123 0.776780
Si Si3 0.181666 0.915387 0.351062
Si Si4 0.773199 0.320366 0.419405
Si Si5 0.905074 0.385403 0.282579
Si Si6 0.000000 0.000000 0.000000
Si Si7 0.701551 0.398955 0.847580
O O1 0.941682 0.258566 0.701473
O O2 0.495693 0.530641 0.635973
O O3 0.957938 0.487837 0.687055
O O4 0.988561 0.717831 0.879506
O O5 0.573981 0.240101 0.802323
O O6 0.398391 0.833366 0.640320
O O7 0.935178 0.869430 0.768901
O O8 0.794664 0.044407 0.894935
O O9 0.227536 0.768378 0.249856
O O10 0.500000 0.000000 0.500000
O O11 0.949458 0.136366 0.360326
O O12 0.998129 0.478059 0.579632
O O13 0.546944 0.405288 0.174003
O O14 0.000000 0.500000 0.000000
#
# Coordination Sequence:
#
# PCOD9025314 Si02
#       7
#     2   2   2   2   2   1   2
#     4  10  22  40  68  92 125 166 219 269 314 376
#     4  10  22  41  71  91 122 165 218 266 313 374
#     4  12  26  39  61  98 137 170 207 259 326 391
#     4  10  22  41  67  94 120 170 217 268 316 366
#     4  10  22  41  66  93 122 164 222 268 306 374
#     4   8  18  42  64  94 118 158 214 266 308 366
#     4  12  27  42  61  95 135 173 205 258 329 386
#
# _framework density 22.590554999999998
#
# number of rings (size 3 to 8) (size 9 to 14) (size 15 to 20)
#    0.000    1.846    1.538    3.692    4.308    8.615 
#    0.000    7.692    0.000    0.000    0.000    0.000 
#    0.000    0.000    0.000    0.000    0.000    0.000 
#
# Total GULP energy -72461.408653 kJ/mol
# GULP energy per Si atom -5573.954512 kJ/mol
# Density = 2.253914 g / cm^3
# Si number density = 22.590555 Si / 1000 Ang^3
#
#
#
# Elastic Constant Matrix: (Units=GPa)
#
#
# Indices 1 2 3 4 5 6 
#
# 1 49.2877 5.6353 12.1393 6.4972 -0.6554 -3.8466
# 2 5.6353 85.6839 11.5794 -2.9391 3.8364 -14.8793
# 3 12.1393 11.5794 121.6505 6.3769 -12.7440 -17.2860
# 4 6.4972 -2.9391 6.3769 17.9914 -1.3163 15.8448
# 5 -0.6554 3.8364 -12.7440 -1.3163 22.3180 2.2769
# 6 -3.8466 -14.8793 -17.2860 15.8448 2.2769 47.1883
#
#
#
# Elastic Compliance Matrix: (Units=1/GPa)
#
#
# Indices 1 2 3 4 5 6 
#
# 1 0.022764 -0.000789 -0.000778 -0.013283 -0.001018 0.005831
# 2 -0.000789 0.012661 -0.000785 -0.001334 -0.003159 0.004241
# 3 -0.000778 -0.000785 0.010168 -0.008379 0.004812 0.005995
# 4 -0.013283 -0.001334 -0.008379 0.096095 0.004503 -0.037057
# 5 -0.001018 -0.003159 0.004812 0.004503 0.048658 -0.003176
# 6 0.005831 0.004241 0.005995 -0.037057 -0.003176 0.037796
#
#
# Mechanical properties :
#
#
# Convention : Reuss Voigt Hill
#
# Bulk Modulus (GPa) = 24.45737 35.03667 29.74702
# Shear Modulus (GPa) = 20.28600 32.65076 26.46838
#
# Velocity S-wave (km/s) = 2.99989 3.80587 3.42666
# Velocity P-wave (km/s) = 4.78006 5.90390 5.37145
#
# Compressibility (1/GPa) = 0.04088748
#
# Stress axis : x y z
#
# Youngs Moduli (GPa) = 43.92991 78.98346 98.34957
#
# Poissons Ratio (x) = 0.06235 0.07654
# Poissons Ratio (y) = 0.03468 0.07718
# Poissons Ratio (z) = 0.03419 0.06198
#
# Static dielectric constant tensor:
#      x y z
#    x 1.883780 -0.022540 0.052190 
#    y -0.022540 1.828610 -0.008420 
#    z 0.052190 -0.008420 1.737780 
# 
# From -- ./inp_files/237611.got.cif
#   From: 2010.05.17/outbox.cif.g08.bks.cpg/sg2_119_cif.got.tgz:237611.got - 2010.06.03 11:33:40.
