data_PCOD9025291
_publ_section_title
;
Structure prediction by ZEFSAII (Michael W. Deem and Ramdas Pophale) SiO2 
 PCOD9025291
Probable space group: P -1
;
_chemical_formula_sum "Si O2"
_cell_formula_units_Z 10
_cell_length_a 7.667271
_cell_length_b 16.386952
_cell_length_c 5.425759
_cell_angle_alpha 120.912604
_cell_angle_beta 94.713353
_cell_angle_gamma 128.872478
_cell_volume 362.318120
_symmetry_space_group_name_H-M "P -1"
_symmetry_group_IT_number 2
_symmetry_cell_setting 'triclinic'
loop_
_space_group_symop_operation_xyz
x,y,z
-x,-y,-z
loop_
_atom_site_type_symbol
_atom_site_label
_atom_site_fract_x
_atom_site_fract_y
_atom_site_fract_z
Si Si1 0.225077 0.732258 0.695082
Si Si2 0.445504 0.650542 0.299586
Si Si3 0.798036 0.604068 0.820788
Si Si4 0.317521 0.113842 0.642676
Si Si5 0.046762 0.853173 0.915763
O O1 0.271353 0.662097 0.419467
O O2 0.150827 0.806104 0.701864
O O3 0.976539 0.609540 0.675999
O O4 0.508076 0.862751 0.091335
O O5 0.279745 0.482358 0.070110
O O6 0.519152 0.719880 0.146682
O O7 0.755722 0.770091 0.645635
O O8 0.500000 0.500000 0.500000
O O9 0.976311 0.775648 0.057318
O O10 0.000000 0.000000 0.500000
O O11 0.279584 0.031431 0.269645
#
# Coordination Sequence:
#
# PCOD9025291 Si02
#       5
#     2   2   2   2   2
#     4  10  22  40  68  86 125 159 202 252 302 360
#     4  11  21  42  66  87 123 165 199 249 310 351
#     4   8  19  40  65  90 118 158 204 249 302 363
#     4  12  24  40  62  93 127 158 206 252 294 364
#     4   9  21  41  61  89 124 158 201 247 303 358
#
# _framework density 27.600057
#
# number of rings (size 3 to 8) (size 9 to 14) (size 15 to 20)
#    1.200    0.800    2.000    1.800    0.000    1.600 
#    3.600    1.000    0.000    0.000    0.000    0.000 
#    0.000    0.000    0.000    0.000    0.000    0.000 
#
# Total GULP energy -55951.043038 kJ/mol
# GULP energy per Si atom -5595.104304 kJ/mol
# Density = 2.753724 g / cm^3
# Si number density = 27.600057 Si / 1000 Ang^3
#
#
#
# Elastic Constant Matrix: (Units=GPa)
#
#
# Indices 1 2 3 4 5 6 
#
# 1 197.8966 28.9687 45.9766 -4.0169 5.5420 21.6984
# 2 28.9687 125.2330 4.4631 13.1990 -1.7015 -15.6956
# 3 45.9766 4.4631 101.2760 19.4641 10.4718 0.7969
# 4 -4.0169 13.1990 19.4641 29.7567 0.1358 -3.0877
# 5 5.5420 -1.7015 10.4718 0.1358 36.6296 5.3455
# 6 21.6984 -15.6956 0.7969 -3.0877 5.3455 56.1099
#
#
#
# Elastic Compliance Matrix: (Units=1/GPa)
#
#
# Indices 1 2 3 4 5 6 
#
# 1 0.006621 -0.002181 -0.003686 0.003966 0.000364 -0.002935
# 2 -0.002181 0.009372 0.001552 -0.005137 -0.000122 0.003172
# 3 -0.003686 0.001552 0.013752 -0.010016 -0.003475 0.001444
# 4 0.003966 -0.005137 -0.010016 0.042894 0.001961 -0.000655
# 5 0.000364 -0.000122 -0.003475 0.001961 0.028626 -0.002745
# 6 -0.002935 0.003172 0.001444 -0.000655 -0.002745 0.020049
#
#
# Mechanical properties :
#
#
# Convention : Reuss Voigt Hill
#
# Bulk Modulus (GPa) = 47.36282 64.80250 56.08266
# Shear Modulus (GPa) = 36.50082 47.49905 41.99993
#
# Velocity S-wave (km/s) = 3.64055 4.15297 3.90517
# Velocity P-wave (km/s) = 5.90501 6.82102 6.37948
#
# Compressibility (1/GPa) = 0.02111361
#
# Stress axis : x y z
#
# Youngs Moduli (GPa) = 151.03575 106.70542 72.71651
#
# Poissons Ratio (x) = 0.23273 0.26807
# Poissons Ratio (y) = 0.32942 -0.11286
# Poissons Ratio (z) = 0.55679 -0.16561
#
# Static dielectric constant tensor:
#      x y z
#    x 2.117630 0.029820 -0.057320 
#    y 0.029820 2.156450 -0.071700 
#    z -0.057320 -0.071700 2.102420 
# 
# From -- ./inp_files/22624.got.cif
#   From: 2010.05.17/outbox.cif.g08.bks.cpg/sg2_12_cif.got.tgz:22624.got - 2010.06.03 11:33:40.
