data_PCOD9025224
_publ_section_title
;
Structure prediction by ZEFSAII (Michael W. Deem and Ramdas Pophale) SiO2 
 PCOD9025224
Probable space group: P -1
;
_chemical_formula_sum "Si O2"
_cell_formula_units_Z 14
_cell_length_a 10.673975
_cell_length_b 19.670222
_cell_length_c 6.569509
_cell_angle_alpha 100.245114
_cell_angle_beta 76.650305
_cell_angle_gamma 153.140151
_cell_volume 605.113335
_symmetry_space_group_name_H-M "P -1"
_symmetry_group_IT_number 2
_symmetry_cell_setting 'triclinic'
loop_
_space_group_symop_operation_xyz
x,y,z
-x,-y,-z
loop_
_atom_site_type_symbol
_atom_site_label
_atom_site_fract_x
_atom_site_fract_y
_atom_site_fract_z
Si Si1 0.311067 0.677530 0.492049
Si Si2 0.262204 0.166828 0.249150
Si Si3 0.961021 0.835473 0.376437
Si Si4 0.637985 0.933794 0.981988
Si Si5 0.213322 0.886011 0.655681
Si Si6 0.890240 0.299125 0.179987
Si Si7 0.505396 0.659247 0.132796
O O1 0.467414 0.719515 0.649890
O O2 0.266010 0.735728 0.591892
O O3 0.463762 0.718499 0.261405
O O4 0.000000 0.500000 0.500000
O O5 0.043150 0.095484 0.451741
O O6 0.214327 0.070015 0.109978
O O7 0.343863 0.261075 0.096917
O O8 0.696458 0.712552 0.258571
O O9 0.984021 0.787846 0.512081
O O10 0.231635 0.960834 0.198882
O O11 0.304793 0.775741 0.980837
O O12 0.720020 0.011315 0.196352
O O13 0.112543 0.781863 0.802076
O O14 0.500000 0.000000 0.500000
O O15 0.202263 0.478527 0.134500
#
# Coordination Sequence:
#
# PCOD9025224 Si02
#       7
#     2   2   2   2   2   2   2
#     4   8  18  36  61  95 131 162 208 262 316 379
#     4  10  22  40  68 100 128 170 210 268 336 373
#     4  11  24  44  65  96 134 168 220 265 319 388
#     4  11  24  43  69  96 130 170 219 270 313 386
#     4  12  26  43  67  94 129 179 220 258 324 384
#     4  10  22  43  65  97 131 169 216 267 318 387
#     4  10  22  42  66  98 134 163 214 273 326 381
#
# _framework density 23.136163
#
# number of rings (size 3 to 8) (size 9 to 14) (size 15 to 20)
#    0.000    1.714    1.429    1.714    2.000    9.143 
#    5.143    2.857    0.000    0.000    0.000    0.000 
#    0.000    0.000    0.000    0.000    0.000    0.000 
#
# Total GULP energy -78231.077408 kJ/mol
# GULP energy per Si atom -5587.934101 kJ/mol
# Density = 2.308350 g / cm^3
# Si number density = 23.136163 Si / 1000 Ang^3
#
#
#
# Elastic Constant Matrix: (Units=GPa)
#
#
# Indices 1 2 3 4 5 6 
#
# 1 59.7605 24.8323 20.0225 11.5559 9.4140 9.0302
# 2 24.8323 97.6569 32.9465 18.1980 -1.6313 8.2073
# 3 20.0225 32.9465 105.4546 1.4980 -8.5061 6.2489
# 4 11.5559 18.1980 1.4980 23.4462 1.8239 2.2645
# 5 9.4140 -1.6313 -8.5061 1.8239 32.1098 0.3352
# 6 9.0302 8.2073 6.2489 2.2645 0.3352 24.2742
#
#
#
# Elastic Compliance Matrix: (Units=1/GPa)
#
#
# Indices 1 2 3 4 5 6 
#
# 1 0.022543 -0.002749 -0.003554 -0.007637 -0.007197 -0.005730
# 2 -0.002749 0.014027 -0.003522 -0.009205 0.001129 -0.001970
# 3 -0.003554 -0.003522 0.011559 0.003538 0.003733 -0.000844
# 4 -0.007637 -0.009205 0.003538 0.053352 -0.000323 0.000070
# 5 -0.007197 0.001129 0.003733 -0.000323 0.034308 0.000891
# 6 -0.005730 -0.001970 -0.000844 0.000070 0.000891 0.044192
#
#
# Mechanical properties :
#
#
# Convention : Reuss Voigt Hill
#
# Bulk Modulus (GPa) = 35.11330 46.49716 40.80523
# Shear Modulus (GPa) = 23.90950 28.30409 26.10680
#
# Velocity S-wave (km/s) = 3.21818 3.50147 3.36281
# Velocity P-wave (km/s) = 5.38690 6.04052 5.72305
#
# Compressibility (1/GPa) = 0.02847924
#
# Stress axis : x y z
#
# Youngs Moduli (GPa) = 44.36048 71.29233 86.51512
#
# Poissons Ratio (x) = 0.19597 0.30746
# Poissons Ratio (y) = 0.12194 0.30469
# Poissons Ratio (z) = 0.15765 0.25108
#
# Static dielectric constant tensor:
#      x y z
#    x 1.922640 -0.006170 -0.015300 
#    y -0.006170 1.839210 0.025260 
#    z -0.015300 0.025260 1.850310 
# 
# From -- ./inp_files/82690.got.cif
#   From: 2010.05.17/outbox.cif.g08.bks.cpg/sg2_42_cif.got.tgz:82690.got - 2010.06.03 11:33:40.
