data_PCOD9025142
_publ_section_title
;
Structure prediction by ZEFSAII (Michael W. Deem and Ramdas Pophale) SiO2 
 PCOD9025142
Probable space group: P -1
;
_chemical_formula_sum "Si O2"
_cell_formula_units_Z 16
_cell_length_a 18.691955
_cell_length_b 9.799768
_cell_length_c 9.858863
_cell_angle_alpha 94.402715
_cell_angle_beta 94.092815
_cell_angle_gamma 25.843540
_cell_volume 784.891930
_symmetry_space_group_name_H-M "P -1"
_symmetry_group_IT_number 2
_symmetry_cell_setting 'triclinic'
loop_
_space_group_symop_operation_xyz
x,y,z
-x,-y,-z
loop_
_atom_site_type_symbol
_atom_site_label
_atom_site_fract_x
_atom_site_fract_y
_atom_site_fract_z
Si Si1 0.144779 0.660034 0.805781
Si Si2 0.273605 0.504666 0.522403
Si Si3 0.789783 0.769181 0.264525
Si Si4 0.361432 0.852893 0.991559
Si Si5 0.650956 0.938112 0.546031
Si Si6 0.825302 0.859122 0.748463
Si Si7 0.779320 0.250778 0.738456
Si Si8 0.410970 0.297070 0.013729
O O1 0.180152 0.665152 0.664178
O O2 0.209559 0.391590 0.793976
O O3 0.246751 0.566386 0.923683
O O4 0.950294 0.984030 0.818906
O O5 0.276478 0.340464 0.464598
O O6 0.207560 0.707114 0.405106
O O7 0.457311 0.244456 0.554720
O O8 0.696543 0.927941 0.406870
O O9 0.981387 0.479410 0.283444
O O10 0.706447 0.006585 0.157916
O O11 0.213046 0.082362 0.092235
O O12 0.500000 0.500000 0.000000
O O13 0.459852 0.820357 0.041135
O O14 0.728536 0.903407 0.665732
O O15 0.759841 0.120973 0.715024
O O16 0.637766 0.564774 0.832796
O O17 0.500000 0.000000 0.000000
#
# Coordination Sequence:
#
# PCOD9025142 Si02
#       8
#     2   2   2   2   2   2   2   2
#     4  10  22  42  65  93 127 164 209 261 315 368
#     4  10  22  40  67  96 123 161 213 261 305 370
#     4  10  22  43  65  90 129 169 207 257 313 374
#     4  12  24  43  62  92 128 163 212 265 306 368
#     4  10  22  40  68  93 123 166 213 253 311 377
#     4  11  24  42  63  93 131 168 204 255 320 375
#     4  11  24  42  62  95 131 161 207 265 311 372
#     4  12  24  42  69  89 123 170 214 257 314 370
#
# _framework density 20.384972000000001
#
# number of rings (size 3 to 8) (size 9 to 14) (size 15 to 20)
#    0.000    1.250    2.500    3.000    5.250    0.500 
#    4.500    0.000    0.000    0.000    0.000    0.000 
#    0.000    0.000    0.000    0.000    0.000    0.000 
#
# Total GULP energy -89419.507086 kJ/mol
# GULP energy per Si atom -5588.719193 kJ/mol
# Density = 2.033858 g / cm^3
# Si number density = 20.384972 Si / 1000 Ang^3
#
#
#
# Elastic Constant Matrix: (Units=GPa)
#
#
# Indices 1 2 3 4 5 6 
#
# 1 114.7872 26.6860 34.8702 -0.7114 -0.9697 3.3271
# 2 26.6860 54.8583 24.8075 5.4476 -4.0072 7.0656
# 3 34.8702 24.8075 88.8104 -3.1921 -15.0898 9.3257
# 4 -0.7114 5.4476 -3.1921 31.2632 -3.8493 -12.3095
# 5 -0.9697 -4.0072 -15.0898 -3.8493 38.5351 -5.5033
# 6 3.3271 7.0656 9.3257 -12.3095 -5.5033 26.5114
#
#
#
# Elastic Compliance Matrix: (Units=1/GPa)
#
#
# Indices 1 2 3 4 5 6 
#
# 1 0.010614 -0.003956 -0.003349 0.000848 -0.001222 0.001040
# 2 -0.003956 0.024146 -0.004867 -0.008285 -0.001520 -0.008389
# 3 -0.003349 -0.004867 0.015074 0.002446 0.005366 -0.001336
# 4 0.000848 -0.008285 0.002446 0.043793 0.007804 0.023195
# 5 -0.001222 -0.001520 0.005366 0.007804 0.029855 0.008492
# 6 0.001040 -0.008389 -0.001336 0.023195 0.008492 0.052827
#
#
# Mechanical properties :
#
#
# Convention : Reuss Voigt Hill
#
# Bulk Modulus (GPa) = 39.22957 47.90924 43.56941
# Shear Modulus (GPa) = 23.90647 30.73475 27.32061
#
# Velocity S-wave (km/s) = 3.42826 3.88714 3.66489
# Velocity P-wave (km/s) = 5.91242 6.61058 6.27122
#
# Compressibility (1/GPa) = 0.02549097
#
# Stress axis : x y z
#
# Youngs Moduli (GPa) = 94.21927 41.41446 66.33933
#
# Poissons Ratio (x) = 0.16384 0.22214
# Poissons Ratio (y) = 0.37275 0.32284
# Poissons Ratio (z) = 0.31550 0.20155
#
# Static dielectric constant tensor:
#      x y z
#    x 1.682680 -0.015920 0.003160 
#    y -0.015920 1.720400 0.001330 
#    z 0.003160 0.001330 1.706020 
# 
# From -- ./inp_files/207413.got.cif
#   From: 2010.05.17/outbox.cif.g08.bks.cpg/sg2_104_cif.got.tgz:207413.got - 2010.06.03 11:33:40.
