data_PCOD9025416
_publ_section_title
;
Structure prediction by ZEFSAII (Michael W. Deem and Ramdas Pophale) SiO2 
 PCOD9025416
Probable space group: P -1
;
_chemical_formula_sum "Si O2"
_cell_formula_units_Z 16
_cell_length_a 12.556148
_cell_length_b 9.463559
_cell_length_c 22.281289
_cell_angle_alpha 35.490433
_cell_angle_beta 151.718541
_cell_angle_gamma 131.298914
_cell_volume 712.459520
_symmetry_space_group_name_H-M "P -1"
_symmetry_group_IT_number 2
_symmetry_cell_setting 'triclinic'
loop_
_space_group_symop_operation_xyz
x,y,z
-x,-y,-z
loop_
_atom_site_type_symbol
_atom_site_label
_atom_site_fract_x
_atom_site_fract_y
_atom_site_fract_z
Si Si1 0.329611 0.819487 0.991314
Si Si2 0.551007 0.552573 0.436548
Si Si3 0.720998 0.687803 0.875624
Si Si4 0.503150 0.926409 0.459497
Si Si5 0.970147 0.179818 0.268322
Si Si6 0.206451 0.027101 0.636494
Si Si7 0.714999 0.748788 0.978456
Si Si8 0.802602 0.209576 0.925493
O O1 0.407955 0.538271 0.102673
O O2 0.297599 0.796711 0.054762
O O3 0.106671 0.885132 0.814421
O O4 0.500000 0.000000 0.000000
O O5 0.500000 0.500000 0.500000
O O6 0.649220 0.275680 0.557825
O O7 0.714800 0.737961 0.435998
O O8 0.344782 0.653085 0.251194
O O9 0.701440 0.855362 0.867034
O O10 0.605408 0.831170 0.713187
O O11 0.993131 0.641227 0.017123
O O12 0.759630 0.831566 0.594435
O O13 0.500000 0.000000 0.500000
O O14 0.900118 0.978014 0.348274
O O15 0.844675 0.460313 0.132776
O O16 0.442290 0.813095 0.835167
O O17 0.000000 0.000000 0.500000
O O18 0.842263 0.918597 0.024380
#
# Coordination Sequence:
#
# PCOD9025416 Si02
#       8
#     2   2   2   2   2   2   2   2
#     4  11  23  42  67  96 132 173 218 273 334 403
#     4  11  23  42  67  99 135 174 221 277 334 399
#     4  11  23  40  64  95 128 172 221 275 328 393
#     4  12  25  44  66  96 134 178 225 278 335 394
#     4  11  24  45  68  96 136 179 223 278 335 399
#     4  11  23  41  67 101 136 175 220 278 338 399
#     4  10  22  40  68  99 129 169 223 278 333 396
#     4  11  22  42  68  98 129 172 224 275 331 399
#
# _framework density 22.457417
#
# number of rings (size 3 to 8) (size 9 to 14) (size 15 to 20)
#    0.000    1.000    0.000    8.625    0.000    4.000 
#    0.000    6.250    0.000    0.000    0.000    0.000 
#    0.000    0.000    0.000    0.000    0.000    0.000 
#
# Total GULP energy -89098.174975 kJ/mol
# GULP energy per Si atom -5568.635936 kJ/mol
# Density = 2.240630 g / cm^3
# Si number density = 22.457417 Si / 1000 Ang^3
#
#
#
# Elastic Constant Matrix: (Units=GPa)
#
#
# Indices 1 2 3 4 5 6 
#
# 1 124.8247 33.2813 18.0168 2.8044 -28.4163 6.8393
# 2 33.2813 132.3221 30.4039 10.3767 1.5888 16.0331
# 3 18.0168 30.4039 64.0913 23.2764 -20.7727 17.2273
# 4 2.8044 10.3767 23.2764 24.4793 2.1545 -1.9501
# 5 -28.4163 1.5888 -20.7727 2.1545 40.7634 7.6746
# 6 6.8393 16.0331 17.2273 -1.9501 7.6746 49.0336
#
#
#
# Elastic Compliance Matrix: (Units=1/GPa)
#
#
# Indices 1 2 3 4 5 6 
#
# 1 0.011323 -0.003329 0.006959 -0.008068 0.012992 -0.005290
# 2 -0.003329 0.009837 -0.008445 0.005036 -0.007576 0.001601
# 3 0.006959 -0.008445 0.066150 -0.066900 0.048391 -0.031685
# 4 -0.008068 0.005036 -0.066900 0.110707 -0.052466 0.035598
# 5 0.012992 -0.007576 0.048391 -0.052466 0.066752 -0.028871
# 6 -0.005290 0.001601 -0.031685 0.035598 -0.028871 0.037675
#
#
# Mechanical properties :
#
#
# Convention : Reuss Voigt Hill
#
# Bulk Modulus (GPa) = 12.87335 53.84911 33.36123
# Shear Modulus (GPa) = 14.79425 38.82434 26.80929
#
# Velocity S-wave (km/s) = 2.56943 4.16239 3.45887
# Velocity P-wave (km/s) = 3.81411 6.86521 5.55331
#
# Compressibility (1/GPa) = 0.07767985
#
# Stress axis : x y z
#
# Youngs Moduli (GPa) = 88.31456 101.65451 15.11710
#
# Poissons Ratio (x) = 0.33844 -0.10520
# Poissons Ratio (y) = 0.29403 0.12767
# Poissons Ratio (z) = -0.61460 0.85850
#
# Static dielectric constant tensor:
#      x y z
#    x 1.881730 0.007350 0.020000 
#    y 0.007350 1.835430 -0.025840 
#    z 0.020000 -0.025840 1.926650 
# 
# From -- ./inp_files/593996.got.cif
#   From: 2010.05.17/outbox.cif.g08.bks.cpg/sg2_297_cif.got.tgz:593996.got - 2010.06.03 11:33:40.
