data_PCOD9025809
_publ_section_title
;
Structure prediction by ZEFSAII (Michael W. Deem and Ramdas Pophale) SiO2 
 PCOD9025809
Probable space group: P -1
;
_chemical_formula_sum "Si O2"
_cell_formula_units_Z 13
_cell_length_a 8.927881
_cell_length_b 7.692300
_cell_length_c 21.352731
_cell_angle_alpha 40.089129
_cell_angle_beta 144.449106
_cell_angle_gamma 131.084593
_cell_volume 546.697440
_symmetry_space_group_name_H-M "P -1"
_symmetry_group_IT_number 2
_symmetry_cell_setting 'triclinic'
loop_
_space_group_symop_operation_xyz
x,y,z
-x,-y,-z
loop_
_atom_site_type_symbol
_atom_site_label
_atom_site_fract_x
_atom_site_fract_y
_atom_site_fract_z
Si Si1 0.000000 0.500000 0.500000
Si Si2 0.882598 0.668089 0.857591
Si Si3 0.487455 0.365895 0.623729
Si Si4 0.778346 0.961990 0.215736
Si Si5 0.678858 0.134098 0.371365
Si Si6 0.745206 0.144585 0.883204
Si Si7 0.041387 0.197374 0.362299
O O1 0.265906 0.505616 0.545486
O O2 0.148850 0.330245 0.655329
O O3 0.596705 0.754734 0.749411
O O4 0.836514 0.451566 0.846419
O O5 0.073004 0.920150 0.827675
O O6 0.000000 0.500000 0.000000
O O7 0.589615 0.142998 0.766319
O O8 0.729211 0.575241 0.633626
O O9 0.378786 0.184517 0.579025
O O10 0.467497 0.961824 0.108215
O O11 0.882334 0.149762 0.257811
O O12 0.858016 0.252288 0.343164
O O13 0.845562 0.100586 0.501781
O O14 0.000000 0.000000 0.000000
#
# Coordination Sequence:
#
# PCOD9025809 Si02
#       7
#     1   2   2   2   2   2   2
#     4  10  22  40  72 102 142 170 236 274 342 416
#     4  12  28  46  71 102 141 184 237 291 342 409
#     4  11  22  42  67 101 136 183 228 280 345 410
#     4  11  25  45  72 106 136 188 228 285 353 416
#     4  11  25  42  64 108 142 171 231 288 345 404
#     4  11  25  45  72  97 136 185 240 282 338 421
#     4  11  23  41  72 101 140 181 222 289 350 409
#
# _framework density 23.779149
#
# number of rings (size 3 to 8) (size 9 to 14) (size 15 to 20)
#    0.000    0.923    4.615    2.308    4.308    4.923 
#    0.000    0.000    0.000    0.000    0.000    0.000 
#    0.000    0.000    0.000    0.000    0.000    0.000 
#
# Total GULP energy -72532.246888 kJ/mol
# GULP energy per Si atom -5579.403607 kJ/mol
# Density = 2.372503 g / cm^3
# Si number density = 23.779149 Si / 1000 Ang^3
#
#
#
# Elastic Constant Matrix: (Units=GPa)
#
#
# Indices 1 2 3 4 5 6 
#
# 1 119.8950 36.5584 88.5665 -13.1539 27.4671 37.5134
# 2 36.5584 69.8802 2.1460 0.2523 17.1942 43.5609
# 3 88.5665 2.1460 134.3718 7.4940 41.8744 19.7157
# 4 -13.1539 0.2523 7.4940 28.4710 -5.1301 4.7308
# 5 27.4671 17.1942 41.8744 -5.1301 65.2435 8.6326
# 6 37.5134 43.5609 19.7157 4.7308 8.6326 56.0499
#
#
#
# Elastic Compliance Matrix: (Units=1/GPa)
#
#
# Indices 1 2 3 4 5 6 
#
# 1 0.035879 -0.017623 -0.027192 0.026372 0.009656 -0.004466
# 2 -0.017623 0.041328 0.019430 -0.012102 -0.013715 -0.024025
# 3 -0.027192 0.019430 0.031674 -0.023217 -0.015335 -0.003721
# 4 0.026372 -0.012102 -0.023217 0.056880 0.012358 -0.006783
# 5 0.009656 -0.013715 -0.015335 0.012358 0.025070 0.004686
# 6 -0.004466 -0.024025 -0.003721 -0.006783 0.004686 0.040661
#
#
# Mechanical properties :
#
#
# Convention : Reuss Voigt Hill
#
# Bulk Modulus (GPa) = 17.20849 64.29877 40.75363
# Shear Modulus (GPa) = 16.57645 43.07794 29.82719
#
# Velocity S-wave (km/s) = 2.64313 4.26089 3.54551
# Velocity P-wave (km/s) = 4.07030 7.16279 5.82550
#
# Compressibility (1/GPa) = 0.05811085
#
# Stress axis : x y z
#
# Youngs Moduli (GPa) = 27.87134 24.19677 31.57177
#
# Poissons Ratio (x) = 0.42642 0.85849
# Poissons Ratio (y) = 0.49117 -0.61343
# Poissons Ratio (z) = 0.75787 -0.47013
#
# Static dielectric constant tensor:
#      x y z
#    x 1.954960 -0.055380 -0.183840 
#    y -0.055380 2.057880 0.202340 
#    z -0.183840 0.202340 2.157490 
# 
# From -- ./inp_files/169003.got.cif
#   From: 2010.05.17/outbox.cif.g08.bks.cpg/sg2_85_cif.got.tgz:169003.got - 2010.06.03 11:33:40.
