data_PCOD9025421
_publ_section_title
;
Structure prediction by ZEFSAII (Michael W. Deem and Ramdas Pophale) SiO2 
 PCOD9025421
Probable space group: P -1
;
_chemical_formula_sum "Si O2"
_cell_formula_units_Z 14
_cell_length_a 7.539616
_cell_length_b 11.781736
_cell_length_c 16.972598
_cell_angle_alpha 140.262982
_cell_angle_beta 148.239742
_cell_angle_gamma 46.501962
_cell_volume 504.640087
_symmetry_space_group_name_H-M "P -1"
_symmetry_group_IT_number 2
_symmetry_cell_setting 'triclinic'
loop_
_space_group_symop_operation_xyz
x,y,z
-x,-y,-z
loop_
_atom_site_type_symbol
_atom_site_label
_atom_site_fract_x
_atom_site_fract_y
_atom_site_fract_z
Si Si1 0.956752 0.826785 0.745657
Si Si2 0.428226 0.009766 0.568844
Si Si3 0.046279 0.284921 0.764322
Si Si4 0.386794 0.387834 0.096901
Si Si5 0.670069 0.336169 0.336028
Si Si6 0.614517 0.953595 0.824278
Si Si7 0.921685 0.611856 0.337280
O O1 0.345246 0.795207 0.902642
O O2 0.996296 0.708679 0.617537
O O3 0.787962 0.016601 0.751546
O O4 0.699181 0.803942 0.707189
O O5 0.212131 0.569606 0.490614
O O6 0.500000 0.000000 0.500000
O O7 0.162612 0.175247 0.575279
O O8 0.057585 0.417574 0.764403
O O9 0.730541 0.173091 0.571851
O O10 0.363736 0.125442 0.795315
O O11 0.080896 0.353777 0.904942
O O12 0.405919 0.420624 0.215731
O O13 0.601765 0.523531 0.203805
O O14 0.533798 0.153903 0.217916
O O15 0.000000 0.000000 0.000000
#
# Coordination Sequence:
#
# PCOD9025421 Si02
#       7
#     2   2   2   2   2   2   2
#     4  10  22  40  68  99 132 177 233 268 334 406
#     4  12  22  41  70 100 131 180 232 279 332 407
#     4  12  24  42  70 102 137 173 231 288 339 391
#     4  10  25  46  66  97 143 182 215 286 348 397
#     4  10  23  43  69  98 136 179 228 279 333 406
#     4  12  21  39  70 103 131 178 232 283 331 399
#     4  12  22  43  72  95 139 180 224 280 347 396
#
# _framework density 27.742543000000001
#
# number of rings (size 3 to 8) (size 9 to 14) (size 15 to 20)
#    0.857    0.000    5.714    2.143    0.000    3.429 
#    0.000    5.000    0.000    0.000    0.000    0.000 
#    0.000    0.000    0.000    0.000    0.000    0.000 
#
# Total GULP energy -78142.136754 kJ/mol
# GULP energy per Si atom -5581.581197 kJ/mol
# Density = 2.767940 g / cm^3
# Si number density = 27.742543 Si / 1000 Ang^3
#
#
#
# Elastic Constant Matrix: (Units=GPa)
#
#
# Indices 1 2 3 4 5 6 
#
# 1 141.4678 27.7231 32.0044 -16.3812 -23.3561 42.7581
# 2 27.7231 144.8545 58.4719 -60.7927 -1.0564 38.1722
# 3 32.0044 58.4719 134.2632 -20.7230 -8.2228 16.8693
# 4 -16.3812 -60.7927 -20.7230 52.7814 1.0097 4.8132
# 5 -23.3561 -1.0564 -8.2228 1.0097 48.5975 -0.8607
# 6 42.7581 38.1722 16.8693 4.8132 -0.8607 44.8142
#
#
#
# Elastic Compliance Matrix: (Units=1/GPa)
#
#
# Indices 1 2 3 4 5 6 
#
# 1 0.024306 0.028650 -0.004709 0.043091 0.009722 -0.050263
# 2 0.028650 0.067690 -0.010269 0.090903 0.010008 -0.090698
# 3 -0.004709 -0.010269 0.010111 -0.010273 -0.000376 0.010531
# 4 0.043091 0.090903 -0.010273 0.144534 0.015644 -0.129900
# 5 0.009722 0.010008 -0.000376 0.015644 0.024745 -0.018864
# 6 -0.050263 -0.090698 0.010531 -0.129900 -0.018864 0.157153
#
#
# Mechanical properties :
#
#
# Convention : Reuss Voigt Hill
#
# Bulk Modulus (GPa) = 7.72500 72.99825 40.36162
# Shear Modulus (GPa) = 11.25249 49.39768 30.32509
#
# Velocity S-wave (km/s) = 2.01615 4.22426 3.30978
# Velocity P-wave (km/s) = 2.86537 7.08254 5.40244
#
# Compressibility (1/GPa) = 0.12944983
#
# Stress axis : x y z
#
# Youngs Moduli (GPa) = 41.14134 14.77328 98.89974
#
# Poissons Ratio (x) = -0.42325 0.46576
# Poissons Ratio (y) = -1.17869 1.01562
# Poissons Ratio (z) = 0.19375 0.15171
#
# Static dielectric constant tensor:
#      x y z
#    x 2.181260 -0.025330 -0.165900 
#    y -0.025330 2.202530 -0.046680 
#    z -0.165900 -0.046680 2.319140 
# 
# From -- ./inp_files/558148.got.cif
#   From: 2010.05.17/outbox.cif.g08.bks.cpg/sg2_280_cif.got.tgz:558148.got - 2010.06.03 11:33:40.
