data_PCOD9025861
_publ_section_title
;
Structure prediction by ZEFSAII (Michael W. Deem and Ramdas Pophale) SiO2 
 PCOD9025861
Probable space group: P -1
;
_chemical_formula_sum "Si O2"
_cell_formula_units_Z 14
_cell_length_a 9.732169
_cell_length_b 11.097028
_cell_length_c 7.861873
_cell_angle_alpha 66.111465
_cell_angle_beta 65.229608
_cell_angle_gamma 110.029127
_cell_volume 554.782031
_symmetry_space_group_name_H-M "P -1"
_symmetry_group_IT_number 2
_symmetry_cell_setting 'triclinic'
loop_
_space_group_symop_operation_xyz
x,y,z
-x,-y,-z
loop_
_atom_site_type_symbol
_atom_site_label
_atom_site_fract_x
_atom_site_fract_y
_atom_site_fract_z
Si Si1 0.006387 0.331984 0.885372
Si Si2 0.320165 0.870172 0.543898
Si Si3 0.601558 0.843924 0.900498
Si Si4 0.743165 0.724098 0.618516
Si Si5 0.384636 0.612172 0.662826
Si Si6 0.213581 0.553266 0.164350
Si Si7 0.095502 0.963612 0.113592
O O1 0.975578 0.462179 0.752400
O O2 0.919827 0.187891 0.873814
O O3 0.232337 0.437228 0.746151
O O4 0.874562 0.241022 0.176025
O O5 0.371238 0.752567 0.516281
O O6 0.500000 0.000000 0.500000
O O7 0.318771 0.985539 0.339864
O O8 0.654428 0.740669 0.824290
O O9 0.698323 0.889887 0.006512
O O10 0.372206 0.722679 0.086118
O O11 0.596664 0.676841 0.566153
O O12 0.785694 0.592720 0.682329
O O13 0.948171 0.900122 0.381751
O O14 0.290840 0.580747 0.916299
O O15 0.000000 0.000000 0.000000
#
# Coordination Sequence:
#
# PCOD9025861 Si02
#       7
#     2   2   2   2   2   2   2
#     4  11  25  44  65 101 143 170 218 272 336 400
#     4  11  19  42  74 101 126 172 229 273 330 387
#     4  11  23  44  70 100 129 177 226 279 323 395
#     4  11  24  45  70  96 131 180 229 266 332 395
#     4  10  22  40  72  99 132 173 223 278 319 397
#     4  10  22  42  71  99 128 173 228 272 326 395
#     4  12  30  43  64  99 140 177 218 279 337 388
#
# _framework density 25.235136000000001
#
# number of rings (size 3 to 8) (size 9 to 14) (size 15 to 20)
#    0.000    1.143    4.286    4.714    8.000    1.714 
#    0.000    0.000    0.000    0.000    0.000    0.000 
#    0.000    0.000    0.000    0.000    0.000    0.000 
#
# Total GULP energy -78360.318352 kJ/mol
# GULP energy per Si atom -5597.165597 kJ/mol
# Density = 2.517770 g / cm^3
# Si number density = 25.235136 Si / 1000 Ang^3
#
#
#
# Elastic Constant Matrix: (Units=GPa)
#
#
# Indices 1 2 3 4 5 6 
#
# 1 133.2491 55.4205 20.3195 -12.2603 17.1167 6.0808
# 2 55.4205 105.7003 10.8627 -9.4895 0.2463 21.1299
# 3 20.3195 10.8627 59.0559 -7.0987 1.9070 0.4822
# 4 -12.2603 -9.4895 -7.0987 27.6824 -0.8466 -2.7853
# 5 17.1167 0.2463 1.9070 -0.8466 36.7860 -15.6508
# 6 6.0808 21.1299 0.4822 -2.7853 -15.6508 52.9713
#
#
#
# Elastic Compliance Matrix: (Units=1/GPa)
#
#
# Indices 1 2 3 4 5 6 
#
# 1 0.010890 -0.005141 -0.002363 0.002242 -0.005100 -0.000567
# 2 -0.005141 0.013246 -0.000440 0.001717 0.000468 -0.004461
# 3 -0.002363 -0.000440 0.018233 0.003556 0.000501 0.000616
# 4 0.002242 0.001717 0.003556 0.038731 0.000119 0.001097
# 5 -0.005100 0.000468 0.000501 0.000119 0.033972 0.010438
# 6 -0.000567 -0.004461 0.000616 0.001097 0.010438 0.023859
#
#
# Mechanical properties :
#
#
# Convention : Reuss Voigt Hill
#
# Bulk Modulus (GPa) = 37.76022 52.35674 45.05848
# Shear Modulus (GPa) = 30.55366 37.58143 34.06755
#
# Velocity S-wave (km/s) = 3.48337 3.86327 3.67823
# Velocity P-wave (km/s) = 5.58340 6.37906 5.99444
#
# Compressibility (1/GPa) = 0.02648289
#
# Stress axis : x y z
#
# Youngs Moduli (GPa) = 91.82346 75.49360 54.84503
#
# Poissons Ratio (x) = 0.38809 0.12958
# Poissons Ratio (y) = 0.47204 0.02413
# Poissons Ratio (z) = 0.21695 0.03322
#
# Static dielectric constant tensor:
#      x y z
#    x 1.978420 -0.057000 0.042790 
#    y -0.057000 2.031930 -0.008670 
#    z 0.042790 -0.008670 2.033420 
# 
# From -- ./inp_files/158843.got.cif
#   From: 2010.05.17/outbox.cif.g08.bks.cpg/sg2_80_cif.got.tgz:158843.got - 2010.06.03 11:33:40.
