data_PCOD9025195
_publ_section_title
;
Structure prediction by ZEFSAII (Michael W. Deem and Ramdas Pophale) SiO2 
 PCOD9025195
Probable space group: P -1
;
_chemical_formula_sum "Si O2"
_cell_formula_units_Z 14
_cell_length_a 8.010984
_cell_length_b 10.840543
_cell_length_c 8.880356
_cell_angle_alpha 107.572157
_cell_angle_beta 105.326198
_cell_angle_gamma 52.481479
_cell_volume 579.830299
_symmetry_space_group_name_H-M "P -1"
_symmetry_group_IT_number 2
_symmetry_cell_setting 'triclinic'
loop_
_space_group_symop_operation_xyz
x,y,z
-x,-y,-z
loop_
_atom_site_type_symbol
_atom_site_label
_atom_site_fract_x
_atom_site_fract_y
_atom_site_fract_z
Si Si1 0.246885 0.904366 0.488851
Si Si2 0.703986 0.401521 0.620208
Si Si3 0.584011 0.788299 0.060684
Si Si4 0.715197 0.473861 0.979058
Si Si5 0.848090 0.182773 0.069193
Si Si6 0.585470 0.868135 0.757032
Si Si7 0.928678 0.785912 0.591810
O O1 0.305276 0.742483 0.371600
O O2 0.394313 0.861426 0.651743
O O3 0.244567 0.035346 0.440828
O O4 0.000000 0.000000 0.500000
O O5 0.500000 0.500000 0.500000
O O6 0.704889 0.486616 0.800839
O O7 0.920287 0.327273 0.548267
O O8 0.741522 0.609533 0.095329
O O9 0.377288 0.789245 0.983968
O O10 0.650524 0.813342 0.923341
O O11 0.512150 0.943623 0.195784
O O12 0.500000 0.500000 0.000000
O O13 0.875840 0.293644 0.005576
O O14 0.908645 0.211878 0.256961
O O15 0.000000 0.000000 0.000000
O O16 0.781990 0.759677 0.651469
#
# Coordination Sequence:
#
# PCOD9025195 Si02
#       7
#     2   2   2   2   2   2   2
#     4  10  22  41  69  93 128 173 231 271 330 400
#     4  11  22  41  69  97 134 174 226 278 332 400
#     4  10  22  41  67  95 138 174 224 270 343 395
#     4  10  22  40  67  98 128 179 227 273 329 400
#     4  11  20  40  70  95 132 175 232 271 326 406
#     4  11  22  41  68 100 136 175 221 286 335 398
#     4  11  23  41  64 101 129 176 226 275 332 394
#
# _framework density 24.144992999999999
#
# number of rings (size 3 to 8) (size 9 to 14) (size 15 to 20)
#    0.000    1.429    1.429    5.571    2.000    1.143 
#    0.000    3.571    6.286    0.000    0.000    0.000 
#    0.000    0.000    0.000    0.000    0.000    0.000 
#
# Total GULP energy -78176.952575 kJ/mol
# GULP energy per Si atom -5584.068041 kJ/mol
# Density = 2.409004 g / cm^3
# Si number density = 24.144993 Si / 1000 Ang^3
#
#
#
# Elastic Constant Matrix: (Units=GPa)
#
#
# Indices 1 2 3 4 5 6 
#
# 1 100.6381 19.3294 30.9446 7.9563 -13.0098 -15.7092
# 2 19.3294 126.4418 6.6683 15.8548 -11.9920 17.0876
# 3 30.9446 6.6683 83.8595 15.1084 -15.0383 -6.4104
# 4 7.9563 15.8548 15.1084 35.5898 -0.8187 0.7528
# 5 -13.0098 -11.9920 -15.0383 -0.8187 47.2044 3.4743
# 6 -15.7092 17.0876 -6.4104 0.7528 3.4743 26.2767
#
#
#
# Elastic Compliance Matrix: (Units=1/GPa)
#
#
# Indices 1 2 3 4 5 6 
#
# 1 0.013140 -0.002851 -0.003724 -0.000245 0.001069 0.008667
# 2 -0.002851 0.010181 0.000789 -0.003996 0.002598 -0.008362
# 3 -0.003724 0.000789 0.015012 -0.005817 0.003813 0.000585
# 4 -0.000245 -0.003996 -0.005817 0.032338 -0.002406 0.000425
# 5 0.001069 0.002598 0.003813 -0.002406 0.023545 -0.003165
# 6 0.008667 -0.008362 0.000585 0.000425 -0.003165 0.049225
#
#
# Mechanical properties :
#
#
# Convention : Reuss Voigt Hill
#
# Bulk Modulus (GPa) = 37.36729 47.20268 42.28499
# Shear Modulus (GPa) = 30.50048 38.74733 34.62390
#
# Velocity S-wave (km/s) = 3.55804 4.01031 3.79093
# Velocity P-wave (km/s) = 5.69116 6.40590 6.05908
#
# Compressibility (1/GPa) = 0.02676137
#
# Stress axis : x y z
#
# Youngs Moduli (GPa) = 76.10581 98.22642 66.61135
#
# Poissons Ratio (x) = 0.28009 0.24803
# Poissons Ratio (y) = 0.21701 -0.05258
# Poissons Ratio (z) = 0.28338 -0.07754
#
# Static dielectric constant tensor:
#      x y z
#    x 1.957760 0.007330 -0.032810 
#    y 0.007330 2.148120 -0.019800 
#    z -0.032810 -0.019800 1.871620 
# 
# From -- ./inp_files/176002.got.cif
#   From: 2010.05.17/outbox.cif.g08.bks.cpg/sg2_89_cif.got.tgz:176002.got - 2010.06.03 11:33:40.
