data_PCOD9025240
_publ_section_title
;
Structure prediction by ZEFSAII (Michael W. Deem and Ramdas Pophale) SiO2 
 PCOD9025240
Probable space group: P -1
;
_chemical_formula_sum "Si O2"
_cell_formula_units_Z 16
_cell_length_a 12.641009
_cell_length_b 9.217848
_cell_length_c 15.391691
_cell_angle_alpha 150.961021
_cell_angle_beta 111.691416
_cell_angle_gamma 79.801106
_cell_volume 765.317921
_symmetry_space_group_name_H-M "P -1"
_symmetry_group_IT_number 2
_symmetry_cell_setting 'triclinic'
loop_
_space_group_symop_operation_xyz
x,y,z
-x,-y,-z
loop_
_atom_site_type_symbol
_atom_site_label
_atom_site_fract_x
_atom_site_fract_y
_atom_site_fract_z
Si Si1 0.357544 0.376197 0.385812
Si Si2 0.601502 0.659686 0.820554
Si Si3 0.031738 0.940923 0.880501
Si Si4 0.658431 0.313002 0.287120
Si Si5 0.167140 0.832090 0.128500
Si Si6 0.788799 0.417540 0.801086
Si Si7 0.077252 0.383792 0.532700
Si Si8 0.017865 0.807499 0.323841
O O1 0.500000 0.500000 0.500000
O O2 0.336186 0.318387 0.245445
O O3 0.325369 0.631482 0.573763
O O4 0.293173 0.038354 0.234051
O O5 0.459368 0.593016 0.725837
O O6 0.650597 0.397761 0.741770
O O7 0.638114 0.969054 0.057072
O O8 0.068062 0.627365 0.732400
O O9 0.913666 0.937050 0.787569
O O10 0.000000 0.000000 0.000000
O O11 0.136063 0.217258 0.008154
O O12 0.782265 0.538402 0.402893
O O13 0.183596 0.702977 0.160423
O O14 0.086331 0.522493 0.891484
O O15 0.851540 0.240399 0.660925
O O16 0.000000 0.500000 0.500000
O O17 0.016146 0.027706 0.356561
O O18 0.000000 0.000000 0.500000
#
# Coordination Sequence:
#
# PCOD9025240 Si02
#       8
#     2   2   2   2   2   2   2   2
#     4  10  22  43  69  96 125 174 231 279 329 402
#     4  10  22  42  70  97 130 179 232 281 330 410
#     4  11  21  36  64  93 127 178 228 268 329 406
#     4  10  22  40  68 101 129 168 237 285 326 388
#     4  11  23  42  62  96 138 174 214 289 346 399
#     4  11  21  41  62  95 137 178 220 279 354 398
#     4  12  22  38  62  97 126 171 226 268 333 413
#     4  11  25  38  59  97 139 172 213 273 345 402
#
# _framework density 20.906343
#
# number of rings (size 3 to 8) (size 9 to 14) (size 15 to 20)
#    0.000    1.250    1.250    6.750    1.750    1.000 
#    0.000    5.625    0.000    6.750    0.000    0.000 
#    0.000    0.000    0.000    0.000    0.000    0.000 
#
# Total GULP energy -89130.658849 kJ/mol
# GULP energy per Si atom -5570.666178 kJ/mol
# Density = 2.085876 g / cm^3
# Si number density = 20.906343 Si / 1000 Ang^3
#
#
#
# Elastic Constant Matrix: (Units=GPa)
#
#
# Indices 1 2 3 4 5 6 
#
# 1 129.2938 49.7648 58.9343 -5.4637 -6.8919 -7.9597
# 2 49.7648 107.0874 36.4654 -4.7294 -2.1637 -6.0576
# 3 58.9343 36.4654 102.7939 -4.6461 -14.7544 2.2079
# 4 -5.4637 -4.7294 -4.6461 36.6320 11.9222 -6.6561
# 5 -6.8919 -2.1637 -14.7544 11.9222 44.6753 2.5050
# 6 -7.9597 -6.0576 2.2079 -6.6561 2.5050 33.9190
#
#
#
# Elastic Compliance Matrix: (Units=1/GPa)
#
#
# Indices 1 2 3 4 5 6 
#
# 1 0.011810 -0.003342 -0.005692 0.001373 -0.000747 0.002870
# 2 -0.003342 0.011871 -0.002448 0.001470 -0.001246 0.001876
# 3 -0.005692 -0.002448 0.014492 -0.001336 0.004331 -0.003298
# 4 0.001373 0.001470 -0.001336 0.031861 -0.009087 0.007595
# 5 -0.000747 -0.001246 0.004331 -0.009087 0.026310 -0.004406
# 6 0.002870 0.001876 -0.003298 0.007595 -0.004406 0.032521
#
#
# Mechanical properties :
#
#
# Convention : Reuss Voigt Hill
#
# Bulk Modulus (GPa) = 65.75158 69.94489 67.84824
# Shear Modulus (GPa) = 31.86767 35.97930 33.92348
#
# Velocity S-wave (km/s) = 3.90847 4.15296 4.03257
# Velocity P-wave (km/s) = 7.20326 7.51832 7.36248
#
# Compressibility (1/GPa) = 0.01520876
#
# Stress axis : x y z
#
# Youngs Moduli (GPa) = 84.67256 84.24169 69.00302
#
# Poissons Ratio (x) = 0.28155 0.39279
# Poissons Ratio (y) = 0.28299 0.16889
# Poissons Ratio (z) = 0.48198 0.20619
#
# Static dielectric constant tensor:
#      x y z
#    x 1.809260 0.031720 -0.079320 
#    y 0.031720 1.788640 -0.086980 
#    z -0.079320 -0.086980 1.895860 
# 
# From -- ./inp_files/278239.got.cif
#   From: 2010.05.17/outbox.cif.g08.bks.cpg/sg2_140_cif.got.tgz:278239.got - 2010.06.03 11:33:40.
