data_PCOD9025079
_publ_section_title
;
Structure prediction by ZEFSAII (Michael W. Deem and Ramdas Pophale) SiO2 
 PCOD9025079
Probable space group: P -1
;
_chemical_formula_sum "Si O2"
_cell_formula_units_Z 15
_cell_length_a 12.705170
_cell_length_b 11.995750
_cell_length_c 8.604443
_cell_angle_alpha 89.679116
_cell_angle_beta 78.484650
_cell_angle_gamma 33.449451
_cell_volume 676.101538
_symmetry_space_group_name_H-M "P -1"
_symmetry_group_IT_number 2
_symmetry_cell_setting 'triclinic'
loop_
_space_group_symop_operation_xyz
x,y,z
-x,-y,-z
loop_
_atom_site_type_symbol
_atom_site_label
_atom_site_fract_x
_atom_site_fract_y
_atom_site_fract_z
Si Si1 0.000000 0.000000 0.000000
Si Si2 0.325330 0.432698 0.510851
Si Si3 0.198507 0.346978 0.345623
Si Si4 0.975587 0.260423 0.124034
Si Si5 0.455363 0.368921 0.920851
Si Si6 0.504956 0.122812 0.717653
Si Si7 0.262811 0.216909 0.007186
Si Si8 0.532460 0.409834 0.226651
O O1 0.063742 0.059820 0.072373
O O2 0.777809 0.195257 0.156561
O O3 0.280912 0.391117 0.380280
O O4 0.128128 0.630953 0.676128
O O5 0.471802 0.228757 0.578022
O O6 0.430933 0.448361 0.409058
O O7 0.164037 0.376257 0.171758
O O8 0.000000 0.500000 0.500000
O O9 0.342900 0.113740 0.344522
O O10 0.781885 0.436094 0.061054
O O11 0.137989 0.213260 0.036792
O O12 0.561555 0.161775 0.835559
O O13 0.533679 0.405415 0.796792
O O14 0.468141 0.394240 0.094431
O O15 0.292817 0.253092 0.835570
O O16 0.500000 0.000000 0.000000
#
# Coordination Sequence:
#
# PCOD9025079 Si02
#       8
#     1   2   2   2   2   2   2   2
#     4  10  24  38  70  94 122 168 234 260 328 404
#     4  11  23  41  66  92 139 169 218 278 331 387
#     4  11  22  40  62 101 131 172 214 274 331 386
#     4  10  22  42  63 100 127 173 222 274 321 398
#     4   9  21  41  66  94 130 171 229 265 322 403
#     4  10  23  39  63  95 129 182 211 269 324 394
#     4  10  22  40  67  91 131 180 217 266 327 395
#     4  10  22  43  68  94 128 178 219 277 333 383
#
# _framework density 22.186017
#
# number of rings (size 3 to 8) (size 9 to 14) (size 15 to 20)
#    0.000    1.867    1.333    1.200    7.467    6.933 
#    2.400    4.000    0.000   11.200    0.000    0.000 
#    0.000    0.000    0.000    0.000    0.000    0.000 
#
# Total GULP energy -83503.086189 kJ/mol
# GULP energy per Si atom -5566.872413 kJ/mol
# Density = 2.213552 g / cm^3
# Si number density = 22.186017 Si / 1000 Ang^3
#
#
#
# Elastic Constant Matrix: (Units=GPa)
#
#
# Indices 1 2 3 4 5 6 
#
# 1 181.9769 25.2938 61.4407 0.1627 -10.1342 16.5640
# 2 25.2938 47.6013 39.5873 4.6308 -15.4035 14.7206
# 3 61.4407 39.5873 118.0347 -1.1852 -35.3607 18.5156
# 4 0.1627 4.6308 -1.1852 35.9274 11.7877 7.7610
# 5 -10.1342 -15.4035 -35.3607 11.7877 43.6214 -2.0448
# 6 16.5640 14.7206 18.5156 7.7610 -2.0448 39.5608
#
#
#
# Elastic Compliance Matrix: (Units=1/GPa)
#
#
# Indices 1 2 3 4 5 6 
#
# 1 0.006854 -0.001009 -0.003658 0.000867 -0.002013 -0.001056
# 2 -0.001009 0.032327 -0.007450 -0.004954 0.006160 -0.006829
# 3 -0.003658 -0.007450 0.016217 -0.001174 0.009864 -0.002546
# 4 0.000867 -0.004954 -0.001174 0.033398 -0.011766 -0.005130
# 5 -0.002013 0.006160 0.009864 -0.011766 0.035718 -0.001912
# 6 -0.001056 -0.006829 -0.002546 -0.005130 -0.001912 0.030360
#
#
# Mechanical properties :
#
#
# Convention : Reuss Voigt Hill
#
# Bulk Modulus (GPa) = 32.08739 66.69516 49.39128
# Shear Modulus (GPa) = 26.38585 38.57465 32.48025
#
# Velocity S-wave (km/s) = 3.45237 4.17429 3.83037
# Velocity P-wave (km/s) = 5.51235 7.30479 6.47094
#
# Compressibility (1/GPa) = 0.03116489
#
# Stress axis : x y z
#
# Youngs Moduli (GPa) = 145.90670 30.93406 61.66275
#
# Poissons Ratio (x) = 0.03121 0.22555
# Poissons Ratio (y) = 0.14720 0.45937
# Poissons Ratio (z) = 0.53370 0.23045
#
# Static dielectric constant tensor:
#      x y z
#    x 1.873090 -0.055610 -0.018020 
#    y -0.055610 1.921220 -0.027470 
#    z -0.018020 -0.027470 1.814750 
# 
# From -- ./inp_files/258481.got.cif
#   From: 2010.05.17/outbox.cif.g08.bks.cpg/sg2_130_cif.got.tgz:258481.got - 2010.06.03 11:33:40.
