data_PCOD9025051
_publ_section_title
;
Structure prediction by ZEFSAII (Michael W. Deem and Ramdas Pophale) SiO2 
 PCOD9025051
Probable space group: P -1
;
_chemical_formula_sum "Si O2"
_cell_formula_units_Z 13
_cell_length_a 6.575108
_cell_length_b 8.527379
_cell_length_c 10.099618
_cell_angle_alpha 107.277044
_cell_angle_beta 108.876155
_cell_angle_gamma 81.135935
_cell_volume 510.584283
_symmetry_space_group_name_H-M "P -1"
_symmetry_group_IT_number 2
_symmetry_cell_setting 'triclinic'
loop_
_space_group_symop_operation_xyz
x,y,z
-x,-y,-z
loop_
_atom_site_type_symbol
_atom_site_label
_atom_site_fract_x
_atom_site_fract_y
_atom_site_fract_z
Si Si1 0.428397 0.345789 0.631521
Si Si2 0.860489 0.618737 0.160041
Si Si3 0.458072 0.037205 0.152582
Si Si4 0.000000 0.500000 0.500000
Si Si5 0.911709 0.120220 0.392744
Si Si6 0.218366 0.883700 0.272208
Si Si7 0.239741 0.389028 0.168393
O O1 0.299696 0.338246 0.743331
O O2 0.585263 0.181673 0.606571
O O3 0.587733 0.490015 0.715090
O O4 0.239994 0.404870 0.508771
O O5 0.033622 0.755530 0.210323
O O6 0.005012 0.453750 0.189575
O O7 0.763896 0.592939 0.988775
O O8 0.682324 0.065542 0.280160
O O9 0.312037 0.204910 0.168722
O O10 0.331673 0.893527 0.157006
O O11 0.500000 0.000000 0.000000
O O12 0.904134 0.314838 0.462673
O O13 0.000000 0.000000 0.500000
O O14 0.098159 0.060011 0.314086
#
# Coordination Sequence:
#
# PCOD9025051 Si02
#       7
#     2   2   2   1   2   2   2
#     4  11  23  46  68 101 143 190 245 307 365 442
#     4  10  22  42  70 103 144 186 239 304 376 445
#     4  12  26  45  74 112 152 195 249 313 380 452
#     4  12  26  46  76 104 142 202 254 306 372 448
#     4  12  28  52  75 111 157 201 258 317 377 457
#     4  11  25  46  74 108 149 197 241 311 388 445
#     4  10  22  40  67 105 138 190 237 299 374 446
#
# _framework density 25.461027000000001
#
# number of rings (size 3 to 8) (size 9 to 14) (size 15 to 20)
#    0.000    0.923    1.538    5.077    2.154    7.385 
#    0.000    3.077    0.000    0.000    0.000    0.000 
#    0.000    0.000    0.000    0.000    0.000    0.000 
#
# Total GULP energy -72584.063004 kJ/mol
# GULP energy per Si atom -5583.389462 kJ/mol
# Density = 2.540308 g / cm^3
# Si number density = 25.461027 Si / 1000 Ang^3
#
#
#
# Elastic Constant Matrix: (Units=GPa)
#
#
# Indices 1 2 3 4 5 6 
#
# 1 100.2332 29.4163 10.2273 -5.5066 -9.4282 -1.3728
# 2 29.4163 116.1024 3.8420 10.9806 -7.4955 -10.3682
# 3 10.2273 3.8420 64.0720 -2.1683 8.8168 14.4363
# 4 -5.5066 10.9806 -2.1683 33.2685 -6.1061 -1.6296
# 5 -9.4282 -7.4955 8.8168 -6.1061 36.5578 -9.1184
# 6 -1.3728 -10.3682 14.4363 -1.6296 -9.1184 59.2828
#
#
#
# Elastic Compliance Matrix: (Units=1/GPa)
#
#
# Indices 1 2 3 4 5 6 
#
# 1 0.011613 -0.002857 -0.002316 0.003461 0.003798 0.001013
# 2 -0.002857 0.009970 -0.000917 -0.003456 0.001457 0.002030
# 3 -0.002316 -0.000917 0.018217 -0.000395 -0.006663 -0.005686
# 4 0.003461 -0.003456 -0.000395 0.032942 0.006136 0.001421
# 5 0.003798 0.001457 -0.006663 0.006136 0.033065 0.007220
# 6 0.001013 0.002030 -0.005686 0.001421 0.007220 0.019781
#
#
# Mechanical properties :
#
#
# Convention : Reuss Voigt Hill
#
# Bulk Modulus (GPa) = 36.20663 40.81988 38.51326
# Shear Modulus (GPa) = 34.01983 41.61662 37.81823
#
# Velocity S-wave (km/s) = 3.65931 4.04731 3.85819
# Velocity P-wave (km/s) = 5.66616 6.15695 5.91665
#
# Compressibility (1/GPa) = 0.02761925
#
# Stress axis : x y z
#
# Youngs Moduli (GPa) = 86.11108 100.30497 54.89499
#
# Poissons Ratio (x) = 0.28661 0.12714
# Poissons Ratio (y) = 0.24605 0.05031
# Poissons Ratio (z) = 0.19944 0.09193
#
# Static dielectric constant tensor:
#      x y z
#    x 2.033680 -0.029050 -0.104250 
#    y -0.029050 1.993790 -0.041920 
#    z -0.104250 -0.041920 2.145520 
# 
# From -- ./inp_files/360466.got.cif
#   From: 2010.05.17/outbox.cif.g08.bks.cpg/sg2_181_cif.got.tgz:360466.got - 2010.06.03 11:33:40.
