data_PCOD9025515
_publ_section_title
;
Structure prediction by ZEFSAII (Michael W. Deem and Ramdas Pophale) SiO2 
 PCOD9025515
Probable space group: P -1
;
_chemical_formula_sum "Si O2"
_cell_formula_units_Z 16
_cell_length_a 11.464666
_cell_length_b 9.360888
_cell_length_c 8.219143
_cell_angle_alpha 67.491377
_cell_angle_beta 69.370156
_cell_angle_gamma 47.681274
_cell_volume 596.725657
_symmetry_space_group_name_H-M "P -1"
_symmetry_group_IT_number 2
_symmetry_cell_setting 'triclinic'
loop_
_space_group_symop_operation_xyz
x,y,z
-x,-y,-z
loop_
_atom_site_type_symbol
_atom_site_label
_atom_site_fract_x
_atom_site_fract_y
_atom_site_fract_z
Si Si1 0.278625 0.086939 0.727025
Si Si2 0.182235 0.910580 0.651228
Si Si3 0.693259 0.430564 0.523375
Si Si4 0.827256 0.579573 0.603372
Si Si5 0.437549 0.658446 0.103123
Si Si6 0.914963 0.918022 0.941796
Si Si7 0.816402 0.836407 0.713995
Si Si8 0.448929 0.197180 0.795779
O O1 0.285717 0.211701 0.531031
O O2 0.366375 0.098290 0.832435
O O3 0.318788 0.894731 0.697790
O O4 0.105601 0.173034 0.848855
O O5 0.226733 0.752145 0.560028
O O6 0.117306 0.104396 0.489695
O O7 0.061348 0.918722 0.831620
O O8 0.789028 0.440248 0.619742
O O9 0.564156 0.435969 0.686593
O O10 0.633704 0.617665 0.363619
O O11 0.816570 0.654785 0.756066
O O12 0.000000 0.500000 0.500000
O O13 0.254962 0.858087 0.080345
O O14 0.548665 0.719495 0.066521
O O15 0.500000 0.500000 0.000000
O O16 0.913522 0.804124 0.839049
O O17 0.634600 0.030660 0.738523
#
# Coordination Sequence:
#
# PCOD9025515 Si02
#       8
#     2   2   2   2   2   2   2   2
#     4  10  25  41  67  93 136 176 211 274 322 394
#     4  11  22  41  68  96 127 181 219 262 327 388
#     4  11  23  42  68  99 129 170 223 275 312 395
#     4  10  23  41  65  95 128 171 221 265 325 390
#     4  11  26  40  67 100 132 171 210 285 328 377
#     4  11  23  42  66  98 134 168 224 267 331 392
#     4  10  22  40  69  93 127 182 214 273 318 395
#     4  10  23  46  64  98 131 174 229 254 332 387
#
# _framework density 26.812988000000001
#
# number of rings (size 3 to 8) (size 9 to 14) (size 15 to 20)
#    0.000    1.500    2.500    1.875    5.250    9.500 
#    0.000    5.625    0.000    0.000    0.000    0.000 
#    0.000    0.000    0.000    0.000    0.000    0.000 
#
# Total GULP energy -89361.909191 kJ/mol
# GULP energy per Si atom -5585.119324 kJ/mol
# Density = 2.675196 g / cm^3
# Si number density = 26.812988 Si / 1000 Ang^3
#
#
#
# Elastic Constant Matrix: (Units=GPa)
#
#
# Indices 1 2 3 4 5 6 
#
# 1 170.5899 61.2080 -1.5856 17.7369 -7.7947 80.3992
# 2 61.2080 137.4679 13.5736 23.4800 9.2828 51.8202
# 3 -1.5856 13.5736 96.5636 2.3883 -11.5323 18.1362
# 4 17.7369 23.4800 2.3883 39.4725 1.0818 13.7981
# 5 -7.7947 9.2828 -11.5323 1.0818 37.5103 6.4572
# 6 80.3992 51.8202 18.1362 13.7981 6.4572 58.6641
#
#
#
# Elastic Compliance Matrix: (Units=1/GPa)
#
#
# Indices 1 2 3 4 5 6 
#
# 1 0.025190 0.002281 0.009588 0.000779 0.014706 -0.041305
# 2 0.002281 0.011597 0.000934 -0.003490 0.000206 -0.012861
# 3 0.009588 0.000934 0.015295 0.000931 0.009880 -0.020000
# 4 0.000779 -0.003490 0.000931 0.028781 0.001376 -0.005194
# 5 0.014706 0.000206 0.009880 0.001376 0.037454 -0.027836
# 6 -0.041305 -0.012861 -0.020000 -0.005194 -0.027836 0.095484
#
#
# Mechanical properties :
#
#
# Convention : Reuss Voigt Hill
#
# Bulk Modulus (GPa) = 12.87202 61.22372 37.04787
# Shear Modulus (GPa) = 23.35449 49.22441 36.28945
#
# Velocity S-wave (km/s) = 2.95450 4.28932 3.68289
# Velocity P-wave (km/s) = 4.05584 6.88580 5.65084
#
# Compressibility (1/GPa) = 0.07768789
#
# Stress axis : x y z
#
# Youngs Moduli (GPa) = 39.69760 86.23148 65.38004
#
# Poissons Ratio (x) = -0.19673 -0.62684
# Poissons Ratio (y) = -0.09057 -0.06105
# Poissons Ratio (z) = -0.38061 -0.08052
#
# Static dielectric constant tensor:
#      x y z
#    x 2.185400 0.014480 0.067380 
#    y 0.014480 2.130520 0.002260 
#    z 0.067380 0.002260 2.148460 
# 
# From -- ./inp_files/242891.got.cif
#   From: 2010.05.17/outbox.cif.g08.bks.cpg/sg2_122_cif.got.tgz:242891.got - 2010.06.03 11:33:40.
