data_PCOD9025112
_publ_section_title
;
Structure prediction by ZEFSAII (Michael W. Deem and Ramdas Pophale) SiO2 
 PCOD9025112
Probable space group: P -1
;
_chemical_formula_sum "Si O2"
_cell_formula_units_Z 16
_cell_length_a 11.665478
_cell_length_b 9.097171
_cell_length_c 12.838432
_cell_angle_alpha 78.177252
_cell_angle_beta 53.661821
_cell_angle_gamma 44.716749
_cell_volume 713.827538
_symmetry_space_group_name_H-M "P -1"
_symmetry_group_IT_number 2
_symmetry_cell_setting 'triclinic'
loop_
_space_group_symop_operation_xyz
x,y,z
-x,-y,-z
loop_
_atom_site_type_symbol
_atom_site_label
_atom_site_fract_x
_atom_site_fract_y
_atom_site_fract_z
Si Si1 0.437176 0.910229 0.254969
Si Si2 0.255660 0.579776 0.843076
Si Si3 0.282165 0.527286 0.586337
Si Si4 0.384611 0.700144 0.902019
Si Si5 0.255443 0.887750 0.547702
Si Si6 0.824026 0.351653 0.806885
Si Si7 0.799743 0.830117 0.039816
Si Si8 0.871819 0.662046 0.790380
O O1 0.544479 0.674633 0.185713
O O2 0.295473 0.970389 0.419277
O O3 0.645099 0.843771 0.186209
O O4 0.306559 0.109991 0.214084
O O5 0.262098 0.564904 0.717183
O O6 0.282998 0.727535 0.844403
O O7 0.033117 0.679844 0.981884
O O8 0.242032 0.726455 0.536252
O O9 0.526393 0.282625 0.476407
O O10 0.100694 0.552493 0.650868
O O11 0.640974 0.493791 0.795785
O O12 0.311769 0.920891 0.944738
O O13 0.283404 0.658912 0.041403
O O14 0.042093 0.101366 0.690826
O O15 0.861714 0.493711 0.798634
O O16 0.828399 0.736160 0.923690
#
# Coordination Sequence:
#
# PCOD9025112 Si02
#       8
#     2   2   2   2   2   2   2   2
#     4  11  23  39  65  97 126 169 208 256 315 383
#     4  10  22  40  67  94 122 164 215 261 313 368
#     4   9  22  46  67  92 124 167 209 260 315 378
#     4  11  24  40  67  96 126 164 214 262 316 364
#     4  10  23  45  63  92 131 165 213 252 318 379
#     4  11  24  41  64  97 130 164 207 267 311 371
#     4  11  22  42  65  95 132 162 210 265 311 372
#     4  11  23  41  68  94 127 166 211 263 315 363
#
# _framework density 22.414379
#
# number of rings (size 3 to 8) (size 9 to 14) (size 15 to 20)
#    0.000    1.500    1.250    3.375    5.250    3.500 
#    4.500    0.000    0.000    0.000    0.000    0.000 
#    0.000    0.000    0.000    0.000    0.000    0.000 
#
# Total GULP energy -89518.756673 kJ/mol
# GULP energy per Si atom -5594.922292 kJ/mol
# Density = 2.236336 g / cm^3
# Si number density = 22.414379 Si / 1000 Ang^3
#
#
#
# Elastic Constant Matrix: (Units=GPa)
#
#
# Indices 1 2 3 4 5 6 
#
# 1 107.6284 35.2255 45.7368 10.6342 -26.7571 16.1771
# 2 35.2255 103.8344 38.2454 9.1173 -12.3566 10.7550
# 3 45.7368 38.2454 102.4357 12.5518 -35.7083 0.2457
# 4 10.6342 9.1173 12.5518 44.5620 -2.5044 -12.2055
# 5 -26.7571 -12.3566 -35.7083 -2.5044 30.1927 -6.0271
# 6 16.1771 10.7550 0.2457 -12.2055 -6.0271 31.8433
#
#
#
# Elastic Compliance Matrix: (Units=1/GPa)
#
#
# Indices 1 2 3 4 5 6 
#
# 1 0.014159 -0.001982 -0.002712 -0.003624 0.006915 -0.006583
# 2 -0.001982 0.012250 -0.004515 -0.002181 -0.003168 -0.004531
# 3 -0.002712 -0.004515 0.019912 -0.001204 0.020428 0.006154
# 4 -0.003624 -0.002181 -0.001204 0.027632 -0.000630 0.013059
# 5 0.006915 -0.003168 0.020428 -0.000630 0.063907 0.009254
# 6 -0.006583 -0.004531 0.006154 0.013059 0.009254 0.042988
#
#
# Mechanical properties :
#
#
# Convention : Reuss Voigt Hill
#
# Bulk Modulus (GPa) = 35.83651 61.36821 48.60236
# Shear Modulus (GPa) = 23.97316 34.29898 29.13607
#
# Velocity S-wave (km/s) = 3.27394 3.91605 3.60930
# Velocity P-wave (km/s) = 5.50585 6.91994 6.25300
#
# Compressibility (1/GPa) = 0.02790451
#
# Stress axis : x y z
#
# Youngs Moduli (GPa) = 70.62795 81.63361 50.21980
#
# Poissons Ratio (x) = 0.16176 0.13617
# Poissons Ratio (y) = 0.13995 0.22675
# Poissons Ratio (z) = 0.19151 0.36859
#
# Static dielectric constant tensor:
#      x y z
#    x 1.854210 -0.023850 0.001480 
#    y -0.023850 1.838980 -0.011270 
#    z 0.001480 -0.011270 1.831430 
# 
# From -- ./inp_files/515517.got.cif
#   From: 2010.05.17/outbox.cif.g08.bks.cpg/sg2_258_cif.got.tgz:515517.got - 2010.06.03 11:33:40.
