data_PCOD9025342
_publ_section_title
;
Structure prediction by ZEFSAII (Michael W. Deem and Ramdas Pophale) SiO2 
 PCOD9025342
Probable space group: P -1
;
_chemical_formula_sum "Si O2"
_cell_formula_units_Z 10
_cell_length_a 15.130683
_cell_length_b 11.712696
_cell_length_c 10.061698
_cell_angle_alpha 61.613736
_cell_angle_beta 120.946333
_cell_angle_gamma 162.898448
_cell_volume 448.803814
_symmetry_space_group_name_H-M "P -1"
_symmetry_group_IT_number 2
_symmetry_cell_setting 'triclinic'
loop_
_space_group_symop_operation_xyz
x,y,z
-x,-y,-z
loop_
_atom_site_type_symbol
_atom_site_label
_atom_site_fract_x
_atom_site_fract_y
_atom_site_fract_z
Si Si1 0.694446 0.106418 0.635779
Si Si2 0.228472 0.884567 0.019340
Si Si3 0.756886 0.558462 0.839049
Si Si4 0.868317 0.921160 0.567766
Si Si5 0.744845 0.054428 0.434889
O O1 0.662038 0.959343 0.578853
O O2 0.050167 0.577162 0.644614
O O3 0.500000 0.000000 0.500000
O O4 0.630417 0.989462 0.800362
O O5 0.014457 0.755942 0.944481
O O6 0.501748 0.243672 0.930350
O O7 0.000000 0.500000 0.000000
O O8 0.909013 0.880030 0.751901
O O9 0.557591 0.297395 0.695050
O O10 0.500000 0.500000 0.500000
O O11 0.950014 0.169692 0.501255
O O12 0.000000 0.000000 0.500000
#
# Coordination Sequence:
#
# PCOD9025342 Si02
#       5
#     2   2   2   2   2
#     4  11  25  40  65  93 133 170 214 262 325 385
#     4  12  24  40  65  94 132 166 211 269 319 376
#     4  11  23  42  66  97 124 165 219 264 319 373
#     4  10  22  40  68  95 126 167 218 264 311 382
#     4  10  23  41  65  95 126 171 216 265 316 381
#
# _framework density 22.281448999999999
#
# number of rings (size 3 to 8) (size 9 to 14) (size 15 to 20)
#    0.000    1.200    2.000    4.200   11.200    0.000 
#    0.000    2.000    0.000    0.000    0.000    0.000 
#    0.000    0.000    0.000    0.000    0.000    0.000 
#
# Total GULP energy -55909.889517 kJ/mol
# GULP energy per Si atom -5590.988952 kJ/mol
# Density = 2.223074 g / cm^3
# Si number density = 22.281449 Si / 1000 Ang^3
#
#
#
# Elastic Constant Matrix: (Units=GPa)
#
#
# Indices 1 2 3 4 5 6 
#
# 1 110.5330 23.0297 40.3451 5.0849 -4.2389 28.8801
# 2 23.0297 54.4508 30.1902 -11.9216 -7.1294 22.6681
# 3 40.3451 30.1902 156.5333 -5.1747 -12.5741 9.5006
# 4 5.0849 -11.9216 -5.1747 36.2942 10.9359 -4.5693
# 5 -4.2389 -7.1294 -12.5741 10.9359 49.4003 2.3381
# 6 28.8801 22.6681 9.5006 -4.5693 2.3381 39.8609
#
#
#
# Elastic Compliance Matrix: (Units=1/GPa)
#
#
# Indices 1 2 3 4 5 6 
#
# 1 0.012674 -0.001080 -0.002548 -0.004042 0.001581 -0.008517
# 2 -0.001080 0.028530 -0.003988 0.006539 0.002219 -0.013872
# 3 -0.002548 -0.003988 0.007768 0.000116 0.001053 0.002214
# 4 -0.004042 0.006539 0.000116 0.032746 -0.006780 0.003334
# 5 0.001581 0.002219 0.001053 -0.006780 0.022693 -0.004767
# 6 -0.008517 -0.013872 0.002214 0.003334 -0.004767 0.039281
#
#
# Mechanical properties :
#
#
# Convention : Reuss Voigt Hill
#
# Bulk Modulus (GPa) = 29.63744 56.51634 43.07689
# Shear Modulus (GPa) = 29.38203 40.30788 34.84495
#
# Velocity S-wave (km/s) = 3.63530 4.25789 3.95885
# Velocity P-wave (km/s) = 5.56334 7.04220 6.34600
#
# Compressibility (1/GPa) = 0.03374111
#
# Stress axis : x y z
#
# Youngs Moduli (GPa) = 78.90078 35.05045 128.72817
#
# Poissons Ratio (x) = 0.03785 0.32801
# Poissons Ratio (y) = 0.08521 0.51335
# Poissons Ratio (z) = 0.20104 0.13978
#
# Static dielectric constant tensor:
#      x y z
#    x 1.869470 -0.086800 0.000430 
#    y -0.086800 1.972110 -0.048280 
#    z 0.000430 -0.048280 1.819410 
# 
# From -- ./inp_files/18089.got.cif
#   From: 2010.05.17/outbox.cif.g08.bks.cpg/sg2_10_cif.got.tgz:18089.got - 2010.06.03 11:33:40.
