data_PCOD9025598
_publ_section_title
;
Structure prediction by ZEFSAII (Michael W. Deem and Ramdas Pophale) SiO2 
 PCOD9025598
Probable space group: P -1
;
_chemical_formula_sum "Si O2"
_cell_formula_units_Z 15
_cell_length_a 11.301566
_cell_length_b 8.551573
_cell_length_c 19.722161
_cell_angle_alpha 36.816357
_cell_angle_beta 142.431363
_cell_angle_gamma 142.473939
_cell_volume 627.450822
_symmetry_space_group_name_H-M "P -1"
_symmetry_group_IT_number 2
_symmetry_cell_setting 'triclinic'
loop_
_space_group_symop_operation_xyz
x,y,z
-x,-y,-z
loop_
_atom_site_type_symbol
_atom_site_label
_atom_site_fract_x
_atom_site_fract_y
_atom_site_fract_z
Si Si1 0.866082 0.806726 0.240801
Si Si2 0.112739 0.593393 0.943995
Si Si3 0.352111 0.759540 0.185318
Si Si4 0.458914 0.162135 0.611386
Si Si5 0.322223 0.889871 0.398723
Si Si6 0.241160 0.315195 0.619690
Si Si7 0.478072 0.362053 0.963047
Si Si8 0.000000 0.000000 0.500000
O O1 0.842457 0.655678 0.355041
O O2 0.118561 0.958194 0.285175
O O3 0.796665 0.061720 0.137057
O O4 0.712791 0.625055 0.173699
O O5 0.304420 0.527409 0.022773
O O6 0.899406 0.444777 0.853521
O O7 0.000000 0.500000 0.000000
O O8 0.430997 0.859222 0.262103
O O9 0.507040 0.612191 0.284106
O O10 0.400647 0.024216 0.064810
O O11 0.500000 0.500000 0.500000
O O12 0.553867 0.039308 0.639102
O O13 0.205393 0.995269 0.558037
O O14 0.218349 0.539625 0.478829
O O15 0.500000 0.000000 0.500000
O O16 0.119214 0.021300 0.624167
O O17 0.500000 0.500000 0.000000
#
# Coordination Sequence:
#
# PCOD9025598 Si02
#       8
#     2   2   2   2   2   2   2   1
#     4  12  26  45  74 106 148 191 242 301 367 436
#     4  12  25  47  80  99 142 195 249 296 363 437
#     4  11  24  44  76 103 139 186 243 295 358 438
#     4  11  24  43  70 103 143 186 243 283 362 434
#     4  12  26  44  69 112 148 184 239 299 359 438
#     4  11  23  44  73 106 144 191 237 293 368 438
#     4  12  29  49  72 109 146 191 249 309 369 424
#     4  10  22  40  70 100 138 184 240 286 354 420
#
# _framework density 23.906255999999999
#
# number of rings (size 3 to 8) (size 9 to 14) (size 15 to 20)
#    0.000    0.533    5.333    3.200    3.733    4.800 
#    0.000    0.000    0.000    0.000    0.000    0.000 
#    0.000    0.000    0.000    0.000    0.000    0.000 
#
# Total GULP energy -83584.737391 kJ/mol
# GULP energy per Si atom -5572.315826 kJ/mol
# Density = 2.385184 g / cm^3
# Si number density = 23.906256 Si / 1000 Ang^3
#
#
#
# Elastic Constant Matrix: (Units=GPa)
#
#
# Indices 1 2 3 4 5 6 
#
# 1 192.1549 30.3851 50.6268 45.5800 11.0206 -4.4369
# 2 30.3851 51.3033 27.4063 32.2783 8.4305 7.9715
# 3 50.6268 27.4063 96.7462 37.3630 3.3832 0.5330
# 4 45.5800 32.2783 37.3630 62.1184 7.3550 -0.8470
# 5 11.0206 8.4305 3.3832 7.3550 42.8300 -0.5314
# 6 -4.4369 7.9715 0.5330 -0.8470 -0.5314 22.4208
#
#
#
# Elastic Compliance Matrix: (Units=1/GPa)
#
#
# Indices 1 2 3 4 5 6 
#
# 1 0.006711 -0.001130 -0.002010 -0.003010 -0.000808 0.001645
# 2 -0.001130 0.033492 -0.003125 -0.014426 -0.003735 -0.012691
# 3 -0.002010 -0.003125 0.014439 -0.005699 0.000973 0.000178
# 4 -0.003010 -0.014426 -0.005699 0.029418 -0.000916 0.005758
# 5 -0.000808 -0.003735 0.000973 -0.000916 0.024393 0.001688
# 6 0.001645 -0.012691 0.000178 0.005758 0.001688 0.049692
#
#
# Mechanical properties :
#
#
# Convention : Reuss Voigt Hill
#
# Bulk Modulus (GPa) = 23.74561 61.89341 42.81951
# Shear Modulus (GPa) = 27.06920 40.92623 33.99771
#
# Velocity S-wave (km/s) = 3.36863 4.14206 3.77520
# Velocity P-wave (km/s) = 5.00845 6.98726 6.07891
#
# Compressibility (1/GPa) = 0.04211304
#
# Stress axis : x y z
#
# Youngs Moduli (GPa) = 149.01725 29.85772 69.25517
#
# Poissons Ratio (x) = 0.03373 0.13920
# Poissons Ratio (y) = 0.16835 0.21641
# Poissons Ratio (z) = 0.29953 0.09330
#
# Static dielectric constant tensor:
#      x y z
#    x 1.941900 -0.076350 0.023170 
#    y -0.076350 2.143460 -0.079470 
#    z 0.023170 -0.079470 1.986730 
# 
# From -- ./inp_files/593430.got.cif
#   From: 2010.05.17/outbox.cif.g08.bks.cpg/sg2_297_cif.got.tgz:593430.got - 2010.06.03 11:33:40.
