data_PCOD9025779
_publ_section_title
;
Structure prediction by ZEFSAII (Michael W. Deem and Ramdas Pophale) SiO2 
 PCOD9025779
Probable space group: P -1
;
_chemical_formula_sum "Si O2"
_cell_formula_units_Z 14
_cell_length_a 17.080198
_cell_length_b 22.455956
_cell_length_c 7.465573
_cell_angle_alpha 111.522952
_cell_angle_beta 76.742316
_cell_angle_gamma 164.601576
_cell_volume 611.110137
_symmetry_space_group_name_H-M "P -1"
_symmetry_group_IT_number 2
_symmetry_cell_setting 'triclinic'
loop_
_space_group_symop_operation_xyz
x,y,z
-x,-y,-z
loop_
_atom_site_type_symbol
_atom_site_label
_atom_site_fract_x
_atom_site_fract_y
_atom_site_fract_z
Si Si1 0.329859 0.569951 0.730756
Si Si2 0.553451 0.469902 0.274059
Si Si3 0.846492 0.448366 0.579575
Si Si4 0.113828 0.244757 0.224062
Si Si5 0.385643 0.731539 0.101086
Si Si6 0.849947 0.043746 0.761598
Si Si7 0.326960 0.915212 0.636725
O O1 0.434636 0.596440 0.844527
O O2 0.965574 0.269068 0.510963
O O3 0.635775 0.817599 0.702406
O O4 0.240498 0.572206 0.851437
O O5 0.224371 0.256219 0.159301
O O6 0.613244 0.519497 0.513056
O O7 0.868211 0.745749 0.306759
O O8 0.809069 0.423084 0.782938
O O9 0.000000 0.500000 0.500000
O O10 0.107817 0.705049 0.660176
O O11 0.466113 0.159760 0.374924
O O12 0.747780 0.975031 0.204117
O O13 0.055426 0.227069 0.033986
O O14 0.429946 0.840406 0.147777
O O15 0.500000 0.000000 0.500000
#
# Coordination Sequence:
#
# PCOD9025779 Si02
#       7
#     2   2   2   2   2   2   2
#     4  10  24  41  66  98 129 176 219 266 335 393
#     4  11  21  44  68  97 141 171 216 277 326 389
#     4  11  22  41  67  94 127 179 222 267 337 389
#     4  10  22  40  71  98 132 179 216 270 333 387
#     4  11  22  43  64  95 132 168 221 270 323 397
#     4  10  22  41  65  97 133 169 223 271 321 400
#     4  11  22  41  64  87 131 168 215 280 321 381
#
# _framework density 22.909127999999999
#
# number of rings (size 3 to 8) (size 9 to 14) (size 15 to 20)
#    0.000    1.429    4.286    0.429    0.000    5.143 
#    2.571    5.000    0.000    0.000    0.000    0.000 
#    0.000    0.000    0.000    0.000    0.000    0.000 
#
# Total GULP energy -78046.669267 kJ/mol
# GULP energy per Si atom -5574.762091 kJ/mol
# Density = 2.285699 g / cm^3
# Si number density = 22.909128 Si / 1000 Ang^3
#
#
#
# Elastic Constant Matrix: (Units=GPa)
#
#
# Indices 1 2 3 4 5 6 
#
# 1 118.3698 60.8894 19.0324 0.5317 -11.9122 5.0887
# 2 60.8894 125.8035 22.0400 -12.1803 1.5195 1.6557
# 3 19.0324 22.0400 79.4707 2.8312 3.2064 -11.7120
# 4 0.5317 -12.1803 2.8312 29.7724 7.1841 8.8427
# 5 -11.9122 1.5195 3.2064 7.1841 34.8383 0.1706
# 6 5.0887 1.6557 -11.7120 8.8427 0.1706 23.8039
#
#
#
# Elastic Compliance Matrix: (Units=1/GPa)
#
#
# Indices 1 2 3 4 5 6 
#
# 1 0.012503 -0.006119 -0.001674 -0.003309 0.005387 -0.001880
# 2 -0.006119 0.012148 -0.002515 0.007278 -0.003874 -0.003450
# 3 -0.001674 -0.002515 0.015385 -0.005245 -0.000846 0.010057
# 4 -0.003309 0.007278 -0.005245 0.045266 -0.010207 -0.019122
# 5 0.005387 -0.003874 -0.000846 -0.010207 0.032887 0.002257
# 6 -0.001880 -0.003450 0.010057 -0.019122 0.002257 0.054687
#
#
# Mechanical properties :
#
#
# Convention : Reuss Voigt Hill
#
# Bulk Modulus (GPa) = 51.49376 58.61861 55.05618
# Shear Modulus (GPa) = 25.00453 32.46174 28.73314
#
# Velocity S-wave (km/s) = 3.30732 3.76836 3.54534
# Velocity P-wave (km/s) = 6.09185 6.67661 6.39092
#
# Compressibility (1/GPa) = 0.01941983
#
# Stress axis : x y z
#
# Youngs Moduli (GPa) = 79.98361 82.31891 64.99928
#
# Poissons Ratio (x) = 0.50369 0.10880
# Poissons Ratio (y) = 0.48940 0.16348
# Poissons Ratio (z) = 0.13388 0.20704
#
# Static dielectric constant tensor:
#      x y z
#    x 1.842450 -0.011160 -0.023650 
#    y -0.011160 1.791760 0.018580 
#    z -0.023650 0.018580 1.975650 
# 
# From -- ./inp_files/319420.got.cif
#   From: 2010.05.17/outbox.cif.g08.bks.cpg/sg2_160_cif.got.tgz:319420.got - 2010.06.03 11:33:40.
