data_PCOD9025035
_publ_section_title
;
Structure prediction by ZEFSAII (Michael W. Deem and Ramdas Pophale) SiO2 
 PCOD9025035
Probable space group: P -1
;
_chemical_formula_sum "Si O2"
_cell_formula_units_Z 16
_cell_length_a 27.198923
_cell_length_b 26.176258
_cell_length_c 12.568275
_cell_angle_alpha 152.596909
_cell_angle_beta 155.209531
_cell_angle_gamma 10.120541
_cell_volume 657.157890
_symmetry_space_group_name_H-M "P -1"
_symmetry_group_IT_number 2
_symmetry_cell_setting 'triclinic'
loop_
_space_group_symop_operation_xyz
x,y,z
-x,-y,-z
loop_
_atom_site_type_symbol
_atom_site_label
_atom_site_fract_x
_atom_site_fract_y
_atom_site_fract_z
Si Si1 0.719691 0.628876 0.392821
Si Si2 0.583020 0.154899 0.143395
Si Si3 0.254030 0.725997 0.069369
Si Si4 0.264304 0.632531 0.142696
Si Si5 0.204300 0.541726 0.550162
Si Si6 0.737037 0.777008 0.418028
Si Si7 0.435603 0.807026 0.577345
Si Si8 0.137945 0.742102 0.331480
O O1 0.712628 0.608175 0.465417
O O2 0.056419 0.384699 0.579816
O O3 0.443666 0.951230 0.411839
O O4 0.699255 0.530410 0.107621
O O5 0.611565 0.111815 0.245772
O O6 0.283593 0.492290 0.162326
O O7 0.524004 0.087316 0.852716
O O8 0.854626 0.984884 0.304715
O O9 0.129670 0.799075 0.076298
O O10 0.469749 0.643236 0.357351
O O11 0.383834 0.501054 0.853857
O O12 0.000000 0.000000 0.000000
O O13 0.077120 0.814312 0.219988
O O14 0.590349 0.410008 0.386155
O O15 0.284700 0.413899 0.360497
O O16 0.857208 0.891347 0.506418
O O17 0.000000 0.500000 0.500000
#
# Coordination Sequence:
#
# PCOD9025035 Si02
#       8
#     2   2   2   2   2   2   2   2
#     4  11  25  47  73 105 142 183 244 291 359 420
#     4  12  26  47  71 103 143 189 243 292 353 426
#     4   9  19  39  65 101 142 187 230 284 344 429
#     4  10  23  43  71 107 147 188 229 296 364 433
#     4  10  22  40  67 102 141 180 229 289 350 419
#     4  12  27  49  75 100 136 192 245 299 347 421
#     4  11  21  41  65 100 141 184 232 284 349 422
#     4  11  25  45  69 108 147 186 231 291 369 432
#
# _framework density 24.347268
#
# number of rings (size 3 to 8) (size 9 to 14) (size 15 to 20)
#    0.000    1.250    1.250    3.750    0.000    6.000 
#    4.500    3.750    0.000    0.000    0.000    0.000 
#    0.000    0.000    0.000    0.000    0.000    0.000 
#
# Total GULP energy -89490.892307 kJ/mol
# GULP energy per Si atom -5593.180769 kJ/mol
# Density = 2.429185 g / cm^3
# Si number density = 24.347268 Si / 1000 Ang^3
#
#
#
# Elastic Constant Matrix: (Units=GPa)
#
#
# Indices 1 2 3 4 5 6 
#
# 1 150.5415 48.8542 54.5876 7.3005 -26.6590 6.4699
# 2 48.8542 95.9841 13.4267 13.6812 -0.4482 -6.3282
# 3 54.5876 13.4267 55.9352 -2.9158 -0.4830 4.9265
# 4 7.3005 13.6812 -2.9158 19.8636 -0.7019 8.0212
# 5 -26.6590 -0.4482 -0.4830 -0.7019 44.4977 5.7224
# 6 6.4699 -6.3282 4.9265 8.0212 5.7224 40.8009
#
#
#
# Elastic Compliance Matrix: (Units=1/GPa)
#
#
# Indices 1 2 3 4 5 6 
#
# 1 0.015088 -0.005634 -0.013190 -0.002266 0.009126 -0.002508
# 2 -0.005634 0.015065 0.000777 -0.010686 -0.004132 0.005816
# 3 -0.013190 0.000777 0.031221 0.009638 -0.007088 -0.002458
# 4 -0.002266 -0.010686 0.009638 0.066371 0.001712 -0.015750
# 5 0.009126 -0.004132 -0.007088 0.001712 0.028566 -0.005575
# 6 -0.002508 0.005816 -0.002458 -0.015750 -0.005575 0.029984
#
#
# Mechanical properties :
#
#
# Convention : Reuss Voigt Hill
#
# Bulk Modulus (GPa) = 39.55746 59.57751 49.56749
# Shear Modulus (GPa) = 21.66227 33.40524 27.53375
#
# Velocity S-wave (km/s) = 2.98605 3.70811 3.36650
# Velocity P-wave (km/s) = 5.30765 6.54649 5.95935
#
# Compressibility (1/GPa) = 0.02527968
#
# Stress axis : x y z
#
# Youngs Moduli (GPa) = 66.27883 66.38074 32.02928
#
# Poissons Ratio (x) = 0.37400 0.42247
# Poissons Ratio (y) = 0.37342 -0.02490
# Poissons Ratio (z) = 0.87423 -0.05160
#
# Static dielectric constant tensor:
#      x y z
#    x 1.989930 -0.032740 -0.014550 
#    y -0.032740 1.913870 -0.026560 
#    z -0.014550 -0.026560 1.981680 
# 
# From -- ./inp_files/477240.got.cif
#   From: 2010.05.17/outbox.cif.g08.bks.cpg/sg2_239_cif.got.tgz:477240.got - 2010.06.03 11:33:40.
