data_PCOD9025929
_publ_section_title
;
Structure prediction by ZEFSAII (Michael W. Deem and Ramdas Pophale) SiO2 
 PCOD9025929
Probable space group: P -1
;
_chemical_formula_sum "Si O2"
_cell_formula_units_Z 16
_cell_length_a 11.666733
_cell_length_b 14.176170
_cell_length_c 12.217115
_cell_angle_alpha 21.604801
_cell_angle_beta 77.178705
_cell_angle_gamma 80.971709
_cell_volume 718.534467
_symmetry_space_group_name_H-M "P -1"
_symmetry_group_IT_number 2
_symmetry_cell_setting 'triclinic'
loop_
_space_group_symop_operation_xyz
x,y,z
-x,-y,-z
loop_
_atom_site_type_symbol
_atom_site_label
_atom_site_fract_x
_atom_site_fract_y
_atom_site_fract_z
Si Si1 0.252475 0.010263 0.596599
Si Si2 0.252884 0.475434 0.199850
Si Si3 0.807305 0.749828 0.306637
Si Si4 0.866538 0.312260 0.613194
Si Si5 0.534143 0.730977 0.327275
Si Si6 0.309882 0.584667 0.647832
Si Si7 0.796070 0.999008 0.638370
Si Si8 0.969104 0.807090 0.492972
O O1 0.220095 0.025540 0.460959
O O2 0.323693 0.270381 0.348551
O O3 0.313145 0.763206 0.874933
O O4 0.126474 0.989758 0.712309
O O5 0.211143 0.382485 0.428821
O O6 0.129062 0.442189 0.189994
O O7 0.875838 0.571275 0.405080
O O8 0.673367 0.750545 0.293268
O O9 0.858963 0.052262 0.967272
O O10 0.749376 0.324181 0.550269
O O11 0.963997 0.271023 0.544984
O O12 0.500000 0.500000 0.500000
O O13 0.451189 0.643465 0.543042
O O14 0.500000 0.000000 0.000000
O O15 0.269088 0.769157 0.550890
O O16 0.257941 0.282767 0.998533
O O17 0.930981 0.081848 0.562024
#
# Coordination Sequence:
#
# PCOD9025929 Si02
#       8
#     2   2   2   2   2   2   2   2
#     4  10  22  41  57  86 118 160 203 243 287 338
#     4  10  24  38  58  84 119 165 202 233 284 353
#     4  12  23  40  60  85 121 165 185 241 297 351
#     4  11  22  36  59  86 126 152 194 237 294 348
#     4  12  22  40  64  90 118 151 193 241 299 352
#     4  11  22  37  59  96 115 148 190 253 298 351
#     4  11  22  37  65  85 122 150 196 251 302 329
#     4   9  24  36  60  88 120 154 205 240 286 351
#
# _framework density 22.267544999999998
#
# number of rings (size 3 to 8) (size 9 to 14) (size 15 to 20)
#    0.750    0.500    2.500    4.125    5.250    1.500 
#    0.000    0.000    0.000    4.500    0.000    0.000 
#    0.000    0.000    0.000    0.000    0.000    0.000 
#
# Total GULP energy -89241.367973 kJ/mol
# GULP energy per Si atom -5577.585498 kJ/mol
# Density = 2.221686 g / cm^3
# Si number density = 22.267545 Si / 1000 Ang^3
#
#
#
# Elastic Constant Matrix: (Units=GPa)
#
#
# Indices 1 2 3 4 5 6 
#
# 1 37.3608 -2.0557 5.6561 -6.7511 2.5230 -10.0127
# 2 -2.0557 119.0539 34.8460 -24.2458 10.6104 7.9385
# 3 5.6561 34.8460 103.2005 -25.2726 6.1587 3.0682
# 4 -6.7511 -24.2458 -25.2726 41.4507 3.0758 5.5011
# 5 2.5230 10.6104 6.1587 3.0758 16.5933 3.0706
# 6 -10.0127 7.9385 3.0682 5.5011 3.0706 16.9886
#
#
#
# Elastic Compliance Matrix: (Units=1/GPa)
#
#
# Indices 1 2 3 4 5 6 
#
# 1 0.033746 0.001207 -0.001460 0.003345 -0.009731 0.020264
# 2 0.001207 0.011316 -0.001563 0.007098 -0.007175 -0.005295
# 3 -0.001460 -0.001563 0.012432 0.007255 -0.003997 -0.004002
# 4 0.003345 0.007098 0.007255 0.035743 -0.012138 -0.012036
# 5 -0.009731 -0.007175 -0.003997 -0.012138 0.072056 -0.010754
# 6 0.020264 -0.005295 -0.004002 -0.012036 -0.010754 0.079845
#
#
# Mechanical properties :
#
#
# Convention : Reuss Voigt Hill
#
# Bulk Modulus (GPa) = 18.56587 37.38979 27.97783
# Shear Modulus (GPa) = 18.74598 29.75109 24.24853
#
# Velocity S-wave (km/s) = 2.90462 3.65920 3.30352
# Velocity P-wave (km/s) = 4.42773 5.88902 5.20987
#
# Compressibility (1/GPa) = 0.05386229
#
# Stress axis : x y z
#
# Youngs Moduli (GPa) = 29.63326 88.37038 80.43762
#
# Poissons Ratio (x) = -0.10668 0.11742
# Poissons Ratio (y) = -0.03577 0.12575
# Poissons Ratio (z) = 0.04326 0.13815
#
# Static dielectric constant tensor:
#      x y z
#    x 1.852130 -0.006360 0.009510 
#    y -0.006360 1.865160 -0.027660 
#    z 0.009510 -0.027660 1.858460 
# 
# From -- ./inp_files/454261.got.cif
#   From: 2010.05.17/outbox.cif.g08.bks.cpg/sg2_228_cif.got.tgz:454261.got - 2010.06.03 11:33:40.
