data_PCOD9025080
_publ_section_title
;
Structure prediction by ZEFSAII (Michael W. Deem and Ramdas Pophale) SiO2 
 PCOD9025080
Probable space group: P -1
;
_chemical_formula_sum "Si O2"
_cell_formula_units_Z 12
_cell_length_a 7.662501
_cell_length_b 12.602657
_cell_length_c 5.086409
_cell_angle_alpha 100.308176
_cell_angle_beta 95.451865
_cell_angle_gamma 98.145650
_cell_volume 474.712936
_symmetry_space_group_name_H-M "P -1"
_symmetry_group_IT_number 2
_symmetry_cell_setting 'triclinic'
loop_
_space_group_symop_operation_xyz
x,y,z
-x,-y,-z
loop_
_atom_site_type_symbol
_atom_site_label
_atom_site_fract_x
_atom_site_fract_y
_atom_site_fract_z
Si Si1 0.976116 0.106952 0.377160
Si Si2 0.388521 0.885067 0.499492
Si Si3 0.055189 0.789241 0.083815
Si Si4 0.135408 0.570714 0.744097
Si Si5 0.528235 0.685870 0.665964
Si Si6 0.663896 0.593549 0.127860
O O1 0.966261 0.794241 0.361777
O O2 0.764453 0.098620 0.310032
O O3 0.000000 0.000000 0.500000
O O4 0.064151 0.674341 0.901414
O O5 0.500000 0.000000 0.500000
O O6 0.261202 0.834703 0.218150
O O7 0.964728 0.863105 0.896314
O O8 0.506948 0.802481 0.596564
O O9 0.324490 0.623439 0.654740
O O10 0.000000 0.500000 0.500000
O O11 0.819486 0.522213 0.091950
O O12 0.631545 0.628615 0.434854
O O13 0.637411 0.684589 0.950855
O O14 0.500000 0.500000 0.000000
#
# Coordination Sequence:
#
# PCOD9025080 Si02
#       6
#     2   2   2   2   2   2
#     4  10  22  43  68  89 134 170 214 275 340 380
#     4  10  23  42  71  95 129 173 224 270 336 390
#     4  10  22  42  66  93 134 168 215 275 328 387
#     4  11  22  44  71  99 135 180 225 268 336 395
#     4  11  22  44  63  96 135 169 215 274 327 389
#     4  10  22  40  67  91 133 173 213 271 328 385
#
# _framework density 25.278435999999999
#
# number of rings (size 3 to 8) (size 9 to 14) (size 15 to 20)
#    1.000    0.667    1.667    4.500    0.000    2.000 
#    3.000   20.833    3.667    0.000    0.000    0.000 
#    0.000    0.000    0.000    0.000    0.000    0.000 
#
# Total GULP energy -67043.255538 kJ/mol
# GULP energy per Si atom -5586.937962 kJ/mol
# Density = 2.522090 g / cm^3
# Si number density = 25.278436 Si / 1000 Ang^3
#
#
#
# Elastic Constant Matrix: (Units=GPa)
#
#
# Indices 1 2 3 4 5 6 
#
# 1 61.1968 40.2763 15.9484 -1.7436 21.1872 -5.8557
# 2 40.2763 163.5653 37.8635 -9.9307 16.0384 -15.5559
# 3 15.9484 37.8635 104.8346 -21.0720 19.3226 3.6802
# 4 -1.7436 -9.9307 -21.0720 44.6704 -7.7788 6.6763
# 5 21.1872 16.0384 19.3226 -7.7788 40.7788 -6.1239
# 6 -5.8557 -15.5559 3.6802 6.6763 -6.1239 61.2053
#
#
#
# Elastic Compliance Matrix: (Units=1/GPa)
#
#
# Indices 1 2 3 4 5 6 
#
# 1 0.023062 -0.004692 -0.000345 -0.002143 -0.010347 0.000233
# 2 -0.004692 0.007909 -0.002262 0.000377 0.000731 0.001729
# 3 -0.000345 -0.002262 0.012232 0.004875 -0.004141 -0.002290
# 4 -0.002143 0.000377 0.004875 0.025660 0.003116 -0.002890
# 5 -0.010347 0.000731 -0.004141 0.003116 0.032522 0.002359
# 6 0.000233 0.001729 -0.002290 -0.002890 0.002359 0.017489
#
#
# Mechanical properties :
#
#
# Convention : Reuss Voigt Hill
#
# Bulk Modulus (GPa) = 34.96158 57.53034 46.24596
# Shear Modulus (GPa) = 34.96308 45.03147 39.99727
#
# Velocity S-wave (km/s) = 3.72306 4.22526 3.98209
# Velocity P-wave (km/s) = 5.68702 6.82729 6.28308
#
# Compressibility (1/GPa) = 0.02860283
#
# Stress axis : x y z
#
# Youngs Moduli (GPa) = 43.36056 126.44590 81.75384
#
# Poissons Ratio (x) = 0.59332 0.02824
# Poissons Ratio (y) = 0.20346 0.18495
# Poissons Ratio (z) = 0.01498 0.28605
#
# Static dielectric constant tensor:
#      x y z
#    x 2.091010 0.148720 -0.103430 
#    y 0.148720 2.385810 -0.199900 
#    z -0.103430 -0.199900 2.090630 
# 
# From -- ./inp_files/41313.got.cif
#   From: 2010.05.17/outbox.cif.g08.bks.cpg/sg2_21_cif.got.tgz:41313.got - 2010.06.03 11:33:40.
