data_PCOD9025111
_publ_section_title
;
Structure prediction by ZEFSAII (Michael W. Deem and Ramdas Pophale) SiO2 
 PCOD9025111
Probable space group: P -1
;
_chemical_formula_sum "Si O2"
_cell_formula_units_Z 14
_cell_length_a 10.139858
_cell_length_b 13.077325
_cell_length_c 9.071269
_cell_angle_alpha 57.430805
_cell_angle_beta 114.017954
_cell_angle_gamma 144.706945
_cell_volume 584.384761
_symmetry_space_group_name_H-M "P -1"
_symmetry_group_IT_number 2
_symmetry_cell_setting 'triclinic'
loop_
_space_group_symop_operation_xyz
x,y,z
-x,-y,-z
loop_
_atom_site_type_symbol
_atom_site_label
_atom_site_fract_x
_atom_site_fract_y
_atom_site_fract_z
Si Si1 0.226759 0.448268 0.932156
Si Si2 0.716746 0.066789 0.989747
Si Si3 0.558097 0.731719 0.336417
Si Si4 0.833719 0.143593 0.451053
Si Si5 0.514427 0.863988 0.755941
Si Si6 0.837846 0.508572 0.452460
Si Si7 0.748848 0.656317 0.691205
O O1 0.381035 0.657293 0.901075
O O2 0.249941 0.478129 0.743045
O O3 0.281290 0.370167 0.124742
O O4 0.954483 0.289151 0.952414
O O5 0.703926 0.925795 0.166848
O O6 0.500000 0.000000 0.000000
O O7 0.681515 0.020444 0.836602
O O8 0.365600 0.670328 0.396969
O O9 0.697573 0.743350 0.508379
O O10 0.423592 0.554685 0.299529
O O11 0.678383 0.159265 0.335493
O O12 0.021832 0.305133 0.530979
O O13 0.988021 0.204717 0.337481
O O14 0.658799 0.940573 0.612312
O O15 0.000000 0.500000 0.500000
#
# Coordination Sequence:
#
# PCOD9025111 Si02
#       7
#     2   2   2   2   2   2   2
#     4  12  24  40  68  97 133 170 224 273 328 387
#     4  12  25  40  68 103 132 170 221 278 331 387
#     4  10  24  44  68  94 138 174 222 267 331 397
#     4  10  22  40  67  93 137 174 217 268 337 386
#     4  11  23  41  65 101 133 171 219 277 328 386
#     4  11  21  39  66 101 131 167 217 282 326 385
#     4  10  23  45  67  95 130 187 218 265 327 402
#
# _framework density 23.956818999999999
#
# number of rings (size 3 to 8) (size 9 to 14) (size 15 to 20)
#    0.000    1.143    4.286    1.714    2.000    3.429 
#    0.000    2.143    0.000    0.000    0.000    0.000 
#    0.000    0.000    0.000    0.000    0.000    0.000 
#
# Total GULP energy -78302.119656 kJ/mol
# GULP energy per Si atom -5593.008547 kJ/mol
# Density = 2.390229 g / cm^3
# Si number density = 23.956819 Si / 1000 Ang^3
#
#
#
# Elastic Constant Matrix: (Units=GPa)
#
#
# Indices 1 2 3 4 5 6 
#
# 1 11.6794 4.9101 0.9863 1.4319 0.3414 1.0157
# 2 4.9101 73.5315 14.7692 -2.0542 -6.5372 3.8797
# 3 0.9863 14.7692 143.0824 16.1959 0.2630 0.5695
# 4 1.4319 -2.0542 16.1959 54.2525 0.1997 -6.1067
# 5 0.3414 -6.5372 0.2630 0.1997 30.4667 1.4807
# 6 1.0157 3.8797 0.5695 -6.1067 1.4807 25.9554
#
#
#
# Elastic Compliance Matrix: (Units=1/GPa)
#
#
# Indices 1 2 3 4 5 6 
#
# 1 0.088871 -0.006119 0.000379 -0.003039 -0.002138 -0.003164
# 2 -0.006119 0.014751 -0.001589 0.000969 0.003333 -0.001893
# 3 0.000379 -0.001589 0.007417 -0.002336 -0.000371 -0.000469
# 4 -0.003039 0.000969 -0.002336 0.019774 -0.000095 0.004683
# 5 -0.002138 0.003333 -0.000371 -0.000095 0.033680 -0.002350
# 6 -0.003164 -0.001893 -0.000469 0.004683 -0.002350 0.040181
#
#
# Mechanical properties :
#
#
# Convention : Reuss Voigt Hill
#
# Bulk Modulus (GPa) = 10.37525 29.95828 20.16676
# Shear Modulus (GPa) = 19.88411 35.97676 27.93043
#
# Velocity S-wave (km/s) = 2.88409 3.87942 3.41818
# Velocity P-wave (km/s) = 3.92822 5.70954 4.90050
#
# Compressibility (1/GPa) = 0.09638327
#
# Stress axis : x y z
#
# Youngs Moduli (GPa) = 11.25224 67.79414 134.82004
#
# Poissons Ratio (x) = 0.41481 -0.05116
# Poissons Ratio (y) = 0.06885 0.21418
# Poissons Ratio (z) = -0.00427 0.10770
#
# Static dielectric constant tensor:
#      x y z
#    x 1.934580 -0.000600 -0.035350 
#    y -0.000600 1.909290 0.017210 
#    z -0.035350 0.017210 1.925030 
# 
# From -- ./inp_files/184421.got.cif
#   From: 2010.05.17/outbox.cif.g08.bks.cpg/sg2_93_cif.got.tgz:184421.got - 2010.06.03 11:33:40.
