data_PCOD9025996
_publ_section_title
;
Structure prediction by ZEFSAII (Michael W. Deem and Ramdas Pophale) SiO2 
 PCOD9025996
Probable space group: P -1
;
_chemical_formula_sum "Si O2"
_cell_formula_units_Z 16
_cell_length_a 13.841003
_cell_length_b 11.216499
_cell_length_c 9.560843
_cell_angle_alpha 90.993581
_cell_angle_beta 83.554308
_cell_angle_gamma 26.716843
_cell_volume 639.700782
_symmetry_space_group_name_H-M "P -1"
_symmetry_group_IT_number 2
_symmetry_cell_setting 'triclinic'
loop_
_space_group_symop_operation_xyz
x,y,z
-x,-y,-z
loop_
_atom_site_type_symbol
_atom_site_label
_atom_site_fract_x
_atom_site_fract_y
_atom_site_fract_z
Si Si1 0.188230 0.805202 0.181123
Si Si2 0.526077 0.737305 0.362649
Si Si3 0.887794 0.943256 0.197471
Si Si4 0.593031 0.500046 0.585360
Si Si5 0.795311 0.646752 0.365287
Si Si6 0.531065 0.274969 0.931776
Si Si7 0.059465 0.265851 0.571333
Si Si8 0.917656 0.716540 0.954127
O O1 0.228448 0.746565 0.339115
O O2 0.273168 0.841536 0.124690
O O3 0.950095 0.013615 0.177973
O O4 0.355188 0.530052 0.067701
O O5 0.661053 0.526511 0.463596
O O6 0.563377 0.837935 0.372354
O O7 0.575419 0.637317 0.198566
O O8 0.267423 0.993341 0.439034
O O9 0.014328 0.753226 0.310352
O O10 0.624881 0.220435 0.281952
O O11 0.959402 0.778149 0.057025
O O12 0.500000 0.500000 0.500000
O O13 0.832872 0.746098 0.353714
O O14 0.875497 0.521531 0.504103
O O15 0.957095 0.411375 0.216813
O O16 0.653605 0.022996 0.968378
O O17 0.000000 0.500000 0.000000
#
# Coordination Sequence:
#
# PCOD9025996 Si02
#       8
#     2   2   2   2   2   2   2   2
#     4  11  24  45  69  98 133 178 222 276 335 397
#     4  11  22  40  65  96 127 173 215 269 334 390
#     4  11  24  43  69  97 134 178 220 274 342 389
#     4  11  23  42  66 100 139 167 218 278 331 403
#     4  11  22  39  67  90 129 176 217 266 331 388
#     4  11  24  45  66  96 139 171 228 281 323 399
#     4  10  22  41  60  96 131 164 220 276 314 400
#     4  12  24  45  66  96 135 178 223 279 327 395
#
# _framework density 25.011695
#
# number of rings (size 3 to 8) (size 9 to 14) (size 15 to 20)
#    0.000    1.000    5.000    1.875    0.000    2.000 
#    0.000    5.000    0.000    0.000    0.000    0.000 
#    0.000    0.000    0.000    0.000    0.000    0.000 
#
# Total GULP energy -89511.148805 kJ/mol
# GULP energy per Si atom -5594.446800 kJ/mol
# Density = 2.495477 g / cm^3
# Si number density = 25.011695 Si / 1000 Ang^3
#
#
#
# Elastic Constant Matrix: (Units=GPa)
#
#
# Indices 1 2 3 4 5 6 
#
# 1 128.5152 2.0879 24.9038 -4.4004 15.0894 8.8437
# 2 2.0879 79.1881 24.8474 -11.8872 0.7872 19.6479
# 3 24.9038 24.8474 110.8042 -3.6341 25.2236 -1.2846
# 4 -4.4004 -11.8872 -3.6341 32.7546 7.3076 4.3741
# 5 15.0894 0.7872 25.2236 7.3076 33.9162 3.3140
# 6 8.8437 19.6479 -1.2846 4.3741 3.3140 19.8801
#
#
#
# Elastic Compliance Matrix: (Units=1/GPa)
#
#
# Indices 1 2 3 4 5 6 
#
# 1 0.009055 0.002736 -0.002012 0.003540 -0.002655 -0.007199
# 2 0.002736 0.022965 -0.006501 0.010864 0.003411 -0.027293
# 3 -0.002012 -0.006501 0.013248 -0.000312 -0.009703 0.009862
# 4 0.003540 0.010864 -0.000312 0.039355 -0.008156 -0.019632
# 5 -0.002655 0.003411 -0.009703 -0.008156 0.040317 -0.007743
# 6 -0.007199 -0.027293 0.009862 -0.019632 -0.007743 0.086725
#
#
# Mechanical properties :
#
#
# Convention : Reuss Voigt Hill
#
# Bulk Modulus (GPa) = 29.66081 46.90954 38.28518
# Shear Modulus (GPa) = 21.32598 35.08809 28.20704
#
# Velocity S-wave (km/s) = 2.92317 3.74955 3.36185
# Velocity P-wave (km/s) = 4.82470 6.12709 5.51448
#
# Compressibility (1/GPa) = 0.03371452
#
# Stress axis : x y z
#
# Youngs Moduli (GPa) = 110.43735 43.54503 75.48404
#
# Poissons Ratio (x) = -0.11916 0.15185
# Poissons Ratio (y) = -0.30220 0.49074
# Poissons Ratio (z) = 0.22216 0.28310
#
# Static dielectric constant tensor:
#      x y z
#    x 2.015340 -0.024680 -0.036450 
#    y -0.024680 2.008480 -0.003070 
#    z -0.036450 -0.003070 1.968450 
# 
# From -- ./inp_files/307509.got.cif
#   From: 2010.05.17/outbox.cif.g08.bks.cpg/sg2_154_cif.got.tgz:307509.got - 2010.06.03 11:33:40.
