data_PCOD9025676
_publ_section_title
;
Structure prediction by ZEFSAII (Michael W. Deem and Ramdas Pophale) SiO2 
 PCOD9025676
Probable space group: P -1
;
_chemical_formula_sum "Si O2"
_cell_formula_units_Z 15
_cell_length_a 19.238269
_cell_length_b 16.358831
_cell_length_c 9.467843
_cell_angle_alpha 139.925806
_cell_angle_beta 37.996151
_cell_angle_gamma 157.954808
_cell_volume 680.645631
_symmetry_space_group_name_H-M "P -1"
_symmetry_group_IT_number 2
_symmetry_cell_setting 'triclinic'
loop_
_space_group_symop_operation_xyz
x,y,z
-x,-y,-z
loop_
_atom_site_type_symbol
_atom_site_label
_atom_site_fract_x
_atom_site_fract_y
_atom_site_fract_z
Si Si1 0.264824 0.831852 0.777522
Si Si2 0.812514 0.080677 0.383217
Si Si3 0.578543 0.717448 0.481413
Si Si4 0.000000 0.500000 0.500000
Si Si5 0.461110 0.772844 0.334877
Si Si6 0.790600 0.962506 0.729953
Si Si7 0.790655 0.701957 0.937847
Si Si8 0.796019 0.752737 0.667441
O O1 0.334303 0.755333 0.608319
O O2 0.114969 0.672913 0.678646
O O3 0.462604 0.080371 0.728954
O O4 0.190888 0.870366 0.053375
O O5 0.904824 0.302624 0.498638
O O6 0.988656 0.140593 0.177961
O O7 0.687311 0.942303 0.542834
O O8 0.648511 0.903068 0.293920
O O9 0.606958 0.754138 0.651393
O O10 0.361146 0.487729 0.470522
O O11 0.703513 0.717213 0.212149
O O12 0.333405 0.540696 0.180230
O O13 0.775531 0.869565 0.776812
O O14 0.985383 0.093499 0.512570
O O15 0.765103 0.724851 0.847596
#
# Coordination Sequence:
#
# PCOD9025676 Si02
#       8
#     2   2   2   1   2   2   2   2
#     4  10  22  45  67  99 134 178 227 283 329 404
#     4  11  23  40  67 101 131 171 228 280 332 389
#     4  12  25  42  69 103 136 178 225 279 342 403
#     4  10  22  40  70  96 128 174 224 270 336 388
#     4  10  22  42  69  98 129 173 235 280 328 393
#     4  11  26  45  66  99 147 175 220 275 349 404
#     4  12  23  41  71 102 134 173 232 282 330 399
#     4  11  25  44  66 103 137 185 218 277 344 402
#
# _framework density 22.0379
#
# number of rings (size 3 to 8) (size 9 to 14) (size 15 to 20)
#    0.000    1.067    4.000    2.000    3.733    2.133 
#    7.200    3.333    0.000    0.000    0.000    0.000 
#    0.000    0.000    0.000    0.000    0.000    0.000 
#
# Total GULP energy -83567.102074 kJ/mol
# GULP energy per Si atom -5571.140138 kJ/mol
# Density = 2.198774 g / cm^3
# Si number density = 22.037900 Si / 1000 Ang^3
#
#
#
# Elastic Constant Matrix: (Units=GPa)
#
#
# Indices 1 2 3 4 5 6 
#
# 1 70.1204 14.0246 32.7257 14.3638 3.8146 13.0440
# 2 14.0246 91.1580 17.5701 33.1600 -2.1680 5.5184
# 3 32.7257 17.5701 93.4642 29.8347 6.1945 6.3843
# 4 14.3638 33.1600 29.8347 34.3740 1.3246 4.0205
# 5 3.8146 -2.1680 6.1945 1.3246 21.2991 10.8450
# 6 13.0440 5.5184 6.3843 4.0205 10.8450 42.4309
#
#
#
# Elastic Compliance Matrix: (Units=1/GPa)
#
#
# Indices 1 2 3 4 5 6 
#
# 1 0.018108 -0.000910 -0.005433 -0.001454 0.000716 -0.004676
# 2 -0.000910 0.017694 0.003045 -0.019282 0.003000 -0.001420
# 3 -0.005433 0.003045 0.017133 -0.015530 -0.003241 0.000996
# 4 -0.001454 -0.019282 -0.015530 0.061854 -0.000854 -0.000351
# 5 0.000716 0.003000 -0.003241 -0.000854 0.055348 -0.014188
# 6 -0.004676 -0.001420 0.000996 -0.000351 -0.014188 0.028700
#
#
# Mechanical properties :
#
#
# Convention : Reuss Voigt Hill
#
# Bulk Modulus (GPa) = 21.57943 42.59818 32.08881
# Shear Modulus (GPa) = 22.63697 32.31559 27.47628
#
# Velocity S-wave (km/s) = 3.20845 3.83347 3.53480
# Velocity P-wave (km/s) = 4.85167 6.24223 5.59036
#
# Compressibility (1/GPa) = 0.04634042
#
# Stress axis : x y z
#
# Youngs Moduli (GPa) = 55.22563 56.51513 58.36624
#
# Poissons Ratio (x) = 0.05141 0.31711
# Poissons Ratio (y) = 0.05023 -0.17774
# Poissons Ratio (z) = 0.30005 -0.17211
#
# Static dielectric constant tensor:
#      x y z
#    x 1.873520 -0.021110 -0.032930 
#    y -0.021110 1.821610 -0.030530 
#    z -0.032930 -0.030530 1.825690 
# 
# From -- ./inp_files/348665.got.cif
#   From: 2010.05.17/outbox.cif.g08.bks.cpg/sg2_175_cif.got.tgz:348665.got - 2010.06.03 11:33:40.
