data_PCOD9025869
_publ_section_title
;
Structure prediction by ZEFSAII (Michael W. Deem and Ramdas Pophale) SiO2 
 PCOD9025869
Probable space group: P -1
;
_chemical_formula_sum "Si O2"
_cell_formula_units_Z 15
_cell_length_a 17.251849
_cell_length_b 5.193783
_cell_length_c 16.451506
_cell_angle_alpha 117.470018
_cell_angle_beta 31.248437
_cell_angle_gamma 120.858113
_cell_volume 655.577649
_symmetry_space_group_name_H-M "P -1"
_symmetry_group_IT_number 2
_symmetry_cell_setting 'triclinic'
loop_
_space_group_symop_operation_xyz
x,y,z
-x,-y,-z
loop_
_atom_site_type_symbol
_atom_site_label
_atom_site_fract_x
_atom_site_fract_y
_atom_site_fract_z
Si Si1 0.072057 0.215172 0.391908
Si Si2 0.424871 0.646626 0.515649
Si Si3 0.509940 0.704247 0.754999
Si Si4 0.894981 0.695093 0.208945
Si Si5 0.000000 0.000000 0.000000
Si Si6 0.330081 0.593271 0.301560
Si Si7 0.849553 0.497880 0.946905
Si Si8 0.054269 0.754810 0.657150
O O1 0.254295 0.363756 0.263870
O O2 0.000000 0.500000 0.500000
O O3 0.015020 0.102696 0.336781
O O4 0.000000 0.000000 0.500000
O O5 0.500000 0.500000 0.500000
O O6 0.447111 0.471920 0.387780
O O7 0.242273 0.595531 0.689793
O O8 0.500000 0.000000 0.500000
O O9 0.551714 0.535091 0.771499
O O10 0.602501 0.055096 0.727140
O O11 0.327780 0.670096 0.912287
O O12 0.909720 0.744445 0.107856
O O13 0.043067 0.657842 0.118787
O O14 0.854317 0.982014 0.327310
O O15 0.888216 0.831349 0.000029
O O16 0.180455 0.585284 0.491183
O O17 0.916044 0.547362 0.802910
#
# Coordination Sequence:
#
# PCOD9025869 Si02
#       8
#     2   2   2   2   1   2   2   2
#     4  10  22  40  73 105 135 173 234 287 344 412
#     4  12  27  44  69 101 136 180 237 293 347 405
#     4  12  26  44  68  99 143 181 226 283 357 405
#     4  11  24  44  71  98 138 187 235 289 344 423
#     4  10  24  42  64  94 132 180 244 274 342 400
#     4  11  23  45  70 101 136 179 226 289 344 407
#     4  11  26  42  68  96 140 187 228 284 347 417
#     4  10  23  43  70 103 131 180 234 287 343 418
#
# _framework density 22.880582
#
# number of rings (size 3 to 8) (size 9 to 14) (size 15 to 20)
#    0.000    1.067    1.333    4.400   13.067    0.000 
#    0.000    1.333    0.000    0.000    0.000    0.000 
#    0.000    0.000    0.000    0.000    0.000    0.000 
#
# Total GULP energy -83635.487894 kJ/mol
# GULP energy per Si atom -5575.699193 kJ/mol
# Density = 2.282850 g / cm^3
# Si number density = 22.880582 Si / 1000 Ang^3
#
#
#
# Elastic Constant Matrix: (Units=GPa)
#
#
# Indices 1 2 3 4 5 6 
#
# 1 109.3962 3.5624 24.5256 0.9349 -1.5181 -18.2321
# 2 3.5624 105.2434 13.6651 -20.2003 4.2229 -11.8961
# 3 24.5256 13.6651 95.2342 -27.4555 -0.7789 -3.2268
# 4 0.9349 -20.2003 -27.4555 26.9455 -2.7246 0.0604
# 5 -1.5181 4.2229 -0.7789 -2.7246 38.7961 -7.1044
# 6 -18.2321 -11.8961 -3.2268 0.0604 -7.1044 39.4734
#
#
#
# Elastic Compliance Matrix: (Units=1/GPa)
#
#
# Indices 1 2 3 4 5 6 
#
# 1 0.010867 -0.000199 -0.003860 -0.004375 0.000945 0.004820
# 2 -0.000199 0.011684 0.001451 0.010249 0.000120 0.003554
# 3 -0.003860 0.001451 0.016561 0.018231 0.001345 0.000222
# 4 -0.004375 0.010249 0.018231 0.063936 0.004157 0.003209
# 5 0.000945 0.000120 0.001345 0.004157 0.027118 0.005457
# 6 0.004820 0.003554 0.000222 0.003209 0.005457 0.029626
#
#
# Mechanical properties :
#
#
# Convention : Reuss Voigt Hill
#
# Bulk Modulus (GPa) = 29.50342 43.70889 36.60616
# Shear Modulus (GPa) = 28.35945 38.91771 33.63858
#
# Velocity S-wave (km/s) = 3.52441 4.12868 3.83845
# Velocity P-wave (km/s) = 5.42996 6.47090 5.97315
#
# Compressibility (1/GPa) = 0.03389437
#
# Stress axis : x y z
#
# Youngs Moduli (GPa) = 92.02303 85.58611 60.38328
#
# Poissons Ratio (x) = 0.01707 0.23309
# Poissons Ratio (y) = 0.01835 -0.08761
# Poissons Ratio (z) = 0.35522 -0.12417
#
# Static dielectric constant tensor:
#      x y z
#    x 1.663220 0.072070 -0.118780 
#    y 0.072070 1.946950 0.048930 
#    z -0.118780 0.048930 1.798890 
# 
# From -- ./inp_files/37191.got.cif
#   From: 2010.05.17/outbox.cif.g08.bks.cpg/sg2_19_cif.got.tgz:37191.got - 2010.06.03 11:33:40.
