data_PCOD9025487
_publ_section_title
;
Structure prediction by ZEFSAII (Michael W. Deem and Ramdas Pophale) SiO2 
 PCOD9025487
Probable space group: P -1
;
_chemical_formula_sum "Si O2"
_cell_formula_units_Z 16
_cell_length_a 12.186231
_cell_length_b 19.529145
_cell_length_c 5.274672
_cell_angle_alpha 83.630701
_cell_angle_beta 94.930797
_cell_angle_gamma 149.857225
_cell_volume 626.341634
_symmetry_space_group_name_H-M "P -1"
_symmetry_group_IT_number 2
_symmetry_cell_setting 'triclinic'
loop_
_space_group_symop_operation_xyz
x,y,z
-x,-y,-z
loop_
_atom_site_type_symbol
_atom_site_label
_atom_site_fract_x
_atom_site_fract_y
_atom_site_fract_z
Si Si1 0.997700 0.400842 0.413812
Si Si2 0.905228 0.838556 0.132577
Si Si3 0.576803 0.974240 0.376303
Si Si4 0.495319 0.671373 0.453564
Si Si5 0.018866 0.252341 0.487942
Si Si6 0.617610 0.614139 0.786912
Si Si7 0.725991 0.275812 0.897508
Si Si8 0.374501 0.136454 0.224381
O O1 0.251799 0.553753 0.354650
O O2 0.976709 0.308437 0.516073
O O3 0.880618 0.373664 0.644244
O O4 0.873487 0.345683 0.146812
O O5 0.696854 0.757752 0.275826
O O6 0.978870 0.803487 0.269316
O O7 0.806193 0.766454 0.872189
O O8 0.123761 0.001087 0.138254
O O9 0.420782 0.869556 0.157105
O O10 0.577623 0.908109 0.590213
O O11 0.500000 0.000000 0.500000
O O12 0.829280 0.126207 0.306340
O O13 0.456411 0.582067 0.652179
O O14 0.572383 0.774057 0.609392
O O15 0.257135 0.369824 0.375883
O O16 0.500000 0.500000 0.000000
O O17 0.534956 0.223963 0.978306
#
# Coordination Sequence:
#
# PCOD9025487 Si02
#       8
#     2   2   2   2   2   2   2   2
#     4  12  27  45  73 105 154 192 247 298 367 440
#     4  10  23  44  72 104 141 189 244 306 365 435
#     4  11  22  46  72 106 140 184 241 298 364 430
#     4  11  27  46  68 107 143 198 242 304 364 437
#     4  10  22  40  69 105 141 182 236 305 364 428
#     4  11  23  41  70 104 143 188 242 297 367 434
#     4  12  26  48  70 113 142 198 244 300 364 439
#     4  11  25  47  74 103 149 189 248 304 367 431
#
# _framework density 25.545162000000001
#
# number of rings (size 3 to 8) (size 9 to 14) (size 15 to 20)
#    0.000    1.000    2.500    2.625    5.250    6.500 
#    0.000    0.000    0.000    0.000    0.000    0.000 
#    0.000    0.000    0.000    0.000    0.000    0.000 
#
# Total GULP energy -89589.801788 kJ/mol
# GULP energy per Si atom -5599.362612 kJ/mol
# Density = 2.548702 g / cm^3
# Si number density = 25.545162 Si / 1000 Ang^3
#
#
#
# Elastic Constant Matrix: (Units=GPa)
#
#
# Indices 1 2 3 4 5 6 
#
# 1 145.1885 55.2956 56.0592 -2.2278 -11.9909 -6.7319
# 2 55.2956 180.4784 48.1221 27.5013 5.9380 15.8100
# 3 56.0592 48.1221 97.3447 20.6215 -11.7493 9.2582
# 4 -2.2278 27.5013 20.6215 53.3030 -0.2749 4.1510
# 5 -11.9909 5.9380 -11.7493 -0.2749 30.7086 11.4894
# 6 -6.7319 15.8100 9.2582 4.1510 11.4894 32.5068
#
#
#
# Elastic Compliance Matrix: (Units=1/GPa)
#
#
# Indices 1 2 3 4 5 6 
#
# 1 0.010462 -0.002622 -0.005839 0.003713 0.000759 0.004362
# 2 -0.002622 0.007545 -0.001548 -0.003211 -0.002127 -0.002609
# 3 -0.005839 -0.001548 0.017111 -0.005469 0.007203 -0.007177
# 4 0.003713 -0.003211 -0.005469 0.022603 -0.000224 0.001081
# 5 0.000759 -0.002127 0.007203 -0.000224 0.041874 -0.015631
# 6 0.004362 -0.002609 -0.007177 0.001081 -0.015631 0.040366
#
#
# Mechanical properties :
#
#
# Convention : Reuss Voigt Hill
#
# Bulk Modulus (GPa) = 66.22267 82.44063 74.33165
# Shear Modulus (GPa) = 30.30067 40.87266 35.58666
#
# Velocity S-wave (km/s) = 3.44780 4.00436 3.73646
# Velocity P-wave (km/s) = 6.46760 7.32956 6.91203
#
# Compressibility (1/GPa) = 0.01510057
#
# Stress axis : x y z
#
# Youngs Moduli (GPa) = 95.57952 132.54232 58.44103
#
# Poissons Ratio (x) = 0.34747 0.34124
# Poissons Ratio (y) = 0.25057 0.09049
# Poissons Ratio (z) = 0.55809 0.20523
#
# Static dielectric constant tensor:
#      x y z
#    x 2.179260 -0.089000 0.178030 
#    y -0.089000 2.086010 -0.085150 
#    z 0.178030 -0.085150 2.148700 
# 
# From -- ./inp_files/83248.got.cif
#   From: 2010.05.17/outbox.cif.g08.bks.cpg/sg2_42_cif.got.tgz:83248.got - 2010.06.03 11:33:40.
