data_PCOD9025998
_publ_section_title
;
Structure prediction by ZEFSAII (Michael W. Deem and Ramdas Pophale) SiO2 
 PCOD9025998
Probable space group: P -1
;
_chemical_formula_sum "Si O2"
_cell_formula_units_Z 13
_cell_length_a 19.190833
_cell_length_b 15.965780
_cell_length_c 5.031390
_cell_angle_alpha 120.123525
_cell_angle_beta 51.207771
_cell_angle_gamma 156.128199
_cell_volume 473.768834
_symmetry_space_group_name_H-M "P -1"
_symmetry_group_IT_number 2
_symmetry_cell_setting 'triclinic'
loop_
_space_group_symop_operation_xyz
x,y,z
-x,-y,-z
loop_
_atom_site_type_symbol
_atom_site_label
_atom_site_fract_x
_atom_site_fract_y
_atom_site_fract_z
Si Si1 0.410901 0.753561 0.876992
Si Si2 0.635480 0.543632 0.648049
Si Si3 0.954801 0.117554 0.639461
Si Si4 0.003518 0.289587 0.276106
Si Si5 0.000000 0.500000 0.500000
Si Si6 0.333140 0.879268 0.513817
Si Si7 0.464106 0.289815 0.139323
O O1 0.536883 0.820053 0.909568
O O2 0.562551 0.931194 0.574878
O O3 0.214423 0.501537 0.958877
O O4 0.305781 0.758846 0.184735
O O5 0.863980 0.774694 0.537382
O O6 0.583579 0.469522 0.350955
O O7 0.500000 0.500000 0.000000
O O8 0.560742 0.385793 0.772435
O O9 0.019291 0.249976 0.454408
O O10 0.892581 0.115590 0.051544
O O11 0.754403 0.879057 0.630256
O O12 0.945659 0.344713 0.542299
O O13 0.894716 0.340705 0.231278
O O14 0.500000 0.000000 0.500000
#
# Coordination Sequence:
#
# PCOD9025998 Si02
#       7
#     2   2   2   2   1   2   2
#     4  10  22  41  60  97 131 181 231 277 342 401
#     4  12  27  49  74 108 142 177 232 298 355 424
#     4  12  25  46  72 105 136 187 233 286 350 428
#     4  11  24  43  69  97 145 182 238 287 342 405
#     4  10  24  40  58 100 132 184 232 288 328 400
#     4  10  23  38  62  90 135 178 228 285 331 397
#     4  12  26  44  78 101 140 189 227 286 356 424
#
# _framework density 27.439544000000001
#
# number of rings (size 3 to 8) (size 9 to 14) (size 15 to 20)
#    0.000    0.923    3.077    2.308    8.615    1.846 
#    0.000    0.000    0.000    0.000    0.000    0.000 
#    0.000    0.000    0.000    0.000    0.000    0.000 
#
# Total GULP energy -72421.496172 kJ/mol
# GULP energy per Si atom -5570.884321 kJ/mol
# Density = 2.737709 g / cm^3
# Si number density = 27.439544 Si / 1000 Ang^3
#
#
#
# Elastic Constant Matrix: (Units=GPa)
#
#
# Indices 1 2 3 4 5 6 
#
# 1 144.3719 39.4573 38.5715 -9.2052 1.9514 18.6912
# 2 39.4573 105.7794 -1.2840 -15.1333 13.3429 29.6578
# 3 38.5715 -1.2840 83.6320 4.3717 4.1896 11.4095
# 4 -9.2052 -15.1333 4.3717 29.2991 1.1046 -6.0972
# 5 1.9514 13.3429 4.1896 1.1046 60.8365 -4.2598
# 6 18.6912 29.6578 11.4095 -6.0972 -4.2598 49.4502
#
#
#
# Elastic Compliance Matrix: (Units=1/GPa)
#
#
# Indices 1 2 3 4 5 6 
#
# 1 0.009098 -0.003210 -0.004339 0.001774 0.000662 -0.000237
# 2 -0.003210 0.013882 0.002679 0.004339 -0.003731 -0.007517
# 3 -0.004339 0.002679 0.014766 -0.002926 -0.001684 -0.003880
# 4 0.001774 0.004339 -0.002926 0.037822 -0.001357 0.001949
# 5 0.000662 -0.003731 -0.001684 -0.001357 0.017636 0.003728
# 6 -0.000237 -0.007517 -0.003880 0.001949 0.003728 0.026277
#
#
# Mechanical properties :
#
#
# Convention : Reuss Voigt Hill
#
# Bulk Modulus (GPa) = 35.70440 54.14144 44.92292
# Shear Modulus (GPa) = 36.08638 45.05305 40.56971
#
# Velocity S-wave (km/s) = 3.63040 4.05644 3.84931
# Velocity P-wave (km/s) = 5.53293 6.45860 6.01360
#
# Compressibility (1/GPa) = 0.02800776
#
# Stress axis : x y z
#
# Youngs Moduli (GPa) = 109.91729 72.03326 67.72340
#
# Poissons Ratio (x) = 0.23120 0.29384
# Poissons Ratio (y) = 0.35279 -0.18144
# Poissons Ratio (z) = 0.47690 -0.19299
#
# Static dielectric constant tensor:
#      x y z
#    x 2.245850 -0.063920 0.108770 
#    y -0.063920 1.983000 0.296390 
#    z 0.108770 0.296390 1.999780 
# 
# From -- ./inp_files/103629.got.cif
#   From: 2010.05.17/outbox.cif.g08.bks.cpg/sg2_52_cif.got.tgz:103629.got - 2010.06.03 11:33:40.
