data_PCOD9025718
_publ_section_title
;
Structure prediction by ZEFSAII (Michael W. Deem and Ramdas Pophale) SiO2 
 PCOD9025718
Probable space group: P -1
;
_chemical_formula_sum "Si O2"
_cell_formula_units_Z 16
_cell_length_a 11.715039
_cell_length_b 8.930843
_cell_length_c 7.601513
_cell_angle_alpha 75.537598
_cell_angle_beta 99.516099
_cell_angle_gamma 119.597089
_cell_volume 668.791304
_symmetry_space_group_name_H-M "P -1"
_symmetry_group_IT_number 2
_symmetry_cell_setting 'triclinic'
loop_
_space_group_symop_operation_xyz
x,y,z
-x,-y,-z
loop_
_atom_site_type_symbol
_atom_site_label
_atom_site_fract_x
_atom_site_fract_y
_atom_site_fract_z
Si Si1 0.568484 0.682874 0.865487
Si Si2 0.616157 0.175190 0.389518
Si Si3 0.644289 0.659847 0.508601
Si Si4 0.165342 0.142510 0.988169
Si Si5 0.039474 0.352239 0.109687
Si Si6 0.832842 0.508772 0.521335
Si Si7 0.979812 0.155398 0.685776
Si Si8 0.200045 0.952795 0.677051
O O1 0.461140 0.735990 0.753998
O O2 0.652394 0.688429 0.712488
O O3 0.682245 0.801355 0.994821
O O4 0.500000 0.500000 0.000000
O O5 0.733597 0.306470 0.513195
O O6 0.704158 0.134786 0.290969
O O7 0.500000 0.000000 0.500000
O O8 0.500000 0.500000 0.500000
O O9 0.734649 0.590132 0.464445
O O10 0.687593 0.845853 0.377879
O O11 0.123677 0.282973 0.029459
O O12 0.110077 0.965642 0.143798
O O13 0.103421 0.125358 0.782634
O O14 0.114508 0.437846 0.284755
O O15 0.905532 0.177144 0.171691
O O16 0.000000 0.500000 0.000000
O O17 0.954770 0.632314 0.385098
O O18 0.896866 0.076852 0.510393
#
# Coordination Sequence:
#
# PCOD9025718 Si02
#       8
#     2   2   2   2   2   2   2   2
#     4  12  25  42  68  97 135 180 223 276 327 405
#     4  12  24  44  68 101 135 180 224 280 330 405
#     4  12  22  44  68  97 127 180 230 271 327 408
#     4  11  22  42  64 100 136 167 226 276 340 394
#     4  11  26  41  65  99 137 173 216 291 344 396
#     4  11  23  40  71  95 130 175 230 266 340 408
#     4  10  22  40  70  99 127 175 216 285 335 404
#     4  11  24  44  69  99 138 174 226 280 347 401
#
# _framework density 23.923756999999998
#
# number of rings (size 3 to 8) (size 9 to 14) (size 15 to 20)
#    0.000    0.750    5.000    1.500    5.250    3.000 
#    0.000    0.000    0.000    3.000    0.000    0.000 
#    0.000    0.000    0.000    0.000    0.000    0.000 
#
# Total GULP energy -89124.103357 kJ/mol
# GULP energy per Si atom -5570.256460 kJ/mol
# Density = 2.386931 g / cm^3
# Si number density = 23.923757 Si / 1000 Ang^3
#
#
#
# Elastic Constant Matrix: (Units=GPa)
#
#
# Indices 1 2 3 4 5 6 
#
# 1 84.3183 38.3268 27.3728 -11.5735 5.1052 18.7942
# 2 38.3268 141.9180 53.6444 -28.4176 1.1127 29.5914
# 3 27.3728 53.6444 111.2870 -22.4521 -1.5793 13.9386
# 4 -11.5735 -28.4176 -22.4521 37.2832 5.1556 1.5642
# 5 5.1052 1.1127 -1.5793 5.1556 34.1445 3.0047
# 6 18.7942 29.5914 13.9386 1.5642 3.0047 45.8092
#
#
#
# Elastic Compliance Matrix: (Units=1/GPa)
#
#
# Indices 1 2 3 4 5 6 
#
# 1 0.014708 -0.001926 -0.001672 0.002576 -0.002231 -0.004223
# 2 -0.001926 0.011157 -0.002886 0.006503 -0.000688 -0.005715
# 3 -0.001672 -0.002886 0.011837 0.004415 0.000333 -0.001224
# 4 0.002576 0.006503 0.004415 0.036271 -0.005210 -0.007498
# 5 -0.002231 -0.000688 0.000333 -0.005210 0.030495 -0.000564
# 6 -0.004223 -0.005715 -0.001224 -0.007498 -0.000564 0.027920
#
#
# Mechanical properties :
#
#
# Convention : Reuss Voigt Hill
#
# Bulk Modulus (GPa) = 40.43219 64.02347 52.22783
# Shear Modulus (GPa) = 32.55186 37.99266 35.27226
#
# Velocity S-wave (km/s) = 3.69270 3.98939 3.84391
# Velocity P-wave (km/s) = 5.92609 6.93108 6.44819
#
# Compressibility (1/GPa) = 0.02473277
#
# Stress axis : x y z
#
# Youngs Moduli (GPa) = 67.98930 89.63255 84.48093
#
# Poissons Ratio (x) = 0.17265 0.14127
# Poissons Ratio (y) = 0.13096 0.24383
# Poissons Ratio (z) = 0.11369 0.25869
#
# Static dielectric constant tensor:
#      x y z
#    x 1.899300 -0.058320 -0.064620 
#    y -0.058320 2.212290 0.155140 
#    z -0.064620 0.155140 1.979490 
# 
# From -- ./inp_files/242652.got.cif
#   From: 2010.05.17/outbox.cif.g08.bks.cpg/sg2_122_cif.got.tgz:242652.got - 2010.06.03 11:33:40.
