data_PCOD9025938
_publ_section_title
;
Structure prediction by ZEFSAII (Michael W. Deem and Ramdas Pophale) SiO2 
 PCOD9025938
Probable space group: P -1
;
_chemical_formula_sum "Si O2"
_cell_formula_units_Z 16
_cell_length_a 8.372554
_cell_length_b 14.792090
_cell_length_c 14.007352
_cell_angle_alpha 153.351292
_cell_angle_beta 69.449912
_cell_angle_gamma 105.963797
_cell_volume 725.466672
_symmetry_space_group_name_H-M "P -1"
_symmetry_group_IT_number 2
_symmetry_cell_setting 'triclinic'
loop_
_space_group_symop_operation_xyz
x,y,z
-x,-y,-z
loop_
_atom_site_type_symbol
_atom_site_label
_atom_site_fract_x
_atom_site_fract_y
_atom_site_fract_z
Si Si1 0.297326 0.164679 0.971191
Si Si2 0.396290 0.663423 0.611264
Si Si3 0.092783 0.784023 0.690563
Si Si4 0.071066 0.519118 0.258559
Si Si5 0.710730 0.710927 0.490249
Si Si6 0.407823 0.018713 0.393089
Si Si7 0.704660 0.893967 0.878907
Si Si8 0.620703 0.306023 0.751930
O O1 0.222794 0.949267 0.796309
O O2 0.461851 0.127343 0.835544
O O3 0.153781 0.305098 0.078002
O O4 0.348776 0.222641 0.123338
O O5 0.500000 0.500000 0.500000
O O6 0.197058 0.640410 0.610484
O O7 0.513976 0.654277 0.482354
O O8 0.381554 0.876860 0.874527
O O9 0.072603 0.657887 0.481890
O O10 0.907937 0.885713 0.850261
O O11 0.206681 0.608138 0.242516
O O12 0.871615 0.542394 0.290688
O O13 0.719914 0.863949 0.544872
O O14 0.708845 0.815258 0.694716
O O15 0.512593 0.185918 0.583481
O O16 0.334557 0.869178 0.343898
O O17 0.500000 0.500000 0.000000
#
# Coordination Sequence:
#
# PCOD9025938 Si02
#       8
#     2   2   2   2   2   2   2   2
#     4  11  20  38  66  90 127 170 205 250 292 381
#     4  11  22  34  57  87 129 166 208 251 295 352
#     4  10  22  41  58  89 127 174 210 244 297 376
#     4  11  24  38  67  93 125 160 219 251 315 371
#     4  11  24  41  57 100 130 163 200 259 308 369
#     4  11  23  43  71  88 127 155 210 267 317 363
#     4  10  23  39  62  87 135 173 207 236 308 371
#     4  11  23  46  71  93 110 167 214 263 317 382
#
# _framework density 22.054770000000001
#
# number of rings (size 3 to 8) (size 9 to 14) (size 15 to 20)
#    0.000    1.250    5.000    1.875    5.250    1.500 
#    2.250    0.625    0.000    0.000    0.000    0.000 
#    0.000    0.000    0.000    0.000    0.000    0.000 
#
# Total GULP energy -89233.776073 kJ/mol
# GULP energy per Si atom -5577.111005 kJ/mol
# Density = 2.200457 g / cm^3
# Si number density = 22.054770 Si / 1000 Ang^3
#
#
#
# Elastic Constant Matrix: (Units=GPa)
#
#
# Indices 1 2 3 4 5 6 
#
# 1 71.8920 33.5631 27.1818 2.8643 -31.2392 -17.3800
# 2 33.5631 104.5387 35.4839 4.7363 -15.6404 -26.3416
# 3 27.1818 35.4839 85.4264 10.0530 -34.2827 -11.6587
# 4 2.8643 4.7363 10.0530 28.8281 -8.2930 -8.7483
# 5 -31.2392 -15.6404 -34.2827 -8.2930 50.6693 6.1052
# 6 -17.3800 -26.3416 -11.6587 -8.7483 6.1052 36.7823
#
#
#
# Elastic Compliance Matrix: (Units=1/GPa)
#
#
# Indices 1 2 3 4 5 6 
#
# 1 0.022697 -0.003823 -0.000142 0.004111 0.012567 0.006834
# 2 -0.003823 0.013796 -0.004363 0.001358 -0.001708 0.007297
# 3 -0.000142 -0.004363 0.018034 -0.002523 0.010329 0.000210
# 4 0.004111 0.001358 -0.002523 0.040015 0.006525 0.010550
# 5 0.012567 -0.001708 0.010329 0.006525 0.034555 0.003805
# 6 0.006834 0.007297 0.000210 0.010550 0.003805 0.037586
#
#
# Mechanical properties :
#
#
# Convention : Reuss Voigt Hill
#
# Bulk Modulus (GPa) = 26.40553 50.47944 38.44248
# Shear Modulus (GPa) = 25.51497 34.29782 29.90639
#
# Velocity S-wave (km/s) = 3.40500 3.94778 3.68639
# Velocity P-wave (km/s) = 5.23998 6.61195 5.96554
#
# Compressibility (1/GPa) = 0.03787086
#
# Stress axis : x y z
#
# Youngs Moduli (GPa) = 44.05837 72.48489 55.44948
#
# Poissons Ratio (x) = 0.27712 0.00787
# Poissons Ratio (y) = 0.16844 0.24194
# Poissons Ratio (z) = 0.00625 0.31627
#
# Static dielectric constant tensor:
#      x y z
#    x 3.000310 -0.126960 -0.248240 
#    y -0.126960 1.858830 0.075650 
#    z -0.248240 0.075650 1.933240 
# 
# From -- ./inp_files/504597.got.cif
#   From: 2010.05.17/outbox.cif.g08.bks.cpg/sg2_253_cif.got.tgz:504597.got - 2010.06.03 11:33:40.
