data_PCOD9025451
_publ_section_title
;
Structure prediction by ZEFSAII (Michael W. Deem and Ramdas Pophale) SiO2 
 PCOD9025451
Probable space group: P -1
;
_chemical_formula_sum "Si O2"
_cell_formula_units_Z 13
_cell_length_a 15.354994
_cell_length_b 8.168510
_cell_length_c 8.634209
_cell_angle_alpha 130.732561
_cell_angle_beta 129.967641
_cell_angle_gamma 81.536283
_cell_volume 555.708773
_symmetry_space_group_name_H-M "P -1"
_symmetry_group_IT_number 2
_symmetry_cell_setting 'triclinic'
loop_
_space_group_symop_operation_xyz
x,y,z
-x,-y,-z
loop_
_atom_site_type_symbol
_atom_site_label
_atom_site_fract_x
_atom_site_fract_y
_atom_site_fract_z
Si Si1 0.635800 0.217051 0.341255
Si Si2 0.598783 0.897800 0.590414
Si Si3 0.947887 0.453690 0.090443
Si Si4 0.500000 0.500000 0.500000
Si Si5 0.795301 0.192841 0.244670
Si Si6 0.243105 0.055071 0.479737
Si Si7 0.150933 0.188894 0.755851
O O1 0.604944 0.417523 0.501357
O O2 0.722519 0.296149 0.336105
O O3 0.697919 0.090647 0.443425
O O4 0.500000 0.000000 0.000000
O O5 0.526596 0.680757 0.493178
O O6 0.500000 0.000000 0.500000
O O7 0.654207 0.814887 0.456279
O O8 0.723508 0.114372 0.952187
O O9 0.845119 0.556638 0.043517
O O10 0.057017 0.611939 0.438026
O O11 0.886868 0.166904 0.873290
O O12 0.000000 0.500000 0.000000
O O13 0.777556 0.934187 0.139286
O O14 0.200688 0.195493 0.642237
O O15 0.000000 0.000000 0.500000
#
# Coordination Sequence:
#
# PCOD9025451 Si02
#       7
#     2   2   2   1   2   2   2
#     4  11  21  42  68 101 134 183 242 292 345 428
#     4  12  26  48  70 108 144 185 249 305 347 431
#     4  11  20  39  73 104 138 195 226 284 370 422
#     4  12  26  44  78  92 136 204 228 292 394 384
#     4  10  22  40  69 101 145 181 237 294 352 434
#     4  11  23  42  68 101 151 179 234 303 343 428
#     4   9  19  38  67 103 139 186 236 281 351 430
#
# _framework density 23.393549
#
# number of rings (size 3 to 8) (size 9 to 14) (size 15 to 20)
#    0.000    1.231    7.692    0.000    2.154    0.615 
#    2.769    4.615    0.000    0.000    0.000    0.000 
#    0.000    0.000    0.000    0.000    0.000    0.000 
#
# Total GULP energy -72384.459638 kJ/mol
# GULP energy per Si atom -5568.035357 kJ/mol
# Density = 2.334030 g / cm^3
# Si number density = 23.393549 Si / 1000 Ang^3
#
#
#
# Elastic Constant Matrix: (Units=GPa)
#
#
# Indices 1 2 3 4 5 6 
#
# 1 193.5206 57.5762 16.5399 -2.2461 -25.5393 -19.6981
# 2 57.5762 74.5981 17.0932 -3.2615 -5.8623 -4.6858
# 3 16.5399 17.0932 82.9049 -20.3604 -4.0290 -11.0655
# 4 -2.2461 -3.2615 -20.3604 27.8994 -4.0196 0.1774
# 5 -25.5393 -5.8623 -4.0290 -4.0196 23.0978 3.7375
# 6 -19.6981 -4.6858 -11.0655 0.1774 3.7375 50.2285
#
#
#
# Elastic Compliance Matrix: (Units=1/GPa)
#
#
# Indices 1 2 3 4 5 6 
#
# 1 0.007973 -0.005497 0.000552 0.001457 0.007418 0.002178
# 2 -0.005497 0.018094 -0.003074 -0.000854 -0.002010 -0.000992
# 3 0.000552 -0.003074 0.016178 0.012084 0.004247 0.003135
# 4 0.001457 -0.000854 0.012084 0.046280 0.011207 0.002156
# 5 0.007418 -0.002010 0.004247 0.011207 0.053739 -0.000381
# 6 0.002178 -0.000992 0.003135 0.002156 -0.000381 0.021382
#
#
# Mechanical properties :
#
#
# Convention : Reuss Voigt Hill
#
# Bulk Modulus (GPa) = 38.15637 59.27136 48.71387
# Shear Modulus (GPa) = 26.53631 37.56611 32.05121
#
# Velocity S-wave (km/s) = 3.37165 4.01163 3.70548
# Velocity P-wave (km/s) = 5.61279 6.84465 6.25910
#
# Compressibility (1/GPa) = 0.02620794
#
# Stress axis : x y z
#
# Youngs Moduli (GPa) = 125.41784 55.26543 61.81195
#
# Poissons Ratio (x) = 0.30379 -0.03410
# Poissons Ratio (y) = 0.68941 0.19000
# Poissons Ratio (z) = -0.06919 0.16987
#
# Static dielectric constant tensor:
#      x y z
#    x 1.850430 0.033790 -0.002930 
#    y 0.033790 1.851530 0.027260 
#    z -0.002930 0.027260 1.980090 
# 
# From -- ./inp_files/293616.got.cif
#   From: 2010.05.17/outbox.cif.g08.bks.cpg/sg2_147_cif.got.tgz:293616.got - 2010.06.03 11:33:40.
