data_PCOD9025811
_publ_section_title
;
Structure prediction by ZEFSAII (Michael W. Deem and Ramdas Pophale) SiO2 
 PCOD9025811
Probable space group: P -1
;
_chemical_formula_sum "Si O2"
_cell_formula_units_Z 12
_cell_length_a 7.246549
_cell_length_b 5.265937
_cell_length_c 13.174610
_cell_angle_alpha 91.886332
_cell_angle_beta 108.956522
_cell_angle_gamma 66.152387
_cell_volume 432.057082
_symmetry_space_group_name_H-M "P -1"
_symmetry_group_IT_number 2
_symmetry_cell_setting 'triclinic'
loop_
_space_group_symop_operation_xyz
x,y,z
-x,-y,-z
loop_
_atom_site_type_symbol
_atom_site_label
_atom_site_fract_x
_atom_site_fract_y
_atom_site_fract_z
Si Si1 0.172384 0.210933 0.862612
Si Si2 0.665413 0.845704 0.616649
Si Si3 0.310838 0.727867 0.612886
Si Si4 0.469281 0.755956 0.213099
Si Si5 0.255220 0.665589 0.993823
Si Si6 0.017483 0.675160 0.380260
O O1 0.404032 0.129686 0.843659
O O2 0.004931 0.265086 0.742604
O O3 0.135972 0.485432 0.925498
O O4 0.177985 0.965787 0.932241
O O5 0.559846 0.640558 0.632063
O O6 0.900496 0.664699 0.611788
O O7 0.500000 0.000000 0.500000
O O8 0.642209 0.038377 0.711168
O O9 0.339063 0.522299 0.709799
O O10 0.189897 0.688379 0.492134
O O11 0.197238 0.059401 0.619411
O O12 0.293697 0.688979 0.119848
O O13 0.500000 0.500000 0.000000
#
# Coordination Sequence:
#
# PCOD9025811 Si02
#       6
#     2   2   2   2   2   2
#     4  11  23  43  69 107 136 188 236 287 351 418
#     4  12  26  43  66 107 139 181 233 285 357 419
#     4  11  25  45  67 101 138 188 230 284 360 411
#     4  11  23  43  71  99 140 183 233 289 347 419
#     4  10  22  40  72 103 136 186 242 284 346 420
#     4  11  24  44  69 100 140 181 230 293 345 423
#
# _framework density 27.774108999999999
#
# number of rings (size 3 to 8) (size 9 to 14) (size 15 to 20)
#    0.000    1.000    3.333    4.500    2.333    5.333 
#    0.000    1.667    0.000    0.000    0.000    0.000 
#    0.000    0.000    0.000    0.000    0.000    0.000 
#
# Total GULP energy -67139.192685 kJ/mol
# GULP energy per Si atom -5594.932724 kJ/mol
# Density = 2.771089 g / cm^3
# Si number density = 27.774109 Si / 1000 Ang^3
#
#
#
# Elastic Constant Matrix: (Units=GPa)
#
#
# Indices 1 2 3 4 5 6 
#
# 1 92.8050 54.1160 49.8511 6.5486 11.8322 -12.8160
# 2 54.1160 188.7052 104.4109 8.3278 -6.3902 -15.2089
# 3 49.8511 104.4109 261.0456 29.9324 27.2697 3.1183
# 4 6.5486 8.3278 29.9324 64.9471 -7.5875 3.0420
# 5 11.8322 -6.3902 27.2697 -7.5875 37.7305 -1.0623
# 6 -12.8160 -15.2089 3.1183 3.0420 -1.0623 41.2339
#
#
#
# Elastic Compliance Matrix: (Units=1/GPa)
#
#
# Indices 1 2 3 4 5 6 
#
# 1 0.014389 -0.003592 -0.000688 -0.001384 -0.004813 0.003178
# 2 -0.003592 0.008582 -0.003507 0.001406 0.005463 0.002351
# 3 -0.000688 -0.003507 0.006309 -0.002952 -0.005586 -0.001910
# 4 -0.001384 0.001406 -0.002952 0.017491 0.006300 -0.000817
# 5 -0.004813 0.005463 -0.005586 0.006300 0.034281 0.001360
# 6 0.003178 0.002351 -0.001910 -0.000817 0.001360 0.026347
#
#
# Mechanical properties :
#
#
# Convention : Reuss Voigt Hill
#
# Bulk Modulus (GPa) = 72.94792 106.59022 89.76907
# Shear Modulus (GPa) = 39.20315 51.06081 45.13198
#
# Velocity S-wave (km/s) = 3.76107 4.29235 4.03546
# Velocity P-wave (km/s) = 6.72180 7.93892 7.35558
#
# Compressibility (1/GPa) = 0.01370841
#
# Stress axis : x y z
#
# Youngs Moduli (GPa) = 69.49666 116.52322 158.49185
#
# Poissons Ratio (x) = 0.41851 0.10901
# Poissons Ratio (y) = 0.24961 0.55578
# Poissons Ratio (z) = 0.04780 0.40861
#
# Static dielectric constant tensor:
#      x y z
#    x 2.308340 0.066780 -0.097740 
#    y 0.066780 2.175350 -0.001760 
#    z -0.097740 -0.001760 2.131260 
# 
# From -- ./inp_files/287013.got.cif
#   From: 2010.05.17/outbox.cif.g08.bks.cpg/sg2_144_cif.got.tgz:287013.got - 2010.06.03 11:33:40.
