data_PCOD9025784
_publ_section_title
;
Structure prediction by ZEFSAII (Michael W. Deem and Ramdas Pophale) SiO2 
 PCOD9025784
Probable space group: P -1
;
_chemical_formula_sum "Si O2"
_cell_formula_units_Z 16
_cell_length_a 9.502323
_cell_length_b 8.560206
_cell_length_c 25.918741
_cell_angle_alpha 138.185649
_cell_angle_beta 142.697105
_cell_angle_gamma 68.320667
_cell_volume 709.748188
_symmetry_space_group_name_H-M "P -1"
_symmetry_group_IT_number 2
_symmetry_cell_setting 'triclinic'
loop_
_space_group_symop_operation_xyz
x,y,z
-x,-y,-z
loop_
_atom_site_type_symbol
_atom_site_label
_atom_site_fract_x
_atom_site_fract_y
_atom_site_fract_z
Si Si1 0.661610 0.178125 0.944616
Si Si2 0.788188 0.557087 0.479885
Si Si3 0.303116 0.937169 0.186365
Si Si4 0.793584 0.239009 0.776256
Si Si5 0.334887 0.032962 0.506577
Si Si6 0.827477 0.406724 0.210277
Si Si7 0.083242 0.921786 0.756428
Si Si8 0.763541 0.935818 0.003820
O O1 0.587162 0.116172 0.847418
O O2 0.404271 0.157860 0.893725
O O3 0.689774 0.944089 0.924648
O O4 0.962793 0.465990 0.103797
O O5 0.522729 0.258111 0.345843
O O6 0.698158 0.713464 0.453809
O O7 0.000000 0.500000 0.500000
O O8 0.931566 0.756075 0.619670
O O9 0.019349 0.909610 0.081146
O O10 0.259327 0.744005 0.174662
O O11 0.515796 0.101569 0.627756
O O12 0.921428 0.050083 0.764063
O O13 0.500000 0.000000 0.500000
O O14 0.037319 0.738228 0.349447
O O15 0.913968 0.288454 0.254054
O O16 0.832588 0.233034 0.120397
O O17 0.509102 0.299207 0.102474
#
# Coordination Sequence:
#
# PCOD9025784 Si02
#       8
#     2   2   2   2   2   2   2   2
#     4  11  24  43  66 100 144 184 231 280 351 417
#     4  12  26  47  71 101 141 186 226 284 364 413
#     4  12  24  44  68  99 145 182 230 285 353 414
#     4  12  25  42  70 108 134 182 238 293 335 411
#     4  12  25  43  73 103 137 182 238 293 337 422
#     4  10  22  43  65 108 136 177 234 291 342 396
#     4  11  23  44  73  98 142 185 227 291 344 417
#     4  10  22  40  71  98 141 182 227 286 346 413
#
# _framework density 22.543203999999999
#
# number of rings (size 3 to 8) (size 9 to 14) (size 15 to 20)
#    0.000    0.750    3.750    4.125    0.000    2.000 
#    2.250    1.250    0.000    0.000    0.000    0.000 
#    0.000    0.000    0.000    0.000    0.000    0.000 
#
# Total GULP energy -89618.290798 kJ/mol
# GULP energy per Si atom -5601.143175 kJ/mol
# Density = 2.249190 g / cm^3
# Si number density = 22.543204 Si / 1000 Ang^3
#
#
#
# Elastic Constant Matrix: (Units=GPa)
#
#
# Indices 1 2 3 4 5 6 
#
# 1 80.5245 31.5745 -0.5276 -4.2758 3.1618 14.8717
# 2 31.5745 67.7159 2.8869 -12.1962 15.9342 3.4704
# 3 -0.5276 2.8869 99.5337 9.0043 19.8862 5.2324
# 4 -4.2758 -12.1962 9.0043 39.5509 11.9800 -0.6104
# 5 3.1618 15.9342 19.8862 11.9800 32.2554 -4.5504
# 6 14.8717 3.4704 5.2324 -0.6104 -4.5504 39.2597
#
#
#
# Elastic Compliance Matrix: (Units=1/GPa)
#
#
# Indices 1 2 3 4 5 6 
#
# 1 0.016446 -0.008154 0.000339 -0.001505 0.002012 -0.005344
# 2 -0.008154 0.024519 0.001604 0.011346 -0.016664 -0.001048
# 3 0.000339 0.001604 0.011850 0.000421 -0.008690 -0.002850
# 4 -0.001505 0.011346 0.000421 0.034156 -0.018703 -0.002126
# 5 0.002012 -0.016664 -0.008690 -0.018703 0.052421 0.007654
# 6 -0.005344 -0.001048 -0.002850 -0.002126 0.007654 0.028822
#
#
# Mechanical properties :
#
#
# Convention : Reuss Voigt Hill
#
# Bulk Modulus (GPa) = 24.75678 35.07129 29.91403
# Shear Modulus (GPa) = 25.75975 36.46921 31.11448
#
# Velocity S-wave (km/s) = 3.38403 4.02649 3.71916
# Velocity P-wave (km/s) = 5.12588 6.09983 5.63394
#
# Compressibility (1/GPa) = 0.04039298
#
# Stress axis : x y z
#
# Youngs Moduli (GPa) = 60.80512 40.78422 84.38821
#
# Poissons Ratio (x) = 0.33254 -0.02859
# Poissons Ratio (y) = 0.49578 -0.13532
# Poissons Ratio (z) = -0.02060 -0.06540
#
# Static dielectric constant tensor:
#      x y z
#    x 1.831640 0.013940 -0.019060 
#    y 0.013940 1.787860 0.001070 
#    z -0.019060 0.001070 1.830760 
# 
# From -- ./inp_files/616789.got.cif
#   From: 2010.05.17/outbox.cif.g08.bks.cpg/sg2_309_cif.got.tgz:616789.got - 2010.06.03 11:33:40.
