data_PCOD9025660
_publ_section_title
;
Structure prediction by ZEFSAII (Michael W. Deem and Ramdas Pophale) SiO2 
 PCOD9025660
Probable space group: P -1
;
_chemical_formula_sum "Si O2"
_cell_formula_units_Z 16
_cell_length_a 21.343639
_cell_length_b 5.451438
_cell_length_c 8.476046
_cell_angle_alpha 96.043615
_cell_angle_beta 80.120022
_cell_angle_gamma 53.159253
_cell_volume 749.978420
_symmetry_space_group_name_H-M "P -1"
_symmetry_group_IT_number 2
_symmetry_cell_setting 'triclinic'
loop_
_space_group_symop_operation_xyz
x,y,z
-x,-y,-z
loop_
_atom_site_type_symbol
_atom_site_label
_atom_site_fract_x
_atom_site_fract_y
_atom_site_fract_z
Si Si1 0.301052 0.804995 0.358737
Si Si2 0.266133 0.201642 0.689066
Si Si3 0.552141 0.620731 0.965338
Si Si4 0.682127 0.568408 0.083299
Si Si5 0.899003 0.144776 0.212637
Si Si6 0.076893 0.742981 0.157584
Si Si7 0.760834 0.560189 0.749939
Si Si8 0.835436 0.884812 0.056949
O O1 0.389385 0.555347 0.223541
O O2 0.257039 0.646880 0.354142
O O3 0.304191 0.906827 0.539428
O O4 0.255809 0.136268 0.304491
O O5 0.326415 0.256991 0.740565
O O6 0.184772 0.526463 0.670947
O O7 0.225679 0.170953 0.855097
O O8 0.500000 0.500000 0.000000
O O9 0.614314 0.529891 0.076277
O O10 0.500000 0.000000 0.000000
O O11 0.772012 0.227319 0.031875
O O12 0.693293 0.705767 0.930776
O O13 0.880851 0.898845 0.186164
O O14 0.913288 0.180199 0.022316
O O15 0.981811 0.007161 0.257514
O O16 0.146677 0.671453 0.238134
O O17 0.099249 0.398586 0.104280
#
# Coordination Sequence:
#
# PCOD9025660 Si02
#       8
#     2   2   2   2   2   2   2   2
#     4  11  26  42  65  91 127 161 200 250 311 373
#     4  10  22  39  60  88 122 166 206 249 303 363
#     4  11  24  43  67  96 124 152 195 251 308 366
#     4  10  21  38  67  90 118 160 211 245 292 374
#     4   9  19  31  54  88 122 155 214 260 306 335
#     4  10  17  31  54  89 119 159 212 268 294 343
#     4  11  21  39  63  92 121 167 213 248 298 361
#     4  10  17  33  61  86 120 158 216 250 298 344
#
# _framework density 21.333946000000001
#
# number of rings (size 3 to 8) (size 9 to 14) (size 15 to 20)
#    0.000    1.750    3.750    3.375    5.250    0.000 
#    0.000    2.500    0.000    0.000    0.000    0.000 
#    0.000    0.000    0.000    0.000    0.000    0.000 
#
# Total GULP energy -89191.998709 kJ/mol
# GULP energy per Si atom -5574.499919 kJ/mol
# Density = 2.128539 g / cm^3
# Si number density = 21.333946 Si / 1000 Ang^3
#
#
#
# Elastic Constant Matrix: (Units=GPa)
#
#
# Indices 1 2 3 4 5 6 
#
# 1 129.1408 39.7256 24.6265 19.4886 21.3508 -6.3765
# 2 39.7256 67.7811 21.6678 11.0998 9.9505 7.7777
# 3 24.6265 21.6678 59.9813 32.5382 20.2841 -1.8894
# 4 19.4886 11.0998 32.5382 32.3925 14.4835 2.1555
# 5 21.3508 9.9505 20.2841 14.4835 25.1658 0.6470
# 6 -6.3765 7.7777 -1.8894 2.1555 0.6470 31.3404
#
#
#
# Elastic Compliance Matrix: (Units=1/GPa)
#
#
# Indices 1 2 3 4 5 6 
#
# 1 0.011118 -0.006091 0.002306 -0.004290 -0.006526 0.004343
# 2 -0.006091 0.020847 -0.008182 0.004801 0.000943 -0.007256
# 3 0.002306 -0.008182 0.043156 -0.036877 -0.012486 0.007895
# 4 -0.004290 0.004801 -0.036877 0.074443 -0.011143 -0.009177
# 5 -0.006526 0.000943 -0.012486 -0.011143 0.061449 -0.002817
# 6 0.004343 -0.007256 0.007895 -0.009177 -0.002817 0.035757
#
#
# Mechanical properties :
#
#
# Convention : Reuss Voigt Hill
#
# Bulk Modulus (GPa) = 19.53580 47.66036 33.59808
# Shear Modulus (GPa) = 17.37517 29.17198 23.27358
#
# Velocity S-wave (km/s) = 2.85693 3.70185 3.30649
# Velocity P-wave (km/s) = 4.47881 6.37653 5.50999
#
# Compressibility (1/GPa) = 0.05118807
#
# Stress axis : x y z
#
# Youngs Moduli (GPa) = 89.94300 47.96902 23.17152
#
# Poissons Ratio (x) = 0.29219 -0.05344
# Poissons Ratio (y) = 0.54787 0.18958
# Poissons Ratio (z) = -0.20744 0.39247
#
# Static dielectric constant tensor:
#      x y z
#    x 1.853150 0.057420 0.022790 
#    y 0.057420 1.863640 -0.045000 
#    z 0.022790 -0.045000 1.796670 
# 
# From -- ./inp_files/52721.got.cif
#   From: 2010.05.17/outbox.cif.g08.bks.cpg/sg2_27_cif.got.tgz:52721.got - 2010.06.03 11:33:40.
