data_PCOD9025774
_publ_section_title
;
Structure prediction by ZEFSAII (Michael W. Deem and Ramdas Pophale) SiO2 
 PCOD9025774
Probable space group: P -1
;
_chemical_formula_sum "Si O2"
_cell_formula_units_Z 14
_cell_length_a 8.805604
_cell_length_b 17.392892
_cell_length_c 9.428164
_cell_angle_alpha 125.465629
_cell_angle_beta 128.023272
_cell_angle_gamma 95.838269
_cell_volume 647.150679
_symmetry_space_group_name_H-M "P -1"
_symmetry_group_IT_number 2
_symmetry_cell_setting 'triclinic'
loop_
_space_group_symop_operation_xyz
x,y,z
-x,-y,-z
loop_
_atom_site_type_symbol
_atom_site_label
_atom_site_fract_x
_atom_site_fract_y
_atom_site_fract_z
Si Si1 0.685943 0.111017 0.607067
Si Si2 0.488929 0.894073 0.806382
Si Si3 0.158022 0.669531 0.872798
Si Si4 0.987942 0.675655 0.476067
Si Si5 0.856892 0.885525 0.173810
Si Si6 0.530491 0.627916 0.075805
Si Si7 0.455547 0.572447 0.663548
O O1 0.538546 0.094435 0.362620
O O2 0.907281 0.108277 0.705649
O O3 0.500000 0.000000 0.500000
O O4 0.823657 0.248396 0.905953
O O5 0.210123 0.750527 0.559248
O O6 0.745253 0.919024 0.027208
O O7 0.500000 0.000000 0.000000
O O8 0.131619 0.708667 0.745569
O O9 0.865029 0.518202 0.578907
O O10 0.423762 0.695668 0.059482
O O11 0.816932 0.714281 0.414097
O O12 0.731591 0.512497 0.148399
O O13 0.599887 0.722182 0.870143
O O14 0.000000 0.000000 0.500000
O O15 0.572867 0.590984 0.908348
O O16 0.500000 0.500000 0.500000
#
# Coordination Sequence:
#
# PCOD9025774 Si02
#       7
#     2   2   2   2   2   2   2
#     4  12  28  46  68 106 142 183 241 302 350 423
#     4  12  25  44  72 103 136 191 243 286 350 435
#     4  11  23  44  70 102 144 183 229 296 350 415
#     4  10  22  41  68 101 133 179 238 277 348 427
#     4  12  26  47  75 101 142 195 235 291 359 420
#     4  10  22  40  71  97 139 188 220 284 357 422
#     4  11  22  43  72 108 144 182 236 293 355 415
#
# _framework density 21.633292999999998
#
# number of rings (size 3 to 8) (size 9 to 14) (size 15 to 20)
#    0.000    0.857    2.857    5.143    2.000    1.714 
#    2.571    1.429    0.000    0.000    0.000    0.000 
#    0.000    0.000    0.000    0.000    0.000    0.000 
#
# Total GULP energy -78113.336328 kJ/mol
# GULP energy per Si atom -5579.524023 kJ/mol
# Density = 2.158405 g / cm^3
# Si number density = 21.633293 Si / 1000 Ang^3
#
#
#
# Elastic Constant Matrix: (Units=GPa)
#
#
# Indices 1 2 3 4 5 6 
#
# 1 101.6353 49.0129 39.8120 -28.3733 -11.1032 -22.3630
# 2 49.0129 142.5870 70.3054 -40.5161 -2.2090 -2.5062
# 3 39.8120 70.3054 91.6583 -31.3740 -1.8567 -13.0803
# 4 -28.3733 -40.5161 -31.3740 52.9706 -14.6886 12.1324
# 5 -11.1032 -2.2090 -1.8567 -14.6886 32.5819 -5.6982
# 6 -22.3630 -2.5062 -13.0803 12.1324 -5.6982 42.1151
#
#
#
# Elastic Compliance Matrix: (Units=1/GPa)
#
#
# Indices 1 2 3 4 5 6 
#
# 1 0.016264 -0.002669 -0.001443 0.006799 0.009634 0.007374
# 2 -0.002669 0.013240 -0.007729 0.005482 0.001242 -0.004441
# 3 -0.001443 -0.007729 0.019790 0.004988 0.003042 0.003895
# 4 0.006799 0.005482 0.004988 0.035298 0.018505 -0.002179
# 5 0.009634 0.001242 0.003042 0.018505 0.043751 0.006723
# 6 0.007374 -0.004441 0.003895 -0.002179 0.006723 0.030143
#
#
# Mechanical properties :
#
#
# Convention : Reuss Voigt Hill
#
# Bulk Modulus (GPa) = 39.04129 72.68236 55.86182
# Shear Modulus (GPa) = 26.21854 37.31688 31.76771
#
# Velocity S-wave (km/s) = 3.48509 4.15779 3.83621
# Velocity P-wave (km/s) = 5.85495 7.53127 6.74539
#
# Compressibility (1/GPa) = 0.02561391
#
# Stress axis : x y z
#
# Youngs Moduli (GPa) = 61.48492 75.52729 50.53017
#
# Poissons Ratio (x) = 0.20155 0.07291
# Poissons Ratio (y) = 0.16407 0.39054
# Poissons Ratio (z) = 0.08872 0.58374
#
# Static dielectric constant tensor:
#      x y z
#    x 1.724530 0.018990 0.041960 
#    y 0.018990 1.868370 0.027690 
#    z 0.041960 0.027690 1.807560 
# 
# From -- ./inp_files/218422.got.cif
#   From: 2010.05.17/outbox.cif.g08.bks.cpg/sg2_110_cif.got.tgz:218422.got - 2010.06.03 11:33:40.
