data_PCOD9025136
_publ_section_title
;
Structure prediction by ZEFSAII (Michael W. Deem and Ramdas Pophale) SiO2 
 PCOD9025136
Probable space group: P -1
;
_chemical_formula_sum "Si O2"
_cell_formula_units_Z 16
_cell_length_a 21.713552
_cell_length_b 11.027861
_cell_length_c 7.823342
_cell_angle_alpha 73.641252
_cell_angle_beta 106.686561
_cell_angle_gamma 156.478423
_cell_volume 715.325211
_symmetry_space_group_name_H-M "P -1"
_symmetry_group_IT_number 2
_symmetry_cell_setting 'triclinic'
loop_
_space_group_symop_operation_xyz
x,y,z
-x,-y,-z
loop_
_atom_site_type_symbol
_atom_site_label
_atom_site_fract_x
_atom_site_fract_y
_atom_site_fract_z
Si Si1 0.329214 0.668468 0.439824
Si Si2 0.207091 0.219704 0.333431
Si Si3 0.827485 0.133071 0.495983
Si Si4 0.398027 0.919555 0.054719
Si Si5 0.907435 0.808172 0.324062
Si Si6 0.314949 0.398096 0.966339
Si Si7 0.837830 0.314883 0.118184
Si Si8 0.796950 0.068132 0.869204
O O1 0.295594 0.462451 0.447321
O O2 0.222947 0.516722 0.574518
O O3 0.500000 0.000000 0.500000
O O4 0.308785 0.700987 0.231343
O O5 0.176818 0.025779 0.456511
O O6 0.298045 0.383178 0.163774
O O7 0.040726 0.983544 0.251052
O O8 0.774007 0.102212 0.291836
O O9 0.742816 0.008263 0.658887
O O10 0.000000 0.500000 0.500000
O O11 0.521129 0.244950 0.087490
O O12 0.500000 0.000000 0.000000
O O13 0.261033 0.736802 0.909895
O O14 0.819265 0.764360 0.176450
O O15 0.000000 0.000000 0.500000
O O16 0.293531 0.209592 0.005478
O O17 0.024756 0.661541 0.128967
O O18 0.803320 0.196439 0.950554
#
# Coordination Sequence:
#
# PCOD9025136 Si02
#       8
#     2   2   2   2   2   2   2   2
#     4  11  23  42  59  95 136 175 218 275 335 404
#     4  10  22  40  67  95 131 176 224 281 336 397
#     4   9  20  41  64  97 127 166 222 283 339 389
#     4  12  26  44  63  95 138 181 220 263 344 409
#     4  10  23  36  63  98 123 175 223 277 333 390
#     4  11  22  41  64  93 138 174 218 276 333 408
#     4  10  23  42  69  92 133 177 217 289 330 394
#     4   9  22  42  67  99 126 170 233 278 331 395
#
# _framework density 22.367448
#
# number of rings (size 3 to 8) (size 9 to 14) (size 15 to 20)
#    0.000    1.750    2.500    0.375    7.000    5.500 
#    2.250    2.500    0.000    0.000    0.000    0.000 
#    0.000    0.000    0.000    0.000    0.000    0.000 
#
# Total GULP energy -89263.239094 kJ/mol
# GULP energy per Si atom -5578.952443 kJ/mol
# Density = 2.231654 g / cm^3
# Si number density = 22.367448 Si / 1000 Ang^3
#
#
#
# Elastic Constant Matrix: (Units=GPa)
#
#
# Indices 1 2 3 4 5 6 
#
# 1 48.0454 19.7473 16.7172 -1.1761 -1.0207 -0.1886
# 2 19.7473 81.6451 3.0183 -10.8565 6.1697 -16.7601
# 3 16.7172 3.0183 91.0302 -15.4837 11.4328 -9.5863
# 4 -1.1761 -10.8565 -15.4837 36.4801 -6.8371 6.6359
# 5 -1.0207 6.1697 11.4328 -6.8371 24.2318 0.8688
# 6 -0.1886 -16.7601 -9.5863 6.6359 0.8688 31.6389
#
#
#
# Elastic Compliance Matrix: (Units=1/GPa)
#
#
# Indices 1 2 3 4 5 6 
#
# 1 0.026327 -0.008015 -0.006240 -0.002078 0.005712 -0.005701
# 2 -0.008015 0.016837 0.003154 0.003375 -0.005492 0.009270
# 3 -0.006240 0.003154 0.014183 0.004573 -0.006652 0.005154
# 4 -0.002078 0.003375 0.004573 0.032113 0.006090 -0.003741
# 5 0.005712 -0.005492 -0.006652 0.006090 0.048033 -0.007487
# 6 -0.005701 0.009270 0.005154 -0.003741 -0.007487 0.039035
#
#
# Mechanical properties :
#
#
# Convention : Reuss Voigt Hill
#
# Bulk Modulus (GPa) = 28.45453 33.29848 30.87650
# Shear Modulus (GPa) = 23.75913 30.55268 27.15591
#
# Velocity S-wave (km/s) = 3.26271 3.69988 3.48815
# Velocity P-wave (km/s) = 5.19063 5.75947 5.48243
#
# Compressibility (1/GPa) = 0.03514379
#
# Stress axis : x y z
#
# Youngs Moduli (GPa) = 37.98327 59.39328 70.50773
#
# Poissons Ratio (x) = 0.47605 0.43999
# Poissons Ratio (y) = 0.30444 -0.22237
# Poissons Ratio (z) = 0.23703 -0.18731
#
# Static dielectric constant tensor:
#      x y z
#    x 1.769530 -0.071310 0.046970 
#    y -0.071310 1.811580 0.058130 
#    z 0.046970 0.058130 1.839480 
# 
# From -- ./inp_files/353794.got.cif
#   From: 2010.05.17/outbox.cif.g08.bks.cpg/sg2_177_cif.got.tgz:353794.got - 2010.06.03 11:33:40.
