data_PCOD9025476
_publ_section_title
;
Structure prediction by ZEFSAII (Michael W. Deem and Ramdas Pophale) SiO2 
 PCOD9025476
Probable space group: P -1
;
_chemical_formula_sum "Si O2"
_cell_formula_units_Z 16
_cell_length_a 26.296381
_cell_length_b 16.247052
_cell_length_c 10.819223
_cell_angle_alpha 35.039843
_cell_angle_beta 23.043062
_cell_angle_gamma 23.245203
_cell_volume 703.280105
_symmetry_space_group_name_H-M "P -1"
_symmetry_group_IT_number 2
_symmetry_cell_setting 'triclinic'
loop_
_space_group_symop_operation_xyz
x,y,z
-x,-y,-z
loop_
_atom_site_type_symbol
_atom_site_label
_atom_site_fract_x
_atom_site_fract_y
_atom_site_fract_z
Si Si1 0.436579 0.650351 0.703165
Si Si2 0.637423 0.570765 0.962118
Si Si3 0.015276 0.632823 0.930395
Si Si4 0.041642 0.889955 0.412698
Si Si5 0.332009 0.247972 0.542857
Si Si6 0.853132 0.296932 0.228225
Si Si7 0.410618 0.926271 0.236576
Si Si8 0.008883 0.817007 0.208983
O O1 0.637798 0.497560 0.508578
O O2 0.391012 0.832444 0.510289
O O3 0.465937 0.499438 0.723388
O O4 0.258831 0.746757 0.064711
O O5 0.599671 0.671666 0.788518
O O6 0.857255 0.349434 0.775236
O O7 0.553998 0.742128 0.041758
O O8 0.003225 0.756984 0.691836
O O9 0.211361 0.389110 0.760999
O O10 0.019933 0.711906 0.951851
O O11 0.828393 0.689193 0.266121
O O12 0.000000 0.000000 0.500000
O O13 0.907851 0.085215 0.378110
O O14 0.500000 0.000000 0.500000
O O15 0.885701 0.312815 0.994998
O O16 0.199372 0.089190 0.445872
O O17 0.500000 0.000000 0.000000
O O18 0.000000 0.000000 0.000000
#
# Coordination Sequence:
#
# PCOD9025476 Si02
#       8
#     2   2   2   2   2   2   2   2
#     4  12  23  46  72 105 148 189 252 290 358 451
#     4  12  26  47  75 105 144 200 247 291 366 451
#     4  10  25  46  67 107 140 184 244 295 367 430
#     4  10  22  40  69 104 136 181 233 294 354 423
#     4  11  27  48  72  99 145 190 239 301 363 433
#     4  11  24  40  77 102 143 184 235 308 355 426
#     4  12  28  43  71 113 147 188 240 302 372 430
#     4  12  24  47  76 105 149 194 241 304 364 438
#
# _framework density 22.750536
#
# number of rings (size 3 to 8) (size 9 to 14) (size 15 to 20)
#    0.000    0.750    5.000    1.125    3.500    8.500 
#    0.000    0.000    0.000    0.000    0.000    0.000 
#    0.000    0.000    0.000    0.000    0.000    0.000 
#
# Total GULP energy -89448.071268 kJ/mol
# GULP energy per Si atom -5590.504454 kJ/mol
# Density = 2.269875 g / cm^3
# Si number density = 22.750536 Si / 1000 Ang^3
#
#
#
# Elastic Constant Matrix: (Units=GPa)
#
#
# Indices 1 2 3 4 5 6 
#
# 1 73.7993 19.7962 18.2818 -2.9542 -8.0322 14.7868
# 2 19.7962 108.2610 18.5618 5.7775 -4.3359 -8.1951
# 3 18.2818 18.5618 71.4634 -2.6392 -9.1028 5.3564
# 4 -2.9542 5.7775 -2.6392 38.5394 2.2347 -4.8984
# 5 -8.0322 -4.3359 -9.1028 2.2347 42.1108 -2.7485
# 6 14.7868 -8.1951 5.3564 -4.8984 -2.7485 38.4878
#
#
#
# Elastic Compliance Matrix: (Units=1/GPa)
#
#
# Indices 1 2 3 4 5 6 
#
# 1 0.016533 -0.003003 -0.002717 0.000612 0.001807 -0.006406
# 2 -0.003003 0.010534 -0.002247 -0.001533 0.000339 0.003538
# 3 -0.002717 -0.002247 0.015725 0.000891 0.002515 -0.001330
# 4 0.000612 -0.001533 0.000891 0.026683 -0.001093 0.002632
# 5 0.001807 0.000339 0.002515 -0.001093 0.024771 0.000658
# 6 -0.006406 0.003538 -0.001330 0.002632 0.000658 0.029764
#
#
# Mechanical properties :
#
#
# Convention : Reuss Voigt Hill
#
# Bulk Modulus (GPa) = 37.22984 40.75592 38.99288
# Shear Modulus (GPa) = 33.58030 36.95319 35.26674
#
# Velocity S-wave (km/s) = 3.84607 4.03461 3.94147
# Velocity P-wave (km/s) = 6.01023 6.29740 6.15549
#
# Compressibility (1/GPa) = 0.02686018
#
# Stress axis : x y z
#
# Youngs Moduli (GPa) = 60.48338 94.92658 63.59403
#
# Poissons Ratio (x) = 0.28504 0.17277
# Poissons Ratio (y) = 0.18162 0.14288
# Poissons Ratio (z) = 0.16432 0.21328
#
# Static dielectric constant tensor:
#      x y z
#    x 1.851440 -0.012520 -0.002140 
#    y -0.012520 1.895600 -0.003300 
#    z -0.002140 -0.003300 1.872500 
# 
# From -- ./inp_files/477716.got.cif
#   From: 2010.05.17/outbox.cif.g08.bks.cpg/sg2_239_cif.got.tgz:477716.got - 2010.06.03 11:33:40.
