data_PCOD9025259
_publ_section_title
;
Structure prediction by ZEFSAII (Michael W. Deem and Ramdas Pophale) SiO2 
 PCOD9025259
Probable space group: P -1
;
_chemical_formula_sum "Si O2"
_cell_formula_units_Z 16
_cell_length_a 12.894818
_cell_length_b 9.518718
_cell_length_c 21.864988
_cell_angle_alpha 136.696292
_cell_angle_beta 143.076041
_cell_angle_gamma 25.052953
_cell_volume 682.663502
_symmetry_space_group_name_H-M "P -1"
_symmetry_group_IT_number 2
_symmetry_cell_setting 'triclinic'
loop_
_space_group_symop_operation_xyz
x,y,z
-x,-y,-z
loop_
_atom_site_type_symbol
_atom_site_label
_atom_site_fract_x
_atom_site_fract_y
_atom_site_fract_z
Si Si1 0.377078 0.579714 0.113514
Si Si2 0.329263 0.451063 0.409625
Si Si3 0.118036 0.390685 0.707807
Si Si4 0.292663 0.275437 0.216568
Si Si5 0.286849 0.111236 0.489483
Si Si6 0.114170 0.657578 0.908704
Si Si7 0.978633 0.140290 0.266430
Si Si8 0.813533 0.481522 0.886101
O O1 0.646301 0.455689 0.219796
O O2 0.361675 0.417546 0.105236
O O3 0.090173 0.978432 0.099958
O O4 0.382269 0.491076 0.018161
O O5 0.500000 0.500000 0.500000
O O6 0.214111 0.511490 0.306090
O O7 0.048507 0.666695 0.385256
O O8 0.535840 0.104553 0.434633
O O9 0.963207 0.714358 0.701277
O O10 0.172097 0.444430 0.815794
O O11 0.427507 0.067178 0.728712
O O12 0.070245 0.300005 0.116509
O O13 0.343584 0.311739 0.184800
O O14 0.000000 0.500000 0.500000
O O15 0.165103 0.012637 0.372681
O O16 0.500000 0.000000 0.500000
O O17 0.034107 0.872110 0.174918
O O18 0.000000 0.500000 0.000000
#
# Coordination Sequence:
#
# PCOD9025259 Si02
#       8
#     2   2   2   2   2   2   2   2
#     4  11  24  41  71 100 142 187 247 296 369 454
#     4  11  26  49  71 105 144 191 250 315 389 451
#     4  11  23  43  74 100 138 188 246 300 369 459
#     4  11  24  45  70 101 142 184 242 303 371 450
#     4  12  28  50  84 117 153 200 263 328 387 455
#     4  10  22  40  68 103 135 186 239 294 356 454
#     4  12  26  45  75 106 144 196 251 310 381 456
#     4  12  27  45  67 107 153 192 240 311 382 447
#
# _framework density 23.437609999999999
#
# number of rings (size 3 to 8) (size 9 to 14) (size 15 to 20)
#    0.000    0.750    5.000    1.500    5.250    4.500 
#    0.000    0.000    0.000    0.000    0.000    0.000 
#    0.000    0.000    0.000    0.000    0.000    0.000 
#
# Total GULP energy -89141.738944 kJ/mol
# GULP energy per Si atom -5571.358684 kJ/mol
# Density = 2.338426 g / cm^3
# Si number density = 23.437610 Si / 1000 Ang^3
#
#
#
# Elastic Constant Matrix: (Units=GPa)
#
#
# Indices 1 2 3 4 5 6 
#
# 1 105.5617 19.2942 44.5996 1.0271 -2.7932 25.7912
# 2 19.2942 42.1069 2.7114 -5.4833 1.9586 11.3032
# 3 44.5996 2.7114 128.4199 -12.9680 8.6338 2.9408
# 4 1.0271 -5.4833 -12.9680 32.1201 11.3560 0.0206
# 5 -2.7932 1.9586 8.6338 11.3560 46.0712 -3.6609
# 6 25.7912 11.3032 2.9408 0.0206 -3.6609 29.4179
#
#
#
# Elastic Compliance Matrix: (Units=1/GPa)
#
#
# Indices 1 2 3 4 5 6 
#
# 1 0.015446 -0.004449 -0.005619 -0.004357 0.002381 -0.010972
# 2 -0.004449 0.028982 0.002173 0.007528 -0.004401 -0.008005
# 3 -0.005619 0.002173 0.010498 0.006095 -0.003698 0.002578
# 4 -0.004357 0.007528 0.006095 0.039065 -0.011446 -0.001134
# 5 0.002381 -0.004401 -0.003698 -0.011446 0.025805 0.003192
# 6 -0.010972 -0.008005 0.002578 -0.001134 0.003192 0.046828
#
#
# Mechanical properties :
#
#
# Convention : Reuss Voigt Hill
#
# Bulk Modulus (GPa) = 25.55295 45.47769 35.51532
# Shear Modulus (GPa) = 25.58063 35.48739 30.53401
#
# Velocity S-wave (km/s) = 3.30727 3.89539 3.61332
# Velocity P-wave (km/s) = 5.05077 6.29904 5.70913
#
# Compressibility (1/GPa) = 0.03913442
#
# Stress axis : x y z
#
# Youngs Moduli (GPa) = 64.73975 34.50458 95.25952
#
# Poissons Ratio (x) = 0.15351 0.53529
# Poissons Ratio (y) = 0.28802 -0.20695
# Poissons Ratio (z) = 0.36379 -0.07496
#
# Static dielectric constant tensor:
#      x y z
#    x 1.979920 -0.071810 -0.065170 
#    y -0.071810 1.992260 0.085210 
#    z -0.065170 0.085210 1.937930 
# 
# From -- ./inp_files/38099.got.cif
#   From: 2010.05.17/outbox.cif.g08.bks.cpg/sg2_20_cif.got.tgz:38099.got - 2010.06.03 11:33:40.
