data_PCOD9025917
_publ_section_title
;
Structure prediction by ZEFSAII (Michael W. Deem and Ramdas Pophale) SiO2 
 PCOD9025917
Probable space group: P -1
;
_chemical_formula_sum "Si O2"
_cell_formula_units_Z 12
_cell_length_a 5.339089
_cell_length_b 20.738603
_cell_length_c 11.816801
_cell_angle_alpha 152.960358
_cell_angle_beta 56.450306
_cell_angle_gamma 111.186374
_cell_volume 465.222001
_symmetry_space_group_name_H-M "P -1"
_symmetry_group_IT_number 2
_symmetry_cell_setting 'triclinic'
loop_
_space_group_symop_operation_xyz
x,y,z
-x,-y,-z
loop_
_atom_site_type_symbol
_atom_site_label
_atom_site_fract_x
_atom_site_fract_y
_atom_site_fract_z
Si Si1 0.322658 0.829612 0.252755
Si Si2 0.308335 0.104938 0.111048
Si Si3 0.311448 0.680184 0.658493
Si Si4 0.714559 0.967539 0.230042
Si Si5 0.983358 0.368938 0.129718
Si Si6 0.753096 0.404649 0.696541
O O1 0.401334 0.948861 0.335722
O O2 0.659711 0.719966 0.050409
O O3 0.141758 0.736999 0.085229
O O4 0.161690 0.928577 0.557028
O O5 0.509691 0.206807 0.175012
O O6 0.970406 0.239047 0.427654
O O7 0.306414 0.993602 0.834876
O O8 0.500000 0.000000 0.000000
O O9 0.427520 0.605896 0.392311
O O10 0.960081 0.797547 0.901477
O O11 0.243360 0.586854 0.633375
O O12 0.013491 0.505514 0.261938
O O13 0.500000 0.500000 0.000000
#
# Coordination Sequence:
#
# PCOD9025917 Si02
#       6
#     2   2   2   2   2   2
#     4  10  22  40  76 114 153 194 253 326 385 454
#     4  11  25  46  78 105 152 205 258 312 385 465
#     4  10  23  45  74 109 146 200 257 321 380 458
#     4   9  21  41  68 113 153 194 253 316 385 452
#     4  11  24  45  78 115 151 199 256 325 390 455
#     4  11  28  50  72 110 157 204 256 317 390 466
#
# _framework density 25.794136999999999
#
# number of rings (size 3 to 8) (size 9 to 14) (size 15 to 20)
#    0.000    1.667    1.667    0.500    4.667    8.667 
#    0.000    0.000    0.000    0.000    0.000    0.000 
#    0.000    0.000    0.000    0.000    0.000    0.000 
#
# Total GULP energy -67157.293621 kJ/mol
# GULP energy per Si atom -5596.441135 kJ/mol
# Density = 2.573543 g / cm^3
# Si number density = 25.794137 Si / 1000 Ang^3
#
#
#
# Elastic Constant Matrix: (Units=GPa)
#
#
# Indices 1 2 3 4 5 6 
#
# 1 134.0570 49.8529 65.7775 8.6563 16.8591 -24.1530
# 2 49.8529 159.5496 80.6528 -0.8233 -0.2472 -10.5504
# 3 65.7775 80.6528 138.9662 -27.4729 21.7003 -25.7998
# 4 8.6563 -0.8233 -27.4729 50.4268 -6.6657 13.9069
# 5 16.8591 -0.2472 21.7003 -6.6657 51.9137 9.5858
# 6 -24.1530 -10.5504 -25.7998 13.9069 9.5858 54.5500
#
#
#
# Elastic Compliance Matrix: (Units=1/GPa)
#
#
# Indices 1 2 3 4 5 6 
#
# 1 0.012070 -0.000974 -0.004936 -0.006689 -0.003675 0.005172
# 2 -0.000974 0.009685 -0.006369 -0.002333 0.003003 -0.001503
# 3 -0.004936 -0.006369 0.016105 0.008084 -0.004668 0.002959
# 4 -0.006689 -0.002333 0.008084 0.027862 0.003716 -0.007345
# 5 -0.003675 0.003003 -0.004668 0.003716 0.024469 -0.008501
# 6 0.005172 -0.001503 0.002959 -0.007345 -0.008501 0.025097
#
#
# Mechanical properties :
#
#
# Convention : Reuss Voigt Hill
#
# Bulk Modulus (GPa) = 75.17881 91.68212 83.43047
# Shear Modulus (GPa) = 34.65507 47.13074 40.89291
#
# Velocity S-wave (km/s) = 3.66939 4.27920 3.98597
# Velocity P-wave (km/s) = 6.86743 7.74831 7.32113
#
# Compressibility (1/GPa) = 0.01330162
#
# Stress axis : x y z
#
# Youngs Moduli (GPa) = 82.85229 103.25497 62.09247
#
# Poissons Ratio (x) = 0.10062 0.30647
# Poissons Ratio (y) = 0.08074 0.39545
# Poissons Ratio (z) = 0.40893 0.65761
#
# Static dielectric constant tensor:
#      x y z
#    x 2.115850 -0.012450 -0.059600 
#    y -0.012450 2.040140 -0.014560 
#    z -0.059600 -0.014560 2.043110 
# 
# From -- ./inp_files/370486.got.cif
#   From: 2010.05.17/outbox.cif.g08.bks.cpg/sg2_186_cif.got.tgz:370486.got - 2010.06.03 11:33:40.
