data_PCOD9025304
_publ_section_title
;
Structure prediction by ZEFSAII (Michael W. Deem and Ramdas Pophale) SiO2 
 PCOD9025304
Probable space group: P -1
;
_chemical_formula_sum "Si O2"
_cell_formula_units_Z 14
_cell_length_a 12.885942
_cell_length_b 20.592817
_cell_length_c 10.166619
_cell_angle_alpha 151.420585
_cell_angle_beta 51.909667
_cell_angle_gamma 146.767998
_cell_volume 632.066667
_symmetry_space_group_name_H-M "P -1"
_symmetry_group_IT_number 2
_symmetry_cell_setting 'triclinic'
loop_
_space_group_symop_operation_xyz
x,y,z
-x,-y,-z
loop_
_atom_site_type_symbol
_atom_site_label
_atom_site_fract_x
_atom_site_fract_y
_atom_site_fract_z
Si Si1 0.314803 0.370182 0.077928
Si Si2 0.834397 0.033369 0.633613
Si Si3 0.420089 0.155416 0.241033
Si Si4 0.223284 0.380270 0.797025
Si Si5 0.237887 0.659987 0.129970
Si Si6 0.951056 0.011410 0.913304
Si Si7 0.545608 0.030525 0.737071
O O1 0.401281 0.595581 0.401900
O O2 0.545826 0.486102 0.112342
O O3 0.157162 0.248063 0.109542
O O4 0.200998 0.158445 0.701989
O O5 0.684835 0.006721 0.609185
O O6 0.071483 0.284207 0.870138
O O7 0.749945 0.995176 0.777302
O O8 0.271897 0.090868 0.120685
O O9 0.523365 0.101116 0.010648
O O10 0.084746 0.153190 0.434240
O O11 0.253872 0.519293 0.912416
O O12 0.360642 0.802666 0.157187
O O13 0.321446 0.805939 0.452626
O O14 0.000000 0.500000 0.000000
O O15 0.000000 0.000000 0.000000
#
# Coordination Sequence:
#
# PCOD9025304 Si02
#       7
#     2   2   2   2   2   2   2
#     4  10  23  43  66  91 124 174 207 260 318 373
#     4  11  22  45  64  94 128 169 217 254 311 385
#     4  11  26  41  64  97 131 166 209 265 314 375
#     4  10  22  40  68  91 122 171 213 261 310 378
#     4  11  23  41  66  93 125 168 214 259 320 373
#     4  10  25  40  63  96 129 161 213 266 315 376
#     4  11  25  40  67  95 128 166 213 261 316 377
#
# _framework density 22.149560999999999
#
# number of rings (size 3 to 8) (size 9 to 14) (size 15 to 20)
#    0.000    1.429    2.857    0.857    6.000    7.429 
#    0.000    0.714    0.000    0.000    0.000    0.000 
#    0.000    0.000    0.000    0.000    0.000    0.000 
#
# Total GULP energy -78037.765632 kJ/mol
# GULP energy per Si atom -5574.126117 kJ/mol
# Density = 2.209915 g / cm^3
# Si number density = 22.149561 Si / 1000 Ang^3
#
#
#
# Elastic Constant Matrix: (Units=GPa)
#
#
# Indices 1 2 3 4 5 6 
#
# 1 69.6022 10.0081 31.6017 10.7008 3.3842 -4.4556
# 2 10.0081 60.9442 14.4676 11.4105 11.1268 2.1276
# 3 31.6017 14.4676 26.8151 14.1093 19.1544 24.1194
# 4 10.7008 11.4105 14.1093 30.4628 7.3122 -1.5168
# 5 3.3842 11.1268 19.1544 7.3122 31.3117 3.4294
# 6 -4.4556 2.1276 24.1194 -1.5168 3.4294 26.5994
#
#
#
# Elastic Compliance Matrix: (Units=1/GPa)
#
#
# Indices 1 2 3 4 5 6 
#
# 1 0.005933 -0.001935 0.021012 -0.009892 -0.008596 -0.017360
# 2 -0.001935 0.018640 0.000469 -0.005353 -0.005247 -0.001869
# 3 0.021012 0.000469 -0.046163 0.011602 0.018312 0.043642
# 4 -0.009892 -0.005353 0.011602 0.035273 -0.011458 -0.008260
# 5 -0.008596 -0.005247 0.018312 -0.011458 0.028610 -0.021967
# 6 -0.017360 -0.001869 0.043642 -0.008260 -0.021967 -0.002375
#
#
# Mechanical properties :
#
#
# Convention : Reuss Voigt Hill
#
# Bulk Modulus (GPa) = 57.13465 29.94626 43.54045
# Shear Modulus (GPa) = 750.74920 24.42705 387.58813
#
# Velocity S-wave (km/s) = 18.43044 3.32448 13.24261
# Velocity P-wave (km/s) = 21.88057 5.31842 15.92239
#
# Compressibility (1/GPa) = 0.01750251
#
# Stress axis : x y z
#
# Youngs Moduli (GPa) = 168.54757 53.64710 -21.66240
#
# Poissons Ratio (x) = 0.10379 0.45516
# Poissons Ratio (y) = 0.32610 0.01016
# Poissons Ratio (z) = -3.54148 -0.02516
#
# Static dielectric constant tensor:
#      x y z
#    x 1.870930 -0.019650 -0.006750 
#    y -0.019650 1.949020 -0.001470 
#    z -0.006750 -0.001470 1.881470 
# 
# From -- ./inp_files/77334.got.cif
#   From: 2010.05.17/outbox.cif.g08.bks.cpg/sg2_39_cif.got.tgz:77334.got - 2010.06.03 11:33:40.
