data_PCOD9025127
_publ_section_title
;
Structure prediction by ZEFSAII (Michael W. Deem and Ramdas Pophale) SiO2 
 PCOD9025127
Probable space group: P -1
;
_chemical_formula_sum "Si O2"
_cell_formula_units_Z 16
_cell_length_a 24.035575
_cell_length_b 8.856969
_cell_length_c 9.466321
_cell_angle_alpha 96.099523
_cell_angle_beta 140.733655
_cell_angle_gamma 53.369906
_cell_volume 730.730571
_symmetry_space_group_name_H-M "P -1"
_symmetry_group_IT_number 2
_symmetry_cell_setting 'triclinic'
loop_
_space_group_symop_operation_xyz
x,y,z
-x,-y,-z
loop_
_atom_site_type_symbol
_atom_site_label
_atom_site_fract_x
_atom_site_fract_y
_atom_site_fract_z
Si Si1 0.694365 0.703497 0.701254
Si Si2 0.651506 0.838231 0.957290
Si Si3 0.771196 0.455070 0.391928
Si Si4 0.001072 0.319386 0.966578
Si Si5 0.531956 0.546250 0.925007
Si Si6 0.239388 0.981895 0.861074
Si Si7 0.985791 0.865557 0.743453
Si Si8 0.250310 0.022625 0.216251
O O1 0.665648 0.759229 0.817748
O O2 0.528600 0.897837 0.332444
O O3 0.751830 0.790054 0.775951
O O4 0.831573 0.391607 0.919551
O O5 0.733969 0.601797 0.194509
O O6 0.729845 0.891960 0.121413
O O7 0.834259 0.485905 0.630841
O O8 0.904682 0.141852 0.605154
O O9 0.620440 0.574475 0.144590
O O10 0.067280 0.141854 0.216354
O O11 0.000000 0.500000 0.000000
O O12 0.101441 0.159168 0.007378
O O13 0.386337 0.787669 0.566443
O O14 0.500000 0.500000 0.000000
O O15 0.644774 0.292042 0.019954
O O16 0.074010 0.153857 0.505403
O O17 0.266555 0.944886 0.078859
#
# Coordination Sequence:
#
# PCOD9025127 Si02
#       8
#     2   2   2   2   2   2   2   2
#     4  10  22  40  67  94 139 176 223 280 340 403
#     4  10  22  42  65  99 131 177 227 281 336 403
#     4  11  25  43  70  99 137 177 235 280 342 411
#     4  12  25  44  69 101 138 183 232 283 342 408
#     4  11  24  47  70 101 143 181 225 285 345 412
#     4  10  24  42  71 100 136 180 230 279 344 408
#     4  11  24  45  65 101 138 177 229 282 340 407
#     4  11  22  43  69 102 137 181 227 284 343 406
#
# _framework density 21.895892
#
# number of rings (size 3 to 8) (size 9 to 14) (size 15 to 20)
#    0.000    1.250    2.500    3.000    1.750    3.500 
#    2.250    1.875    0.000    0.000    0.000    0.000 
#    0.000    0.000    0.000    0.000    0.000    0.000 
#
# Total GULP energy -89477.291252 kJ/mol
# GULP energy per Si atom -5592.330703 kJ/mol
# Density = 2.184606 g / cm^3
# Si number density = 21.895892 Si / 1000 Ang^3
#
#
#
# Elastic Constant Matrix: (Units=GPa)
#
#
# Indices 1 2 3 4 5 6 
#
# 1 -40.7225 -52.9015 174.4147 89.6353 9.2899 -7.1842
# 2 -52.9015 -7.1545 86.3679 63.5360 3.1493 -1.0905
# 3 174.4147 86.3679 36.7700 -46.7407 -35.8146 24.8364
# 4 89.6353 63.5360 -46.7407 -3.4969 -3.9043 11.1444
# 5 9.2899 3.1493 -35.8146 -3.9043 30.7316 -5.3356
# 6 -7.1842 -1.0905 24.8364 11.1444 -5.3356 32.0366
#
#
#
# Elastic Compliance Matrix: (Units=1/GPa)
#
#
# Indices 1 2 3 4 5 6 
#
# 1 0.011484 -0.017423 -0.002342 0.010929 -0.003117 -0.000523
# 2 -0.017423 0.032623 0.009394 -0.008494 0.010870 -0.005314
# 3 -0.002342 0.009394 0.008344 -0.012633 0.007691 -0.000999
# 4 0.010929 -0.008494 -0.012633 0.026007 -0.013744 0.000619
# 5 -0.003117 0.010870 0.007691 -0.013744 0.040494 0.005234
# 6 -0.000523 -0.005314 -0.000999 0.000619 0.005234 0.032347
#
#
# Mechanical properties :
#
#
# Convention : Reuss Voigt Hill
#
# Bulk Modulus (GPa) = 31.53367 44.96170 38.24769
# Shear Modulus (GPa) = 27.38081 -2.74496 12.31792
#
# Velocity S-wave (km/s) = 3.54008 -1.12088 2.37442
# Velocity P-wave (km/s) = 5.58054 4.34784 5.00231
#
# Compressibility (1/GPa) = 0.03171213
#
# Stress axis : x y z
#
# Youngs Moduli (GPa) = 87.07623 30.65313 119.84342
#
# Poissons Ratio (x) = 0.53406 0.28063
# Poissons Ratio (y) = 1.51709 -1.12587
# Poissons Ratio (z) = 0.20390 -0.28797
#
# Static dielectric constant tensor:
#      x y z
#    x 1.775790 -0.031710 0.020170 
#    y -0.031710 1.806160 0.002310 
#    z 0.020170 0.002310 1.825310 
# 
# From -- ./inp_files/298493.got.cif
#   From: 2010.05.17/outbox.cif.g08.bks.cpg/sg2_150_cif.got.tgz:298493.got - 2010.06.03 11:33:40.
