data_PCOD9025896
_publ_section_title
;
Structure prediction by ZEFSAII (Michael W. Deem and Ramdas Pophale) SiO2 
 PCOD9025896
Probable space group: P -1
;
_chemical_formula_sum "Si O2"
_cell_formula_units_Z 14
_cell_length_a 15.318795
_cell_length_b 14.664469
_cell_length_c 5.796888
_cell_angle_alpha 85.451527
_cell_angle_beta 107.419327
_cell_angle_gamma 149.940789
_cell_volume 576.641850
_symmetry_space_group_name_H-M "P -1"
_symmetry_group_IT_number 2
_symmetry_cell_setting 'triclinic'
loop_
_space_group_symop_operation_xyz
x,y,z
-x,-y,-z
loop_
_atom_site_type_symbol
_atom_site_label
_atom_site_fract_x
_atom_site_fract_y
_atom_site_fract_z
Si Si1 0.984909 0.094013 0.925106
Si Si2 0.362259 0.135751 0.614549
Si Si3 0.105122 0.826707 0.845371
Si Si4 0.793482 0.260979 0.853170
Si Si5 0.594855 0.485643 0.036937
Si Si6 0.761189 0.295504 0.320719
Si Si7 0.674481 0.397446 0.437426
O O1 0.189827 0.310957 0.940959
O O2 0.935407 0.107070 0.112681
O O3 0.810947 0.968114 0.642357
O O4 0.000000 0.000000 0.000000
O O5 0.526485 0.240448 0.554111
O O6 0.467038 0.308499 0.806772
O O7 0.258637 0.970872 0.731566
O O8 0.898235 0.601944 0.652538
O O9 0.175062 0.820597 0.102364
O O10 0.700640 0.204883 0.544936
O O11 0.703627 0.201907 0.047835
O O12 0.000000 0.500000 0.000000
O O13 0.612073 0.441899 0.291758
O O14 0.500000 0.500000 0.000000
O O15 0.682207 0.329720 0.254628
O O16 0.000000 0.500000 0.500000
#
# Coordination Sequence:
#
# PCOD9025896 Si02
#       7
#     2   2   2   2   2   2   2
#     4  12  28  48  78 111 154 202 261 326 396 471
#     4  12  28  48  74 112 154 196 266 316 398 472
#     4  12  25  46  78 108 153 210 251 330 396 467
#     4  10  22  40  74 113 155 204 266 321 399 468
#     4  12  28  48  78 111 154 202 261 326 396 471
#     4  10  22  40  74 113 155 204 266 321 399 468
#     4  12  25  46  78 108 153 210 251 330 396 467
#
# _framework density 24.278503000000001
#
# number of rings (size 3 to 8) (size 9 to 14) (size 15 to 20)
#    0.000    0.571    5.714    2.571   10.000    2.286 
#    0.000    1.429    0.000    0.000    0.000    0.000 
#    0.000    0.000    0.000    0.000    0.000    0.000 
#
# Total GULP energy -78415.430887 kJ/mol
# GULP energy per Si atom -5601.102206 kJ/mol
# Density = 2.422324 g / cm^3
# Si number density = 24.278503 Si / 1000 Ang^3
#
#
#
# Elastic Constant Matrix: (Units=GPa)
#
#
# Indices 1 2 3 4 5 6 
#
# 1 122.4871 37.1237 31.7260 -32.4461 19.6446 -20.5348
# 2 37.1237 176.7964 39.0808 -2.7517 -2.4528 37.1079
# 3 31.7260 39.0808 100.7688 -5.6117 -17.9611 11.3323
# 4 -32.4461 -2.7517 -5.6117 37.0702 6.8592 -3.1478
# 5 19.6446 -2.4528 -17.9611 6.8592 15.1253 2.6357
# 6 -20.5348 37.1079 11.3323 -3.1478 2.6357 24.3334
#
#
#
# Elastic Compliance Matrix: (Units=1/GPa)
#
#
# Indices 1 2 3 4 5 6 
#
# 1 -0.008426 0.005255 0.008298 -0.013727 0.032100 -0.024242
# 2 0.005255 0.005472 -0.006755 0.007438 -0.017701 0.002115
# 3 0.008298 -0.006755 0.006425 0.011493 -0.012444 0.017147
# 4 -0.013727 0.007438 0.011493 0.008277 0.034318 -0.030925
# 5 0.032100 -0.017701 -0.012444 0.034318 -0.020379 0.066525
# 6 -0.024242 0.002115 0.017147 -0.030925 0.066525 -0.001778
#
#
# Mechanical properties :
#
#
# Convention : Reuss Voigt Hill
#
# Bulk Modulus (GPa) = 58.59614 68.43481 63.51548
# Shear Modulus (GPa) = -272.98014 34.78055 -119.09980
#
# Velocity S-wave (km/s) = -10.61513 3.78903 -7.01157
# Velocity P-wave (km/s) = 11.22738 6.88411 6.27149
#
# Compressibility (1/GPa) = 0.01706597
#
# Stress axis : x y z
#
# Youngs Moduli (GPa) = -118.67431 182.73463 155.64872
#
# Poissons Ratio (x) = -0.96025 -1.29161
# Poissons Ratio (y) = 0.62362 1.05148
# Poissons Ratio (z) = 0.98479 1.23446
#
# Static dielectric constant tensor:
#      x y z
#    x 1.876460 0.018140 -0.024700 
#    y 0.018140 1.929080 0.001840 
#    z -0.024700 0.001840 1.948660 
# 
# From -- ./inp_files/37710.got.cif
#   From: 2010.05.17/outbox.cif.g08.bks.cpg/sg2_19_cif.got.tgz:37710.got - 2010.06.03 11:33:40.
