data_PCOD9025414
_publ_section_title
;
Structure prediction by ZEFSAII (Michael W. Deem and Ramdas Pophale) SiO2 
 PCOD9025414
Probable space group: P -1
;
_chemical_formula_sum "Si O2"
_cell_formula_units_Z 14
_cell_length_a 10.430883
_cell_length_b 5.653743
_cell_length_c 15.705816
_cell_angle_alpha 125.938516
_cell_angle_beta 129.540238
_cell_angle_gamma 77.241010
_cell_volume 560.736623
_symmetry_space_group_name_H-M "P -1"
_symmetry_group_IT_number 2
_symmetry_cell_setting 'triclinic'
loop_
_space_group_symop_operation_xyz
x,y,z
-x,-y,-z
loop_
_atom_site_type_symbol
_atom_site_label
_atom_site_fract_x
_atom_site_fract_y
_atom_site_fract_z
Si Si1 0.454893 0.317100 0.074526
Si Si2 0.373410 0.695171 0.464511
Si Si3 0.534009 0.658417 0.350460
Si Si4 0.989396 0.683208 0.777808
Si Si5 0.796755 0.699462 0.270815
Si Si6 0.910467 0.772658 0.524712
Si Si7 0.061366 0.364976 0.912394
O O1 0.488695 0.392574 0.206689
O O2 0.594658 0.597515 0.149167
O O3 0.262150 0.353741 0.987258
O O4 0.500000 0.000000 0.000000
O O5 0.500000 0.500000 0.500000
O O6 0.393435 0.678812 0.366650
O O7 0.178003 0.562003 0.373642
O O8 0.442511 0.008840 0.607637
O O9 0.726590 0.690412 0.477460
O O10 0.146449 0.611707 0.778372
O O11 0.022367 0.584440 0.867348
O O12 0.969332 0.009626 0.812331
O O13 0.840728 0.812244 0.408811
O O14 0.933535 0.943030 0.324803
O O15 0.000000 0.500000 0.500000
O O16 0.000000 0.500000 0.000000
#
# Coordination Sequence:
#
# PCOD9025414 Si02
#       7
#     2   2   2   2   2   2   2
#     4  11  24  50  73 109 153 203 261 312 381 462
#     4  11  26  43  74 108 148 194 249 321 388 456
#     4  10  24  44  68 108 143 193 253 310 386 454
#     4  12  27  48  79 107 149 198 259 316 384 453
#     4  10  23  42  66 107 142 190 250 305 379 445
#     4  10  22  40  68  98 147 188 241 309 382 447
#     4  12  29  52  77 108 154 207 259 317 377 460
#
# _framework density 24.967155999999999
#
# number of rings (size 3 to 8) (size 9 to 14) (size 15 to 20)
#    0.000    1.143    2.857    1.286   10.000    0.571 
#    5.143    0.000    0.000    0.000    0.000    0.000 
#    0.000    0.000    0.000    0.000    0.000    0.000 
#
# Total GULP energy -78062.841519 kJ/mol
# GULP energy per Si atom -5575.917251 kJ/mol
# Density = 2.491033 g / cm^3
# Si number density = 24.967156 Si / 1000 Ang^3
#
#
#
# Elastic Constant Matrix: (Units=GPa)
#
#
# Indices 1 2 3 4 5 6 
#
# 1 89.8415 20.8811 22.3056 0.0012 -9.0740 -8.5263
# 2 20.8811 95.7275 32.1022 2.6347 -6.7533 -5.9107
# 3 22.3056 32.1022 106.0688 7.3245 -2.7202 10.0783
# 4 0.0012 2.6347 7.3245 39.8134 -8.0308 -10.3154
# 5 -9.0740 -6.7533 -2.7202 -8.0308 58.6794 1.4753
# 6 -8.5263 -5.9107 10.0783 -10.3154 1.4753 40.5772
#
#
#
# Elastic Compliance Matrix: (Units=1/GPa)
#
#
# Indices 1 2 3 4 5 6 
#
# 1 0.012659 -0.001601 -0.002588 0.001849 0.001819 0.003473
# 2 -0.001601 0.012215 -0.003619 0.000708 0.001025 0.002484
# 3 -0.002588 -0.003619 0.011735 -0.003284 -0.000602 -0.004799
# 4 0.001849 0.000708 -0.003284 0.028655 0.003924 0.008449
# 5 0.001819 0.001025 -0.000602 0.003924 0.017924 0.001027
# 6 0.003473 0.002484 -0.004799 0.008449 0.001027 0.029039
#
#
# Mechanical properties :
#
#
# Convention : Reuss Voigt Hill
#
# Bulk Modulus (GPa) = 47.63823 49.13508 48.38666
# Shear Modulus (GPa) = 37.08048 42.23726 39.65887
#
# Velocity S-wave (km/s) = 3.85797 4.11751 3.98985
# Velocity P-wave (km/s) = 6.24236 6.50598 6.37553
#
# Compressibility (1/GPa) = 0.02099154
#
# Stress axis : x y z
#
# Youngs Moduli (GPa) = 78.99593 81.86343 85.21686
#
# Poissons Ratio (x) = 0.13109 0.22058
# Poissons Ratio (y) = 0.12650 0.30840
# Poissons Ratio (z) = 0.20448 0.29626
#
# Static dielectric constant tensor:
#      x y z
#    x 2.130550 0.148900 -0.061510 
#    y 0.148900 2.108590 -0.049000 
#    z -0.061510 -0.049000 2.040840 
# 
# From -- ./inp_files/564332.got.cif
#   From: 2010.05.17/outbox.cif.g08.bks.cpg/sg2_283_cif.got.tgz:564332.got - 2010.06.03 11:33:40.
