data_PCOD9025397
_publ_section_title
;
Structure prediction by ZEFSAII (Michael W. Deem and Ramdas Pophale) SiO2 
 PCOD9025397
Probable space group: P -1
;
_chemical_formula_sum "Si O2"
_cell_formula_units_Z 13
_cell_length_a 10.955349
_cell_length_b 8.079053
_cell_length_c 10.918896
_cell_angle_alpha 57.282588
_cell_angle_beta 42.384468
_cell_angle_gamma 76.236539
_cell_volume 525.468898
_symmetry_space_group_name_H-M "P -1"
_symmetry_group_IT_number 2
_symmetry_cell_setting 'triclinic'
loop_
_space_group_symop_operation_xyz
x,y,z
-x,-y,-z
loop_
_atom_site_type_symbol
_atom_site_label
_atom_site_fract_x
_atom_site_fract_y
_atom_site_fract_z
Si Si1 0.000000 0.000000 0.500000
Si Si2 0.631886 0.353136 0.943326
Si Si3 0.996504 0.122202 0.204763
Si Si4 0.704386 0.481411 0.578972
Si Si5 0.065968 0.451509 0.190479
Si Si6 0.667045 0.910186 0.369934
Si Si7 0.389776 0.087376 0.874967
O O1 0.116296 0.980084 0.549840
O O2 0.922788 0.748852 0.659800
O O3 0.754612 0.432962 0.698723
O O4 0.759324 0.369120 0.963385
O O5 0.500000 0.500000 0.000000
O O6 0.537847 0.112496 0.084942
O O7 0.065502 0.363471 0.089462
O O8 0.183510 0.044873 0.106765
O O9 0.868844 0.056232 0.208167
O O10 0.647499 0.690075 0.532950
O O11 0.532500 0.288211 0.744180
O O12 0.875152 0.499658 0.351330
O O13 0.649669 0.877984 0.250877
O O14 0.500000 0.000000 0.500000
#
# Coordination Sequence:
#
# PCOD9025397 Si02
#       7
#     1   2   2   2   2   2   2
#     4   8  20  38  72  92 136 166 228 262 356 376
#     4  12  25  41  67 103 137 177 234 290 338 397
#     4  10  22  43  71  98 134 177 227 286 337 407
#     4  12  25  44  69  98 137 185 232 278 343 411
#     4  10  22  40  68  98 133 177 225 280 347 400
#     4  12  26  47  69  98 141 188 227 276 349 418
#     4  12  26  44  67 104 138 178 233 285 341 406
#
# _framework density 24.739811
#
# number of rings (size 3 to 8) (size 9 to 14) (size 15 to 20)
#    0.923    0.000    0.000    7.385    2.154    0.000 
#    0.000    2.308    0.000    0.000    0.000    0.000 
#    0.000    0.000    0.000    0.000    0.000    0.000 
#
# Total GULP energy -72492.265646 kJ/mol
# GULP energy per Si atom -5576.328127 kJ/mol
# Density = 2.468350 g / cm^3
# Si number density = 24.739811 Si / 1000 Ang^3
#
#
#
# Elastic Constant Matrix: (Units=GPa)
#
#
# Indices 1 2 3 4 5 6 
#
# 1 103.8702 37.3522 9.7672 -12.5035 -8.4461 16.2222
# 2 37.3522 133.9975 34.7484 -5.2838 -26.3029 4.3104
# 3 9.7672 34.7484 42.1498 -0.0822 -26.4143 -4.4566
# 4 -12.5035 -5.2838 -0.0822 25.9135 -8.9970 -9.0661
# 5 -8.4461 -26.3029 -26.4143 -8.9970 47.4815 -4.6982
# 6 16.2222 4.3104 -4.4566 -9.0661 -4.6982 47.9658
#
#
#
# Elastic Compliance Matrix: (Units=1/GPa)
#
#
# Indices 1 2 3 4 5 6 
#
# 1 0.011686 -0.002771 0.000002 0.004506 0.001127 -0.002741
# 2 -0.002771 0.010413 -0.006953 0.001237 0.001617 -0.000253
# 3 0.000002 -0.006953 0.045851 0.010502 0.024564 0.009275
# 4 0.004506 0.001237 0.010502 0.051093 0.018076 0.010768
# 5 0.001127 0.001617 0.024564 0.018076 0.040148 0.009105
# 6 -0.002741 -0.000253 0.009275 0.010768 0.009105 0.025587
#
#
# Mechanical properties :
#
#
# Convention : Reuss Voigt Hill
#
# Bulk Modulus (GPa) = 20.61629 49.30590 34.96110
# Shear Modulus (GPa) = 22.68705 37.48216 30.08460
#
# Velocity S-wave (km/s) = 3.03153 3.89659 3.49096
# Velocity P-wave (km/s) = 4.53926 6.34174 5.51464
#
# Compressibility (1/GPa) = 0.04850532
#
# Stress axis : x y z
#
# Youngs Moduli (GPa) = 85.57417 96.03811 21.80956
#
# Poissons Ratio (x) = 0.26610 -0.00004
# Poissons Ratio (y) = 0.23711 0.15165
# Poissons Ratio (z) = -0.00016 0.66778
#
# Static dielectric constant tensor:
#      x y z
#    x 1.936030 0.065150 0.010140 
#    y 0.065150 2.099900 0.234600 
#    z 0.010140 0.234600 2.509610 
# 
# From -- ./inp_files/373462.got.cif
#   From: 2010.05.17/outbox.cif.g08.bks.cpg/sg2_187_cif.got.tgz:373462.got - 2010.06.03 11:33:40.
