data_PCOD9025363
_publ_section_title
;
Structure prediction by ZEFSAII (Michael W. Deem and Ramdas Pophale) SiO2 
 PCOD9025363
Probable space group: P -1
;
_chemical_formula_sum "Si O2"
_cell_formula_units_Z 16
_cell_length_a 15.179218
_cell_length_b 8.730787
_cell_length_c 15.974904
_cell_angle_alpha 142.993980
_cell_angle_beta 38.161459
_cell_angle_gamma 138.488659
_cell_volume 744.564601
_symmetry_space_group_name_H-M "P -1"
_symmetry_group_IT_number 2
_symmetry_cell_setting 'triclinic'
loop_
_space_group_symop_operation_xyz
x,y,z
-x,-y,-z
loop_
_atom_site_type_symbol
_atom_site_label
_atom_site_fract_x
_atom_site_fract_y
_atom_site_fract_z
Si Si1 0.879396 0.971343 0.202439
Si Si2 0.537622 0.220419 0.940435
Si Si3 0.254635 0.283147 0.634591
Si Si4 0.847916 0.642999 0.915011
Si Si5 0.023001 0.821363 0.328328
Si Si6 0.539004 0.140253 0.305730
Si Si7 0.641517 0.228543 0.453851
Si Si8 0.656576 0.792966 0.764757
O O1 0.829297 0.819464 0.260418
O O2 0.790885 0.185149 0.357784
O O3 0.825889 0.774487 0.077039
O O4 0.053890 0.129256 0.121901
O O5 0.688982 0.465122 0.920722
O O6 0.462362 0.104283 0.858669
O O7 0.587012 0.979818 0.841957
O O8 0.433868 0.290094 0.117802
O O9 0.367035 0.125247 0.449344
O O10 0.370991 0.583762 0.688593
O O11 0.124430 0.261049 0.654941
O O12 0.939568 0.439079 0.780757
O O13 0.174151 0.018146 0.257964
O O14 0.000000 0.000000 0.500000
O O15 0.624352 0.171283 0.343250
O O16 0.645327 0.526558 0.604697
O O17 0.500000 0.000000 0.500000
#
# Coordination Sequence:
#
# PCOD9025363 Si02
#       8
#     2   2   2   2   2   2   2   2
#     4  11  24  43  66  95 132 178 215 263 331 391
#     4  10  22  41  68  98 131 168 219 278 320 378
#     4  11  23  40  68  97 129 168 223 267 318 388
#     4  10  23  44  66  93 137 172 212 271 330 385
#     4  11  22  43  68  96 128 169 220 273 322 383
#     4  11  23  40  67  99 130 168 223 270 315 386
#     4  12  23  43  66  94 133 177 215 262 328 396
#     4  10  22  40  68  96 129 173 218 267 331 380
#
# _framework density 21.489069000000001
#
# number of rings (size 3 to 8) (size 9 to 14) (size 15 to 20)
#    0.000    1.250    1.250    6.000    5.250    0.500 
#    6.750    3.125    0.000    0.000    0.000    0.000 
#    0.000    0.000    0.000    0.000    0.000    0.000 
#
# Total GULP energy -89521.484811 kJ/mol
# GULP energy per Si atom -5595.092801 kJ/mol
# Density = 2.144016 g / cm^3
# Si number density = 21.489069 Si / 1000 Ang^3
#
#
#
# Elastic Constant Matrix: (Units=GPa)
#
#
# Indices 1 2 3 4 5 6 
#
# 1 60.5877 34.5600 34.1838 -10.6446 15.7422 7.3181
# 2 34.5600 110.4838 34.3332 -16.0932 27.1961 4.2259
# 3 34.1838 34.3332 87.0151 -1.5645 26.2240 -6.0609
# 4 -10.6446 -16.0932 -1.5645 38.7083 -2.6835 3.9607
# 5 15.7422 27.1961 26.2240 -2.6835 34.8244 1.1315
# 6 7.3181 4.2259 -6.0609 3.9607 1.1315 29.6615
#
#
#
# Elastic Compliance Matrix: (Units=1/GPa)
#
#
# Indices 1 2 3 4 5 6 
#
# 1 0.026114 -0.003902 -0.008771 0.005968 -0.001419 -0.008422
# 2 -0.003902 0.013106 -0.001584 0.003985 -0.006922 -0.001496
# 3 -0.008771 -0.001584 0.018858 -0.003694 -0.009514 0.007099
# 4 0.005968 0.003985 -0.003694 0.029635 -0.000525 -0.006732
# 5 -0.001419 -0.006922 -0.009514 -0.000525 0.041956 -0.002138
# 6 -0.008422 -0.001496 0.007099 -0.006732 -0.002138 0.038436
#
#
# Mechanical properties :
#
#
# Convention : Reuss Voigt Hill
#
# Bulk Modulus (GPa) = 33.82631 51.58228 42.70429
# Shear Modulus (GPa) = 24.21603 30.97279 27.59441
#
# Velocity S-wave (km/s) = 3.36058 3.80060 3.58734
# Velocity P-wave (km/s) = 5.55277 6.58145 6.08887
#
# Compressibility (1/GPa) = 0.02956279
#
# Stress axis : x y z
#
# Youngs Moduli (GPa) = 38.29393 76.30251 53.02672
#
# Poissons Ratio (x) = 0.29776 0.46508
# Poissons Ratio (y) = 0.14944 0.08402
# Poissons Ratio (z) = 0.33587 0.12090
#
# Static dielectric constant tensor:
#      x y z
#    x 1.765150 -0.018030 -0.033880 
#    y -0.018030 1.792770 -0.013180 
#    z -0.033880 -0.013180 1.777180 
# 
# From -- ./inp_files/530228.got.cif
#   From: 2010.05.17/outbox.cif.g08.bks.cpg/sg2_266_cif.got.tgz:530228.got - 2010.06.03 11:33:40.
