data_PCOD9025615
_publ_section_title
;
Structure prediction by ZEFSAII (Michael W. Deem and Ramdas Pophale) SiO2 
 PCOD9025615
Probable space group: P -1
;
_chemical_formula_sum "Si O2"
_cell_formula_units_Z 15
_cell_length_a 11.878423
_cell_length_b 11.919832
_cell_length_c 8.674414
_cell_angle_alpha 48.174553
_cell_angle_beta 81.555486
_cell_angle_gamma 49.559341
_cell_volume 601.710443
_symmetry_space_group_name_H-M "P -1"
_symmetry_group_IT_number 2
_symmetry_cell_setting 'triclinic'
loop_
_space_group_symop_operation_xyz
x,y,z
-x,-y,-z
loop_
_atom_site_type_symbol
_atom_site_label
_atom_site_fract_x
_atom_site_fract_y
_atom_site_fract_z
Si Si1 0.699738 0.370162 0.431951
Si Si2 0.415066 0.287356 0.085094
Si Si3 0.771702 0.853663 0.079818
Si Si4 0.564320 0.556372 0.779454
Si Si5 0.000000 0.000000 0.500000
Si Si6 0.193104 0.856944 0.063703
Si Si7 0.424300 0.159847 0.669502
Si Si8 0.031691 0.627451 0.960634
O O1 0.591067 0.362189 0.357663
O O2 0.699604 0.325664 0.650029
O O3 0.623453 0.604654 0.175052
O O4 0.890364 0.171551 0.510548
O O5 0.492098 0.337932 0.136067
O O6 0.522394 0.032136 0.274790
O O7 0.235199 0.439321 0.066927
O O8 0.736786 0.739093 0.291827
O O9 0.936578 0.699977 0.077496
O O10 0.780669 0.991523 0.060480
O O11 0.597620 0.025938 0.853757
O O12 0.731488 0.285473 0.978241
O O13 0.615682 0.655773 0.588325
O O14 0.966483 0.852704 0.701223
O O15 0.000000 0.000000 0.000000
O O16 0.000000 0.500000 0.000000
#
# Coordination Sequence:
#
# PCOD9025615 Si02
#       8
#     2   2   2   2   1   2   2   2
#     4  11  24  44  73 102 142 191 242 297 376 427
#     4  11  25  44  71 110 141 189 244 302 368 449
#     4  11  23  44  69 103 142 190 237 300 364 439
#     4  12  25  45  75 106 143 190 244 305 365 450
#     4  10  22  40  70 102 136 190 246 292 364 446
#     4  12  26  46  72 103 146 187 243 307 363 437
#     4  11  24  42  73 103 147 185 243 293 372 446
#     4  11  21  41  68 100 146 189 237 304 368 436
#
# _framework density 24.928936
#
# number of rings (size 3 to 8) (size 9 to 14) (size 15 to 20)
#    0.000    0.800    4.000    2.800    5.600    0.000 
#    0.000    4.000    0.000    0.000    0.000    0.000 
#    0.000    0.000    0.000    0.000    0.000    0.000 
#
# Total GULP energy -83691.007527 kJ/mol
# GULP energy per Si atom -5579.400502 kJ/mol
# Density = 2.487220 g / cm^3
# Si number density = 24.928936 Si / 1000 Ang^3
#
#
#
# Elastic Constant Matrix: (Units=GPa)
#
#
# Indices 1 2 3 4 5 6 
#
# 1 121.2504 36.4072 42.5391 3.2632 -14.5290 -2.4190
# 2 36.4072 117.2405 11.9602 -16.8207 -28.7617 4.9512
# 3 42.5391 11.9602 64.6601 10.8690 -27.6811 -6.5529
# 4 3.2632 -16.8207 10.8690 26.1029 -5.9432 -13.6597
# 5 -14.5290 -28.7617 -27.6811 -5.9432 41.2695 6.0483
# 6 -2.4190 4.9512 -6.5529 -13.6597 6.0483 62.4870
#
#
#
# Elastic Compliance Matrix: (Units=1/GPa)
#
#
# Indices 1 2 3 4 5 6 
#
# 1 0.012183 -0.004346 -0.009106 -0.001700 -0.005090 -0.000018
# 2 -0.004346 0.014098 0.003700 0.011065 0.012322 0.000329
# 3 -0.009106 0.003700 0.029447 -0.004726 0.018500 -0.000381
# 4 -0.001700 0.011065 -0.004726 0.055014 0.010462 0.009575
# 5 -0.005090 0.012322 0.018500 0.010462 0.045135 -0.001315
# 6 -0.000018 0.000329 -0.000381 0.009575 -0.001315 0.018157
#
#
# Mechanical properties :
#
#
# Convention : Reuss Voigt Hill
#
# Bulk Modulus (GPa) = 27.60569 53.88491 40.74530
# Shear Modulus (GPa) = 24.31767 40.12152 32.21959
#
# Velocity S-wave (km/s) = 3.12665 4.01613 3.59898
# Velocity P-wave (km/s) = 4.91248 6.57024 5.80088
#
# Compressibility (1/GPa) = 0.03622442
#
# Stress axis : x y z
#
# Youngs Moduli (GPa) = 82.08492 70.93088 33.95897
#
# Poissons Ratio (x) = 0.30826 0.30922
# Poissons Ratio (y) = 0.35674 -0.12565
# Poissons Ratio (z) = 0.74745 -0.26244
#
# Static dielectric constant tensor:
#      x y z
#    x 2.034660 0.031120 0.017370 
#    y 0.031120 1.988830 0.036480 
#    z 0.017370 0.036480 2.018770 
# 
# From -- ./inp_files/256322.got.cif
#   From: 2010.05.17/outbox.cif.g08.bks.cpg/sg2_129_cif.got.tgz:256322.got - 2010.06.03 11:33:40.
