data_PCOD9025008
_publ_section_title
;
Structure prediction by ZEFSAII (Michael W. Deem and Ramdas Pophale) SiO2 
 PCOD9025008
Probable space group: P -1
;
_chemical_formula_sum "Si O2"
_cell_formula_units_Z 14
_cell_length_a 12.893987
_cell_length_b 11.595088
_cell_length_c 11.429239
_cell_angle_alpha 33.211838
_cell_angle_beta 75.623252
_cell_angle_gamma 99.190990
_cell_volume 654.004862
_symmetry_space_group_name_H-M "P -1"
_symmetry_group_IT_number 2
_symmetry_cell_setting 'triclinic'
loop_
_space_group_symop_operation_xyz
x,y,z
-x,-y,-z
loop_
_atom_site_type_symbol
_atom_site_label
_atom_site_fract_x
_atom_site_fract_y
_atom_site_fract_z
Si Si1 0.396772 0.565669 0.483740
Si Si2 0.314376 0.794912 0.149799
Si Si3 0.753938 0.439022 0.866670
Si Si4 0.837348 0.381207 0.147175
Si Si5 0.261825 0.090431 0.099604
Si Si6 0.971773 0.971885 0.670106
Si Si7 0.554813 0.750993 0.863397
O O1 0.500000 0.500000 0.500000
O O2 0.317587 0.562548 0.397303
O O3 0.282034 0.322909 0.815100
O O4 0.518000 0.910107 0.184419
O O5 0.224765 0.676074 0.155632
O O6 0.264281 0.888988 0.185796
O O7 0.793687 0.382949 0.025258
O O8 0.585012 0.285914 0.051810
O O9 0.864639 0.789854 0.524338
O O10 0.702327 0.062882 0.506695
O O11 0.865491 0.627793 0.007969
O O12 0.000000 0.500000 0.000000
O O13 0.112881 0.932859 0.347222
O O14 0.394147 0.261917 0.012196
O O15 0.000000 0.000000 0.500000
O O16 0.500000 0.500000 0.000000
#
# Coordination Sequence:
#
# PCOD9025008 Si02
#       7
#     2   2   2   2   2   2   2
#     4   9  19  39  62  98 136 180 215 274 344 401
#     4  10  22  40  67 100 136 178 229 279 348 393
#     4  11  23  42  67  98 136 170 238 286 325 414
#     4  11  24  44  67  95 138 185 222 281 357 403
#     4  11  24  42  70  96 144 179 222 279 351 412
#     4  10  23  45  64  93 136 182 220 278 348 406
#     4  12  24  39  69 105 132 176 234 283 335 405
#
# _framework density 21.406569000000001
#
# number of rings (size 3 to 8) (size 9 to 14) (size 15 to 20)
#    0.000    1.429    0.000    7.286    6.000    0.571 
#    5.143    0.714    0.000    0.000    0.000    0.000 
#    0.000    0.000    0.000    0.000    0.000    0.000 
#
# Total GULP energy -78053.650360 kJ/mol
# GULP energy per Si atom -5575.260740 kJ/mol
# Density = 2.135785 g / cm^3
# Si number density = 21.406569 Si / 1000 Ang^3
#
#
#
# Elastic Constant Matrix: (Units=GPa)
#
#
# Indices 1 2 3 4 5 6 
#
# 1 106.8991 38.7583 30.4098 8.8056 -7.1196 -2.2894
# 2 38.7583 132.1696 32.9555 -6.1311 -3.7453 -11.1063
# 3 30.4098 32.9555 112.4273 -7.4209 -0.6790 7.3511
# 4 8.8056 -6.1311 -7.4209 26.7553 5.8060 -2.8937
# 5 -7.1196 -3.7453 -0.6790 5.8060 38.8487 7.0381
# 6 -2.2894 -11.1063 7.3511 -2.8937 7.0381 42.5023
#
#
#
# Elastic Compliance Matrix: (Units=1/GPa)
#
#
# Indices 1 2 3 4 5 6 
#
# 1 0.011901 -0.003075 -0.002661 -0.006041 0.002847 -0.000585
# 2 -0.003075 0.009307 -0.001888 0.003086 -0.000689 0.002917
# 3 -0.002661 -0.001888 0.010519 0.003257 -0.000585 -0.002137
# 4 -0.006041 0.003086 0.003257 0.043153 -0.007958 0.004174
# 5 0.002847 -0.000689 -0.000585 -0.007958 0.028309 -0.005155
# 6 -0.000585 0.002917 -0.002137 0.004174 -0.005155 0.025766
#
#
# Mechanical properties :
#
#
# Convention : Reuss Voigt Hill
#
# Bulk Modulus (GPa) = 60.68019 61.74923 61.21471
# Shear Modulus (GPa) = 33.40092 38.24607 35.82350
#
# Velocity S-wave (km/s) = 3.95436 4.23147 4.09526
# Velocity P-wave (km/s) = 7.01836 7.26514 7.14282
#
# Compressibility (1/GPa) = 0.01647984
#
# Stress axis : x y z
#
# Youngs Moduli (GPa) = 84.02500 107.44292 95.06737
#
# Poissons Ratio (x) = 0.33041 0.25297
# Poissons Ratio (y) = 0.25839 0.17945
# Poissons Ratio (z) = 0.22359 0.20281
#
# Static dielectric constant tensor:
#      x y z
#    x 1.816530 -0.048430 0.022010 
#    y -0.048430 1.836410 -0.001470 
#    z 0.022010 -0.001470 1.875300 
# 
# From -- ./inp_files/427243.got.cif
#   From: 2010.05.17/outbox.cif.g08.bks.cpg/sg2_214_cif.got.tgz:427243.got - 2010.06.03 11:33:40.
