data_PCOD9025364
_publ_section_title
;
Structure prediction by ZEFSAII (Michael W. Deem and Ramdas Pophale) SiO2 
 PCOD9025364
Probable space group: P -1
;
_chemical_formula_sum "Si O2"
_cell_formula_units_Z 13
_cell_length_a 18.796440
_cell_length_b 18.874352
_cell_length_c 10.976155
_cell_angle_alpha 143.971362
_cell_angle_beta 24.570256
_cell_angle_gamma 158.056075
_cell_volume 589.676148
_symmetry_space_group_name_H-M "P -1"
_symmetry_group_IT_number 2
_symmetry_cell_setting 'triclinic'
loop_
_space_group_symop_operation_xyz
x,y,z
-x,-y,-z
loop_
_atom_site_type_symbol
_atom_site_label
_atom_site_fract_x
_atom_site_fract_y
_atom_site_fract_z
Si Si1 0.500000 0.500000 0.500000
Si Si2 0.380256 0.825237 0.366399
Si Si3 0.511425 0.574268 0.298485
Si Si4 0.181533 0.485032 0.332684
Si Si5 0.932869 0.302238 0.708824
Si Si6 0.626258 0.898310 0.610888
Si Si7 0.293431 0.123286 0.268414
O O1 0.548713 0.562444 0.365851
O O2 0.483919 0.346749 0.277358
O O3 0.364168 0.695409 0.291470
O O4 0.071548 0.675958 0.590282
O O5 0.500000 0.000000 0.500000
O O6 0.575763 0.906989 0.060968
O O7 0.640626 0.777837 0.355521
O O8 0.187199 0.406146 0.541454
O O9 0.644952 0.541338 0.967259
O O10 0.050916 0.443992 0.609772
O O11 0.795670 0.106634 0.590871
O O12 0.693009 0.237781 0.065837
O O13 0.730145 0.934760 0.638064
O O14 0.000000 0.000000 0.500000
#
# Coordination Sequence:
#
# PCOD9025364 Si02
#       7
#     1   2   2   2   2   2   2
#     4  10  22  40  68  96 130 154 226 274 314 390
#     4  11  26  43  66  98 132 173 216 274 333 380
#     4  11  23  40  69  96 125 177 212 269 329 383
#     4  11  25  45  63  97 136 168 221 267 326 396
#     4  11  23  45  63  93 136 172 217 265 326 391
#     4  10  24  41  65  96 130 168 222 270 316 390
#     4  11  22  41  67  96 124 170 220 272 326 383
#
# _framework density 22.045999999999999
#
# number of rings (size 3 to 8) (size 9 to 14) (size 15 to 20)
#    0.000    1.231    3.077    1.846    4.308    1.846 
#    2.769    0.000    0.000    0.000    0.000    0.000 
#    0.000    0.000    0.000    0.000    0.000    0.000 
#
# Total GULP energy -72476.038505 kJ/mol
# GULP energy per Si atom -5575.079885 kJ/mol
# Density = 2.199582 g / cm^3
# Si number density = 22.046000 Si / 1000 Ang^3
#
#
#
# Elastic Constant Matrix: (Units=GPa)
#
#
# Indices 1 2 3 4 5 6 
#
# 1 28.1340 2.8024 12.0123 -4.0599 -5.3004 -8.7108
# 2 2.8024 65.8565 24.4784 24.4814 0.8218 2.7266
# 3 12.0123 24.4784 67.9619 10.0811 -19.2068 20.5571
# 4 -4.0599 24.4814 10.0811 36.0147 1.7202 0.6897
# 5 -5.3004 0.8218 -19.2068 1.7202 29.4703 1.6669
# 6 -8.7108 2.7266 20.5571 0.6897 1.6669 23.0993
#
#
#
# Elastic Compliance Matrix: (Units=1/GPa)
#
#
# Indices 1 2 3 4 5 6 
#
# 1 0.071208 0.003502 -0.040750 0.016717 -0.018418 0.063534
# 2 0.003502 0.024162 -0.013477 -0.012058 -0.008771 0.011455
# 3 -0.040750 -0.013477 0.060130 -0.012695 0.036912 -0.069573
# 4 0.016717 -0.012058 -0.012695 0.041449 -0.008391 0.018392
# 5 -0.018418 -0.008771 0.036912 -0.008391 0.057825 -0.042682
# 6 0.063534 0.011455 -0.069573 0.018392 -0.042682 0.130344
#
#
# Mechanical properties :
#
#
# Convention : Reuss Voigt Hill
#
# Bulk Modulus (GPa) = 18.50144 26.72651 22.61397
# Shear Modulus (GPa) = 9.90912 25.89415 17.90163
#
# Velocity S-wave (km/s) = 2.12238 3.43089 2.85268
# Velocity P-wave (km/s) = 3.79690 5.27675 4.59676
#
# Compressibility (1/GPa) = 0.05404985
#
# Stress axis : x y z
#
# Youngs Moduli (GPa) = 14.04335 41.38669 16.63071
#
# Poissons Ratio (x) = -0.14492 0.67770
# Poissons Ratio (y) = -0.04917 0.22413
# Poissons Ratio (z) = 0.57226 0.55776
#
# Static dielectric constant tensor:
#      x y z
#    x 1.835670 0.021880 -0.006080 
#    y 0.021880 1.822120 0.008690 
#    z -0.006080 0.008690 1.807760 
# 
# From -- ./inp_files/175964.got.cif
#   From: 2010.05.17/outbox.cif.g08.bks.cpg/sg2_88_cif.got.tgz:175964.got - 2010.06.03 11:33:40.
