data_PCOD9025280
_publ_section_title
;
Structure prediction by ZEFSAII (Michael W. Deem and Ramdas Pophale) SiO2 
 PCOD9025280
Probable space group: P -1
;
_chemical_formula_sum "Si O2"
_cell_formula_units_Z 15
_cell_length_a 17.634224
_cell_length_b 9.199589
_cell_length_c 16.826186
_cell_angle_alpha 38.708695
_cell_angle_beta 22.493670
_cell_angle_gamma 43.318912
_cell_volume 652.831267
_symmetry_space_group_name_H-M "P -1"
_symmetry_group_IT_number 2
_symmetry_cell_setting 'triclinic'
loop_
_space_group_symop_operation_xyz
x,y,z
-x,-y,-z
loop_
_atom_site_type_symbol
_atom_site_label
_atom_site_fract_x
_atom_site_fract_y
_atom_site_fract_z
Si Si1 0.493410 0.584254 0.618556
Si Si2 0.751749 0.519865 0.533327
Si Si3 0.729467 0.839122 0.000051
Si Si4 0.167957 0.961743 0.788173
Si Si5 0.499462 0.313113 0.008570
Si Si6 0.500000 0.500000 0.500000
Si Si7 0.138697 0.226268 0.276844
Si Si8 0.911497 0.250783 0.208702
O O1 0.636945 0.446042 0.596728
O O2 0.331617 0.760195 0.736873
O O3 0.597881 0.683442 0.398553
O O4 0.369136 0.393109 0.767561
O O5 0.642618 0.415810 0.758345
O O6 0.979478 0.438708 0.344521
O O7 0.728551 0.795864 0.430129
O O8 0.743053 0.779244 0.918718
O O9 0.950437 0.861594 0.809068
O O10 0.600436 0.068997 0.041120
O O11 0.074789 0.892487 0.824468
O O12 0.000000 0.000000 0.000000
O O13 0.500000 0.500000 0.000000
O O14 0.292573 0.254224 0.188782
O O15 0.683862 0.299695 0.426492
O O16 0.000000 0.000000 0.500000
O O17 0.000000 0.500000 0.000000
#
# Coordination Sequence:
#
# PCOD9025280 Si02
#       8
#     2   2   2   2   2   1   2   2
#     4  11  23  43  73 105 139 190 237 295 358 442
#     4  12  26  46  72 104 151 187 245 298 377 434
#     4  12  23  47  76 101 141 188 245 298 359 436
#     4  11  26  43  71 108 147 191 234 297 377 440
#     4  12  30  48  73 110 149 193 248 314 373 433
#     4  10  22  40  68 106 136 178 234 278 362 414
#     4  12  25  48  78 103 139 196 253 299 358 444
#     4  11  24  45  68 105 141 183 242 296 353 437
#
# _framework density 22.976839999999999
#
# number of rings (size 3 to 8) (size 9 to 14) (size 15 to 20)
#    0.000    0.533    5.333    3.200    3.733    3.733 
#    0.000    0.000    0.000    0.000    0.000    0.000 
#    0.000    0.000    0.000    0.000    0.000    0.000 
#
# Total GULP energy -83673.149638 kJ/mol
# GULP energy per Si atom -5578.209976 kJ/mol
# Density = 2.292454 g / cm^3
# Si number density = 22.976840 Si / 1000 Ang^3
#
#
#
# Elastic Constant Matrix: (Units=GPa)
#
#
# Indices 1 2 3 4 5 6 
#
# 1 148.2470 52.2905 38.0988 28.7478 -29.8794 4.3347
# 2 52.2905 138.8029 52.3126 30.8650 -9.2369 -9.4791
# 3 38.0988 52.3126 94.8228 6.7305 -12.4946 0.7584
# 4 28.7478 30.8650 6.7305 47.3191 -11.5009 -1.0161
# 5 -29.8794 -9.2369 -12.4946 -11.5009 39.3578 12.1258
# 6 4.3347 -9.4791 0.7584 -1.0161 12.1258 44.5569
#
#
#
# Elastic Compliance Matrix: (Units=1/GPa)
#
#
# Indices 1 2 3 4 5 6 
#
# 1 0.009964 -0.002311 -0.001620 -0.002752 0.006729 -0.003327
# 2 -0.002311 0.011521 -0.005510 -0.006153 -0.003719 0.003641
# 3 -0.001620 -0.005510 0.014509 0.003379 0.003749 -0.002205
# 4 -0.002752 -0.006153 0.003379 0.027834 0.006348 -0.002192
# 5 0.006729 -0.003719 0.003749 0.006348 0.036139 -0.011200
# 6 -0.003327 0.003641 -0.002205 -0.002192 -0.011200 0.026577
#
#
# Mechanical properties :
#
#
# Convention : Reuss Voigt Hill
#
# Bulk Modulus (GPa) = 58.43857 74.14185 66.29021
# Shear Modulus (GPa) = 33.08425 42.19149 37.63787
#
# Velocity S-wave (km/s) = 3.79871 4.28981 4.05171
# Velocity P-wave (km/s) = 6.68799 7.54154 7.12755
#
# Compressibility (1/GPa) = 0.01711199
#
# Stress axis : x y z
#
# Youngs Moduli (GPa) = 100.36150 86.79794 68.92439
#
# Poissons Ratio (x) = 0.20056 0.11167
# Poissons Ratio (y) = 0.23190 0.37978
# Poissons Ratio (z) = 0.16260 0.47827
#
# Static dielectric constant tensor:
#      x y z
#    x 1.664710 -0.055150 0.293780 
#    y -0.055150 1.843140 0.009150 
#    z 0.293780 0.009150 1.933140 
# 
# From -- ./inp_files/575499.got.cif
#   From: 2010.05.17/outbox.cif.g08.bks.cpg/sg2_288_cif.got.tgz:575499.got - 2010.06.03 11:33:40.
