data_PCOD9025428
_publ_section_title
;
Structure prediction by ZEFSAII (Michael W. Deem and Ramdas Pophale) SiO2 
 PCOD9025428
Probable space group: P -1
;
_chemical_formula_sum "Si O2"
_cell_formula_units_Z 14
_cell_length_a 18.618739
_cell_length_b 8.522787
_cell_length_c 9.034348
_cell_angle_alpha 64.173331
_cell_angle_beta 55.294705
_cell_angle_gamma 30.858322
_cell_volume 599.685940
_symmetry_space_group_name_H-M "P -1"
_symmetry_group_IT_number 2
_symmetry_cell_setting 'triclinic'
loop_
_space_group_symop_operation_xyz
x,y,z
-x,-y,-z
loop_
_atom_site_type_symbol
_atom_site_label
_atom_site_fract_x
_atom_site_fract_y
_atom_site_fract_z
Si Si1 0.076546 0.138504 0.972937
Si Si2 0.569376 0.713737 0.862991
Si Si3 0.101760 0.227090 0.377294
Si Si4 0.758566 0.850175 0.021019
Si Si5 0.727958 0.201782 0.406586
Si Si6 0.903838 0.041094 0.701605
Si Si7 0.523167 0.194717 0.724240
O O1 0.899080 0.488122 0.033306
O O2 0.073972 0.969866 0.144773
O O3 0.195770 0.068290 0.954118
O O4 0.146448 0.020941 0.778149
O O5 0.720317 0.368647 0.767896
O O6 0.418433 0.916075 0.858894
O O7 0.590689 0.888449 0.757055
O O8 0.543573 0.696902 0.072749
O O9 0.000000 0.500000 0.500000
O O10 0.178316 0.941798 0.492970
O O11 0.025357 0.264023 0.307810
O O12 0.224655 0.138841 0.180008
O O13 0.638431 0.164683 0.559190
O O14 0.613811 0.538525 0.342918
O O15 0.000000 0.000000 0.500000
#
# Coordination Sequence:
#
# PCOD9025428 Si02
#       7
#     2   2   2   2   2   2   2
#     4  10  22  42  67  98 136 177 226 280 333 405
#     4  11  23  44  66 100 139 180 226 281 344 398
#     4  11  23  40  70  98 131 182 228 274 335 413
#     4  10  22  40  68  99 134 176 225 278 340 398
#     4  11  21  43  65 102 133 180 228 276 331 411
#     4  11  27  45  67  98 139 182 228 285 343 400
#     4  10  24  38  69 101 139 176 223 286 337 400
#
# _framework density 23.345554
#
# number of rings (size 3 to 8) (size 9 to 14) (size 15 to 20)
#    0.000    1.429    4.286    0.000    2.000    5.714 
#    0.000    3.571    0.000    0.000    0.000    0.000 
#    0.000    0.000    0.000    0.000    0.000    0.000 
#
# Total GULP energy -77970.483325 kJ/mol
# GULP energy per Si atom -5569.320238 kJ/mol
# Density = 2.329242 g / cm^3
# Si number density = 23.345554 Si / 1000 Ang^3
#
#
#
# Elastic Constant Matrix: (Units=GPa)
#
#
# Indices 1 2 3 4 5 6 
#
# 1 46.3716 22.4849 33.9895 2.8100 11.2664 -6.7789
# 2 22.4849 113.5464 54.2017 -1.9729 8.9769 -11.5322
# 3 33.9895 54.2017 146.6179 -2.4260 5.8333 -5.5422
# 4 2.8100 -1.9729 -2.4260 39.3134 -0.8551 6.2433
# 5 11.2664 8.9769 5.8333 -0.8551 33.4390 -1.7583
# 6 -6.7789 -11.5322 -5.5422 6.2433 -1.7583 25.3252
#
#
#
# Elastic Compliance Matrix: (Units=1/GPa)
#
#
# Indices 1 2 3 4 5 6 
#
# 1 0.029838 -0.001975 -0.005685 -0.003746 -0.008302 0.006191
# 2 -0.001975 0.011404 -0.003553 -0.000146 -0.001579 0.003813
# 3 -0.005685 -0.003553 0.009374 0.001033 0.001194 -0.001260
# 4 -0.003746 -0.000146 0.001033 0.026966 0.001422 -0.007392
# 5 -0.008302 -0.001579 0.001194 0.001422 0.032915 -0.000745
# 6 0.006191 0.003813 -0.001260 -0.007392 -0.000745 0.044375
#
#
# Mechanical properties :
#
#
# Convention : Reuss Voigt Hill
#
# Bulk Modulus (GPa) = 35.47394 58.65424 47.06409
# Shear Modulus (GPa) = 26.78170 32.67283 29.72727
#
# Velocity S-wave (km/s) = 3.39069 3.74509 3.57229
# Velocity P-wave (km/s) = 5.52785 6.62419 6.10070
#
# Compressibility (1/GPa) = 0.02818971
#
# Stress axis : x y z
#
# Youngs Moduli (GPa) = 33.51377 87.68946 106.67943
#
# Poissons Ratio (x) = 0.17319 0.60645
# Poissons Ratio (y) = 0.06619 0.37907
# Poissons Ratio (z) = 0.19052 0.31159
#
# Static dielectric constant tensor:
#      x y z
#    x 1.994680 -0.005240 -0.104190 
#    y -0.005240 1.917370 -0.066180 
#    z -0.104190 -0.066180 2.010110 
# 
# From -- ./inp_files/343406.got.cif
#   From: 2010.05.17/outbox.cif.g08.bks.cpg/sg2_172_cif.got.tgz:343406.got - 2010.06.03 11:33:40.
