data_PCOD9025140
_publ_section_title
;
Structure prediction by ZEFSAII (Michael W. Deem and Ramdas Pophale) SiO2 
 PCOD9025140
Probable space group: P -1
;
_chemical_formula_sum "Si O2"
_cell_formula_units_Z 16
_cell_length_a 10.612057
_cell_length_b 12.260221
_cell_length_c 16.198736
_cell_angle_alpha 42.130879
_cell_angle_beta 30.563879
_cell_angle_gamma 56.038730
_cell_volume 698.895111
_symmetry_space_group_name_H-M "P -1"
_symmetry_group_IT_number 2
_symmetry_cell_setting 'triclinic'
loop_
_space_group_symop_operation_xyz
x,y,z
-x,-y,-z
loop_
_atom_site_type_symbol
_atom_site_label
_atom_site_fract_x
_atom_site_fract_y
_atom_site_fract_z
Si Si1 0.602620 0.471077 0.070334
Si Si2 0.199264 0.300156 0.029936
Si Si3 0.395580 0.779931 0.589823
Si Si4 0.642958 0.119808 0.263720
Si Si5 0.350850 0.979866 0.183229
Si Si6 0.798247 0.856083 0.059639
Si Si7 0.308235 0.396856 0.598293
Si Si8 0.934151 0.635167 0.645288
O O1 0.688488 0.300670 0.094484
O O2 0.301244 0.428983 0.247821
O O3 0.778421 0.611572 0.833345
O O4 0.657085 0.534563 0.096941
O O5 0.902848 0.297533 0.200858
O O6 0.246568 0.146142 0.144830
O O7 0.267840 0.268254 0.913653
O O8 0.467776 0.830598 0.614952
O O9 0.547623 0.664699 0.523372
O O10 0.457189 0.966330 0.409887
O O11 0.904049 0.062115 0.168145
O O12 0.581823 0.960638 0.123907
O O13 0.116811 0.817101 0.419408
O O14 0.500000 0.000000 0.000000
O O15 0.808297 0.767329 0.190616
O O16 0.500000 0.500000 0.500000
O O17 0.119383 0.508532 0.614364
#
# Coordination Sequence:
#
# PCOD9025140 Si02
#       8
#     2   2   2   2   2   2   2   2
#     4  11  24  42  68  97 136 179 225 281 333 405
#     4  10  23  42  67  98 129 184 223 273 335 405
#     4  10  24  40  68  98 134 182 224 275 339 395
#     4  10  22  44  64  96 138 178 226 276 329 410
#     4  10  22  42  65  92 134 173 221 274 334 400
#     4  10  22  40  67  95 134 170 223 276 336 395
#     4  12  23  41  69 102 132 170 223 286 334 399
#     4  11  24  43  64  99 137 175 221 283 341 395
#
# _framework density 22.893277999999999
#
# number of rings (size 3 to 8) (size 9 to 14) (size 15 to 20)
#    0.000    1.500    2.500    1.500    1.750    4.000 
#    4.500    5.625    0.000    0.000    0.000    0.000 
#    0.000    0.000    0.000    0.000    0.000    0.000 
#
# Total GULP energy -89284.386951 kJ/mol
# GULP energy per Si atom -5580.274184 kJ/mol
# Density = 2.284117 g / cm^3
# Si number density = 22.893278 Si / 1000 Ang^3
#
#
#
# Elastic Constant Matrix: (Units=GPa)
#
#
# Indices 1 2 3 4 5 6 
#
# 1 79.4238 52.0135 31.8872 12.7880 -12.5687 -15.6151
# 2 52.0135 112.5706 43.7946 6.4413 -9.6081 -20.9622
# 3 31.8872 43.7946 130.7535 2.0948 2.9656 -7.1936
# 4 12.7880 6.4413 2.0948 35.8220 -9.5798 0.2607
# 5 -12.5687 -9.6081 2.9656 -9.5798 30.0531 5.0058
# 6 -15.6151 -20.9622 -7.1936 0.2607 5.0058 39.1729
#
#
#
# Elastic Compliance Matrix: (Units=1/GPa)
#
#
# Indices 1 2 3 4 5 6 
#
# 1 0.020385 -0.007232 -0.002393 -0.004681 0.004410 0.003284
# 2 -0.007232 0.014133 -0.002787 0.000513 0.001266 0.004003
# 3 -0.002393 -0.002787 0.009202 0.000098 -0.002700 -0.000411
# 4 -0.004681 0.000513 0.000098 0.031875 0.008843 -0.002916
# 5 0.004410 0.001266 -0.002700 0.008843 0.039128 -0.003120
# 6 0.003284 0.004003 -0.000411 -0.002916 -0.003120 0.029322
#
#
# Mechanical properties :
#
#
# Convention : Reuss Voigt Hill
#
# Bulk Modulus (GPa) = 52.92135 64.23759 58.57947
# Shear Modulus (GPa) = 28.54397 34.01309 31.27853
#
# Velocity S-wave (km/s) = 3.53488 3.85869 3.70033
# Velocity P-wave (km/s) = 6.31088 6.92627 6.62572
#
# Compressibility (1/GPa) = 0.01889596
#
# Stress axis : x y z
#
# Youngs Moduli (GPa) = 49.05567 70.75548 108.67065
#
# Poissons Ratio (x) = 0.51170 0.26009
# Poissons Ratio (y) = 0.35477 0.30284
# Poissons Ratio (z) = 0.11741 0.19718
#
# Static dielectric constant tensor:
#      x y z
#    x 1.876130 -0.045570 0.099150 
#    y -0.045570 1.883070 -0.075270 
#    z 0.099150 -0.075270 2.055460 
# 
# From -- ./inp_files/568549.got.cif
#   From: 2010.05.17/outbox.cif.g08.bks.cpg/sg2_285_cif.got.tgz:568549.got - 2010.06.03 11:33:40.
