data_PCOD9025602
_publ_section_title
;
Structure prediction by ZEFSAII (Michael W. Deem and Ramdas Pophale) SiO2 
 PCOD9025602
Probable space group: P -1
;
_chemical_formula_sum "Si O2"
_cell_formula_units_Z 13
_cell_length_a 12.649914
_cell_length_b 8.751781
_cell_length_c 13.789807
_cell_angle_alpha 69.769914
_cell_angle_beta 159.217161
_cell_angle_gamma 110.292724
_cell_volume 507.012856
_symmetry_space_group_name_H-M "P -1"
_symmetry_group_IT_number 2
_symmetry_cell_setting 'triclinic'
loop_
_space_group_symop_operation_xyz
x,y,z
-x,-y,-z
loop_
_atom_site_type_symbol
_atom_site_label
_atom_site_fract_x
_atom_site_fract_y
_atom_site_fract_z
Si Si1 0.566817 0.880076 0.360078
Si Si2 0.000000 0.000000 0.000000
Si Si3 0.976677 0.914558 0.185201
Si Si4 0.850940 0.359372 0.832460
Si Si5 0.878322 0.441212 0.617667
Si Si6 0.704436 0.888270 0.258978
Si Si7 0.496955 0.560242 0.093807
O O1 0.445094 0.726960 0.351606
O O2 0.569323 0.839770 0.258323
O O3 0.886899 0.966422 0.642315
O O4 0.322354 0.018290 0.134053
O O5 0.810611 0.052143 0.731351
O O6 0.051223 0.202660 0.027277
O O7 0.965908 0.725815 0.239435
O O8 0.791516 0.426287 0.659017
O O9 0.000000 0.500000 0.000000
O O10 0.624525 0.459485 0.315409
O O11 0.147969 0.582327 0.810795
O O12 0.714969 0.722824 0.246319
O O13 0.000000 0.000000 0.500000
O O14 0.500000 0.000000 0.000000
O O15 0.500000 0.500000 0.000000
#
# Coordination Sequence:
#
# PCOD9025602 Si02
#       7
#     2   1   2   2   2   2   2
#     4  11  24  43  71 105 142 185 238 287 360 433
#     4   8  20  38  60 104 136 186 226 276 338 438
#     4  10  22  40  70 100 146 183 230 282 356 425
#     4  10  22  43  73 105 151 187 236 299 373 436
#     4  11  25  45  74 108 146 189 238 299 369 433
#     4  12  28  48  74 102 142 189 245 298 360 426
#     4  12  28  48  73 103 144 189 251 299 358 435
#
# _framework density 25.640373
#
# number of rings (size 3 to 8) (size 9 to 14) (size 15 to 20)
#    0.000    1.231    0.000    4.154    6.462   11.692 
#    0.000    4.615    0.000    0.000    0.000    0.000 
#    0.000    0.000    0.000    0.000    0.000    0.000 
#
# Total GULP energy -72494.699025 kJ/mol
# GULP energy per Si atom -5576.515310 kJ/mol
# Density = 2.558201 g / cm^3
# Si number density = 25.640373 Si / 1000 Ang^3
#
#
#
# Elastic Constant Matrix: (Units=GPa)
#
#
# Indices 1 2 3 4 5 6 
#
# 1 151.1777 53.6009 48.5790 11.8999 -43.5917 16.2058
# 2 53.6009 143.1821 40.1957 14.7953 -17.9967 -28.3450
# 3 48.5790 40.1957 141.5256 7.6981 -28.4682 -0.6385
# 4 11.8999 14.7953 7.6981 36.9552 -1.3982 -6.6608
# 5 -43.5917 -17.9967 -28.4682 -1.3982 53.8411 6.5142
# 6 16.2058 -28.3450 -0.6385 -6.6608 6.5142 34.2194
#
#
#
# Elastic Compliance Matrix: (Units=1/GPa)
#
#
# Indices 1 2 3 4 5 6 
#
# 1 0.013922 -0.006120 -0.000780 -0.004082 0.010458 -0.014462
# 2 -0.006120 0.012070 -0.001984 -0.000149 -0.003609 0.013517
# 3 -0.000780 -0.001984 0.008643 -0.000977 0.003487 -0.001967
# 4 -0.004082 -0.000149 -0.000977 0.029998 -0.004110 0.008413
# 5 0.010458 -0.003609 0.003487 -0.004110 0.029296 -0.014254
# 6 -0.014462 0.013517 -0.001967 0.008413 -0.014254 0.051583
#
#
# Mechanical properties :
#
#
# Convention : Reuss Voigt Hill
#
# Bulk Modulus (GPa) = 59.28942 80.07074 69.68008
# Shear Modulus (GPa) = 29.60283 44.57047 37.08665
#
# Velocity S-wave (km/s) = 3.40154 4.17381 3.80730
# Velocity P-wave (km/s) = 6.21297 7.38402 6.82366
#
# Compressibility (1/GPa) = 0.01686642
#
# Stress axis : x y z
#
# Youngs Moduli (GPa) = 71.82725 82.85200 115.69911
#
# Poissons Ratio (x) = 0.50702 0.09030
# Poissons Ratio (y) = 0.43956 0.22958
# Poissons Ratio (z) = 0.05606 0.16440
#
# Static dielectric constant tensor:
#      x y z
#    x 1.769610 -0.105350 -0.094730 
#    y -0.105350 2.073700 -0.019120 
#    z -0.094730 -0.019120 2.012920 
# 
# From -- ./inp_files/528353.got.cif
#   From: 2010.05.17/outbox.cif.g08.bks.cpg/sg2_265_cif.got.tgz:528353.got - 2010.06.03 11:33:40.
