data_PCOD9025593
_publ_section_title
;
Structure prediction by ZEFSAII (Michael W. Deem and Ramdas Pophale) SiO2 
 PCOD9025593
Probable space group: P -1
;
_chemical_formula_sum "Si O2"
_cell_formula_units_Z 16
_cell_length_a 11.735916
_cell_length_b 8.862590
_cell_length_c 12.814268
_cell_angle_alpha 52.267124
_cell_angle_beta 127.728770
_cell_angle_gamma 88.787204
_cell_volume 645.733715
_symmetry_space_group_name_H-M "P -1"
_symmetry_group_IT_number 2
_symmetry_cell_setting 'triclinic'
loop_
_space_group_symop_operation_xyz
x,y,z
-x,-y,-z
loop_
_atom_site_type_symbol
_atom_site_label
_atom_site_fract_x
_atom_site_fract_y
_atom_site_fract_z
Si Si1 0.823220 0.787028 0.288672
Si Si2 0.909228 0.339155 0.124606
Si Si3 0.513267 0.418468 0.181313
Si Si4 0.206785 0.040891 0.585298
Si Si5 0.495264 0.774065 0.167170
Si Si6 0.044398 0.242289 0.014400
Si Si7 0.294482 0.416534 0.434237
Si Si8 0.434731 0.853224 0.476613
O O1 0.861750 0.893656 0.361941
O O2 0.647678 0.809474 0.218387
O O3 0.000000 0.500000 0.500000
O O4 0.721068 0.978625 0.053836
O O5 0.948599 0.533018 0.067647
O O6 0.040189 0.142099 0.369804
O O7 0.696156 0.482878 0.973459
O O8 0.959807 0.234987 0.079280
O O9 0.511527 0.633263 0.132027
O O10 0.614120 0.227520 0.415849
O O11 0.629844 0.248510 0.220032
O O12 0.277302 0.198668 0.529717
O O13 0.578238 0.615340 0.386796
O O14 0.909749 0.321634 0.806562
O O15 0.259832 0.007414 0.236125
O O16 0.393735 0.364463 0.401832
O O17 0.500000 0.000000 0.500000
#
# Coordination Sequence:
#
# PCOD9025593 Si02
#       8
#     2   2   2   2   2   2   2   2
#     4  10  24  51  72  85 113 164 217 266 324 386
#     4  10  18  31  55  89 128 163 204 250 293 354
#     4  12  22  37  61  99 136 159 201 264 314 365
#     4  10  21  37  67  95 118 160 215 259 311 369
#     4  10  26  44  65  93 126 160 211 267 320 378
#     4  10  17  31  54  86 125 174 217 235 276 362
#     4  10  20  37  58  89 126 177 214 240 299 369
#     4  12  18  33  60  92 132 179 205 245 296 365
#
# _framework density 24.778013000000001
#
# number of rings (size 3 to 8) (size 9 to 14) (size 15 to 20)
#    0.000    1.500    5.000    0.750    0.000    8.000 
#    0.000    1.875    0.000    0.000    0.000    0.000 
#    0.000    0.000    0.000    0.000    0.000    0.000 
#
# Total GULP energy -89396.227026 kJ/mol
# GULP energy per Si atom -5587.264189 kJ/mol
# Density = 2.472162 g / cm^3
# Si number density = 24.778013 Si / 1000 Ang^3
#
#
#
# Elastic Constant Matrix: (Units=GPa)
#
#
# Indices 1 2 3 4 5 6 
#
# 1 31.7837 17.8830 19.6660 13.3226 1.7615 -0.8971
# 2 17.8830 89.5934 57.1420 13.2333 4.4599 -8.2540
# 3 19.6660 57.1420 224.7191 10.5095 10.0178 -12.0304
# 4 13.3226 13.2333 10.5095 36.2043 -9.7433 -5.1386
# 5 1.7615 4.4599 10.0178 -9.7433 21.9060 -4.3030
# 6 -0.8971 -8.2540 -12.0304 -5.1386 -4.3030 27.7020
#
#
#
# Elastic Compliance Matrix: (Units=1/GPa)
#
#
# Indices 1 2 3 4 5 6 
#
# 1 0.042806 -0.005066 -0.001494 -0.017054 -0.010403 -0.005551
# 2 -0.005066 0.014808 -0.002976 -0.002973 -0.002163 0.002068
# 3 -0.001494 -0.002976 0.005484 -0.000240 -0.001664 0.001144
# 4 -0.017054 -0.002973 -0.000240 0.042658 0.023013 0.009945
# 5 -0.010403 -0.002163 -0.001664 0.023013 0.060266 0.011926
# 6 -0.005551 0.002068 0.001144 0.009945 0.011926 0.040729
#
#
# Mechanical properties :
#
#
# Convention : Reuss Voigt Hill
#
# Bulk Modulus (GPa) = 22.71357 59.49756 41.10557
# Shear Modulus (GPa) = 20.79026 33.92280 27.35653
#
# Velocity S-wave (km/s) = 2.89980 3.70411 3.32635
# Velocity P-wave (km/s) = 4.51647 6.50832 5.60164
#
# Compressibility (1/GPa) = 0.04402655
#
# Stress axis : x y z
#
# Youngs Moduli (GPa) = 23.36139 67.53088 182.34635
#
# Poissons Ratio (x) = 0.34211 0.27238
# Poissons Ratio (y) = 0.11835 0.54264
# Poissons Ratio (z) = 0.03490 0.20097
#
# Static dielectric constant tensor:
#      x y z
#    x 1.580950 -0.307190 -0.194670 
#    y -0.307190 1.752920 -0.068540 
#    z -0.194670 -0.068540 2.024310 
# 
# From -- ./inp_files/529555.got.cif
#   From: 2010.05.17/outbox.cif.g08.bks.cpg/sg2_265_cif.got.tgz:529555.got - 2010.06.03 11:33:40.
