data_PCOD9025461
_publ_section_title
;
Structure prediction by ZEFSAII (Michael W. Deem and Ramdas Pophale) SiO2 
 PCOD9025461
Probable space group: P -1
;
_chemical_formula_sum "Si O2"
_cell_formula_units_Z 12
_cell_length_a 9.287119
_cell_length_b 20.808048
_cell_length_c 6.341245
_cell_angle_alpha 64.083041
_cell_angle_beta 102.384238
_cell_angle_gamma 150.860483
_cell_volume 496.002076
_symmetry_space_group_name_H-M "P -1"
_symmetry_group_IT_number 2
_symmetry_cell_setting 'triclinic'
loop_
_space_group_symop_operation_xyz
x,y,z
-x,-y,-z
loop_
_atom_site_type_symbol
_atom_site_label
_atom_site_fract_x
_atom_site_fract_y
_atom_site_fract_z
Si Si1 0.359344 0.147330 0.311062
Si Si2 0.293054 0.445900 0.200978
Si Si3 0.730965 0.218921 0.049839
Si Si4 0.312301 0.670407 0.441664
Si Si5 0.153569 0.143359 0.888136
Si Si6 0.940426 0.748520 0.202565
O O1 0.429091 0.101809 0.280741
O O2 0.626851 0.277028 0.381562
O O3 0.372825 0.217885 0.049375
O O4 0.000000 0.000000 0.500000
O O5 0.576340 0.601357 0.209713
O O6 0.103639 0.314862 0.501967
O O7 0.023818 0.367218 0.084508
O O8 0.500000 0.500000 0.000000
O O9 0.669515 0.250112 0.804846
O O10 0.846193 0.198692 0.985281
O O11 0.602465 0.739714 0.392587
O O12 0.000000 0.500000 0.500000
O O13 0.941338 0.120371 0.901035
O O14 0.000000 0.000000 0.000000
#
# Coordination Sequence:
#
# PCOD9025461 Si02
#       6
#     2   2   2   2   2   2
#     4  11  24  47  70  95 147 189 239 295 359 432
#     4   9  20  38  66 105 144 184 231 297 366 419
#     4  10  23  41  68 103 141 181 239 296 363 420
#     4  11  26  41  73 104 140 185 245 300 356 427
#     4  11  25  45  70 102 143 192 234 293 366 426
#     4  10  22  40  69 102 147 181 241 296 359 430
#
# _framework density 24.193446999999999
#
# number of rings (size 3 to 8) (size 9 to 14) (size 15 to 20)
#    0.000    1.667    1.667    1.000   11.667    2.667 
#    0.000    4.167    0.000    0.000    0.000    0.000 
#    0.000    0.000    0.000    0.000    0.000    0.000 
#
# Total GULP energy -66837.931575 kJ/mol
# GULP energy per Si atom -5569.827631 kJ/mol
# Density = 2.413838 g / cm^3
# Si number density = 24.193447 Si / 1000 Ang^3
#
#
#
# Elastic Constant Matrix: (Units=GPa)
#
#
# Indices 1 2 3 4 5 6 
#
# 1 184.7954 49.4476 53.2376 -8.8897 -48.3299 -9.1520
# 2 49.4476 108.1883 32.8718 17.2546 -6.9741 -8.6932
# 3 53.2376 32.8718 83.4054 28.3100 -27.4941 -13.7864
# 4 -8.8897 17.2546 28.3100 47.6221 13.0181 -1.0626
# 5 -48.3299 -6.9741 -27.4941 13.0181 47.6807 1.7016
# 6 -9.1520 -8.6932 -13.7864 -1.0626 1.7016 36.4404
#
#
#
# Elastic Compliance Matrix: (Units=1/GPa)
#
#
# Indices 1 2 3 4 5 6 
#
# 1 0.008976 -0.003145 -0.004072 0.003794 0.005260 -0.000171
# 2 -0.003145 0.011761 -0.001886 -0.003229 -0.001719 0.001289
# 3 -0.004072 -0.001886 0.031645 -0.024195 0.020135 0.008854
# 4 0.003794 -0.003229 -0.024195 0.043159 -0.022124 -0.006680
# 5 0.005260 -0.001719 0.020135 -0.022124 0.043495 0.005852
# 6 -0.000171 0.001289 0.008854 -0.006680 0.005852 0.030588
#
#
# Mechanical properties :
#
#
# Convention : Reuss Voigt Hill
#
# Bulk Modulus (GPa) = 29.25934 71.94479 50.60207
# Shear Modulus (GPa) = 25.09771 42.40410 33.75090
#
# Velocity S-wave (km/s) = 3.22433 4.19108 3.73908
# Velocity P-wave (km/s) = 5.09724 7.29535 6.29301
#
# Compressibility (1/GPa) = 0.03417712
#
# Stress axis : x y z
#
# Youngs Moduli (GPa) = 111.41222 85.02569 31.60042
#
# Poissons Ratio (x) = 0.26740 0.12866
# Poissons Ratio (y) = 0.35038 0.05959
# Poissons Ratio (z) = 0.45363 0.16035
#
# Static dielectric constant tensor:
#      x y z
#    x 2.049110 -0.024090 -0.119350 
#    y -0.024090 2.096810 -0.044150 
#    z -0.119350 -0.044150 2.062250 
# 
# From -- ./inp_files/52774.got.cif
#   From: 2010.05.17/outbox.cif.g08.bks.cpg/sg2_27_cif.got.tgz:52774.got - 2010.06.03 11:33:40.
