data_PCOD9025977
_publ_section_title
;
Structure prediction by ZEFSAII (Michael W. Deem and Ramdas Pophale) SiO2 
 PCOD9025977
Probable space group: P -1
;
_chemical_formula_sum "Si O2"
_cell_formula_units_Z 12
_cell_length_a 5.590884
_cell_length_b 4.890564
_cell_length_c 17.452841
_cell_angle_alpha 80.273676
_cell_angle_beta 63.938441
_cell_angle_gamma 82.976684
_cell_volume 421.899982
_symmetry_space_group_name_H-M "P -1"
_symmetry_group_IT_number 2
_symmetry_cell_setting 'triclinic'
loop_
_space_group_symop_operation_xyz
x,y,z
-x,-y,-z
loop_
_atom_site_type_symbol
_atom_site_label
_atom_site_fract_x
_atom_site_fract_y
_atom_site_fract_z
Si Si1 0.328344 0.553223 0.328198
Si Si2 0.238458 0.213052 0.902014
Si Si3 0.771395 0.677685 0.358478
Si Si4 0.756429 0.221995 0.509949
Si Si5 0.762621 0.664796 0.937540
Si Si6 0.548547 0.741854 0.810301
O O1 0.633584 0.640231 0.296950
O O2 0.240451 0.560381 0.428812
O O3 0.352515 0.268608 0.290012
O O4 0.083351 0.735738 0.314124
O O5 0.479520 0.419259 0.844949
O O6 0.991042 0.424296 0.912463
O O7 0.293941 0.943902 0.855358
O O8 0.221898 0.143883 0.998345
O O9 0.775377 0.391639 0.420908
O O10 0.549087 0.869283 0.426733
O O11 0.000000 0.000000 0.500000
O O12 0.737160 0.805049 0.851793
O O13 0.500000 0.500000 0.000000
#
# Coordination Sequence:
#
# PCOD9025977 Si02
#       6
#     2   2   2   2   2   2
#     4  10  22  41  60  90 132 166 215 276 329 388
#     4  10  23  42  65  92 128 171 217 266 329 396
#     4   9  21  41  57  88 126 165 213 274 318 398
#     4   9  20  38  64  88 120 171 219 262 331 390
#     4   9  21  41  65  94 126 169 217 268 324 396
#     4  11  24  41  63  95 129 170 215 272 332 389
#
# _framework density 28.442758000000001
#
# number of rings (size 3 to 8) (size 9 to 14) (size 15 to 20)
#    1.000    1.333    0.000    1.000    2.333   10.667 
#    3.000    0.000    0.000    0.000    0.000    0.000 
#    0.000    0.000    0.000    0.000    0.000    0.000 
#
# Total GULP energy -67039.575756 kJ/mol
# GULP energy per Si atom -5586.631313 kJ/mol
# Density = 2.837802 g / cm^3
# Si number density = 28.442758 Si / 1000 Ang^3
#
#
#
# Elastic Constant Matrix: (Units=GPa)
#
#
# Indices 1 2 3 4 5 6 
#
# 1 181.8543 46.7761 40.5954 11.8398 11.3858 -36.2459
# 2 46.7761 153.0441 70.3934 24.4391 1.1293 -11.3289
# 3 40.5954 70.3934 160.7159 37.3513 15.1318 -12.2901
# 4 11.8398 24.4391 37.3513 58.6306 -9.7531 0.3221
# 5 11.3858 1.1293 15.1318 -9.7531 40.2376 10.3533
# 6 -36.2459 -11.3289 -12.2901 0.3221 10.3533 52.4358
#
#
#
# Elastic Compliance Matrix: (Units=1/GPa)
#
#
# Indices 1 2 3 4 5 6 
#
# 1 0.007332 -0.001547 -0.000064 -0.001452 -0.003767 0.005472
# 2 -0.001547 0.008660 -0.003310 -0.000978 0.001258 -0.000216
# 3 -0.000064 -0.003310 0.009771 -0.005788 -0.005657 0.002683
# 4 -0.001452 -0.000978 -0.005788 0.023028 0.009371 -0.004563
# 5 -0.003767 0.001258 -0.005657 0.009371 0.032910 -0.010214
# 6 0.005472 -0.000216 0.002683 -0.004563 -0.010214 0.025480
#
#
# Mechanical properties :
#
#
# Convention : Reuss Voigt Hill
#
# Bulk Modulus (GPa) = 62.80810 90.12712 76.46761
# Shear Modulus (GPa) = 40.87303 52.78411 46.82857
#
# Velocity S-wave (km/s) = 3.79493 4.31257 4.06201
# Velocity P-wave (km/s) = 6.42901 7.52022 6.99592
#
# Compressibility (1/GPa) = 0.01592151
#
# Stress axis : x y z
#
# Youngs Moduli (GPa) = 136.38810 115.47009 102.34299
#
# Poissons Ratio (x) = 0.17862 0.00655
# Poissons Ratio (y) = 0.21097 0.33876
# Poissons Ratio (z) = 0.00873 0.38222
#
# Static dielectric constant tensor:
#      x y z
#    x 2.456960 0.102780 0.016880 
#    y 0.102780 2.146790 -0.017730 
#    z 0.016880 -0.017730 2.328520 
# 
# From -- ./inp_files/545671.got.cif
#   From: 2010.05.17/outbox.cif.g08.bks.cpg/sg2_273_cif.got.tgz:545671.got - 2010.06.03 11:33:40.
