data_PCOD9025986
_publ_section_title
;
Structure prediction by ZEFSAII (Michael W. Deem and Ramdas Pophale) SiO2 
 PCOD9025986
Probable space group: P -1
;
_chemical_formula_sum "Si O2"
_cell_formula_units_Z 14
_cell_length_a 8.762038
_cell_length_b 13.247217
_cell_length_c 12.329505
_cell_angle_alpha 37.673181
_cell_angle_beta 92.811567
_cell_angle_gamma 72.671230
_cell_volume 728.692074
_symmetry_space_group_name_H-M "P -1"
_symmetry_group_IT_number 2
_symmetry_cell_setting 'triclinic'
loop_
_space_group_symop_operation_xyz
x,y,z
-x,-y,-z
loop_
_atom_site_type_symbol
_atom_site_label
_atom_site_fract_x
_atom_site_fract_y
_atom_site_fract_z
Si Si1 0.006323 0.968158 0.399540
Si Si2 0.129564 0.185458 0.064951
Si Si3 0.855982 0.212554 0.863434
Si Si4 0.229628 0.491187 0.787828
Si Si5 0.492397 0.065904 0.820043
Si Si6 0.367612 0.807764 0.938012
Si Si7 0.197481 0.468244 0.552652
O O1 0.102953 0.067003 0.259677
O O2 0.802417 0.095386 0.232269
O O3 0.107314 0.730084 0.587144
O O4 0.000000 0.000000 0.500000
O O5 0.306986 0.019939 0.144457
O O6 0.153978 0.364391 0.945756
O O7 0.961134 0.268889 0.904271
O O8 0.798042 0.347211 0.642089
O O9 0.701095 0.220910 0.923738
O O10 0.000000 0.000000 0.000000
O O11 0.242113 0.433033 0.710740
O O12 0.440038 0.391867 0.918069
O O13 0.346820 0.296867 0.626115
O O14 0.414499 0.969746 0.822951
O O15 0.500000 0.000000 0.000000
O O16 0.000000 0.500000 0.500000
#
# Coordination Sequence:
#
# PCOD9025986 Si02
#       7
#     2   2   2   2   2   2   2
#     4  11  26  47  67  86 121 166 220 283 322 353
#     4  10  22  41  60  92 125 164 210 258 308 379
#     4  11  21  33  55  87 131 168 204 241 299 376
#     4  11  23  41  64  92 128 162 214 256 312 382
#     4  11  19  36  60  91 132 161 193 243 303 383
#     4  10  23  40  59  94 124 162 211 263 304 378
#     4  12  20  32  59  90 126 172 194 229 311 383
#
# _framework density 19.212503999999999
#
# number of rings (size 3 to 8) (size 9 to 14) (size 15 to 20)
#    0.000    1.143    4.286    4.286    2.000    1.714 
#    0.000    2.857    0.000    0.000    0.000    0.000 
#    0.000    0.000    0.000    0.000    0.000    0.000 
#
# Total GULP energy -78101.120268 kJ/mol
# GULP energy per Si atom -5578.651448 kJ/mol
# Density = 1.916878 g / cm^3
# Si number density = 19.212504 Si / 1000 Ang^3
#
#
#
# Elastic Constant Matrix: (Units=GPa)
#
#
# Indices 1 2 3 4 5 6 
#
# 1 92.3634 23.2931 39.4151 1.1596 3.2184 -6.7153
# 2 23.2931 54.4512 27.9055 11.3957 -1.8031 -2.7843
# 3 39.4151 27.9055 114.8902 -9.6087 -5.0873 -2.5912
# 4 1.1596 11.3957 -9.6087 32.7792 -3.1508 -2.2040
# 5 3.2184 -1.8031 -5.0873 -3.1508 32.5528 0.4954
# 6 -6.7153 -2.7843 -2.5912 -2.2040 0.4954 13.1810
#
#
#
# Elastic Compliance Matrix: (Units=1/GPa)
#
#
# Indices 1 2 3 4 5 6 
#
# 1 0.013899 -0.003725 -0.003852 -0.000169 -0.002284 0.005594
# 2 -0.003725 0.025007 -0.005640 -0.010188 -0.000123 0.000577
# 3 -0.003852 -0.005640 0.011999 0.005862 0.002510 0.000090
# 4 -0.000169 -0.010188 0.005862 0.036468 0.003824 0.004868
# 5 -0.002284 -0.000123 0.002510 0.003824 0.031720 -0.001249
# 6 0.005594 0.000577 0.000090 0.004868 -0.001249 0.079718
#
#
# Mechanical properties :
#
#
# Convention : Reuss Voigt Hill
#
# Bulk Modulus (GPa) = 40.86932 49.21468 45.04200
# Shear Modulus (GPa) = 21.42218 27.10868 24.26543
#
# Velocity S-wave (km/s) = 3.34280 3.76039 3.55773
# Velocity P-wave (km/s) = 6.01810 6.67275 6.35386
#
# Compressibility (1/GPa) = 0.02446823
#
# Stress axis : x y z
#
# Youngs Moduli (GPa) = 71.94886 39.98887 83.34020
#
# Poissons Ratio (x) = 0.14898 0.32107
# Poissons Ratio (y) = 0.26804 0.47007
# Poissons Ratio (z) = 0.27718 0.22555
#
# Static dielectric constant tensor:
#      x y z
#    x 2.457430 -0.515090 0.798810 
#    y -0.515090 1.907140 -0.419350 
#    z 0.798810 -0.419350 2.223940 
# 
# From -- ./inp_files/169166.got.cif
#   From: 2010.05.17/outbox.cif.g08.bks.cpg/sg2_85_cif.got.tgz:169166.got - 2010.06.03 11:33:40.
