data_PCOD9025817
_publ_section_title
;
Structure prediction by ZEFSAII (Michael W. Deem and Ramdas Pophale) SiO2 
 PCOD9025817
Probable space group: P -1
;
_chemical_formula_sum "Si O2"
_cell_formula_units_Z 13
_cell_length_a 13.577357
_cell_length_b 10.073764
_cell_length_c 8.640059
_cell_angle_alpha 109.606158
_cell_angle_beta 56.316843
_cell_angle_gamma 146.991579
_cell_volume 513.357009
_symmetry_space_group_name_H-M "P -1"
_symmetry_group_IT_number 2
_symmetry_cell_setting 'triclinic'
loop_
_space_group_symop_operation_xyz
x,y,z
-x,-y,-z
loop_
_atom_site_type_symbol
_atom_site_label
_atom_site_fract_x
_atom_site_fract_y
_atom_site_fract_z
Si Si1 0.510337 0.620438 0.901732
Si Si2 0.003618 0.859544 0.350624
Si Si3 0.000000 0.500000 0.000000
Si Si4 0.808546 0.819843 0.221388
Si Si5 0.646445 0.959523 0.503921
Si Si6 0.632191 0.264116 0.043818
Si Si7 0.252633 0.654515 0.548480
O O1 0.415915 0.442436 0.766940
O O2 0.358675 0.605312 0.041806
O O3 0.500000 0.500000 0.000000
O O4 0.748755 0.920093 0.814937
O O5 0.870167 0.764967 0.275887
O O6 0.909071 0.635652 0.439336
O O7 0.000000 0.000000 0.500000
O O8 0.863509 0.446576 0.964694
O O9 0.810197 0.344276 0.228912
O O10 0.783632 0.953992 0.360040
O O11 0.000000 0.000000 0.000000
O O12 0.508364 0.810265 0.722154
O O13 0.485688 0.817379 0.440423
O O14 0.752474 0.220348 0.515335
O O15 0.500000 0.000000 0.000000
#
# Coordination Sequence:
#
# PCOD9025817 Si02
#       7
#     2   2   1   2   2   2   2
#     4  12  27  47  72 111 149 199 259 312 381 456
#     4  12  26  46  74 111 148 197 250 315 384 462
#     4  10  22  40  72 104 140 188 248 296 382 444
#     4  12  26  48  77 106 151 203 257 316 380 456
#     4  10  24  46  73 110 147 198 252 309 382 456
#     4  11  25  46  73 107 151 196 247 319 377 459
#     4  10  23  43  75 107 147 190 245 313 378 455
#
# _framework density 25.323505999999998
#
# number of rings (size 3 to 8) (size 9 to 14) (size 15 to 20)
#    0.000    0.923    1.538    4.615    4.308    6.769 
#    0.000    3.846    0.000    0.000    0.000    0.000 
#    0.000    0.000    0.000    0.000    0.000    0.000 
#
# Total GULP energy -72532.921194 kJ/mol
# GULP energy per Si atom -5579.455476 kJ/mol
# Density = 2.526587 g / cm^3
# Si number density = 25.323506 Si / 1000 Ang^3
#
#
#
# Elastic Constant Matrix: (Units=GPa)
#
#
# Indices 1 2 3 4 5 6 
#
# 1 217.1599 76.3360 17.6047 -6.3965 -15.9044 -6.5913
# 2 76.3360 147.2892 19.9429 -11.1292 1.3351 -32.4611
# 3 17.6047 19.9429 59.6343 -1.1322 -18.1419 -7.1869
# 4 -6.3965 -11.1292 -1.1322 22.4011 1.5653 7.2945
# 5 -15.9044 1.3351 -18.1419 1.5653 40.7280 -2.2280
# 6 -6.5913 -32.4611 -7.1869 7.2945 -2.2280 47.5508
#
#
#
# Elastic Compliance Matrix: (Units=1/GPa)
#
#
# Indices 1 2 3 4 5 6 
#
# 1 0.005933 -0.003376 -0.000091 0.000320 0.002296 -0.001438
# 2 -0.003376 0.010343 -0.002502 0.002359 -0.002549 0.005733
# 3 -0.000091 -0.002502 0.020732 -0.001564 0.009456 0.002096
# 4 0.000320 0.002359 -0.001564 0.048002 -0.002827 -0.006078
# 5 0.002296 -0.002549 0.009456 -0.002827 0.029955 0.001845
# 6 -0.001438 0.005733 0.002096 -0.006078 0.001845 0.026080
#
#
# Mechanical properties :
#
#
# Convention : Reuss Voigt Hill
#
# Bulk Modulus (GPa) = 39.88884 72.42784 56.15834
# Shear Modulus (GPa) = 30.99062 42.81598 36.90330
#
# Velocity S-wave (km/s) = 3.50206 4.11635 3.82157
# Velocity P-wave (km/s) = 5.66908 7.15930 6.45732
#
# Compressibility (1/GPa) = 0.02506967
#
# Stress axis : x y z
#
# Youngs Moduli (GPa) = 168.54968 96.68653 48.23444
#
# Poissons Ratio (x) = 0.32641 0.00440
# Poissons Ratio (y) = 0.56903 0.12068
# Poissons Ratio (z) = 0.01537 0.24190
#
# Static dielectric constant tensor:
#      x y z
#    x 2.000570 0.044400 0.058240 
#    y 0.044400 2.101030 0.018290 
#    z 0.058240 0.018290 1.934060 
# 
# From -- ./inp_files/244482.got.cif
#   From: 2010.05.17/outbox.cif.g08.bks.cpg/sg2_123_cif.got.tgz:244482.got - 2010.06.03 11:33:40.
