data_PCOD9025909
_publ_section_title
;
Structure prediction by ZEFSAII (Michael W. Deem and Ramdas Pophale) SiO2 
 PCOD9025909
Probable space group: P -1
;
_chemical_formula_sum "Si O2"
_cell_formula_units_Z 16
_cell_length_a 9.063096
_cell_length_b 9.761230
_cell_length_c 9.626510
_cell_angle_alpha 84.920665
_cell_angle_beta 57.399592
_cell_angle_gamma 69.330080
_cell_volume 665.665314
_symmetry_space_group_name_H-M "P -1"
_symmetry_group_IT_number 2
_symmetry_cell_setting 'triclinic'
loop_
_space_group_symop_operation_xyz
x,y,z
-x,-y,-z
loop_
_atom_site_type_symbol
_atom_site_label
_atom_site_fract_x
_atom_site_fract_y
_atom_site_fract_z
Si Si1 0.132342 0.967468 0.609674
Si Si2 0.691077 0.406716 0.991299
Si Si3 0.194757 0.260368 0.454111
Si Si4 0.266679 0.901547 0.112608
Si Si5 0.614803 0.057298 0.255226
Si Si6 0.344704 0.521733 0.696773
Si Si7 0.016478 0.459369 0.269633
Si Si8 0.525535 0.190718 0.713404
O O1 0.134293 0.122094 0.533253
O O2 0.919637 0.982654 0.735644
O O3 0.231563 0.943800 0.711239
O O4 0.268598 0.839438 0.454261
O O5 0.769385 0.248683 0.890918
O O6 0.838084 0.489199 0.895000
O O7 0.500000 0.500000 0.000000
O O8 0.647867 0.389006 0.176148
O O9 0.419851 0.194487 0.355077
O O10 0.104893 0.395825 0.592553
O O11 0.128595 0.330166 0.330400
O O12 0.433804 0.859047 0.143377
O O13 0.313137 0.953089 0.937175
O O14 0.558795 0.913673 0.317176
O O15 0.500000 0.500000 0.500000
O O16 0.135226 0.581609 0.737540
O O17 0.393967 0.357005 0.745755
#
# Coordination Sequence:
#
# PCOD9025909 Si02
#       8
#     2   2   2   2   2   2   2   2
#     4  11  23  45  70 103 137 181 237 293 347 423
#     4  12  26  48  72 104 149 188 235 299 357 425
#     4  10  22  40  75 100 139 182 237 284 366 409
#     4  12  25  44  70 104 141 184 234 291 358 421
#     4  11  24  46  71 103 136 189 234 295 352 423
#     4  12  29  47  75 110 143 187 241 298 358 426
#     4  11  24  45  73 105 143 191 241 290 357 431
#     4  11  25  46  71  98 145 183 233 286 358 424
#
# _framework density 24.036104999999999
#
# number of rings (size 3 to 8) (size 9 to 14) (size 15 to 20)
#    0.000    0.750    2.500    5.250    8.750    0.000 
#    0.000    0.000    0.000    0.000    0.000    0.000 
#    0.000    0.000    0.000    0.000    0.000    0.000 
#
# Total GULP energy -89711.912851 kJ/mol
# GULP energy per Si atom -5606.994553 kJ/mol
# Density = 2.398140 g / cm^3
# Si number density = 24.036105 Si / 1000 Ang^3
#
#
#
# Elastic Constant Matrix: (Units=GPa)
#
#
# Indices 1 2 3 4 5 6 
#
# 1 112.7725 14.3319 31.7859 -14.6992 13.0847 -19.8965
# 2 14.3319 89.1239 2.3062 0.7541 -0.0982 -12.7519
# 3 31.7859 2.3062 97.8035 -10.5194 4.2851 0.7276
# 4 -14.6992 0.7541 -10.5194 27.6029 0.4794 7.2784
# 5 13.0847 -0.0982 4.2851 0.4794 47.3049 -4.3007
# 6 -19.8965 -12.7519 0.7276 7.2784 -4.3007 26.9314
#
#
#
# Elastic Compliance Matrix: (Units=1/GPa)
#
#
# Indices 1 2 3 4 5 6 
#
# 1 0.011918 -0.000815 -0.003464 0.003170 -0.002355 0.007280
# 2 -0.000815 0.012245 -0.000377 -0.002515 0.000858 0.006023
# 3 -0.003464 -0.000377 0.011820 0.003777 -0.000530 -0.004162
# 4 0.003170 -0.002515 0.003777 0.042320 -0.002636 -0.010809
# 5 -0.002355 0.000858 -0.000530 -0.002636 0.022133 0.002928
# 6 0.007280 0.006023 -0.004162 -0.010809 0.002928 0.048863
#
#
# Mechanical properties :
#
#
# Convention : Reuss Voigt Hill
#
# Bulk Modulus (GPa) = 37.49323 44.06090 40.77707
# Shear Modulus (GPa) = 29.85049 37.11958 33.48503
#
# Velocity S-wave (km/s) = 3.52789 3.93405 3.73649
# Velocity P-wave (km/s) = 5.67690 6.24553 5.96799
#
# Compressibility (1/GPa) = 0.02667148
#
# Stress axis : x y z
#
# Youngs Moduli (GPa) = 83.90534 81.66525 84.60429
#
# Poissons Ratio (x) = 0.06653 0.29309
# Poissons Ratio (y) = 0.06836 0.03189
# Poissons Ratio (z) = 0.29067 0.03078
#
# Static dielectric constant tensor:
#      x y z
#    x 1.882690 0.023120 0.006620 
#    y 0.023120 1.890680 -0.013400 
#    z 0.006620 -0.013400 1.926190 
# 
# From -- ./inp_files/186498.got.cif
#   From: 2010.05.17/outbox.cif.g08.bks.cpg/sg2_94_cif.got.tgz:186498.got - 2010.06.03 11:33:40.
