data_PCOD9025673
_publ_section_title
;
Structure prediction by ZEFSAII (Michael W. Deem and Ramdas Pophale) SiO2 
 PCOD9025673
Probable space group: P -1
;
_chemical_formula_sum "Si O2"
_cell_formula_units_Z 16
_cell_length_a 7.871317
_cell_length_b 20.014659
_cell_length_c 14.665447
_cell_angle_alpha 19.541172
_cell_angle_beta 123.560741
_cell_angle_gamma 126.308226
_cell_volume 622.638710
_symmetry_space_group_name_H-M "P -1"
_symmetry_group_IT_number 2
_symmetry_cell_setting 'triclinic'
loop_
_space_group_symop_operation_xyz
x,y,z
-x,-y,-z
loop_
_atom_site_type_symbol
_atom_site_label
_atom_site_fract_x
_atom_site_fract_y
_atom_site_fract_z
Si Si1 0.900526 0.765321 0.238813
Si Si2 0.336993 0.603479 0.871802
Si Si3 0.544517 0.723956 0.308084
Si Si4 0.135448 0.488204 0.779171
Si Si5 0.649413 0.027795 0.394249
Si Si6 0.446127 0.544419 0.165714
Si Si7 0.170250 0.894459 0.997892
Si Si8 0.932757 0.001699 0.353073
O O1 0.020059 0.623907 0.510892
O O2 0.957670 0.770750 0.142777
O O3 0.658009 0.690153 0.291856
O O4 0.000000 0.000000 0.000000
O O5 0.166757 0.585990 0.764428
O O6 0.469812 0.839051 0.623838
O O7 0.500000 0.500000 0.000000
O O8 0.281449 0.500421 0.087002
O O9 0.575529 0.588636 0.578104
O O10 0.307389 0.740247 0.205176
O O11 0.680930 0.954247 0.081354
O O12 0.344461 0.478028 0.797043
O O13 0.012667 0.251465 0.062260
O O14 0.869466 0.077161 0.452460
O O15 0.728341 0.945287 0.429192
O O16 0.560125 0.225996 0.101056
O O17 0.123324 0.031927 0.725214
#
# Coordination Sequence:
#
# PCOD9025673 Si02
#       8
#     2   2   2   2   2   2   2   2
#     4  10  22  43  66 100 134 175 232 288 332 407
#     4  10  22  40  70  95 131 183 220 273 343 410
#     4  10  22  43  69 101 136 178 236 278 346 413
#     4  11  23  44  67  97 141 180 226 284 343 406
#     4  11  24  43  65 102 140 176 228 279 348 407
#     4  11  22  41  69  99 136 176 228 280 339 411
#     4  10  23  43  69  98 136 185 225 288 345 401
#     4  11  25  42  66  96 140 177 227 287 339 404
#
# _framework density 25.697087
#
# number of rings (size 3 to 8) (size 9 to 14) (size 15 to 20)
#    0.000    1.500    3.750    1.125    3.500    2.500 
#    2.250    3.125    0.000    0.000    0.000    0.000 
#    0.000    0.000    0.000    0.000    0.000    0.000 
#
# Total GULP energy -89570.043661 kJ/mol
# GULP energy per Si atom -5598.127729 kJ/mol
# Density = 2.563860 g / cm^3
# Si number density = 25.697087 Si / 1000 Ang^3
#
#
#
# Elastic Constant Matrix: (Units=GPa)
#
#
# Indices 1 2 3 4 5 6 
#
# 1 158.4585 26.4606 63.0159 18.0591 -16.0465 -23.4062
# 2 26.4606 81.2331 4.0841 13.4971 0.2623 -3.8435
# 3 63.0159 4.0841 127.7279 9.5825 11.2472 -1.0940
# 4 18.0591 13.4971 9.5825 44.7025 -11.6141 -12.6761
# 5 -16.0465 0.2623 11.2472 -11.6141 40.4309 3.4756
# 6 -23.4062 -3.8435 -1.0940 -12.6761 3.4756 19.7172
#
#
#
# Elastic Compliance Matrix: (Units=1/GPa)
#
#
# Indices 1 2 3 4 5 6 
#
# 1 0.011692 -0.003383 -0.006320 0.003169 0.006143 0.013824
# 2 -0.003383 0.014003 0.001849 -0.005189 -0.003097 -0.003974
# 3 -0.006320 0.001849 0.011717 -0.004517 -0.006366 -0.008274
# 4 0.003169 -0.005189 -0.004517 0.032320 0.009982 0.021518
# 5 0.006143 -0.003097 -0.006366 0.009982 0.031207 0.007251
# 6 0.013824 -0.003974 -0.008274 0.021518 0.007251 0.078449
#
#
# Mechanical properties :
#
#
# Convention : Reuss Voigt Hill
#
# Bulk Modulus (GPa) = 46.07449 61.61565 53.84507
# Shear Modulus (GPa) = 24.71188 39.22738 31.96963
#
# Velocity S-wave (km/s) = 3.10443 3.91132 3.53100
# Velocity P-wave (km/s) = 5.55146 6.66541 6.13378
#
# Compressibility (1/GPa) = 0.02170399
#
# Stress axis : x y z
#
# Youngs Moduli (GPa) = 85.52790 71.41097 85.34707
#
# Poissons Ratio (x) = 0.24159 0.53943
# Poissons Ratio (y) = 0.28934 -0.15783
# Poissons Ratio (z) = 0.54058 -0.13206
#
# Static dielectric constant tensor:
#      x y z
#    x 2.070080 -0.063850 0.008640 
#    y -0.063850 2.177880 -0.048710 
#    z 0.008640 -0.048710 1.946840 
# 
# From -- ./inp_files/507834.got.cif
#   From: 2010.05.17/outbox.cif.g08.bks.cpg/sg2_254_cif.got.tgz:507834.got - 2010.06.03 11:33:40.
