data_PCOD9025891
_publ_section_title
;
Structure prediction by ZEFSAII (Michael W. Deem and Ramdas Pophale) SiO2 
 PCOD9025891
Probable space group: P -1
;
_chemical_formula_sum "Si O2"
_cell_formula_units_Z 14
_cell_length_a 7.999859
_cell_length_b 11.159048
_cell_length_c 24.133652
_cell_angle_alpha 147.288194
_cell_angle_beta 147.384745
_cell_angle_gamma 45.535381
_cell_volume 627.291528
_symmetry_space_group_name_H-M "P -1"
_symmetry_group_IT_number 2
_symmetry_cell_setting 'triclinic'
loop_
_space_group_symop_operation_xyz
x,y,z
-x,-y,-z
loop_
_atom_site_type_symbol
_atom_site_label
_atom_site_fract_x
_atom_site_fract_y
_atom_site_fract_z
Si Si1 0.764935 0.137046 0.560119
Si Si2 0.679508 0.041571 0.726251
Si Si3 0.416753 0.069158 0.940312
Si Si4 0.346673 0.725264 0.701909
Si Si5 0.715493 0.537898 0.211546
Si Si6 0.792772 0.739354 0.477321
Si Si7 0.314882 0.345622 0.345151
O O1 0.556309 0.210720 0.581913
O O2 0.053519 0.303458 0.698343
O O3 0.529582 0.111326 0.433112
O O4 0.869298 0.885205 0.501932
O O5 0.544165 0.286416 0.777392
O O6 0.045719 0.057128 0.824846
O O7 0.656506 0.908762 0.726345
O O8 0.530748 0.892052 0.858222
O O9 0.545390 0.313830 0.055975
O O10 0.500000 0.000000 0.000000
O O11 0.206687 0.524632 0.622370
O O12 0.549625 0.637915 0.673079
O O13 0.047901 0.821710 0.625186
O O14 0.964611 0.431237 0.281377
O O15 0.500000 0.500000 0.500000
#
# Coordination Sequence:
#
# PCOD9025891 Si02
#       7
#     2   2   2   2   2   2   2
#     4  11  22  43  70 112 138 184 241 308 355 428
#     4  12  25  47  73 107 144 193 247 301 359 427
#     4  12  28  49  72 102 151 199 242 292 366 439
#     4  11  24  45  73 107 145 191 238 304 360 427
#     4  12  26  45  70 106 149 190 244 291 367 429
#     4  10  22  40  74 105 142 176 248 300 363 420
#     4  12  25  45  77 111 145 184 243 306 366 422
#
# _framework density 22.318173000000002
#
# number of rings (size 3 to 8) (size 9 to 14) (size 15 to 20)
#    0.000    0.571    5.714    1.714    6.000    0.571 
#    0.000    2.857    0.000    0.000    0.000    0.000 
#    0.000    0.000    0.000    0.000    0.000    0.000 
#
# Total GULP energy -78125.745366 kJ/mol
# GULP energy per Si atom -5580.410383 kJ/mol
# Density = 2.226738 g / cm^3
# Si number density = 22.318173 Si / 1000 Ang^3
#
#
#
# Elastic Constant Matrix: (Units=GPa)
#
#
# Indices 1 2 3 4 5 6 
#
# 1 81.3549 28.3434 49.2091 3.4010 0.1835 6.3621
# 2 28.3434 117.3434 36.4855 2.2974 -0.9575 15.2526
# 3 49.2091 36.4855 130.8428 23.5945 3.5491 12.8339
# 4 3.4010 2.2974 23.5945 33.0088 -4.4659 14.3398
# 5 0.1835 -0.9575 3.5491 -4.4659 35.7639 7.3611
# 6 6.3621 15.2526 12.8339 14.3398 7.3611 38.9669
#
#
#
# Elastic Compliance Matrix: (Units=1/GPa)
#
#
# Indices 1 2 3 4 5 6 
#
# 1 0.016752 -0.001947 -0.006321 0.003757 0.001270 -0.001513
# 2 -0.001947 0.010258 -0.002345 0.003380 0.001870 -0.004522
# 3 -0.006321 -0.002345 0.012206 -0.009054 -0.002738 0.001779
# 4 0.003757 0.003380 -0.009054 0.045121 0.010203 -0.017487
# 5 0.001270 0.001870 -0.002738 0.010203 0.031558 -0.009754
# 6 -0.001513 -0.004522 0.001779 -0.017487 -0.009754 0.035372
#
#
# Mechanical properties :
#
#
# Convention : Reuss Voigt Hill
#
# Bulk Modulus (GPa) = 55.58484 61.95747 58.77115
# Shear Modulus (GPa) = 28.01265 35.91480 31.96372
#
# Velocity S-wave (km/s) = 3.54665 4.01586 3.78853
# Velocity P-wave (km/s) = 6.45998 7.02311 6.74742
#
# Compressibility (1/GPa) = 0.01799052
#
# Stress axis : x y z
#
# Youngs Moduli (GPa) = 59.69461 97.48108 81.92538
#
# Poissons Ratio (x) = 0.18984 0.51782
# Poissons Ratio (y) = 0.11625 0.19210
# Poissons Ratio (z) = 0.37731 0.22858
#
# Static dielectric constant tensor:
#      x y z
#    x 1.900820 -0.020820 -0.018130 
#    y -0.020820 1.897130 0.031920 
#    z -0.018130 0.031920 1.804620 
# 
# From -- ./inp_files/298956.got.cif
#   From: 2010.05.17/outbox.cif.g08.bks.cpg/sg2_150_cif.got.tgz:298956.got - 2010.06.03 11:33:40.
