data_PCOD9025260
_publ_section_title
;
Structure prediction by ZEFSAII (Michael W. Deem and Ramdas Pophale) SiO2 
 PCOD9025260
Probable space group: P -1
;
_chemical_formula_sum "Si O2"
_cell_formula_units_Z 14
_cell_length_a 8.372461
_cell_length_b 10.822416
_cell_length_c 10.125683
_cell_angle_alpha 44.040337
_cell_angle_beta 121.860371
_cell_angle_gamma 124.434293
_cell_volume 514.126426
_symmetry_space_group_name_H-M "P -1"
_symmetry_group_IT_number 2
_symmetry_cell_setting 'triclinic'
loop_
_space_group_symop_operation_xyz
x,y,z
-x,-y,-z
loop_
_atom_site_type_symbol
_atom_site_label
_atom_site_fract_x
_atom_site_fract_y
_atom_site_fract_z
Si Si1 0.303624 0.556844 0.359287
Si Si2 0.213515 0.549339 0.917756
Si Si3 0.678054 0.170753 0.619067
Si Si4 0.828193 0.206229 0.065706
Si Si5 0.918380 0.815336 0.358249
Si Si6 0.442348 0.304749 0.235132
Si Si7 0.771078 0.862279 0.999268
O O1 0.500000 0.500000 0.500000
O O2 0.254113 0.642146 0.409685
O O3 0.332614 0.731147 0.137389
O O4 0.140246 0.350480 0.433058
O O5 0.191996 0.727777 0.845886
O O6 0.356226 0.460376 0.135611
O O7 0.336931 0.606928 0.794069
O O8 0.015132 0.375738 0.958720
O O9 0.475331 0.159722 0.464805
O O10 0.856004 0.156443 0.612461
O O11 0.644095 0.003872 0.838373
O O12 0.873053 0.009408 0.226485
O O13 0.778028 0.745015 0.221211
O O14 0.306623 0.231801 0.102708
O O15 0.000000 0.000000 0.000000
#
# Coordination Sequence:
#
# PCOD9025260 Si02
#       7
#     2   2   2   2   2   2   2
#     4  12  27  42  69 104 145 183 238 290 351 415
#     4  10  24  42  71 100 142 187 231 292 346 421
#     4  11  23  44  68 106 139 183 236 292 340 418
#     4  11  24  49  68 101 144 186 234 286 358 413
#     4  11  25  45  74 101 140 189 234 284 353 419
#     4  11  23  40  72 104 139 181 241 282 350 411
#     4  10  22  40  68 103 139 178 228 286 343 411
#
# _framework density 27.230657000000001
#
# number of rings (size 3 to 8) (size 9 to 14) (size 15 to 20)
#    0.000    1.143    1.429    4.286    8.000    1.714 
#    0.000    7.857    0.000    0.000    0.000    0.000 
#    0.000    0.000    0.000    0.000    0.000    0.000 
#
# Total GULP energy -78157.655731 kJ/mol
# GULP energy per Si atom -5582.689695 kJ/mol
# Density = 2.716868 g / cm^3
# Si number density = 27.230657 Si / 1000 Ang^3
#
#
#
# Elastic Constant Matrix: (Units=GPa)
#
#
# Indices 1 2 3 4 5 6 
#
# 1 54.6819 18.2605 7.3175 -14.2237 12.6567 -7.0909
# 2 18.2605 122.7524 47.7531 -16.1845 13.5281 -27.4050
# 3 7.3175 47.7531 196.3158 -14.4284 18.9282 -26.4913
# 4 -14.2237 -16.1845 -14.4284 58.4157 -0.1062 11.7364
# 5 12.6567 13.5281 18.9282 -0.1062 38.4063 -20.0556
# 6 -7.0909 -27.4050 -26.4913 11.7364 -20.0556 43.1552
#
#
#
# Elastic Compliance Matrix: (Units=1/GPa)
#
#
# Indices 1 2 3 4 5 6 
#
# 1 0.021953 -0.002535 0.000587 0.005349 -0.008114 -0.002868
# 2 -0.002535 0.010393 -0.001741 0.000775 0.000786 0.005269
# 3 0.000587 -0.001741 0.005935 0.000790 -0.001637 0.001658
# 4 0.005349 0.000775 0.000790 0.020069 -0.005613 -0.006210
# 5 -0.008114 0.000786 -0.001637 -0.005613 0.038375 0.017522
# 6 -0.002868 0.005269 0.001658 -0.006210 0.017522 0.036897
#
#
# Mechanical properties :
#
#
# Convention : Reuss Voigt Hill
#
# Bulk Modulus (GPa) = 32.35991 57.82361 45.09176
# Shear Modulus (GPa) = 33.04658 48.02337 40.53498
#
# Velocity S-wave (km/s) = 3.48743 4.20405 3.86240
# Velocity P-wave (km/s) = 5.30336 6.69674 6.04036
#
# Compressibility (1/GPa) = 0.03090243
#
# Stress axis : x y z
#
# Youngs Moduli (GPa) = 45.55156 96.22026 168.48533
#
# Poissons Ratio (x) = 0.24389 -0.09886
# Poissons Ratio (y) = 0.11546 0.29340
# Poissons Ratio (z) = -0.02673 0.16756
#
# Static dielectric constant tensor:
#      x y z
#    x 2.217870 0.103280 -0.007660 
#    y 0.103280 2.283050 0.000550 
#    z -0.007660 0.000550 2.239000 
# 
# From -- ./inp_files/391886.got.cif
#   From: 2010.05.17/outbox.cif.g08.bks.cpg/sg2_196_cif.got.tgz:391886.got - 2010.06.03 11:33:40.
