data_PCOD9025128
_publ_section_title
;
Structure prediction by ZEFSAII (Michael W. Deem and Ramdas Pophale) SiO2 
 PCOD9025128
Probable space group: P -1
;
_chemical_formula_sum "Si O2"
_cell_formula_units_Z 14
_cell_length_a 18.201217
_cell_length_b 14.497083
_cell_length_c 11.757796
_cell_angle_alpha 153.215389
_cell_angle_beta 152.718152
_cell_angle_gamma 29.607334
_cell_volume 595.851388
_symmetry_space_group_name_H-M "P -1"
_symmetry_group_IT_number 2
_symmetry_cell_setting 'triclinic'
loop_
_space_group_symop_operation_xyz
x,y,z
-x,-y,-z
loop_
_atom_site_type_symbol
_atom_site_label
_atom_site_fract_x
_atom_site_fract_y
_atom_site_fract_z
Si Si1 0.430400 0.801961 0.288072
Si Si2 0.797618 0.710866 0.278929
Si Si3 0.911921 0.158808 0.267601
Si Si4 0.429666 0.277465 0.830606
Si Si5 0.442989 0.815521 0.578713
Si Si6 0.728814 0.401964 0.490987
Si Si7 0.829983 0.264970 0.723842
O O1 0.567597 0.650282 0.217363
O O2 0.403320 0.748864 0.322650
O O3 0.483780 0.013662 0.609352
O O4 0.249443 0.860980 0.040873
O O5 0.749495 0.648056 0.267754
O O6 0.954364 0.795114 0.581795
O O7 0.631200 0.919090 0.233702
O O8 0.838617 0.497256 0.024909
O O9 0.846074 0.349272 0.482538
O O10 0.013181 0.935847 0.229496
O O11 0.570786 0.328138 0.155503
O O12 0.643576 0.660435 0.691856
O O13 0.339540 0.747266 0.459847
O O14 0.817239 0.262829 0.568735
#
# Coordination Sequence:
#
# PCOD9025128 Si02
#       7
#     2   2   2   2   2   2   2
#     4   9  20  43  64  94 128 157 221 254 315 372
#     4  10  22  42  60  99 125 165 213 242 335 361
#     4  10  24  44  64  93 130 169 203 266 310 379
#     4   9  19  38  67  91 119 165 208 259 306 370
#     4  10  22  40  67  95 122 165 208 270 303 368
#     4  11  22  43  66  95 126 164 218 257 315 366
#     4  11  23  43  64  93 131 169 207 258 314 380
#
# _framework density 23.495791000000001
#
# number of rings (size 3 to 8) (size 9 to 14) (size 15 to 20)
#    0.000    2.000    1.429    0.857    0.000    8.571 
#   23.143    3.571    0.000    0.000    0.000    0.000 
#    0.000    0.000    0.000    0.000    0.000    0.000 
#
# Total GULP energy -78204.177460 kJ/mol
# GULP energy per Si atom -5586.012676 kJ/mol
# Density = 2.344231 g / cm^3
# Si number density = 23.495791 Si / 1000 Ang^3
#
#
#
# Elastic Constant Matrix: (Units=GPa)
#
#
# Indices 1 2 3 4 5 6 
#
# 1 121.8694 8.6127 27.4596 -20.3784 6.8702 5.0802
# 2 8.6127 96.9803 23.6816 -0.6415 8.3489 -2.6128
# 3 27.4596 23.6816 55.2889 13.4540 4.0288 3.4334
# 4 -20.3784 -0.6415 13.4540 18.8835 6.4968 -3.3522
# 5 6.8702 8.3489 4.0288 6.4968 29.7096 -0.2335
# 6 5.0802 -2.6128 3.4334 -3.3522 -0.2335 29.1589
#
#
#
# Elastic Compliance Matrix: (Units=1/GPa)
#
#
# Indices 1 2 3 4 5 6 
#
# 1 0.020794 0.005171 -0.022564 0.043870 -0.012760 0.004439
# 2 0.005171 0.013788 -0.012620 0.018244 -0.007318 0.003859
# 3 -0.022564 -0.012620 0.050888 -0.068766 0.016815 -0.010962
# 4 0.043870 0.018244 -0.068766 0.168310 -0.042586 0.021097
# 5 -0.012760 -0.007318 0.016815 -0.042586 0.045660 -0.004943
# 6 0.004439 0.003859 -0.010962 0.021097 -0.004943 0.037544
#
#
# Mechanical properties :
#
#
# Convention : Reuss Voigt Hill
#
# Bulk Modulus (GPa) = 39.29983 43.73850 41.51916
# Shear Modulus (GPa) = 12.33073 29.84271 21.08672
#
# Velocity S-wave (km/s) = 2.29335 3.56775 2.99903
# Velocity P-wave (km/s) = 4.87599 5.96889 5.44991
#
# Compressibility (1/GPa) = 0.02544540
#
# Stress axis : x y z
#
# Youngs Moduli (GPa) = 48.09025 72.52431 19.65109
#
# Poissons Ratio (x) = -0.37505 0.44340
# Poissons Ratio (y) = -0.24870 0.24800
# Poissons Ratio (z) = 1.08510 0.91527
#
# Static dielectric constant tensor:
#      x y z
#    x 1.928400 0.009720 -0.006480 
#    y 0.009720 1.942640 0.052920 
#    z -0.006480 0.052920 1.861930 
# 
# From -- ./inp_files/465982.got.cif
#   From: 2010.05.17/outbox.cif.g08.bks.cpg/sg2_233_cif.got.tgz:465982.got - 2010.06.03 11:33:40.
