data_PCOD9025717
_publ_section_title
;
Structure prediction by ZEFSAII (Michael W. Deem and Ramdas Pophale) SiO2 
 PCOD9025717
Probable space group: P -1
;
_chemical_formula_sum "Si O2"
_cell_formula_units_Z 15
_cell_length_a 24.256560
_cell_length_b 9.459116
_cell_length_c 11.241075
_cell_angle_alpha 39.577372
_cell_angle_beta 32.423400
_cell_angle_gamma 28.470870
_cell_volume 655.064292
_symmetry_space_group_name_H-M "P -1"
_symmetry_group_IT_number 2
_symmetry_cell_setting 'triclinic'
loop_
_space_group_symop_operation_xyz
x,y,z
-x,-y,-z
loop_
_atom_site_type_symbol
_atom_site_label
_atom_site_fract_x
_atom_site_fract_y
_atom_site_fract_z
Si Si1 0.410909 0.569004 0.231351
Si Si2 0.587657 0.901896 0.786476
Si Si3 0.784876 0.317939 0.673183
Si Si4 0.985095 0.632339 0.810761
Si Si5 0.750379 0.028385 0.535526
Si Si6 0.035841 0.688929 0.158132
Si Si7 0.500000 0.000000 0.500000
Si Si8 0.333042 0.357565 0.788620
O O1 0.285152 0.609902 0.375324
O O2 0.340977 0.853841 0.254764
O O3 0.498553 0.270598 0.341767
O O4 0.500000 0.500000 0.000000
O O5 0.664836 0.570671 0.816776
O O6 0.701983 0.918508 0.600133
O O7 0.478503 0.136236 0.735047
O O8 0.500000 0.000000 0.000000
O O9 0.891079 0.369451 0.436405
O O10 0.854496 0.987933 0.801064
O O11 0.981936 0.442147 0.840896
O O12 0.000000 0.500000 0.000000
O O13 0.709895 0.328486 0.364235
O O14 0.915658 0.788150 0.404117
O O15 0.199514 0.452999 0.039801
O O16 0.000000 0.000000 0.000000
O O17 0.632752 0.821795 0.278776
#
# Coordination Sequence:
#
# PCOD9025717 Si02
#       8
#     2   2   2   2   2   2   1   2
#     4  11  24  43  71 104 140 187 246 293 363 438
#     4  12  24  45  68 104 148 187 237 306 373 428
#     4  11  26  47  69 107 147 185 249 301 358 452
#     4  11  27  47  74 102 143 194 241 301 373 436
#     4  10  23  44  70 103 145 190 236 307 363 433
#     4  10  23  45  74 105 139 187 250 296 365 442
#     4  10  22  40  70  98 140 186 232 300 352 426
#     4  10  23  42  71 105 137 189 247 293 365 440
#
# _framework density 22.898516000000001
#
# number of rings (size 3 to 8) (size 9 to 14) (size 15 to 20)
#    0.000    1.333    2.667    1.200    7.467    2.133 
#    4.800    1.333    0.000    0.000    0.000    0.000 
#    0.000    0.000    0.000    0.000    0.000    0.000 
#
# Total GULP energy -83511.307751 kJ/mol
# GULP energy per Si atom -5567.420517 kJ/mol
# Density = 2.284640 g / cm^3
# Si number density = 22.898516 Si / 1000 Ang^3
#
#
#
# Elastic Constant Matrix: (Units=GPa)
#
#
# Indices 1 2 3 4 5 6 
#
# 1 70.5544 45.9641 14.2239 -4.7501 -9.8618 23.7672
# 2 45.9641 155.0146 50.2545 1.3579 8.4435 29.7466
# 3 14.2239 50.2545 87.3181 15.3261 0.8285 -2.5649
# 4 -4.7501 1.3579 15.3261 49.0949 3.4706 -2.7862
# 5 -9.8618 8.4435 0.8285 3.4706 40.6661 -2.3014
# 6 23.7672 29.7466 -2.5649 -2.7862 -2.3014 28.5939
#
#
#
# Elastic Compliance Matrix: (Units=1/GPa)
#
#
# Indices 1 2 3 4 5 6 
#
# 1 0.022832 -0.003304 -0.002645 0.001894 0.005257 -0.015170
# 2 -0.003304 0.011778 -0.006706 0.001131 -0.003790 -0.010303
# 3 -0.002645 -0.006706 0.016885 -0.004855 0.001406 0.010330
# 4 0.001894 0.001131 -0.004855 0.022085 -0.001627 -0.001165
# 5 0.005257 -0.003790 0.001406 -0.001627 0.026859 0.001703
# 6 -0.015170 -0.010303 0.010330 -0.001165 0.001703 0.059250
#
#
# Mechanical properties :
#
#
# Convention : Reuss Voigt Hill
#
# Bulk Modulus (GPa) = 38.19096 59.30800 48.74948
# Shear Modulus (GPa) = 25.80935 37.16728 31.48832
#
# Velocity S-wave (km/s) = 3.36090 4.03318 3.71229
# Velocity P-wave (km/s) = 5.63697 6.90256 6.30162
#
# Compressibility (1/GPa) = 0.02618420
#
# Stress axis : x y z
#
# Youngs Moduli (GPa) = 43.79846 84.90152 59.22440
#
# Poissons Ratio (x) = 0.28053 0.15668
# Poissons Ratio (y) = 0.14472 0.39715
# Poissons Ratio (z) = 0.11587 0.56933
#
# Static dielectric constant tensor:
#      x y z
#    x 1.966310 -0.123020 0.085910 
#    y -0.123020 1.941310 -0.073580 
#    z 0.085910 -0.073580 2.085430 
# 
# From -- ./inp_files/474386.got.cif
#   From: 2010.05.17/outbox.cif.g08.bks.cpg/sg2_238_cif.got.tgz:474386.got - 2010.06.03 11:33:40.
