data_PCOD9025649
_publ_section_title
;
Structure prediction by ZEFSAII (Michael W. Deem and Ramdas Pophale) SiO2 
 PCOD9025649
Probable space group: P -1
;
_chemical_formula_sum "Si O2"
_cell_formula_units_Z 16
_cell_length_a 11.203353
_cell_length_b 13.221462
_cell_length_c 13.292064
_cell_angle_alpha 134.107436
_cell_angle_beta 32.314828
_cell_angle_gamma 135.544303
_cell_volume 714.146999
_symmetry_space_group_name_H-M "P -1"
_symmetry_group_IT_number 2
_symmetry_cell_setting 'triclinic'
loop_
_space_group_symop_operation_xyz
x,y,z
-x,-y,-z
loop_
_atom_site_type_symbol
_atom_site_label
_atom_site_fract_x
_atom_site_fract_y
_atom_site_fract_z
Si Si1 0.237440 0.977052 0.853521
Si Si2 0.976898 0.986091 0.626640
Si Si3 0.524875 0.231223 0.110724
Si Si4 0.902460 0.294516 0.346071
Si Si5 0.708222 0.559058 0.682727
Si Si6 0.078175 0.777437 0.029328
Si Si7 0.700721 0.211726 0.749527
Si Si8 0.765039 0.544958 0.945474
O O1 0.277406 0.865576 0.663616
O O2 0.449794 0.129747 0.819625
O O3 0.190270 0.890925 0.935238
O O4 0.000000 0.000000 0.000000
O O5 0.703703 0.906609 0.794025
O O6 0.130721 0.879863 0.466960
O O7 0.045968 0.137935 0.746980
O O8 0.000000 0.000000 0.500000
O O9 0.418660 0.363490 0.251668
O O10 0.714868 0.258667 0.082421
O O11 0.644720 0.199793 0.901057
O O12 0.773942 0.416000 0.505596
O O13 0.051246 0.323707 0.362796
O O14 0.111650 0.335468 0.143216
O O15 0.512368 0.498193 0.867618
O O16 0.898374 0.625875 0.006972
O O17 0.802178 0.388601 0.783721
#
# Coordination Sequence:
#
# PCOD9025649 Si02
#       8
#     2   2   2   2   2   2   2   2
#     4  11  23  43  68  96 131 175 214 268 327 384
#     4  12  23  40  67  96 130 173 216 268 322 386
#     4  11  22  44  65  95 128 175 210 272 324 386
#     4  10  22  42  65  97 127 171 218 265 321 388
#     4  10  22  40  70  91 131 170 216 267 325 381
#     4  11  24  43  67  94 135 167 220 267 324 389
#     4  11  23  41  68  94 132 170 218 263 329 384
#     4  10  23  42  64  94 130 171 210 269 322 384
#
# _framework density 22.404350999999998
#
# number of rings (size 3 to 8) (size 9 to 14) (size 15 to 20)
#    0.000    1.250    2.500    3.750    1.750    3.000 
#    0.000    3.750    0.000    0.000    0.000    0.000 
#    0.000    0.000    0.000    0.000    0.000    0.000 
#
# Total GULP energy -89439.443940 kJ/mol
# GULP energy per Si atom -5589.965246 kJ/mol
# Density = 2.235336 g / cm^3
# Si number density = 22.404351 Si / 1000 Ang^3
#
#
#
# Elastic Constant Matrix: (Units=GPa)
#
#
# Indices 1 2 3 4 5 6 
#
# 1 101.9870 53.5978 43.5782 25.7839 -10.6942 18.4292
# 2 53.5978 100.2906 35.7860 29.2196 -6.4172 19.3843
# 3 43.5782 35.7860 91.5360 26.7819 -14.0508 7.1906
# 4 25.7839 29.2196 26.7819 41.2044 -5.0636 11.3079
# 5 -10.6942 -6.4172 -14.0508 -5.0636 23.5842 1.5770
# 6 18.4292 19.3843 7.1906 11.3079 1.5770 43.6533
#
#
#
# Elastic Compliance Matrix: (Units=1/GPa)
#
#
# Indices 1 2 3 4 5 6 
#
# 1 0.015915 -0.005658 -0.004043 -0.002093 0.003026 -0.003107
# 2 -0.005658 0.015807 -0.001581 -0.005899 -0.000284 -0.002832
# 3 -0.004043 -0.001581 0.016170 -0.006465 0.005901 0.001207
# 4 -0.002093 -0.005899 -0.006465 0.035430 0.001513 -0.004664
# 5 0.003026 -0.000284 0.005901 0.001513 0.047821 -0.004243
# 6 -0.003107 -0.002832 0.001207 -0.004664 -0.004243 0.026640
#
#
# Mechanical properties :
#
#
# Convention : Reuss Voigt Hill
#
# Bulk Modulus (GPa) = 39.48500 62.19308 50.83904
# Shear Modulus (GPa) = 26.48447 32.41183 29.44815
#
# Velocity S-wave (km/s) = 3.44192 3.80765 3.62939
# Velocity P-wave (km/s) = 5.78427 6.86662 6.34856
#
# Compressibility (1/GPa) = 0.02532607
#
# Stress axis : x y z
#
# Youngs Moduli (GPa) = 62.83576 63.26380 61.84157
#
# Poissons Ratio (x) = 0.35796 0.25005
# Poissons Ratio (y) = 0.35554 0.09779
# Poissons Ratio (z) = 0.25407 0.10004
#
# Static dielectric constant tensor:
#      x y z
#    x 1.852480 -0.024930 0.022050 
#    y -0.024930 1.840070 0.025730 
#    z 0.022050 0.025730 1.850590 
# 
# From -- ./inp_files/521717.got.cif
#   From: 2010.05.17/outbox.cif.g08.bks.cpg/sg2_261_cif.got.tgz:521717.got - 2010.06.03 11:33:40.
