data_PCOD9025785
_publ_section_title
;
Structure prediction by ZEFSAII (Michael W. Deem and Ramdas Pophale) SiO2 
 PCOD9025785
Probable space group: P -1
;
_chemical_formula_sum "Si O2"
_cell_formula_units_Z 16
_cell_length_a 10.067167
_cell_length_b 8.961671
_cell_length_c 18.473681
_cell_angle_alpha 68.251289
_cell_angle_beta 144.561931
_cell_angle_gamma 93.472560
_cell_volume 802.428085
_symmetry_space_group_name_H-M "P -1"
_symmetry_group_IT_number 2
_symmetry_cell_setting 'triclinic'
loop_
_space_group_symop_operation_xyz
x,y,z
-x,-y,-z
loop_
_atom_site_type_symbol
_atom_site_label
_atom_site_fract_x
_atom_site_fract_y
_atom_site_fract_z
Si Si1 0.031330 0.432905 0.606403
Si Si2 0.509816 0.515392 0.588139
Si Si3 0.774122 0.123265 0.822315
Si Si4 0.912994 0.124470 0.117277
Si Si5 0.839540 0.392734 0.240421
Si Si6 0.481940 0.892444 0.155930
Si Si7 0.528517 0.222081 0.061107
Si Si8 0.718950 0.795720 0.640666
O O1 0.120905 0.555684 0.671394
O O2 0.242833 0.228140 0.733541
O O3 0.000000 0.500000 0.500000
O O4 0.770014 0.446029 0.517779
O O5 0.500000 0.500000 0.500000
O O6 0.709858 0.329198 0.746542
O O7 0.582085 0.670904 0.615098
O O8 0.537912 0.120836 0.763609
O O9 0.859946 0.040917 0.794979
O O10 0.000000 0.000000 0.000000
O O11 0.742241 0.120179 0.111391
O O12 0.067194 0.226735 0.199794
O O13 0.696330 0.187583 0.947232
O O14 0.673931 0.284039 0.174660
O O15 0.111519 0.277322 0.343491
O O16 0.687920 0.589130 0.099643
O O17 0.410648 0.094069 0.061983
O O18 0.500000 0.000000 0.500000
#
# Coordination Sequence:
#
# PCOD9025785 Si02
#       8
#     2   2   2   2   2   2   2   2
#     4  12  25  43  65  94 136 172 217 271 331 400
#     4  12  25  43  70  95 131 181 225 270 333 397
#     4  10  24  43  64  97 138 171 217 270 333 401
#     4  10  22  41  66  95 131 168 224 272 320 401
#     4  10  23  42  65  98 132 167 224 278 322 392
#     4  11  23  42  67  99 131 171 215 269 344 391
#     4  10  22  40  71  99 126 168 222 276 330 389
#     4  11  25  40  65  99 133 169 226 276 330 385
#
# _framework density 19.939482000000002
#
# number of rings (size 3 to 8) (size 9 to 14) (size 15 to 20)
#    0.000    1.250    3.750    1.125    8.750    0.000 
#    2.250    3.125    0.000    0.000    0.000    0.000 
#    0.000    0.000    0.000    0.000    0.000    0.000 
#
# Total GULP energy -89145.100448 kJ/mol
# GULP energy per Si atom -5571.568778 kJ/mol
# Density = 1.989410 g / cm^3
# Si number density = 19.939482 Si / 1000 Ang^3
#
#
#
# Elastic Constant Matrix: (Units=GPa)
#
#
# Indices 1 2 3 4 5 6 
#
# 1 115.6934 47.5855 34.2045 -6.0781 9.8994 -11.4806
# 2 47.5855 96.9910 45.5003 -11.4952 -9.5765 -4.1648
# 3 34.2045 45.5003 80.7803 -3.6631 1.7536 -0.5292
# 4 -6.0781 -11.4952 -3.6631 25.7115 -1.2992 7.1389
# 5 9.8994 -9.5765 1.7536 -1.2992 26.6122 -7.3248
# 6 -11.4806 -4.1648 -0.5292 7.1389 -7.3248 24.4337
#
#
#
# Elastic Compliance Matrix: (Units=1/GPa)
#
#
# Indices 1 2 3 4 5 6 
#
# 1 0.012307 -0.005679 -0.001920 -0.001137 -0.005608 0.003424
# 2 -0.005679 0.018627 -0.008028 0.005898 0.010081 0.001632
# 3 -0.001920 -0.008028 0.017744 -0.000930 -0.004178 -0.002867
# 4 -0.001137 0.005898 -0.000930 0.044572 0.001441 -0.012140
# 5 -0.005608 0.010081 -0.004178 0.001441 0.047132 0.012701
# 6 0.003424 0.001632 -0.002867 -0.012140 0.012701 0.050107
#
#
# Mechanical properties :
#
#
# Convention : Reuss Voigt Hill
#
# Bulk Modulus (GPa) = 57.39092 60.89391 59.14242
# Shear Modulus (GPa) = 21.97326 26.42977 24.20151
#
# Velocity S-wave (km/s) = 3.32324 3.64469 3.48767
# Velocity P-wave (km/s) = 6.60078 6.95107 6.77819
#
# Compressibility (1/GPa) = 0.01742436
#
# Stress axis : x y z
#
# Youngs Moduli (GPa) = 81.25640 53.68582 56.35801
#
# Poissons Ratio (x) = 0.30487 0.10819
# Poissons Ratio (y) = 0.46144 0.45244
# Poissons Ratio (z) = 0.15599 0.43099
#
# Static dielectric constant tensor:
#      x y z
#    x 1.746390 -0.030100 0.041080 
#    y -0.030100 1.687790 -0.000850 
#    z 0.041080 -0.000850 1.765690 
# 
# From -- ./inp_files/557057.got.cif
#   From: 2010.05.17/outbox.cif.g08.bks.cpg/sg2_279_cif.got.tgz:557057.got - 2010.06.03 11:33:40.
