data_PCOD9025174
_publ_section_title
;
Structure prediction by ZEFSAII (Michael W. Deem and Ramdas Pophale) SiO2 
 PCOD9025174
Probable space group: P -1
;
_chemical_formula_sum "Si O2"
_cell_formula_units_Z 16
_cell_length_a 11.363368
_cell_length_b 7.262580
_cell_length_c 9.132416
_cell_angle_alpha 81.420591
_cell_angle_beta 78.450187
_cell_angle_gamma 59.928907
_cell_volume 637.964222
_symmetry_space_group_name_H-M "P -1"
_symmetry_group_IT_number 2
_symmetry_cell_setting 'triclinic'
loop_
_space_group_symop_operation_xyz
x,y,z
-x,-y,-z
loop_
_atom_site_type_symbol
_atom_site_label
_atom_site_fract_x
_atom_site_fract_y
_atom_site_fract_z
Si Si1 0.186749 0.092488 0.517263
Si Si2 0.794542 0.488840 0.008732
Si Si3 0.218422 0.946823 0.208140
Si Si4 0.986294 0.876743 0.203535
Si Si5 0.649389 0.371068 0.321270
Si Si6 0.260252 0.105763 0.899208
Si Si7 0.585083 0.530500 0.842819
Si Si8 0.609842 0.804454 0.400389
O O1 0.201798 0.076885 0.342309
O O2 0.270216 0.841670 0.577006
O O3 0.037775 0.178043 0.618468
O O4 0.249378 0.234370 0.552189
O O5 0.738577 0.400296 0.164614
O O6 0.831852 0.651785 0.056364
O O7 0.673637 0.612124 0.902861
O O8 0.913900 0.309391 0.905999
O O9 0.301751 0.691261 0.233611
O O10 0.064166 0.013683 0.183789
O O11 0.302155 0.977209 0.052602
O O12 0.836276 0.960269 0.160136
O O13 0.526821 0.356169 0.268701
O O14 0.599076 0.591846 0.399475
O O15 0.379045 0.107056 0.772606
O O16 0.500000 0.500000 0.000000
O O17 0.500000 0.000000 0.500000
#
# Coordination Sequence:
#
# PCOD9025174 Si02
#       8
#     2   2   2   2   2   2   2   2
#     4  11  25  43  65  94 137 171 213 266 320 387
#     4   9  20  40  66  98 125 162 221 267 321 378
#     4  11  23  41  61  99 128 167 215 261 329 376
#     4  10  22  40  69  92 124 173 217 260 321 386
#     4  10  22  43  65  94 130 176 213 262 324 382
#     4  10  22  40  67  97 127 165 212 275 319 382
#     4   9  20  37  61  90 124 161 218 262 308 384
#     4  10  23  43  65  94 126 171 218 259 320 384
#
# _framework density 25.079775999999999
#
# number of rings (size 3 to 8) (size 9 to 14) (size 15 to 20)
#    0.000    2.000    0.000    1.875   12.250    2.000 
#    9.000    4.375    0.000    0.000    0.000    0.000 
#    0.000    0.000    0.000    0.000    0.000    0.000 
#
# Total GULP energy -89373.140627 kJ/mol
# GULP energy per Si atom -5585.821289 kJ/mol
# Density = 2.502269 g / cm^3
# Si number density = 25.079776 Si / 1000 Ang^3
#
#
#
# Elastic Constant Matrix: (Units=GPa)
#
#
# Indices 1 2 3 4 5 6 
#
# 1 68.0617 27.3996 21.7780 -7.0486 8.8053 14.9034
# 2 27.3996 74.7189 24.0777 11.9917 14.8625 18.8551
# 3 21.7780 24.0777 155.7886 27.1938 4.3397 2.7958
# 4 -7.0486 11.9917 27.1938 34.3602 -0.0232 0.7130
# 5 8.8053 14.8625 4.3397 -0.0232 28.6563 18.3200
# 6 14.9034 18.8551 2.7958 0.7130 18.3200 33.6136
#
#
#
# Elastic Compliance Matrix: (Units=1/GPa)
#
#
# Indices 1 2 3 4 5 6 
#
# 1 0.020612 -0.006736 -0.003418 0.009413 0.001624 -0.006161
# 2 -0.006736 0.019486 -0.000508 -0.007676 -0.004633 -0.005214
# 3 -0.003418 -0.000508 0.008205 -0.007058 -0.001143 0.001891
# 4 0.009413 -0.007676 -0.007058 0.039343 0.003473 -0.002009
# 5 0.001624 -0.004633 -0.001143 0.003473 0.054885 -0.028013
# 6 -0.006161 -0.005214 0.001891 -0.002009 -0.028013 0.050559
#
#
# Mechanical properties :
#
#
# Convention : Reuss Voigt Hill
#
# Bulk Modulus (GPa) = 37.06483 49.45332 43.25907
# Shear Modulus (GPa) = 22.38062 34.34693 28.36378
#
# Velocity S-wave (km/s) = 2.99051 3.70470 3.36660
# Velocity P-wave (km/s) = 5.17059 6.16936 5.69192
#
# Compressibility (1/GPa) = 0.02697976
#
# Stress axis : x y z
#
# Youngs Moduli (GPa) = 48.51603 51.31806 121.87485
#
# Poissons Ratio (x) = 0.34568 0.41658
# Poissons Ratio (y) = 0.32681 0.06186
# Poissons Ratio (z) = 0.16583 0.02605
#
# Static dielectric constant tensor:
#      x y z
#    x 2.043500 -0.043240 -0.027440 
#    y -0.043240 2.009910 -0.054800 
#    z -0.027440 -0.054800 2.046080 
# 
# From -- ./inp_files/243904.got.cif
#   From: 2010.05.17/outbox.cif.g08.bks.cpg/sg2_122_cif.got.tgz:243904.got - 2010.06.03 11:33:40.
