data_PCOD9025359
_publ_section_title
;
Structure prediction by ZEFSAII (Michael W. Deem and Ramdas Pophale) SiO2 
 PCOD9025359
Probable space group: P -1
;
_chemical_formula_sum "Si O2"
_cell_formula_units_Z 16
_cell_length_a 6.679221
_cell_length_b 18.671234
_cell_length_c 20.255699
_cell_angle_alpha 153.213927
_cell_angle_beta 137.633523
_cell_angle_gamma 46.052961
_cell_volume 762.190338
_symmetry_space_group_name_H-M "P -1"
_symmetry_group_IT_number 2
_symmetry_cell_setting 'triclinic'
loop_
_space_group_symop_operation_xyz
x,y,z
-x,-y,-z
loop_
_atom_site_type_symbol
_atom_site_label
_atom_site_fract_x
_atom_site_fract_y
_atom_site_fract_z
Si Si1 0.783225 0.645812 0.379038
Si Si2 0.884979 0.674721 0.803745
Si Si3 0.131424 0.825768 0.865641
Si Si4 0.100660 0.682831 0.101140
Si Si5 0.803818 0.889397 0.080947
Si Si6 0.687287 0.831475 0.387158
Si Si7 0.933682 0.325495 0.762530
Si Si8 0.201619 0.755746 0.678421
O O1 0.850450 0.776484 0.449231
O O2 0.428414 0.662318 0.319931
O O3 0.917910 0.477107 0.243139
O O4 0.980049 0.664432 0.506645
O O5 0.531844 0.666505 0.700208
O O6 0.015660 0.704533 0.788653
O O7 0.926028 0.818710 0.982356
O O8 0.057692 0.796078 0.747745
O O9 0.485323 0.823558 0.955226
O O10 0.000000 0.000000 0.000000
O O11 0.449191 0.704639 0.210977
O O12 0.978719 0.715131 0.173027
O O13 0.983659 0.813224 0.124840
O O14 0.028370 0.503762 0.918814
O O15 0.759928 0.079512 0.215780
O O16 0.908735 0.806321 0.358129
O O17 0.500000 0.000000 0.500000
#
# Coordination Sequence:
#
# PCOD9025359 Si02
#       8
#     2   2   2   2   2   2   2   2
#     4  11  25  41  62  95 124 170 207 255 320 371
#     4  11  22  40  64  88 130 164 212 260 303 375
#     4  11  20  39  61  90 123 163 210 259 303 360
#     4  10  22  40  68  96 121 169 212 254 319 370
#     4  11  21  38  64  94 122 165 210 260 309 369
#     4  11  24  45  66  93 131 163 204 267 320 376
#     4  10  23  45  64  93 129 160 215 263 308 383
#     4  11  23  40  60  92 129 166 210 257 311 370
#
# _framework density 20.992132000000002
#
# number of rings (size 3 to 8) (size 9 to 14) (size 15 to 20)
#    0.000    1.250    2.500    3.750    0.000    7.500 
#    4.500    0.000    0.000    0.000    0.000    0.000 
#    0.000    0.000    0.000    0.000    0.000    0.000 
#
# Total GULP energy -89306.652956 kJ/mol
# GULP energy per Si atom -5581.665810 kJ/mol
# Density = 2.094435 g / cm^3
# Si number density = 20.992132 Si / 1000 Ang^3
#
#
#
# Elastic Constant Matrix: (Units=GPa)
#
#
# Indices 1 2 3 4 5 6 
#
# 1 99.2838 34.2730 31.8989 2.6886 -20.7853 2.4723
# 2 34.2730 94.7870 12.8957 3.4073 -16.3165 7.9286
# 3 31.8989 12.8957 63.5434 -2.4546 -8.2158 -13.7364
# 4 2.6886 3.4073 -2.4546 28.8360 -4.9633 -3.4641
# 5 -20.7853 -16.3165 -8.2158 -4.9633 23.0098 3.4567
# 6 2.4723 7.9286 -13.7364 -3.4641 3.4567 25.3734
#
#
#
# Elastic Compliance Matrix: (Units=1/GPa)
#
#
# Indices 1 2 3 4 5 6 
#
# 1 0.015655 -0.002245 -0.007435 -0.000757 0.010695 -0.006409
# 2 -0.002245 0.013496 -0.002030 -0.001013 0.007540 -0.006263
# 3 -0.007435 -0.002030 0.023063 0.004452 -0.001156 0.014609
# 4 -0.000757 -0.001013 0.004452 0.037318 0.007199 0.006915
# 5 0.010695 0.007540 -0.001156 0.007199 0.061319 -0.011395
# 6 -0.006409 -0.006263 0.014609 0.006915 -0.011395 0.052398
#
#
# Mechanical properties :
#
#
# Convention : Reuss Voigt Hill
#
# Bulk Modulus (GPa) = 34.73046 46.19438 40.46242
# Shear Modulus (GPa) = 21.16252 27.34695 24.25473
#
# Velocity S-wave (km/s) = 3.17853 3.61324 3.40283
# Velocity P-wave (km/s) = 5.48189 6.28178 5.89542
#
# Compressibility (1/GPa) = 0.02879317
#
# Stress axis : x y z
#
# Youngs Moduli (GPa) = 63.87775 74.09598 43.36037
#
# Poissons Ratio (x) = 0.16632 0.32239
# Poissons Ratio (y) = 0.14338 0.08803
# Poissons Ratio (z) = 0.47495 0.15043
#
# Static dielectric constant tensor:
#      x y z
#    x 1.798660 -0.012080 -0.014780 
#    y -0.012080 1.917880 0.067090 
#    z -0.014780 0.067090 1.822940 
# 
# From -- ./inp_files/37908.got.cif
#   From: 2010.05.17/outbox.cif.g08.bks.cpg/sg2_19_cif.got.tgz:37908.got - 2010.06.03 11:33:40.
