data_PCOD9025349
_publ_section_title
;
Structure prediction by ZEFSAII (Michael W. Deem and Ramdas Pophale) SiO2 
 PCOD9025349
Probable space group: P -1
;
_chemical_formula_sum "Si O2"
_cell_formula_units_Z 16
_cell_length_a 10.935373
_cell_length_b 17.441446
_cell_length_c 14.043269
_cell_angle_alpha 151.281668
_cell_angle_beta 53.316247
_cell_angle_gamma 144.622417
_cell_volume 675.201352
_symmetry_space_group_name_H-M "P -1"
_symmetry_group_IT_number 2
_symmetry_cell_setting 'triclinic'
loop_
_space_group_symop_operation_xyz
x,y,z
-x,-y,-z
loop_
_atom_site_type_symbol
_atom_site_label
_atom_site_fract_x
_atom_site_fract_y
_atom_site_fract_z
Si Si1 0.388771 0.249195 0.623990
Si Si2 0.314321 0.402729 0.306391
Si Si3 0.334137 0.114325 0.235137
Si Si4 0.349221 0.040044 0.602610
Si Si5 0.027217 0.216436 0.815553
Si Si6 0.970864 0.517504 0.143228
Si Si7 0.211942 0.976998 0.809934
Si Si8 0.463585 0.032693 0.907923
O O1 0.599186 0.445989 0.667724
O O2 0.247408 0.301203 0.763754
O O3 0.447026 0.227474 0.677029
O O4 0.191116 0.982268 0.372811
O O5 0.511122 0.608616 0.514912
O O6 0.290016 0.197925 0.069934
O O7 0.065186 0.259091 0.306829
O O8 0.080481 0.941232 0.209772
O O9 0.467961 0.078398 0.193509
O O10 0.323095 0.030720 0.045364
O O11 0.100956 0.779040 0.395874
O O12 0.500000 0.000000 0.500000
O O13 0.302545 0.067876 0.759772
O O14 0.074409 0.438334 0.055099
O O15 0.000000 0.500000 0.000000
O O16 0.705998 0.310276 0.073229
O O17 0.328645 0.919610 0.747811
#
# Coordination Sequence:
#
# PCOD9025349 Si02
#       8
#     2   2   2   2   2   2   2   2
#     4  10  22  43  66  96 130 170 222 266 327 387
#     4  10  24  44  65  92 133 176 216 268 325 397
#     4   9  20  42  66 100 122 165 225 272 325 378
#     4  12  27  43  64 101 138 173 215 271 334 398
#     4   9  20  38  70  96 122 164 219 278 316 379
#     4  11  21  39  67  93 127 167 218 270 323 380
#     4  11  26  44  62  96 136 177 216 265 335 389
#     4  10  22  40  68  95 129 167 220 276 321 389
#
# _framework density 23.696632999999999
#
# number of rings (size 3 to 8) (size 9 to 14) (size 15 to 20)
#    0.000    1.750    1.250    1.500    7.000    4.500 
#    6.750    0.000    0.000    0.000    0.000    0.000 
#    0.000    0.000    0.000    0.000    0.000    0.000 
#
# Total GULP energy -89464.727396 kJ/mol
# GULP energy per Si atom -5591.545462 kJ/mol
# Density = 2.364270 g / cm^3
# Si number density = 23.696633 Si / 1000 Ang^3
#
#
#
# Elastic Constant Matrix: (Units=GPa)
#
#
# Indices 1 2 3 4 5 6 
#
# 1 67.7956 26.6913 -11.9762 2.4137 -0.1798 -28.7577
# 2 26.6913 124.7896 12.6667 -5.1659 -1.7852 -20.4021
# 3 -11.9762 12.6667 48.3776 3.6402 0.6908 -2.8798
# 4 2.4137 -5.1659 3.6402 37.7254 -8.2286 0.2643
# 5 -0.1798 -1.7852 0.6908 -8.2286 11.7644 -4.3657
# 6 -28.7577 -20.4021 -2.8798 0.2643 -4.3657 30.7393
#
#
#
# Elastic Compliance Matrix: (Units=1/GPa)
#
#
# Indices 1 2 3 4 5 6 
#
# 1 0.029410 -0.002632 0.009614 -0.001435 0.008849 0.027937
# 2 -0.002632 0.009845 -0.003262 0.002978 0.005401 0.004508
# 3 0.009614 -0.003262 0.024739 -0.003746 -0.001071 0.009027
# 4 -0.001435 0.002978 -0.003746 0.032771 0.024883 0.003535
# 5 0.008849 0.005401 -0.001071 0.024883 0.113703 0.027697
# 6 0.027937 0.004508 0.009027 0.003535 0.027697 0.066409
#
#
# Mechanical properties :
#
#
# Convention : Reuss Voigt Hill
#
# Bulk Modulus (GPa) = 13.99870 32.85849 23.42859
# Shear Modulus (GPa) = 17.05045 30.28456 23.66750
#
# Velocity S-wave (km/s) = 2.68532 3.57881 3.16376
# Velocity P-wave (km/s) = 3.94143 5.56539 4.82226
#
# Compressibility (1/GPa) = 0.07143521
#
# Stress axis : x y z
#
# Youngs Moduli (GPa) = 34.00247 101.57367 40.42129
#
# Poissons Ratio (x) = 0.26731 -0.38862
# Poissons Ratio (y) = 0.08948 0.13186
# Poissons Ratio (z) = -0.32691 0.33134
#
# Static dielectric constant tensor:
#      x y z
#    x 1.947990 -0.041500 -0.025330 
#    y -0.041500 1.830330 -0.054670 
#    z -0.025330 -0.054670 1.834030 
# 
# From -- ./inp_files/523472.got.cif
#   From: 2010.05.17/outbox.cif.g08.bks.cpg/sg2_262_cif.got.tgz:523472.got - 2010.06.03 11:33:40.
