data_PCOD9025847
_publ_section_title
;
Structure prediction by ZEFSAII (Michael W. Deem and Ramdas Pophale) SiO2 
 PCOD9025847
Probable space group: P -1
;
_chemical_formula_sum "Si O2"
_cell_formula_units_Z 16
_cell_length_a 21.868291
_cell_length_b 9.176088
_cell_length_c 9.531983
_cell_angle_alpha 77.238445
_cell_angle_beta 118.698191
_cell_angle_gamma 49.101386
_cell_volume 748.318966
_symmetry_space_group_name_H-M "P -1"
_symmetry_group_IT_number 2
_symmetry_cell_setting 'triclinic'
loop_
_space_group_symop_operation_xyz
x,y,z
-x,-y,-z
loop_
_atom_site_type_symbol
_atom_site_label
_atom_site_fract_x
_atom_site_fract_y
_atom_site_fract_z
Si Si1 0.924194 0.545746 0.143866
Si Si2 0.902080 0.412235 0.868882
Si Si3 0.208844 0.682455 0.257210
Si Si4 0.489727 0.400875 0.890081
Si Si5 0.641860 0.301789 0.619162
Si Si6 0.343462 0.379454 0.775831
Si Si7 0.832931 0.681381 0.454196
Si Si8 0.109919 0.657450 0.639688
O O1 0.875971 0.494636 0.193160
O O2 0.067554 0.357847 0.411787
O O3 0.952319 0.425611 0.045441
O O4 0.790014 0.922814 0.901451
O O5 0.817390 0.424024 0.827857
O O6 0.807693 0.674438 0.587753
O O7 0.050747 0.069554 0.024589
O O8 0.324008 0.586292 0.343011
O O9 0.253631 0.549587 0.493535
O O10 0.401660 0.622699 0.608490
O O11 0.388957 0.461850 0.832363
O O12 0.500000 0.500000 0.000000
O O13 0.665010 0.020466 0.129557
O O14 0.500000 0.500000 0.500000
O O15 0.257126 0.466009 0.788482
O O16 0.500000 0.000000 0.000000
O O17 0.923361 0.384302 0.525301
O O18 0.000000 0.000000 0.500000
#
# Coordination Sequence:
#
# PCOD9025847 Si02
#       8
#     2   2   2   2   2   2   2   2
#     4  12  27  43  73 104 143 175 237 293 355 414
#     4  11  22  43  71 103 132 179 238 286 342 412
#     4  10  22  40  72  95 134 177 233 277 342 412
#     4  11  25  43  74 102 138 182 237 282 352 422
#     4  11  25  45  66  99 141 183 219 288 359 412
#     4  11  22  45  70  96 138 189 235 287 342 423
#     4  12  24  47  72 106 141 188 236 291 347 427
#     4  12  27  45  69 106 144 185 236 295 354 409
#
# _framework density 21.381253999999998
#
# number of rings (size 3 to 8) (size 9 to 14) (size 15 to 20)
#    0.000    0.750    3.750    3.000    8.750    0.000 
#    2.250    0.625    0.000    0.000    0.000    0.000 
#    0.000    0.000    0.000    0.000    0.000    0.000 
#
# Total GULP energy -89368.699274 kJ/mol
# GULP energy per Si atom -5585.543705 kJ/mol
# Density = 2.133259 g / cm^3
# Si number density = 21.381254 Si / 1000 Ang^3
#
#
#
# Elastic Constant Matrix: (Units=GPa)
#
#
# Indices 1 2 3 4 5 6 
#
# 1 189.2610 35.9210 29.2341 4.5520 8.4681 9.6057
# 2 35.9210 87.0804 5.8941 12.8654 7.1660 10.9690
# 3 29.2341 5.8941 79.4201 -4.7048 -3.7158 4.0822
# 4 4.5520 12.8654 -4.7048 36.2548 7.0458 10.2298
# 5 8.4681 7.1660 -3.7158 7.0458 39.7729 5.0778
# 6 9.6057 10.9690 4.0822 10.2298 5.0778 26.2274
#
#
#
# Elastic Compliance Matrix: (Units=1/GPa)
#
#
# Indices 1 2 3 4 5 6 
#
# 1 0.006110 -0.002215 -0.002076 0.000192 -0.001019 -0.000866
# 2 -0.002215 0.013406 -0.000260 -0.003414 -0.000950 -0.003239
# 3 -0.002076 -0.000260 0.013735 0.002542 0.001651 -0.002580
# 4 0.000192 -0.003414 0.002542 0.032958 -0.003597 -0.011197
# 5 -0.001019 -0.000950 0.001651 -0.003597 0.026739 -0.003260
# 6 -0.000866 -0.003239 -0.002580 -0.011197 -0.003260 0.045200
#
#
# Mechanical properties :
#
#
# Convention : Reuss Voigt Hill
#
# Bulk Modulus (GPa) = 41.41101 55.31776 48.36439
# Shear Modulus (GPa) = 32.19587 39.43184 35.81386
#
# Velocity S-wave (km/s) = 3.88467 4.29910 4.09713
# Velocity P-wave (km/s) = 6.28736 7.11135 6.71201
#
# Compressibility (1/GPa) = 0.02414817
#
# Stress axis : x y z
#
# Youngs Moduli (GPa) = 163.67145 74.59572 72.80492
#
# Poissons Ratio (x) = 0.16525 0.15117
# Poissons Ratio (y) = 0.36257 0.01890
# Poissons Ratio (z) = 0.33985 0.01937
#
# Static dielectric constant tensor:
#      x y z
#    x 1.776720 0.032020 0.004260 
#    y 0.032020 1.785610 -0.032440 
#    z 0.004260 -0.032440 1.816450 
# 
# From -- ./inp_files/263369.got.cif
#   From: 2010.05.17/outbox.cif.g08.bks.cpg/sg2_132_cif.got.tgz:263369.got - 2010.06.03 11:33:40.
