data_PCOD9025355
_publ_section_title
;
Structure prediction by ZEFSAII (Michael W. Deem and Ramdas Pophale) SiO2 
 PCOD9025355
Probable space group: P -1
;
_chemical_formula_sum "Si O2"
_cell_formula_units_Z 16
_cell_length_a 5.901379
_cell_length_b 17.267935
_cell_length_c 8.709525
_cell_angle_alpha 126.326447
_cell_angle_beta 56.407295
_cell_angle_gamma 112.494311
_cell_volume 593.640598
_symmetry_space_group_name_H-M "P -1"
_symmetry_group_IT_number 2
_symmetry_cell_setting 'triclinic'
loop_
_space_group_symop_operation_xyz
x,y,z
-x,-y,-z
loop_
_atom_site_type_symbol
_atom_site_label
_atom_site_fract_x
_atom_site_fract_y
_atom_site_fract_z
Si Si1 0.039497 0.730624 0.522741
Si Si2 0.521892 0.843469 0.911187
Si Si3 0.795590 0.611651 0.187023
Si Si4 0.681992 0.957694 0.716920
Si Si5 0.230020 0.055961 0.671855
Si Si6 0.679382 0.354692 0.129971
Si Si7 0.258438 0.575677 0.479666
Si Si8 0.420209 0.256100 0.834860
O O1 0.815190 0.799482 0.743218
O O2 0.895224 0.656995 0.364746
O O3 0.153552 0.670008 0.548150
O O4 0.294058 0.775793 0.379382
O O5 0.497611 0.876567 0.780656
O O6 0.308416 0.758419 0.953975
O O7 0.477443 0.945774 0.127929
O O8 0.512776 0.549137 0.249077
O O9 0.718610 0.695914 0.198735
O O10 0.060762 0.582094 0.964074
O O11 0.796869 0.920368 0.472275
O O12 0.956431 0.994099 0.750852
O O13 0.269140 0.161150 0.852380
O O14 0.500000 0.000000 0.500000
O O15 0.474372 0.334579 0.041236
O O16 0.626776 0.402928 0.367718
O O17 0.000000 0.500000 0.500000
#
# Coordination Sequence:
#
# PCOD9025355 Si02
#       8
#     2   2   2   2   2   2   2   2
#     4  10  22  43  70  99 135 185 227 287 348 414
#     4  11  21  42  63  96 137 178 235 280 341 405
#     4  10  22  45  67 103 136 176 226 279 345 418
#     4  10  24  39  61  98 139 180 232 298 333 397
#     4  11  21  40  61  92 136 187 232 289 346 393
#     4  11  24  42  71 100 135 186 227 281 351 418
#     4  11  26  47  74 106 136 176 229 291 353 416
#     4  10  22  40  68  95 137 184 235 276 346 417
#
# _framework density 26.952331999999998
#
# number of rings (size 3 to 8) (size 9 to 14) (size 15 to 20)
#    0.000    1.500    1.250    3.000    3.500    5.000 
#    2.250    9.375    0.000    0.000    0.000    0.000 
#    0.000    0.000    0.000    0.000    0.000    0.000 
#
# Total GULP energy -89508.120166 kJ/mol
# GULP energy per Si atom -5594.257510 kJ/mol
# Density = 2.689099 g / cm^3
# Si number density = 26.952332 Si / 1000 Ang^3
#
#
#
# Elastic Constant Matrix: (Units=GPa)
#
#
# Indices 1 2 3 4 5 6 
#
# 1 84.3050 27.6201 39.1276 5.4196 -14.7302 -0.7864
# 2 27.6201 152.0216 43.0321 -9.0303 -5.8236 12.5306
# 3 39.1276 43.0321 93.8470 -21.3041 6.1832 -21.9835
# 4 5.4196 -9.0303 -21.3041 47.0713 0.4159 -15.2398
# 5 -14.7302 -5.8236 6.1832 0.4159 45.9535 1.8935
# 6 -0.7864 12.5306 -21.9835 -15.2398 1.8935 36.0188
#
#
#
# Elastic Compliance Matrix: (Units=1/GPa)
#
#
# Indices 1 2 3 4 5 6 
#
# 1 0.024603 0.003166 -0.022656 -0.020233 0.012492 -0.023609
# 2 0.003166 0.010075 -0.011395 -0.008191 0.004480 -0.014092
# 3 -0.022656 -0.011395 0.046196 0.037111 -0.017247 0.048273
# 4 -0.020233 -0.008191 0.037111 0.054808 -0.015034 0.049038
# 5 0.012492 0.004480 -0.017247 -0.015034 0.029603 -0.019729
# 6 -0.023609 -0.014092 0.048273 0.049038 -0.019729 0.083399
#
#
# Mechanical properties :
#
#
# Convention : Reuss Voigt Hill
#
# Bulk Modulus (GPa) = 52.34899 61.08146 56.71522
# Shear Modulus (GPa) = 15.78176 40.50163 28.14169
#
# Velocity S-wave (km/s) = 2.42243 3.88069 3.23480
# Velocity P-wave (km/s) = 5.22390 6.54153 5.91949
#
# Compressibility (1/GPa) = 0.01910257
#
# Stress axis : x y z
#
# Youngs Moduli (GPa) = 40.64610 99.25500 21.64708
#
# Poissons Ratio (x) = -0.31422 0.49043
# Poissons Ratio (y) = -0.12868 0.24668
# Poissons Ratio (z) = 0.92087 1.13105
#
# Static dielectric constant tensor:
#      x y z
#    x 2.229030 -0.006780 0.020400 
#    y -0.006780 2.100210 0.011950 
#    z 0.020400 0.011950 2.062250 
# 
# From -- ./inp_files/139324.got.cif
#   From: 2010.05.17/outbox.cif.g08.bks.cpg/sg2_70_cif.got.tgz:139324.got - 2010.06.03 11:33:40.
