data_PCOD9025197
_publ_section_title
;
Structure prediction by ZEFSAII (Michael W. Deem and Ramdas Pophale) SiO2 
 PCOD9025197
Probable space group: P -1
;
_chemical_formula_sum "Si O2"
_cell_formula_units_Z 14
_cell_length_a 13.142044
_cell_length_b 20.983949
_cell_length_c 22.327429
_cell_angle_alpha 163.886102
_cell_angle_beta 20.282403
_cell_angle_gamma 151.022884
_cell_volume 569.783920
_symmetry_space_group_name_H-M "P -1"
_symmetry_group_IT_number 2
_symmetry_cell_setting 'triclinic'
loop_
_space_group_symop_operation_xyz
x,y,z
-x,-y,-z
loop_
_atom_site_type_symbol
_atom_site_label
_atom_site_fract_x
_atom_site_fract_y
_atom_site_fract_z
Si Si1 0.304300 0.547143 0.350835
Si Si2 0.950829 0.073930 0.981431
Si Si3 0.028077 0.240862 0.830684
Si Si4 0.649897 0.574983 0.079783
Si Si5 0.456126 0.082995 0.031331
Si Si6 0.904394 0.468137 0.721698
Si Si7 0.608560 0.689763 0.414620
O O1 0.512657 0.428309 0.072673
O O2 0.518217 0.505935 0.252851
O O3 0.000000 0.500000 0.500000
O O4 0.178317 0.822571 0.647529
O O5 0.705408 0.158488 0.246606
O O6 0.141662 0.257594 0.023805
O O7 0.729814 0.054798 0.030874
O O8 0.217590 0.244432 0.790471
O O9 0.229123 0.175684 0.600690
O O10 0.779542 0.095888 0.840299
O O11 0.840616 0.522889 0.181617
O O12 0.350355 0.653354 0.272786
O O13 0.900856 0.450562 0.779724
O O14 0.222415 0.345400 0.403341
O O15 0.500000 0.000000 0.000000
#
# Coordination Sequence:
#
# PCOD9025197 Si02
#       7
#     2   2   2   2   2   2   2
#     4  11  22  43  68  99 135 174 226 274 329 397
#     4  12  24  43  74  97 133 181 222 274 336 393
#     4  10  22  45  67  98 141 168 222 279 328 396
#     4  10  23  44  70  98 135 179 214 286 326 391
#     4  12  26  44  69 101 134 177 220 276 334 400
#     4  11  24  47  69  98 135 175 230 267 333 401
#     4  10  22  40  67  98 130 176 219 272 330 386
#
# _framework density 24.570717999999999
#
# number of rings (size 3 to 8) (size 9 to 14) (size 15 to 20)
#    0.000    1.143    2.857    3.000    2.000    2.286 
#   12.857    0.000    0.000    0.000    0.000    0.000 
#    0.000    0.000    0.000    0.000    0.000    0.000 
#
# Total GULP energy -78154.090858 kJ/mol
# GULP energy per Si atom -5582.435061 kJ/mol
# Density = 2.451479 g / cm^3
# Si number density = 24.570718 Si / 1000 Ang^3
#
#
#
# Elastic Constant Matrix: (Units=GPa)
#
#
# Indices 1 2 3 4 5 6 
#
# 1 115.7229 21.1141 15.3777 -3.0523 11.4095 9.1957
# 2 21.1141 103.1530 25.9501 -24.9635 -6.9174 0.5685
# 3 15.3777 25.9501 58.1612 -18.1082 11.1954 -10.1083
# 4 -3.0523 -24.9635 -18.1082 44.9059 -13.6719 0.4897
# 5 11.4095 -6.9174 11.1954 -13.6719 40.3702 -15.8380
# 6 9.1957 0.5685 -10.1083 0.4897 -15.8380 36.4539
#
#
#
# Elastic Compliance Matrix: (Units=1/GPa)
#
#
# Indices 1 2 3 4 5 6 
#
# 1 0.010497 -0.002820 -0.002499 -0.003741 -0.006386 -0.006021
# 2 -0.002820 0.013814 -0.003887 0.008388 0.008210 0.002872
# 3 -0.002499 -0.003887 0.022978 0.006335 -0.001747 0.006219
# 4 -0.003741 0.008388 0.006335 0.033927 0.015739 0.008952
# 5 -0.006386 0.008210 -0.001747 0.015739 0.041114 0.018650
# 6 -0.006021 0.002872 0.006219 0.008952 0.018650 0.038613
#
#
# Mechanical properties :
#
#
# Convention : Reuss Voigt Hill
#
# Bulk Modulus (GPa) = 34.62998 44.65788 39.64393
# Shear Modulus (GPa) = 26.45746 38.65234 32.55490
#
# Velocity S-wave (km/s) = 3.28500 3.97054 3.64393
# Velocity P-wave (km/s) = 5.33975 6.26378 5.82013
#
# Compressibility (1/GPa) = 0.02887671
#
# Stress axis : x y z
#
# Youngs Moduli (GPa) = 95.26130 72.38865 43.51922
#
# Poissons Ratio (x) = 0.20416 0.10876
# Poissons Ratio (y) = 0.26867 0.16917
# Poissons Ratio (z) = 0.23806 0.28140
#
# Static dielectric constant tensor:
#      x y z
#    x 1.973670 -0.005310 0.017700 
#    y -0.005310 2.008280 -0.011830 
#    z 0.017700 -0.011830 2.020040 
# 
# From -- ./inp_files/410320.got.cif
#   From: 2010.05.17/outbox.cif.g08.bks.cpg/sg2_206_cif.got.tgz:410320.got - 2010.06.03 11:33:40.
