data_PCOD9025415
_publ_section_title
;
Structure prediction by ZEFSAII (Michael W. Deem and Ramdas Pophale) SiO2 
 PCOD9025415
Probable space group: P -1
;
_chemical_formula_sum "Si O2"
_cell_formula_units_Z 16
_cell_length_a 11.715391
_cell_length_b 8.433691
_cell_length_c 12.220947
_cell_angle_alpha 127.443208
_cell_angle_beta 72.881786
_cell_angle_gamma 133.696885
_cell_volume 676.319406
_symmetry_space_group_name_H-M "P -1"
_symmetry_group_IT_number 2
_symmetry_cell_setting 'triclinic'
loop_
_space_group_symop_operation_xyz
x,y,z
-x,-y,-z
loop_
_atom_site_type_symbol
_atom_site_label
_atom_site_fract_x
_atom_site_fract_y
_atom_site_fract_z
Si Si1 0.900711 0.010983 0.664467
Si Si2 0.346422 0.685890 0.220006
Si Si3 0.381255 0.612084 0.940501
Si Si4 0.865051 0.022044 0.319040
Si Si5 0.870782 0.391332 0.087174
Si Si6 0.984497 0.213147 0.129707
Si Si7 0.629203 0.646161 0.753464
Si Si8 0.645872 0.880011 0.508643
O O1 0.794667 0.904541 0.761020
O O2 0.771001 0.905283 0.562475
O O3 0.996535 0.911889 0.612845
O O4 0.041765 0.334115 0.753189
O O5 0.350345 0.516135 0.237530
O O6 0.156350 0.503535 0.173115
O O7 0.406131 0.965957 0.363323
O O8 0.423471 0.696939 0.090433
O O9 0.292807 0.705091 0.955873
O O10 0.529803 0.703385 0.866787
O O11 0.245272 0.283627 0.826861
O O12 0.947210 0.201546 0.262870
O O13 0.744075 0.017761 0.424066
O O14 0.854713 0.181652 0.080360
O O15 0.000000 0.500000 0.000000
O O16 0.000000 0.000000 0.000000
O O17 0.509792 0.428420 0.601975
#
# Coordination Sequence:
#
# PCOD9025415 Si02
#       8
#     2   2   2   2   2   2   2   2
#     4  11  21  42  67  91 131 174 213 264 320 383
#     4  12  22  42  67  92 134 171 214 264 323 377
#     4  10  22  43  67  99 129 168 213 267 320 385
#     4  10  22  40  68  99 126 165 218 268 323 380
#     4  11  21  39  68  97 129 159 211 272 321 372
#     4  12  21  39  71  98 129 163 211 266 333 375
#     4  11  25  42  66  93 133 178 217 254 320 387
#     4  11  24  43  62  95 132 172 218 266 316 376
#
# _framework density 23.657458999999999
#
# number of rings (size 3 to 8) (size 9 to 14) (size 15 to 20)
#    0.000    1.000    5.000    2.250    0.000    0.500 
#    0.000    6.250    0.000    0.000    0.000    0.000 
#    0.000    0.000    0.000    0.000    0.000    0.000 
#
# Total GULP energy -89588.443167 kJ/mol
# GULP energy per Si atom -5599.277698 kJ/mol
# Density = 2.360361 g / cm^3
# Si number density = 23.657459 Si / 1000 Ang^3
#
#
#
# Elastic Constant Matrix: (Units=GPa)
#
#
# Indices 1 2 3 4 5 6 
#
# 1 87.7001 25.4990 23.0875 -20.0182 2.9901 -13.5805
# 2 25.4990 70.1616 31.5836 0.3124 -10.0228 -1.8997
# 3 23.0875 31.5836 112.9400 -5.0038 -2.0192 -7.6092
# 4 -20.0182 0.3124 -5.0038 25.3239 9.8161 8.2599
# 5 2.9901 -10.0228 -2.0192 9.8161 35.6248 -12.5651
# 6 -13.5805 -1.8997 -7.6092 8.2599 -12.5651 37.2625
#
#
#
# Elastic Compliance Matrix: (Units=1/GPa)
#
#
# Indices 1 2 3 4 5 6 
#
# 1 0.018134 -0.007526 -0.001034 0.018068 -0.009043 -0.001040
# 2 -0.007526 0.020692 -0.004343 -0.012660 0.011097 0.003973
# 3 -0.001034 -0.004343 0.010397 0.001096 -0.000449 0.001131
# 4 0.018068 -0.012660 0.001096 0.073824 -0.032864 -0.021283
# 5 -0.009043 0.011097 -0.000449 -0.032864 0.048300 0.020750
# 6 -0.001040 0.003973 0.001131 -0.021283 0.020750 0.038606
#
#
# Mechanical properties :
#
#
# Convention : Reuss Voigt Hill
#
# Bulk Modulus (GPa) = 42.70154 47.90463 45.30309
# Shear Modulus (GPa) = 20.52851 32.35104 26.43977
#
# Velocity S-wave (km/s) = 2.94894 3.70195 3.34669
# Velocity P-wave (km/s) = 5.44831 6.21014 5.84166
#
# Compressibility (1/GPa) = 0.02341836
#
# Stress axis : x y z
#
# Youngs Moduli (GPa) = 55.14458 48.32783 96.18384
#
# Poissons Ratio (x) = 0.36370 0.09943
# Poissons Ratio (y) = 0.41500 0.41771
# Poissons Ratio (z) = 0.05701 0.20988
#
# Static dielectric constant tensor:
#      x y z
#    x 1.881070 -0.021130 0.007610 
#    y -0.021130 1.872990 0.030900 
#    z 0.007610 0.030900 1.946830 
# 
# From -- ./inp_files/190709.got.cif
#   From: 2010.05.17/outbox.cif.g08.bks.cpg/sg2_96_cif.got.tgz:190709.got - 2010.06.03 11:33:40.
