data_PCOD9025536
_publ_section_title
;
Structure prediction by ZEFSAII (Michael W. Deem and Ramdas Pophale) SiO2 
 PCOD9025536
Probable space group: P -1
;
_chemical_formula_sum "Si O2"
_cell_formula_units_Z 12
_cell_length_a 10.973772
_cell_length_b 8.492355
_cell_length_c 10.972767
_cell_angle_alpha 117.317404
_cell_angle_beta 111.821287
_cell_angle_gamma 117.318425
_cell_volume 544.977308
_symmetry_space_group_name_H-M "P -1"
_symmetry_group_IT_number 2
_symmetry_cell_setting 'triclinic'
loop_
_space_group_symop_operation_xyz
x,y,z
-x,-y,-z
loop_
_atom_site_type_symbol
_atom_site_label
_atom_site_fract_x
_atom_site_fract_y
_atom_site_fract_z
Si Si1 0.048459 0.808721 0.548441
Si Si2 0.877520 0.499965 0.622466
Si Si3 0.674838 0.557863 0.174859
Si Si4 0.369166 0.499980 0.130762
Si Si5 0.524275 0.719261 0.530399
Si Si6 0.969577 0.280673 0.975636
O O1 0.139343 0.723429 0.496845
O O2 0.996954 0.723262 0.639290
O O3 0.830103 0.607427 0.330140
O O4 0.191803 0.125865 0.691831
O O5 0.652929 0.344862 0.501608
O O6 0.998324 0.655214 0.847108
O O7 0.472310 0.413081 0.117812
O O8 0.617764 0.412988 0.972292
O O9 0.492344 0.697512 0.364112
O O10 0.135780 0.302337 0.007430
O O11 0.500000 0.500000 0.500000
O O12 0.747788 0.999988 0.752149
O O13 0.000000 0.500000 0.000000
#
# Coordination Sequence:
#
# PCOD9025536 Si02
#       6
#     2   2   2   2   2   2
#     4  10  22  42  68  94 133 173 216 277 326 394
#     4  10  24  44  66  98 132 172 222 272 336 386
#     4  10  22  40  69  95 131 172 223 267 333 391
#     4  10  24  40  66  98 126 174 218 270 326 394
#     4  11  26  43  69  98 134 173 222 275 330 393
#     4  11  26  43  69  98 134 173 222 275 330 393
#
# _framework density 22.019264
#
# number of rings (size 3 to 8) (size 9 to 14) (size 15 to 20)
#    0.000    1.667    0.000    2.000   14.000    2.667 
#    0.000    1.667    0.000    0.000    0.000    0.000 
#    0.000    0.000    0.000    0.000    0.000    0.000 
#
# Total GULP energy -67049.488056 kJ/mol
# GULP energy per Si atom -5587.457338 kJ/mol
# Density = 2.196915 g / cm^3
# Si number density = 22.019264 Si / 1000 Ang^3
#
#
#
# Elastic Constant Matrix: (Units=GPa)
#
#
# Indices 1 2 3 4 5 6 
#
# 1 167.8805 54.0618 94.0064 -14.5479 6.9350 18.5424
# 2 54.0618 96.6323 69.6781 -4.7114 -1.0428 0.5119
# 3 94.0064 69.6781 190.6670 -5.2473 27.8889 22.1075
# 4 -14.5479 -4.7114 -5.2473 43.9282 5.9617 -3.3998
# 5 6.9350 -1.0428 27.8889 5.9617 39.7888 -7.6670
# 6 18.5424 0.5119 22.1075 -3.3998 -7.6670 33.2919
#
#
#
# Elastic Compliance Matrix: (Units=1/GPa)
#
#
# Indices 1 2 3 4 5 6 
#
# 1 0.009054 -0.002802 -0.002978 0.002179 -0.000450 -0.002904
# 2 -0.002802 0.016690 -0.006591 -0.000312 0.006991 0.007258
# 3 -0.002978 -0.006591 0.011392 0.000306 -0.009205 -0.007893
# 4 0.002179 -0.000312 0.000306 0.024064 -0.004193 0.000080
# 5 -0.000450 0.006991 -0.009205 -0.004193 0.035158 0.013924
# 6 -0.002904 0.007258 -0.007893 0.000080 0.013924 0.039999
#
#
# Mechanical properties :
#
#
# Convention : Reuss Voigt Hill
#
# Bulk Modulus (GPa) = 80.67314 98.96358 89.81836
# Shear Modulus (GPa) = 30.26097 39.23070 34.74583
#
# Velocity S-wave (km/s) = 3.71117 4.22554 3.97668
# Velocity P-wave (km/s) = 7.42164 8.29751 7.87177
#
# Compressibility (1/GPa) = 0.01239570
#
# Stress axis : x y z
#
# Youngs Moduli (GPa) = 110.44361 59.91642 87.78451
#
# Poissons Ratio (x) = 0.16786 0.26141
# Poissons Ratio (y) = 0.30942 0.57856
# Poissons Ratio (z) = 0.32889 0.39489
#
# Static dielectric constant tensor:
#      x y z
#    x 1.800920 0.008550 -0.008580 
#    y 0.008550 1.781220 -0.013310 
#    z -0.008580 -0.013310 1.782800 
# 
# From -- ./inp_files/232121.got.cif
#   From: 2010.05.17/outbox.cif.g08.bks.cpg/sg2_117_cif.got.tgz:232121.got - 2010.06.03 11:33:40.
