data_PCOD9025815
_publ_section_title
;
Structure prediction by ZEFSAII (Michael W. Deem and Ramdas Pophale) SiO2 
 PCOD9025815
Probable space group: P -1
;
_chemical_formula_sum "Si O2"
_cell_formula_units_Z 16
_cell_length_a 9.910714
_cell_length_b 17.909567
_cell_length_c 16.985764
_cell_angle_alpha 153.272844
_cell_angle_beta 32.074345
_cell_angle_gamma 151.608583
_cell_volume 617.381422
_symmetry_space_group_name_H-M "P -1"
_symmetry_group_IT_number 2
_symmetry_cell_setting 'triclinic'
loop_
_space_group_symop_operation_xyz
x,y,z
-x,-y,-z
loop_
_atom_site_type_symbol
_atom_site_label
_atom_site_fract_x
_atom_site_fract_y
_atom_site_fract_z
Si Si1 0.560956 0.368439 0.021042
Si Si2 0.238724 0.881644 0.581036
Si Si3 0.618583 0.916324 0.754413
Si Si4 0.882853 0.455606 0.789825
Si Si5 0.627653 0.555398 0.374698
Si Si6 0.937951 0.669191 0.668050
Si Si7 0.034364 0.754603 0.215143
Si Si8 0.054071 0.860450 0.042452
O O1 0.227014 0.295363 0.143796
O O2 0.774546 0.602446 0.142145
O O3 0.635667 0.330363 0.860696
O O4 0.708491 0.295326 0.943702
O O5 0.113751 0.673308 0.404456
O O6 0.232057 0.835251 0.634361
O O7 0.500000 0.000000 0.500000
O O8 0.068379 0.998299 0.776710
O O9 0.592519 0.711473 0.589068
O O10 0.807277 0.030888 0.693263
O O11 0.782204 0.061104 0.881144
O O12 0.294497 0.885978 0.883364
O O13 0.198413 0.532388 0.750248
O O14 0.850065 0.630509 0.939178
O O15 0.326916 0.411227 0.342325
O O16 0.862803 0.697036 0.327138
O O17 0.000000 0.500000 0.500000
#
# Coordination Sequence:
#
# PCOD9025815 Si02
#       8
#     2   2   2   2   2   2   2   2
#     4   9  19  38  65  96 133 184 233 277 349 421
#     4  12  29  50  72 104 144 189 241 293 348 430
#     4  11  20  36  61 108 141 168 232 293 348 417
#     4  11  23  46  76 106 140 183 237 297 360 411
#     4  10  22  40  72 104 136 183 231 292 355 416
#     4  11  26  47  70  98 148 195 232 288 358 424
#     4   9  17  33  62  98 137 176 220 289 347 410
#     4  11  25  38  70 104 142 180 227 297 358 414
#
# _framework density 25.915908999999999
#
# number of rings (size 3 to 8) (size 9 to 14) (size 15 to 20)
#    0.000    1.500    2.500    2.625    5.250    1.500 
#    6.750    0.625    0.000    0.000    0.000    0.000 
#    0.000    0.000    0.000    0.000    0.000    0.000 
#
# Total GULP energy -89426.216673 kJ/mol
# GULP energy per Si atom -5589.138542 kJ/mol
# Density = 2.585692 g / cm^3
# Si number density = 25.915909 Si / 1000 Ang^3
#
#
#
# Elastic Constant Matrix: (Units=GPa)
#
#
# Indices 1 2 3 4 5 6 
#
# 1 56.0598 17.1659 13.5552 0.5380 -4.5861 6.2210
# 2 17.1659 131.4662 30.2670 -25.2261 -1.1402 -32.1852
# 3 13.5552 30.2670 142.4127 -9.4986 -3.7718 -9.4343
# 4 0.5380 -25.2261 -9.4986 61.9873 -10.0774 9.8707
# 5 -4.5861 -1.1402 -3.7718 -10.0774 26.2001 0.6501
# 6 6.2210 -32.1852 -9.4343 9.8707 0.6501 33.8260
#
#
#
# Elastic Compliance Matrix: (Units=1/GPa)
#
#
# Indices 1 2 3 4 5 6 
#
# 1 0.020790 -0.004475 -0.001525 -0.000350 0.003300 -0.008468
# 2 -0.004475 0.011648 -0.001130 0.002971 0.000438 0.010716
# 3 -0.001525 -0.001130 0.007553 0.000703 0.001015 0.001087
# 4 -0.000350 0.002971 0.000703 0.019104 0.007583 -0.002633
# 5 0.003300 0.000438 0.001015 0.007583 0.041900 -0.002925
# 6 -0.008468 0.010716 0.001087 -0.002633 -0.002925 0.042445
#
#
# Mechanical properties :
#
#
# Convention : Reuss Voigt Hill
#
# Bulk Modulus (GPa) = 38.86326 50.21280 44.53803
# Shear Modulus (GPa) = 30.07029 42.33271 36.20150
#
# Velocity S-wave (km/s) = 3.41002 4.04600 3.74154
# Velocity P-wave (km/s) = 5.52564 6.42216 5.99070
#
# Compressibility (1/GPa) = 0.02573124
#
# Stress axis : x y z
#
# Youngs Moduli (GPa) = 48.09948 85.84913 132.39982
#
# Poissons Ratio (x) = 0.38421 0.20186
# Poissons Ratio (y) = 0.21527 0.14961
# Poissons Ratio (z) = 0.07334 0.09701
#
# Static dielectric constant tensor:
#      x y z
#    x 2.063270 0.056400 0.034290 
#    y 0.056400 2.085730 -0.047710 
#    z 0.034290 -0.047710 2.026990 
# 
# From -- ./inp_files/570366.got.cif
#   From: 2010.05.17/outbox.cif.g08.bks.cpg/sg2_286_cif.got.tgz:570366.got - 2010.06.03 11:33:40.
