data_PCOD9025184
_publ_section_title
;
Structure prediction by ZEFSAII (Michael W. Deem and Ramdas Pophale) SiO2 
 PCOD9025184
Probable space group: P -1
;
_chemical_formula_sum "Si O2"
_cell_formula_units_Z 14
_cell_length_a 20.147902
_cell_length_b 11.949513
_cell_length_c 13.917348
_cell_angle_alpha 40.879391
_cell_angle_beta 158.521017
_cell_angle_gamma 149.619205
_cell_volume 600.456009
_symmetry_space_group_name_H-M "P -1"
_symmetry_group_IT_number 2
_symmetry_cell_setting 'triclinic'
loop_
_space_group_symop_operation_xyz
x,y,z
-x,-y,-z
loop_
_atom_site_type_symbol
_atom_site_label
_atom_site_fract_x
_atom_site_fract_y
_atom_site_fract_z
Si Si1 0.157377 0.198792 0.007442
Si Si2 0.967738 0.402059 0.259307
Si Si3 0.545196 0.386407 0.715610
Si Si4 0.831945 0.921485 0.434805
Si Si5 0.353984 0.133533 0.975316
Si Si6 0.844105 0.288293 0.498355
Si Si7 0.530544 0.221092 0.371332
O O1 0.948695 0.170133 0.690132
O O2 0.311988 0.430300 0.125202
O O3 0.337966 0.195805 0.194218
O O4 0.000000 0.000000 0.000000
O O5 0.076706 0.585385 0.373882
O O6 0.187495 0.552584 0.381618
O O7 0.914879 0.172540 0.367090
O O8 0.719142 0.345082 0.937388
O O9 0.500000 0.500000 0.500000
O O10 0.310743 0.178140 0.593618
O O11 0.669309 0.774062 0.216400
O O12 0.067292 0.946143 0.734490
O O13 0.554108 0.121168 0.217509
O O14 0.459879 0.239713 0.155150
O O15 0.000000 0.500000 0.500000
O O16 0.500000 0.000000 0.500000
#
# Coordination Sequence:
#
# PCOD9025184 Si02
#       7
#     2   2   2   2   2   2   2
#     4  11  25  44  69  98 133 180 231 284 344 405
#     4  10  24  42  68  99 133 183 233 282 343 410
#     4  11  26  46  68 103 142 183 228 288 351 419
#     4  11  25  44  69 101 146 180 233 276 357 422
#     4  10  24  42  69  98 142 180 227 285 344 402
#     4  10  22  40  67  97 131 172 232 277 331 402
#     4  11  25  45  72 102 140 178 246 289 341 405
#
# _framework density 23.315614
#
# number of rings (size 3 to 8) (size 9 to 14) (size 15 to 20)
#    0.000    1.429    0.000    4.714   12.000    3.429 
#    0.000    1.429    0.000    0.000    0.000    0.000 
#    0.000    0.000    0.000    0.000    0.000    0.000 
#
# Total GULP energy -77994.731881 kJ/mol
# GULP energy per Si atom -5571.052277 kJ/mol
# Density = 2.326255 g / cm^3
# Si number density = 23.315614 Si / 1000 Ang^3
#
#
#
# Elastic Constant Matrix: (Units=GPa)
#
#
# Indices 1 2 3 4 5 6 
#
# 1 129.2311 46.6559 90.9044 2.5859 47.4499 20.1695
# 2 46.6559 123.7288 60.2134 -4.7252 33.9971 22.2096
# 3 90.9044 60.2134 195.1537 -11.1456 61.4940 11.3961
# 4 2.5859 -4.7252 -11.1456 25.0011 -4.8188 -0.1852
# 5 47.4499 33.9971 61.4940 -4.8188 64.0750 11.1039
# 6 20.1695 22.2096 11.3961 -0.1852 11.1039 48.4547
#
#
#
# Elastic Compliance Matrix: (Units=1/GPa)
#
#
# Indices 1 2 3 4 5 6 
#
# 1 0.013790 -0.001254 -0.004549 -0.004681 -0.005019 -0.002963
# 2 -0.001254 0.010703 -0.001690 0.000898 -0.002469 -0.003417
# 3 -0.004549 -0.001690 0.009359 0.003424 -0.004731 0.001564
# 4 -0.004681 0.000898 0.003424 0.042735 0.002877 0.000236
# 5 -0.005019 -0.002469 -0.004731 0.002877 0.025656 -0.001535
# 6 -0.002963 -0.003417 0.001564 0.000236 -0.001535 0.023422
#
#
# Mechanical properties :
#
#
# Convention : Reuss Voigt Hill
#
# Bulk Modulus (GPa) = 53.00100 93.74012 73.37056
# Shear Modulus (GPa) = 34.02748 44.19548 39.11148
#
# Velocity S-wave (km/s) = 3.82439 4.35849 4.10015
# Velocity P-wave (km/s) = 6.50251 8.10066 7.34518
#
# Compressibility (1/GPa) = 0.01886757
#
# Stress axis : x y z
#
# Youngs Moduli (GPa) = 72.51734 93.42816 106.84427
#
# Poissons Ratio (x) = 0.11713 0.48607
# Poissons Ratio (y) = 0.09091 0.18051
# Poissons Ratio (z) = 0.32991 0.15785
#
# Static dielectric constant tensor:
#      x y z
#    x 1.757000 -0.187300 -0.083040 
#    y -0.187300 1.707080 -0.022660 
#    z -0.083040 -0.022660 1.909320 
# 
# From -- ./inp_files/541094.got.cif
#   From: 2010.05.17/outbox.cif.g08.bks.cpg/sg2_271_cif.got.tgz:541094.got - 2010.06.03 11:33:40.
