data_PCOD9025884
_publ_section_title
;
Structure prediction by ZEFSAII (Michael W. Deem and Ramdas Pophale) SiO2 
 PCOD9025884
Probable space group: P -1
;
_chemical_formula_sum "Si O2"
_cell_formula_units_Z 13
_cell_length_a 8.398136
_cell_length_b 19.775716
_cell_length_c 8.490901
_cell_angle_alpha 44.742994
_cell_angle_beta 73.107267
_cell_angle_gamma 41.518540
_cell_volume 563.237480
_symmetry_space_group_name_H-M "P -1"
_symmetry_group_IT_number 2
_symmetry_cell_setting 'triclinic'
loop_
_space_group_symop_operation_xyz
x,y,z
-x,-y,-z
loop_
_atom_site_type_symbol
_atom_site_label
_atom_site_fract_x
_atom_site_fract_y
_atom_site_fract_z
Si Si1 0.330429 0.262362 0.960804
Si Si2 0.947826 0.874996 0.829450
Si Si3 0.760775 0.809883 0.207284
Si Si4 0.131767 0.416377 0.268001
Si Si5 0.634948 0.331095 0.230267
Si Si6 0.500000 0.000000 0.500000
Si Si7 0.025520 0.013938 0.787766
O O1 0.315496 0.230124 0.841292
O O2 0.096277 0.446914 0.762384
O O3 0.649127 0.145144 0.084542
O O4 0.302808 0.185327 0.213850
O O5 0.684719 0.972085 0.632018
O O6 0.223490 0.749691 0.847873
O O7 0.888183 0.001138 0.730569
O O8 0.984607 0.776089 0.116747
O O9 0.823147 0.717254 0.493923
O O10 0.500000 0.000000 0.000000
O O11 0.400187 0.361502 0.292257
O O12 0.000000 0.500000 0.000000
O O13 0.500000 0.500000 0.000000
O O14 0.898719 0.178987 0.519433
O O15 0.000000 0.000000 0.000000
#
# Coordination Sequence:
#
# PCOD9025884 Si02
#       7
#     2   2   2   2   2   1   2
#     4  11  24  44  72 100 147 188 242 292 370 427
#     4  11  24  46  76 102 149 190 250 294 370 430
#     4  11  25  46  72 104 146 194 243 296 364 443
#     4  12  28  45  72 107 145 191 245 298 368 437
#     4  12  26  47  71 110 146 190 245 311 364 437
#     4  10  22  40  74 102 130 194 238 290 356 432
#     4  12  26  45  75 110 147 194 243 307 369 439
#
# _framework density 23.080850999999999
#
# number of rings (size 3 to 8) (size 9 to 14) (size 15 to 20)
#    0.000    0.615    1.538    6.462    6.462    2.462 
#    0.000    2.308    0.000    0.000    0.000    0.000 
#    0.000    0.000    0.000    0.000    0.000    0.000 
#
# Total GULP energy -72423.974820 kJ/mol
# GULP energy per Si atom -5571.074986 kJ/mol
# Density = 2.302832 g / cm^3
# Si number density = 23.080851 Si / 1000 Ang^3
#
#
#
# Elastic Constant Matrix: (Units=GPa)
#
#
# Indices 1 2 3 4 5 6 
#
# 1 63.5754 36.7737 28.7933 -12.1842 -6.2473 11.7405
# 2 36.7737 141.4358 69.2456 -8.4728 -6.3262 2.1935
# 3 28.7933 69.2456 169.3931 -0.2564 -34.7500 -0.1319
# 4 -12.1842 -8.4728 -0.2564 39.9606 -3.8147 -3.5397
# 5 -6.2473 -6.3262 -34.7500 -3.8147 31.9549 5.6122
# 6 11.7405 2.1935 -0.1319 -3.5397 5.6122 42.8934
#
#
#
# Elastic Compliance Matrix: (Units=1/GPa)
#
#
# Indices 1 2 3 4 5 6 
#
# 1 0.021197 -0.004440 -0.001004 0.005380 0.003805 -0.005632
# 2 -0.004440 0.010076 -0.004069 0.000533 -0.003442 0.001182
# 3 -0.001004 -0.004069 0.009721 -0.000251 0.009676 -0.000774
# 4 0.005380 0.000533 -0.000251 0.027185 0.004093 0.000207
# 5 0.003805 -0.003442 0.009676 0.004093 0.043453 -0.006183
# 6 -0.005632 0.001182 -0.000774 0.000207 -0.006183 0.025618
#
#
# Mechanical properties :
#
#
# Convention : Reuss Voigt Hill
#
# Bulk Modulus (GPa) = 45.51719 71.55883 58.53801
# Shear Modulus (GPa) = 30.56230 38.93454 34.74842
#
# Velocity S-wave (km/s) = 3.64282 4.11162 3.88430
# Velocity P-wave (km/s) = 6.12022 7.32198 6.74791
#
# Compressibility (1/GPa) = 0.02196972
#
# Stress axis : x y z
#
# Youngs Moduli (GPa) = 47.17616 99.24145 102.86784
#
# Poissons Ratio (x) = 0.44064 0.10325
# Poissons Ratio (y) = 0.20947 0.41854
# Poissons Ratio (z) = 0.04735 0.40379
#
# Static dielectric constant tensor:
#      x y z
#    x 1.955850 -0.078320 -0.002080 
#    y -0.078320 1.902700 0.035600 
#    z -0.002080 0.035600 1.898500 
# 
# From -- ./inp_files/155939.got.cif
#   From: 2010.05.17/outbox.cif.g08.bks.cpg/sg2_78_cif.got.tgz:155939.got - 2010.06.03 11:33:40.
