data_PCOD9025856
_publ_section_title
;
Structure prediction by ZEFSAII (Michael W. Deem and Ramdas Pophale) SiO2 
 PCOD9025856
Probable space group: P -1
;
_chemical_formula_sum "Si O2"
_cell_formula_units_Z 11
_cell_length_a 9.622325
_cell_length_b 8.956679
_cell_length_c 7.664210
_cell_angle_alpha 48.162419
_cell_angle_beta 96.029091
_cell_angle_gamma 112.088737
_cell_volume 445.717060
_symmetry_space_group_name_H-M "P -1"
_symmetry_group_IT_number 2
_symmetry_cell_setting 'triclinic'
loop_
_space_group_symop_operation_xyz
x,y,z
-x,-y,-z
loop_
_atom_site_type_symbol
_atom_site_label
_atom_site_fract_x
_atom_site_fract_y
_atom_site_fract_z
Si Si1 0.192001 0.587523 0.789397
Si Si2 0.604898 0.624624 0.080261
Si Si3 0.334678 0.969539 0.064875
Si Si4 0.500000 0.000000 0.500000
Si Si5 0.653010 0.746419 0.472945
Si Si6 0.139625 0.507759 0.251799
O O1 0.228794 0.377371 0.911956
O O2 0.352065 0.775567 0.610527
O O3 0.042544 0.585807 0.679620
O O4 0.172983 0.596775 0.987910
O O5 0.624390 0.877146 0.877021
O O6 0.498270 0.485138 0.334138
O O7 0.500000 0.500000 0.000000
O O8 0.293954 0.121289 0.805151
O O9 0.500000 0.000000 0.000000
O O10 0.224109 0.715267 0.229849
O O11 0.613684 0.912803 0.460106
O O12 0.788976 0.670424 0.590806
#
# Coordination Sequence:
#
# PCOD9025856 Si02
#       6
#     2   2   2   1   2   2
#     4  10  22  43  66 102 136 178 223 280 330 405
#     4  11  22  42  69  98 132 180 229 277 330 410
#     4  12  24  41  69 100 134 177 228 279 343 390
#     4  10  22  40  72  98 132 180 228 264 338 402
#     4  11  23  41  69 101 133 181 225 277 336 398
#     4  11  23  43  68  98 140 173 227 280 335 396
#
# _framework density 24.679334000000001
#
# number of rings (size 3 to 8) (size 9 to 14) (size 15 to 20)
#    0.000    1.091    5.455    0.545    2.545    1.455 
#    0.000    0.909    0.000    0.000    0.000    0.000 
#    0.000    0.000    0.000    0.000    0.000    0.000 
#
# Total GULP energy -61255.663153 kJ/mol
# GULP energy per Si atom -5568.696650 kJ/mol
# Density = 2.462316 g / cm^3
# Si number density = 24.679334 Si / 1000 Ang^3
#
#
#
# Elastic Constant Matrix: (Units=GPa)
#
#
# Indices 1 2 3 4 5 6 
#
# 1 196.2786 41.7104 6.2976 -17.6819 23.1078 6.4519
# 2 41.7104 114.1873 -2.6174 -8.3136 12.3014 -15.2351
# 3 6.2976 -2.6174 70.8194 5.6624 3.5365 0.5583
# 4 -17.6819 -8.3136 5.6624 33.9417 -16.5112 3.0824
# 5 23.1078 12.3014 3.5365 -16.5112 33.1427 -3.4870
# 6 6.4519 -15.2351 0.5583 3.0824 -3.4870 38.4204
#
#
#
# Elastic Compliance Matrix: (Units=1/GPa)
#
#
# Indices 1 2 3 4 5 6 
#
# 1 0.006118 -0.002125 -0.000588 0.001575 -0.002867 -0.002248
# 2 -0.002125 0.010329 0.000640 -0.000040 -0.001992 0.004266
# 3 -0.000588 0.000640 0.014719 -0.004345 -0.003545 0.000165
# 4 0.001575 -0.000040 -0.004345 0.040605 0.019429 -0.001711
# 5 -0.002867 -0.001992 -0.003545 0.019429 0.043189 0.002104
# 6 -0.002248 0.004266 0.000165 -0.001711 0.002104 0.028423
#
#
# Mechanical properties :
#
#
# Convention : Reuss Voigt Hill
#
# Bulk Modulus (GPa) = 37.00760 52.45184 44.72972
# Shear Modulus (GPa) = 31.94139 43.49393 37.71766
#
# Velocity S-wave (km/s) = 3.60148 4.20260 3.91360
# Velocity P-wave (km/s) = 5.68526 6.69691 6.21172
#
# Compressibility (1/GPa) = 0.02702148
#
# Stress axis : x y z
#
# Youngs Moduli (GPa) = 163.44048 96.81294 67.93729
#
# Poissons Ratio (x) = 0.20572 0.03992
# Poissons Ratio (y) = 0.34729 -0.04346
# Poissons Ratio (z) = 0.09605 -0.06193
#
# Static dielectric constant tensor:
#      x y z
#    x 1.831930 -0.087130 -0.018890 
#    y -0.087130 2.125370 0.062240 
#    z -0.018890 0.062240 1.982230 
# 
# From -- ./inp_files/148720.got.cif
#   From: 2010.05.17/outbox.cif.g08.bks.cpg/sg2_75_cif.got.tgz:148720.got - 2010.06.03 11:33:40.
