data_PCOD9025777
_publ_section_title
;
Structure prediction by ZEFSAII (Michael W. Deem and Ramdas Pophale) SiO2 
 PCOD9025777
Probable space group: P -1
;
_chemical_formula_sum "Si O2"
_cell_formula_units_Z 16
_cell_length_a 11.530491
_cell_length_b 9.012386
_cell_length_c 16.734535
_cell_angle_alpha 33.318754
_cell_angle_beta 52.653376
_cell_angle_gamma 61.924786
_cell_volume 756.761841
_symmetry_space_group_name_H-M "P -1"
_symmetry_group_IT_number 2
_symmetry_cell_setting 'triclinic'
loop_
_space_group_symop_operation_xyz
x,y,z
-x,-y,-z
loop_
_atom_site_type_symbol
_atom_site_label
_atom_site_fract_x
_atom_site_fract_y
_atom_site_fract_z
Si Si1 0.291044 0.912869 0.274831
Si Si2 0.820432 0.089931 0.843592
Si Si3 0.831002 0.512646 0.052208
Si Si4 0.965216 0.735243 0.188380
Si Si5 0.576589 0.130602 0.331717
Si Si6 0.563257 0.354415 0.922136
Si Si7 0.797717 0.600595 0.836266
Si Si8 0.358245 0.378260 0.568533
O O1 0.173779 0.877109 0.268591
O O2 0.330996 0.614725 0.411183
O O3 0.222114 0.078380 0.301209
O O4 0.434199 0.115745 0.099384
O O5 0.683828 0.236453 0.867851
O O6 0.963327 0.189925 0.788636
O O7 0.786405 0.766266 0.008424
O O8 0.736766 0.249337 0.238307
O O9 0.803578 0.535457 0.957835
O O10 0.000000 0.500000 0.000000
O O11 0.792066 0.669366 0.297279
O O12 0.058185 0.500675 0.219034
O O13 0.000000 0.000000 0.000000
O O14 0.498898 0.383494 0.211766
O O15 0.500000 0.000000 0.500000
O O16 0.600758 0.901666 0.360177
O O17 0.656479 0.446440 0.921214
O O18 0.500000 0.500000 0.500000
#
# Coordination Sequence:
#
# PCOD9025777 Si02
#       8
#     2   2   2   2   2   2   2   2
#     4  11  23  41  69  97 136 176 226 278 331 401
#     4  10  22  40  71  98 126 183 230 268 329 409
#     4  11  23  42  68  99 136 179 224 272 338 403
#     4  11  25  44  68  99 139 179 222 276 342 401
#     4  12  26  43  68 102 137 171 223 283 338 395
#     4  11  22  41  72  96 136 179 226 270 340 400
#     4  10  22  41  71  95 128 185 229 270 326 408
#     4  12  29  44  67 103 139 175 224 284 338 391
#
# _framework density 21.142713000000001
#
# number of rings (size 3 to 8) (size 9 to 14) (size 15 to 20)
#    0.000    1.000    2.500    4.500    7.000    2.000 
#    0.000    5.000    0.000    0.000    0.000    0.000 
#    0.000    0.000    0.000    0.000    0.000    0.000 
#
# Total GULP energy -89390.776070 kJ/mol
# GULP energy per Si atom -5586.923504 kJ/mol
# Density = 2.109459 g / cm^3
# Si number density = 21.142713 Si / 1000 Ang^3
#
#
#
# Elastic Constant Matrix: (Units=GPa)
#
#
# Indices 1 2 3 4 5 6 
#
# 1 116.5049 38.5804 45.8865 8.8415 -22.4690 -9.1507
# 2 38.5804 133.3541 37.2389 -17.6972 -21.1269 -13.9468
# 3 45.8865 37.2389 108.8200 -2.6161 -11.9412 -20.3282
# 4 8.8415 -17.6972 -2.6161 35.0015 -7.2094 -0.6838
# 5 -22.4690 -21.1269 -11.9412 -7.2094 33.3690 1.1095
# 6 -9.1507 -13.9468 -20.3282 -0.6838 1.1095 30.0514
#
#
#
# Elastic Compliance Matrix: (Units=1/GPa)
#
#
# Indices 1 2 3 4 5 6 
#
# 1 0.011963 -0.002121 -0.003950 -0.003455 0.004561 -0.000261
# 2 -0.002121 0.010817 -0.001285 0.007299 0.006423 0.003434
# 3 -0.003950 -0.001285 0.012743 0.001685 0.001224 0.006814
# 4 -0.003455 0.007299 0.001685 0.035485 0.010435 0.003898
# 5 0.004561 0.006423 0.001224 0.010435 0.039666 0.003971
# 6 -0.000261 0.003434 0.006814 0.003898 0.003971 0.039342
#
#
# Mechanical properties :
#
#
# Convention : Reuss Voigt Hill
#
# Bulk Modulus (GPa) = 48.05549 66.89895 57.47722
# Shear Modulus (GPa) = 29.12678 35.48261 32.30470
#
# Velocity S-wave (km/s) = 3.71567 4.10108 3.91312
# Velocity P-wave (km/s) = 6.41769 7.35768 6.90370
#
# Compressibility (1/GPa) = 0.02080928
#
# Stress axis : x y z
#
# Youngs Moduli (GPa) = 83.59282 92.44951 78.47740
#
# Poissons Ratio (x) = 0.19610 0.30997
# Poissons Ratio (y) = 0.17731 0.10088
# Poissons Ratio (z) = 0.33017 0.11884
#
# Static dielectric constant tensor:
#      x y z
#    x 1.795840 -0.010510 0.037370 
#    y -0.010510 1.775730 -0.008640 
#    z 0.037370 -0.008640 1.768180 
# 
# From -- ./inp_files/566360.got.cif
#   From: 2010.05.17/outbox.cif.g08.bks.cpg/sg2_284_cif.got.tgz:566360.got - 2010.06.03 11:33:40.
