data_PCOD9025661
_publ_section_title
;
Structure prediction by ZEFSAII (Michael W. Deem and Ramdas Pophale) SiO2 
 PCOD9025661
Probable space group: P -1
;
_chemical_formula_sum "Si O2"
_cell_formula_units_Z 16
_cell_length_a 11.821179
_cell_length_b 21.354217
_cell_length_c 11.808264
_cell_angle_alpha 154.440835
_cell_angle_beta 144.578467
_cell_angle_gamma 32.127915
_cell_volume 666.874135
_symmetry_space_group_name_H-M "P -1"
_symmetry_group_IT_number 2
_symmetry_cell_setting 'triclinic'
loop_
_space_group_symop_operation_xyz
x,y,z
-x,-y,-z
loop_
_atom_site_type_symbol
_atom_site_label
_atom_site_fract_x
_atom_site_fract_y
_atom_site_fract_z
Si Si1 0.220887 0.343022 0.411059
Si Si2 0.641753 0.896932 0.052202
Si Si3 0.458519 0.547524 0.254406
Si Si4 0.668033 0.722547 0.359422
Si Si5 0.603208 0.347718 0.250929
Si Si6 0.750529 0.153779 0.261983
Si Si7 0.166993 0.317007 0.801448
Si Si8 0.196372 0.007342 0.454615
O O1 0.199739 0.262236 0.145057
O O2 0.424007 0.383643 0.622593
O O3 0.269215 0.250229 0.418723
O O4 0.000000 0.500000 0.500000
O O5 0.470092 0.867326 0.942462
O O6 0.767908 0.972701 0.351329
O O7 0.500000 0.000000 0.000000
O O8 0.639831 0.420600 0.282699
O O9 0.298224 0.697019 0.446477
O O10 0.345027 0.448524 0.941165
O O11 0.836900 0.714922 0.387889
O O12 0.423253 0.862682 0.364198
O O13 0.500000 0.500000 0.500000
O O14 0.771123 0.206363 0.236458
O O15 0.406467 0.304530 0.992590
O O16 0.970795 0.001698 0.233527
O O17 0.157504 0.175750 0.637180
O O18 0.000000 0.500000 0.000000
#
# Coordination Sequence:
#
# PCOD9025661 Si02
#       8
#     2   2   2   2   2   2   2   2
#     4  11  25  40  65  94 133 176 219 279 324 386
#     4  11  24  46  65  98 136 175 223 270 326 404
#     4   9  21  41  62  92 130 168 222 274 319 396
#     4  11  24  43  61  98 137 167 220 275 332 390
#     4   9  17  36  62  94 126 156 219 276 314 381
#     4  10  22  40  70  94 126 176 222 271 328 391
#     4  11  23  40  71  98 130 173 220 277 327 396
#     4  12  24  43  69  98 135 174 217 273 338 392
#
# _framework density 23.992533999999999
#
# number of rings (size 3 to 8) (size 9 to 14) (size 15 to 20)
#    0.000    1.500    2.500    3.000    3.500    2.500 
#    0.000    2.500    0.000    0.000    0.000    0.000 
#    0.000    0.000    0.000    0.000    0.000    0.000 
#
# Total GULP energy -89417.521733 kJ/mol
# GULP energy per Si atom -5588.595108 kJ/mol
# Density = 2.393793 g / cm^3
# Si number density = 23.992534 Si / 1000 Ang^3
#
#
#
# Elastic Constant Matrix: (Units=GPa)
#
#
# Indices 1 2 3 4 5 6 
#
# 1 102.0915 31.4854 8.1006 -0.7628 -23.3203 9.8505
# 2 31.4854 115.8321 0.7199 -1.1555 -19.1701 -7.0509
# 3 8.1006 0.7199 51.8153 -3.3481 -6.9736 -4.2855
# 4 -0.7628 -1.1555 -3.3481 35.2623 2.7832 -10.3514
# 5 -23.3203 -19.1701 -6.9736 2.7832 19.1826 2.2204
# 6 9.8505 -7.0509 -4.2855 -10.3514 2.2204 38.6140
#
#
#
# Elastic Compliance Matrix: (Units=1/GPa)
#
#
# Indices 1 2 3 4 5 6 
#
# 1 0.014838 -0.001544 -0.000637 -0.002897 0.017370 -0.005913
# 2 -0.001544 0.010670 0.001505 0.000358 0.009041 0.002085
# 3 -0.000637 0.001505 0.020791 0.002263 0.007623 0.002913
# 4 -0.002897 0.000358 0.002263 0.032146 -0.008180 0.010143
# 5 0.017370 0.009041 0.007623 -0.008180 0.087298 -0.009147
# 6 -0.005913 0.002085 0.002913 0.010143 -0.009147 0.031355
#
#
# Mechanical properties :
#
#
# Convention : Reuss Voigt Hill
#
# Bulk Modulus (GPa) = 22.24726 38.92785 30.58756
# Shear Modulus (GPa) = 23.42668 33.90732 28.66700
#
# Velocity S-wave (km/s) = 3.12815 3.76339 3.46038
# Velocity P-wave (km/s) = 4.72650 5.92827 5.36117
#
# Compressibility (1/GPa) = 0.04494935
#
# Stress axis : x y z
#
# Youngs Moduli (GPa) = 67.39336 93.71971 48.09755
#
# Poissons Ratio (x) = 0.14466 0.03063
# Poissons Ratio (y) = 0.10403 -0.07241
# Poissons Ratio (z) = 0.04292 -0.14108
#
# Static dielectric constant tensor:
#      x y z
#    x 1.971540 0.010850 -0.001830 
#    y 0.010850 1.962090 0.015060 
#    z -0.001830 0.015060 2.031290 
# 
# From -- ./inp_files/438744.got.cif
#   From: 2010.05.17/outbox.cif.g08.bks.cpg/sg2_220_cif.got.tgz:438744.got - 2010.06.03 11:33:40.
