data_PCOD9025212
_publ_section_title
;
Structure prediction by ZEFSAII (Michael W. Deem and Ramdas Pophale) SiO2 
 PCOD9025212
Probable space group: P -1
;
_chemical_formula_sum "Si O2"
_cell_formula_units_Z 14
_cell_length_a 5.121464
_cell_length_b 18.028521
_cell_length_c 8.960130
_cell_angle_alpha 48.180340
_cell_angle_beta 54.559432
_cell_angle_gamma 64.764473
_cell_volume 501.239949
_symmetry_space_group_name_H-M "P -1"
_symmetry_group_IT_number 2
_symmetry_cell_setting 'triclinic'
loop_
_space_group_symop_operation_xyz
x,y,z
-x,-y,-z
loop_
_atom_site_type_symbol
_atom_site_label
_atom_site_fract_x
_atom_site_fract_y
_atom_site_fract_z
Si Si1 0.101532 0.092843 0.433601
Si Si2 0.378888 0.236060 0.832516
Si Si3 0.117330 0.274731 0.603605
Si Si4 0.196709 0.912866 0.138082
Si Si5 0.303301 0.376175 0.954810
Si Si6 0.407891 0.794984 0.715858
Si Si7 0.265919 0.600687 0.664266
O O1 0.909220 0.085949 0.660217
O O2 0.939831 0.182689 0.268035
O O3 0.454981 0.121476 0.329759
O O4 0.000000 0.000000 0.500000
O O5 0.045055 0.239490 0.845993
O O6 0.427020 0.107830 0.989985
O O7 0.344657 0.318587 0.863159
O O8 0.456973 0.319550 0.533123
O O9 0.359721 0.204696 0.508604
O O10 0.794813 0.208829 0.739309
O O11 0.978678 0.374117 0.426640
O O12 0.000000 0.000000 0.000000
O O13 0.407956 0.488359 0.755325
O O14 0.501395 0.310872 0.099118
O O15 0.945009 0.387320 0.131425
#
# Coordination Sequence:
#
# PCOD9025212 Si02
#       7
#     2   2   2   2   2   2   2
#     4  11  23  42  67  91 135 181 223 282 345 397
#     4  11  21  41  66  91 130 174 218 283 339 401
#     4   9  20  40  63  86 133 170 215 276 343 393
#     4  10  23  40  61  92 130 173 220 281 333 403
#     4  10  22  40  67  99 126 174 232 266 339 419
#     4  10  22  43  62  96 134 174 222 285 338 404
#     4   9  21  44  61  93 138 166 219 284 340 396
#
# _framework density 27.930733
#
# number of rings (size 3 to 8) (size 9 to 14) (size 15 to 20)
#    0.000    2.000    1.429    1.714    2.000    2.286 
#    5.143    2.143    0.000    0.000    0.000    0.000 
#    0.000    0.000    0.000    0.000    0.000    0.000 
#
# Total GULP energy -78068.563991 kJ/mol
# GULP energy per Si atom -5576.325999 kJ/mol
# Density = 2.786716 g / cm^3
# Si number density = 27.930733 Si / 1000 Ang^3
#
#
#
# Elastic Constant Matrix: (Units=GPa)
#
#
# Indices 1 2 3 4 5 6 
#
# 1 158.9421 62.7924 52.5113 -5.9214 18.7429 32.0340
# 2 62.7924 196.5701 69.9943 1.6257 22.4808 27.2075
# 3 52.5113 69.9943 107.1389 -17.6734 26.2377 27.7992
# 4 -5.9214 1.6257 -17.6734 50.1722 0.9832 -0.5496
# 5 18.7429 22.4808 26.2377 0.9832 64.3199 14.9796
# 6 32.0340 27.2075 27.7992 -0.5496 14.9796 32.9942
#
#
#
# Elastic Compliance Matrix: (Units=1/GPa)
#
#
# Indices 1 2 3 4 5 6 
#
# 1 0.008569 -0.001307 -0.001809 0.000353 0.000025 -0.005724
# 2 -0.001307 0.007112 -0.003936 -0.001781 -0.000187 -0.001224
# 3 -0.001809 -0.003936 0.016392 0.005671 -0.003177 -0.007272
# 4 0.000353 -0.001781 0.005671 0.022030 -0.001527 -0.002592
# 5 0.000025 -0.000187 -0.003177 -0.001527 0.018201 -0.005483
# 6 -0.005724 -0.001224 -0.007272 -0.002592 -0.005483 0.045448
#
#
# Mechanical properties :
#
#
# Convention : Reuss Voigt Hill
#
# Bulk Modulus (GPa) = 55.64990 92.58300 74.11645
# Shear Modulus (GPa) = 36.27230 47.98746 42.12988
#
# Velocity S-wave (km/s) = 3.60759 4.14948 3.88799
# Velocity P-wave (km/s) = 6.10905 7.49512 6.83730
#
# Compressibility (1/GPa) = 0.01796948
#
# Stress axis : x y z
#
# Youngs Moduli (GPa) = 116.69551 140.61211 61.00483
#
# Poissons Ratio (x) = 0.18375 0.11036
# Poissons Ratio (y) = 0.15250 0.24011
# Poissons Ratio (z) = 0.21111 0.55345
#
# Static dielectric constant tensor:
#      x y z
#    x 2.603710 0.501840 0.049750 
#    y 0.501840 2.701930 0.135140 
#    z 0.049750 0.135140 2.432910 
# 
# From -- ./inp_files/100557.got.cif
#   From: 2010.05.17/outbox.cif.g08.bks.cpg/sg2_51_cif.got.tgz:100557.got - 2010.06.03 11:33:40.
