data_PCOD9025895
_publ_section_title
;
Structure prediction by ZEFSAII (Michael W. Deem and Ramdas Pophale) SiO2 
 PCOD9025895
Probable space group: P -1
;
_chemical_formula_sum "Si O2"
_cell_formula_units_Z 14
_cell_length_a 5.305678
_cell_length_b 14.018797
_cell_length_c 8.232897
_cell_angle_alpha 96.300207
_cell_angle_beta 80.954405
_cell_angle_gamma 103.884538
_cell_volume 585.412766
_symmetry_space_group_name_H-M "P -1"
_symmetry_group_IT_number 2
_symmetry_cell_setting 'triclinic'
loop_
_space_group_symop_operation_xyz
x,y,z
-x,-y,-z
loop_
_atom_site_type_symbol
_atom_site_label
_atom_site_fract_x
_atom_site_fract_y
_atom_site_fract_z
Si Si1 0.340472 0.798045 0.594197
Si Si2 0.055358 0.459577 0.808939
Si Si3 0.900246 0.236743 0.720854
Si Si4 0.226694 0.230607 0.201209
Si Si5 0.430061 0.087071 0.918440
Si Si6 0.783043 0.926652 0.405491
Si Si7 0.394842 0.457269 0.178719
O O1 0.247387 0.742557 0.424832
O O2 0.546441 0.764176 0.684826
O O3 0.070192 0.799657 0.710843
O O4 0.512753 0.901026 0.527836
O O5 0.023198 0.342834 0.801328
O O6 0.829823 0.489804 0.731721
O O7 0.343832 0.514586 0.735671
O O8 0.000000 0.500000 0.000000
O O9 0.689563 0.165003 0.842709
O O10 0.113551 0.174552 0.641680
O O11 0.278984 0.341603 0.151873
O O12 0.273522 0.151068 0.052069
O O13 0.265937 0.045029 0.767712
O O14 0.500000 0.000000 0.000000
O O15 0.000000 0.000000 0.500000
O O16 0.500000 0.500000 0.000000
#
# Coordination Sequence:
#
# PCOD9025895 Si02
#       7
#     2   2   2   2   2   2   2
#     4  11  27  50  79 109 159 208 252 319 397 469
#     4  10  22  40  74 110 144 189 255 311 371 457
#     4  11  26  49  81 110 158 211 256 315 402 468
#     4  12  26  50  80 117 158 200 261 331 386 456
#     4  11  29  46  80 119 155 200 271 329 390 462
#     4  11  28  53  81 108 157 217 263 316 397 475
#     4  10  22  41  73 108 150 191 244 315 385 446
#
# _framework density 23.914752
#
# number of rings (size 3 to 8) (size 9 to 14) (size 15 to 20)
#    0.000    1.143    1.429    2.571   14.000    1.714 
#    0.000    7.143    0.000    0.000    0.000    0.000 
#    0.000    0.000    0.000    0.000    0.000    0.000 
#
# Total GULP energy -78383.070094 kJ/mol
# GULP energy per Si atom -5598.790721 kJ/mol
# Density = 2.386032 g / cm^3
# Si number density = 23.914752 Si / 1000 Ang^3
#
#
#
# Elastic Constant Matrix: (Units=GPa)
#
#
# Indices 1 2 3 4 5 6 
#
# 1 204.3894 69.0866 63.5104 -2.1780 -12.8508 10.7185
# 2 69.0866 199.5986 78.5460 18.5964 -11.0959 2.7257
# 3 63.5104 78.5460 120.3161 -7.4019 4.5781 7.8694
# 4 -2.1780 18.5964 -7.4019 33.1918 1.3044 5.7344
# 5 -12.8508 -11.0959 4.5781 1.3044 45.3867 -7.6172
# 6 10.7185 2.7257 7.8694 5.7344 -7.6172 37.4989
#
#
#
# Elastic Compliance Matrix: (Units=1/GPa)
#
#
# Indices 1 2 3 4 5 6 
#
# 1 0.006202 -0.001112 -0.002511 0.000570 0.001564 -0.000934
# 2 -0.001112 0.008282 -0.005486 -0.006470 0.002858 0.002437
# 3 -0.002511 -0.005486 0.014050 0.006859 -0.004297 -0.003754
# 4 0.000570 -0.006470 0.006859 0.036820 -0.004457 -0.007668
# 5 0.001564 0.002858 -0.004297 -0.004457 0.024735 0.005953
# 6 -0.000934 0.002437 -0.003754 -0.007668 0.005953 0.029927
#
#
# Mechanical properties :
#
#
# Convention : Reuss Voigt Hill
#
# Bulk Modulus (GPa) = 96.94449 105.17669 101.06059
# Shear Modulus (GPa) = 35.29237 44.09290 39.69264
#
# Velocity S-wave (km/s) = 3.84573 4.29855 4.07843
# Velocity P-wave (km/s) = 7.76820 8.28927 8.03297
#
# Compressibility (1/GPa) = 0.01031518
#
# Stress axis : x y z
#
# Youngs Moduli (GPa) = 161.23160 120.74002 71.17576
#
# Poissons Ratio (x) = 0.13424 0.17876
# Poissons Ratio (y) = 0.17926 0.39049
# Poissons Ratio (z) = 0.40493 0.66241
#
# Static dielectric constant tensor:
#      x y z
#    x 2.114350 0.026570 0.084200 
#    y 0.026570 1.916510 0.007910 
#    z 0.084200 0.007910 1.938270 
# 
# From -- ./inp_files/131639.got.cif
#   From: 2010.05.17/outbox.cif.g08.bks.cpg/sg2_66_cif.got.tgz:131639.got - 2010.06.03 11:33:40.
