data_PCOD9025894
_publ_section_title
;
Structure prediction by ZEFSAII (Michael W. Deem and Ramdas Pophale) SiO2 
 PCOD9025894
Probable space group: P -1
;
_chemical_formula_sum "Si O2"
_cell_formula_units_Z 14
_cell_length_a 16.325827
_cell_length_b 14.055156
_cell_length_c 7.669243
_cell_angle_alpha 84.715933
_cell_angle_beta 86.942872
_cell_angle_gamma 160.131765
_cell_volume 542.234870
_symmetry_space_group_name_H-M "P -1"
_symmetry_group_IT_number 2
_symmetry_cell_setting 'triclinic'
loop_
_space_group_symop_operation_xyz
x,y,z
-x,-y,-z
loop_
_atom_site_type_symbol
_atom_site_label
_atom_site_fract_x
_atom_site_fract_y
_atom_site_fract_z
Si Si1 0.294986 0.737003 0.784295
Si Si2 0.059483 0.384749 0.527411
Si Si3 0.498438 0.222746 0.154681
Si Si4 0.840861 0.756950 0.198047
Si Si5 0.361131 0.345491 0.234700
Si Si6 0.128660 0.756749 0.778175
Si Si7 0.427558 0.634990 0.276020
O O1 0.515926 0.906384 0.786915
O O2 0.324984 0.883766 0.753280
O O3 0.201071 0.598287 0.630101
O O4 0.068488 0.466834 0.000025
O O5 0.016163 0.404626 0.361868
O O6 0.220719 0.472594 0.425503
O O7 0.774146 0.039164 0.695293
O O8 0.745692 0.549649 0.165266
O O9 0.533012 0.281458 0.938203
O O10 0.560180 0.500383 0.299427
O O11 0.055404 0.983944 0.288061
O O12 0.000000 0.000000 0.000000
O O13 0.365385 0.456112 0.292549
O O14 0.500000 0.500000 0.000000
O O15 0.293343 0.036556 0.717635
#
# Coordination Sequence:
#
# PCOD9025894 Si02
#       7
#     2   2   2   2   2   2   2
#     4  11  26  47  76 109 149 198 250 312 388 459
#     4  12  27  46  74 110 150 196 252 312 383 458
#     4  12  25  45  76 105 152 197 253 314 385 454
#     4  10  22  40  74 109 148 205 251 311 389 448
#     4  10  22  40  74 109 148 205 251 311 389 448
#     4  11  26  47  76 109 149 198 250 312 388 459
#     4  12  25  45  76 105 152 197 253 314 385 454
#
# _framework density 25.819068999999999
#
# number of rings (size 3 to 8) (size 9 to 14) (size 15 to 20)
#    0.000    0.857    5.714    1.286    8.000    4.000 
#    0.000    1.429    0.000    0.000    0.000    0.000 
#    0.000    0.000    0.000    0.000    0.000    0.000 
#
# Total GULP energy -78471.676601 kJ/mol
# GULP energy per Si atom -5605.119757 kJ/mol
# Density = 2.576030 g / cm^3
# Si number density = 25.819069 Si / 1000 Ang^3
#
#
#
# Elastic Constant Matrix: (Units=GPa)
#
#
# Indices 1 2 3 4 5 6 
#
# 1 103.6774 31.1099 35.1364 9.9240 -18.1582 0.7449
# 2 31.1099 112.4568 47.8019 -2.6179 -9.9449 5.6231
# 3 35.1364 47.8019 176.2620 9.9425 -15.4871 0.3297
# 4 9.9240 -2.6179 9.9425 33.8477 4.3158 2.9841
# 5 -18.1582 -9.9449 -15.4871 4.3158 34.6899 5.3529
# 6 0.7449 5.6231 0.3297 2.9841 5.3529 44.6901
#
#
#
# Elastic Compliance Matrix: (Units=1/GPa)
#
#
# Indices 1 2 3 4 5 6 
#
# 1 0.012146 -0.002509 -0.000999 -0.004170 0.005756 -0.000290
# 2 -0.002509 0.010843 -0.002517 0.002371 0.000613 -0.001536
# 3 -0.000999 -0.002517 0.006860 -0.002196 0.002063 0.000182
# 4 -0.004170 0.002371 -0.002196 0.032540 -0.006280 -0.001633
# 5 0.005756 0.000613 0.002063 -0.006280 0.034316 -0.003879
# 6 -0.000290 -0.001536 0.000182 -0.001633 -0.003879 0.023147
#
#
# Mechanical properties :
#
#
# Convention : Reuss Voigt Hill
#
# Bulk Modulus (GPa) = 56.18678 68.94362 62.56520
# Shear Modulus (GPa) = 36.27512 41.20208 38.73860
#
# Velocity S-wave (km/s) = 3.75236 3.99908 3.87769
# Velocity P-wave (km/s) = 6.37045 6.93427 6.65833
#
# Compressibility (1/GPa) = 0.01779778
#
# Stress axis : x y z
#
# Youngs Moduli (GPa) = 82.33051 92.22878 145.77130
#
# Poissons Ratio (x) = 0.23139 0.14567
# Poissons Ratio (y) = 0.20655 0.36696
# Poissons Ratio (z) = 0.08228 0.23217
#
# Static dielectric constant tensor:
#      x y z
#    x 2.019320 0.035380 0.004720 
#    y 0.035380 2.020180 0.000710 
#    z 0.004720 0.000710 2.011270 
# 
# From -- ./inp_files/335399.got.cif
#   From: 2010.05.17/outbox.cif.g08.bks.cpg/sg2_168_cif.got.tgz:335399.got - 2010.06.03 11:33:40.
