data_PCOD9025243
_publ_section_title
;
Structure prediction by ZEFSAII (Michael W. Deem and Ramdas Pophale) SiO2 
 PCOD9025243
Probable space group: P -1
;
_chemical_formula_sum "Si O2"
_cell_formula_units_Z 16
_cell_length_a 12.822441
_cell_length_b 20.107847
_cell_length_c 8.745074
_cell_angle_alpha 134.772734
_cell_angle_beta 45.970774
_cell_angle_gamma 154.292476
_cell_volume 680.827561
_symmetry_space_group_name_H-M "P -1"
_symmetry_group_IT_number 2
_symmetry_cell_setting 'triclinic'
loop_
_space_group_symop_operation_xyz
x,y,z
-x,-y,-z
loop_
_atom_site_type_symbol
_atom_site_label
_atom_site_fract_x
_atom_site_fract_y
_atom_site_fract_z
Si Si1 0.782323 0.352686 0.647617
Si Si2 0.315635 0.418367 0.198192
Si Si3 0.510802 0.155436 0.892109
Si Si4 0.329986 0.619049 0.660535
Si Si5 0.774873 0.920288 0.497643
Si Si6 0.053146 0.106962 0.997063
Si Si7 0.012966 0.359451 0.174099
Si Si8 0.713349 0.104589 0.824144
O O1 0.584708 0.204819 0.719999
O O2 0.807094 0.312138 0.396275
O O3 0.048278 0.484744 0.676288
O O4 0.767904 0.454238 0.783579
O O5 0.384973 0.538713 0.436492
O O6 0.082498 0.325543 0.182228
O O7 0.500000 0.500000 0.000000
O O8 0.221386 0.279757 0.161625
O O9 0.627832 0.123714 0.799604
O O10 0.626602 0.308583 0.103768
O O11 0.217713 0.003065 0.961883
O O12 0.529789 0.777864 0.613353
O O13 0.791061 0.860339 0.241340
O O14 0.786218 0.034195 0.616774
O O15 0.000000 0.000000 0.500000
O O16 0.000000 0.000000 0.000000
O O17 0.935272 0.271812 0.955494
O O18 0.500000 0.000000 0.000000
#
# Coordination Sequence:
#
# PCOD9025243 Si02
#       8
#     2   2   2   2   2   2   2   2
#     4  10  23  42  69 103 143 184 231 299 359 414
#     4  11  24  43  73  99 139 190 239 285 351 439
#     4  12  25  46  74 105 148 182 237 305 360 428
#     4  11  22  42  74 100 138 186 240 291 346 425
#     4  12  23  45  73 103 144 192 239 295 354 428
#     4  12  29  49  70 108 147 187 235 302 368 422
#     4  10  22  40  68 101 135 184 241 281 350 429
#     4  12  23  40  72 104 139 188 241 291 359 426
#
# _framework density 23.500812
#
# number of rings (size 3 to 8) (size 9 to 14) (size 15 to 20)
#    0.000    0.750    5.000    1.875    1.750    4.000 
#    0.000    4.375    0.000    0.000    0.000    0.000 
#    0.000    0.000    0.000    0.000    0.000    0.000 
#
# Total GULP energy -89444.078963 kJ/mol
# GULP energy per Si atom -5590.254935 kJ/mol
# Density = 2.344732 g / cm^3
# Si number density = 23.500812 Si / 1000 Ang^3
#
#
#
# Elastic Constant Matrix: (Units=GPa)
#
#
# Indices 1 2 3 4 5 6 
#
# 1 86.9022 30.3977 25.9704 15.3641 -11.8679 -11.5559
# 2 30.3977 90.7471 43.1921 15.0310 -11.6905 -15.7715
# 3 25.9704 43.1921 76.6270 23.5874 -17.2083 -3.5775
# 4 15.3641 15.0310 23.5874 42.3385 -9.0976 -2.6760
# 5 -11.8679 -11.6905 -17.2083 -9.0976 26.0208 1.3478
# 6 -11.5559 -15.7715 -3.5775 -2.6760 1.3478 48.0338
#
#
#
# Elastic Compliance Matrix: (Units=1/GPa)
#
#
# Indices 1 2 3 4 5 6 
#
# 1 0.014111 -0.002748 -0.001693 -0.002393 0.003134 0.002145
# 2 -0.002748 0.016594 -0.008088 0.000013 0.000642 0.004168
# 3 -0.001693 -0.008088 0.022066 -0.007271 0.007751 -0.002042
# 4 -0.002393 0.000013 -0.007271 0.029505 0.004400 0.000407
# 5 0.003134 0.000642 0.007751 0.004400 0.046788 0.000474
# 6 0.002145 0.004168 -0.002042 0.000407 0.000474 0.022561
#
#
# Mechanical properties :
#
#
# Convention : Reuss Voigt Hill
#
# Bulk Modulus (GPa) = 36.08241 50.37740 43.22991
# Shear Modulus (GPa) = 26.89320 33.59304 30.24312
#
# Velocity S-wave (km/s) = 3.38650 3.78490 3.59123
# Velocity P-wave (km/s) = 5.53879 6.37052 5.96916
#
# Compressibility (1/GPa) = 0.02771433
#
# Stress axis : x y z
#
# Youngs Moduli (GPa) = 70.86865 60.26106 45.31804
#
# Poissons Ratio (x) = 0.16560 0.07672
# Poissons Ratio (y) = 0.19475 0.36651
# Poissons Ratio (z) = 0.11997 0.48737
#
# Static dielectric constant tensor:
#      x y z
#    x 2.080390 0.032420 -0.090120 
#    y 0.032420 1.916710 0.005880 
#    z -0.090120 0.005880 2.052420 
# 
# From -- ./inp_files/279804.got.cif
#   From: 2010.05.17/outbox.cif.g08.bks.cpg/sg2_140_cif.got.tgz:279804.got - 2010.06.03 11:33:40.
