data_PCOD9025984
_publ_section_title
;
Structure prediction by ZEFSAII (Michael W. Deem and Ramdas Pophale) SiO2 
 PCOD9025984
Probable space group: P -1
;
_chemical_formula_sum "Si O2"
_cell_formula_units_Z 12
_cell_length_a 15.550386
_cell_length_b 12.691240
_cell_length_c 7.097115
_cell_angle_alpha 96.273489
_cell_angle_beta 83.428603
_cell_angle_gamma 25.368884
_cell_volume 516.394150
_symmetry_space_group_name_H-M "P -1"
_symmetry_group_IT_number 2
_symmetry_cell_setting 'triclinic'
loop_
_space_group_symop_operation_xyz
x,y,z
-x,-y,-z
loop_
_atom_site_type_symbol
_atom_site_label
_atom_site_fract_x
_atom_site_fract_y
_atom_site_fract_z
Si Si1 0.721676 0.065837 0.408675
Si Si2 0.520389 0.353862 0.911644
Si Si3 0.331506 0.361465 0.605833
Si Si4 0.037028 0.839501 0.024905
Si Si5 0.588717 0.050884 0.880094
Si Si6 0.824730 0.576204 0.694194
O O1 0.825206 0.029353 0.225375
O O2 0.936990 0.748627 0.362623
O O3 0.608763 0.253152 0.653364
O O4 0.514211 0.227267 0.420588
O O5 0.657976 0.094662 0.906737
O O6 0.500000 0.500000 0.000000
O O7 0.263721 0.596063 0.049422
O O8 0.476370 0.167432 0.719919
O O9 0.233899 0.382987 0.499882
O O10 0.123419 0.670440 0.796626
O O11 0.000000 0.000000 0.000000
O O12 0.800867 0.727801 0.772286
O O13 0.386025 0.238561 0.101788
#
# Coordination Sequence:
#
# PCOD9025984 Si02
#       6
#     2   2   2   2   2   2
#     4  10  22  43  64  95 133 165 218 265 319 388
#     4  10  23  39  63  94 127 164 220 260 310 391
#     4  10  23  40  63  98 128 166 221 257 322 388
#     4  10  22  41  60  91 135 164 216 275 306 383
#     4   9  21  42  62 100 134 157 225 269 298 401
#     4  11  20  41  73  88 135 177 198 273 332 362
#
# _framework density 23.238064999999999
#
# number of rings (size 3 to 8) (size 9 to 14) (size 15 to 20)
#    0.000    2.333    3.333    0.500    2.333    8.667 
#    3.000    3.333    0.000    0.000    0.000    0.000 
#    0.000    0.000    0.000    0.000    0.000    0.000 
#
# Total GULP energy -66978.606624 kJ/mol
# GULP energy per Si atom -5581.550552 kJ/mol
# Density = 2.318517 g / cm^3
# Si number density = 23.238065 Si / 1000 Ang^3
#
#
#
# Elastic Constant Matrix: (Units=GPa)
#
#
# Indices 1 2 3 4 5 6 
#
# 1 155.7218 41.1015 62.9527 11.6449 6.3409 19.7498
# 2 41.1015 55.6246 17.9853 3.2191 7.6902 26.9613
# 3 62.9527 17.9853 113.0353 3.8082 -15.8744 8.1674
# 4 11.6449 3.2191 3.8082 28.4133 8.1591 2.5765
# 5 6.3409 7.6902 -15.8744 8.1591 42.7133 16.1303
# 6 19.7498 26.9613 8.1674 2.5765 16.1303 40.5430
#
#
#
# Elastic Compliance Matrix: (Units=1/GPa)
#
#
# Indices 1 2 3 4 5 6 
#
# 1 0.010150 -0.005950 -0.005028 -0.002255 -0.002280 0.001075
# 2 -0.005950 0.031121 0.000057 -0.000084 0.002402 -0.018759
# 3 -0.005028 0.000057 0.012847 -0.001375 0.006834 -0.002808
# 4 -0.002255 -0.000084 -0.001375 0.038513 -0.008396 0.002324
# 5 -0.002280 0.002402 0.006834 -0.008396 0.032908 -0.014423
# 6 0.001075 -0.018759 -0.002808 0.002324 -0.014423 0.042772
#
#
# Mechanical properties :
#
#
# Convention : Reuss Voigt Hill
#
# Bulk Modulus (GPa) = 30.98193 63.16231 47.07212
# Shear Modulus (GPa) = 24.88682 35.82339 30.35511
#
# Velocity S-wave (km/s) = 3.27609 3.93056 3.61815
# Velocity P-wave (km/s) = 5.26039 6.91655 6.14452
#
# Compressibility (1/GPa) = 0.03227688
#
# Stress axis : x y z
#
# Youngs Moduli (GPa) = 98.52500 32.13308 77.84006
#
# Poissons Ratio (x) = 0.19118 0.39137
# Poissons Ratio (y) = 0.58619 -0.00447
# Poissons Ratio (z) = 0.49537 -0.00184
#
# Static dielectric constant tensor:
#      x y z
#    x 1.878470 0.013290 -0.000020 
#    y 0.013290 2.037570 0.033010 
#    z -0.000020 0.033010 1.891910 
# 
# From -- ./inp_files/301120.got.cif
#   From: 2010.05.17/outbox.cif.g08.bks.cpg/sg2_151_cif.got.tgz:301120.got - 2010.06.03 11:33:40.
