data_PCOD9025369
_publ_section_title
;
Structure prediction by ZEFSAII (Michael W. Deem and Ramdas Pophale) SiO2 
 PCOD9025369
Probable space group: P -1
;
_chemical_formula_sum "Si O2"
_cell_formula_units_Z 15
_cell_length_a 11.673634
_cell_length_b 9.687359
_cell_length_c 26.643059
_cell_angle_alpha 135.405043
_cell_angle_beta 18.414254
_cell_angle_gamma 137.191060
_cell_volume 644.964605
_symmetry_space_group_name_H-M "P -1"
_symmetry_group_IT_number 2
_symmetry_cell_setting 'triclinic'
loop_
_space_group_symop_operation_xyz
x,y,z
-x,-y,-z
loop_
_atom_site_type_symbol
_atom_site_label
_atom_site_fract_x
_atom_site_fract_y
_atom_site_fract_z
Si Si1 0.006571 0.273117 0.421914
Si Si2 0.584732 0.682788 0.051191
Si Si3 0.157159 0.788557 0.343023
Si Si4 0.504338 0.902650 0.589068
Si Si5 0.000000 0.500000 0.000000
Si Si6 0.946701 0.953615 0.107331
Si Si7 0.271779 0.590796 0.517772
Si Si8 0.752466 0.432243 0.196249
O O1 0.388874 0.256683 0.283860
O O2 0.000000 0.500000 0.500000
O O3 0.982048 0.287372 0.375852
O O4 0.665482 0.101491 0.539986
O O5 0.932306 0.656377 0.933104
O O6 0.500000 0.500000 0.000000
O O7 0.239948 0.672542 0.228827
O O8 0.711965 0.896609 0.024767
O O9 0.566806 0.919397 0.222980
O O10 0.835162 0.893425 0.488029
O O11 0.991824 0.627759 0.413937
O O12 0.422989 0.711213 0.536263
O O13 0.145607 0.926123 0.774605
O O14 0.989086 0.732035 0.046812
O O15 0.900969 0.548283 0.112936
O O16 0.597489 0.560191 0.336853
#
# Coordination Sequence:
#
# PCOD9025369 Si02
#       8
#     2   2   2   2   1   2   2   2
#     4  10  22  40  68  96 133 182 230 283 339 417
#     4  12  26  46  71 106 148 185 234 299 363 418
#     4  12  24  44  70 107 137 188 237 290 350 423
#     4  12  24  42  72 106 139 182 236 297 360 404
#     4  12  26  44  74  98 142 188 240 284 342 426
#     4  12  25  46  71 105 141 193 242 287 351 431
#     4  11  23  44  71 105 142 176 234 300 354 415
#     4  11  23  46  71 101 141 191 236 289 351 430
#
# _framework density 23.257090000000002
#
# number of rings (size 3 to 8) (size 9 to 14) (size 15 to 20)
#    0.000    0.533    1.333    8.800    1.867    0.000 
#    0.000    0.667    0.000    0.000    0.000    0.000 
#    0.000    0.000    0.000    0.000    0.000    0.000 
#
# Total GULP energy -83692.463015 kJ/mol
# GULP energy per Si atom -5579.497534 kJ/mol
# Density = 2.320416 g / cm^3
# Si number density = 23.257090 Si / 1000 Ang^3
#
#
#
# Elastic Constant Matrix: (Units=GPa)
#
#
# Indices 1 2 3 4 5 6 
#
# 1 96.5322 34.5313 34.1122 -2.2719 17.4050 -14.0608
# 2 34.5313 80.5140 27.0375 1.2826 5.8650 -17.5722
# 3 34.1122 27.0375 102.1750 22.6092 23.1322 -4.0742
# 4 -2.2719 1.2826 22.6092 31.2255 1.2136 8.8538
# 5 17.4050 5.8650 23.1322 1.2136 44.9815 0.2921
# 6 -14.0608 -17.5722 -4.0742 8.8538 0.2921 41.5218
#
#
#
# Elastic Compliance Matrix: (Units=1/GPa)
#
#
# Indices 1 2 3 4 5 6 
#
# 1 0.014050 -0.004249 -0.003500 0.003306 -0.003184 0.001933
# 2 -0.004249 0.016265 -0.002776 -0.000499 0.000930 0.005272
# 3 -0.003500 -0.002776 0.015746 -0.011800 -0.006074 0.001744
# 4 0.003306 -0.000499 -0.011800 0.043386 0.003745 -0.009527
# 5 -0.003184 0.000930 -0.006074 0.003745 0.026380 -0.002265
# 6 0.001933 0.005272 0.001744 -0.009527 -0.002265 0.029188
#
#
# Mechanical properties :
#
#
# Convention : Reuss Voigt Hill
#
# Bulk Modulus (GPa) = 39.98079 52.28701 46.13390
# Shear Modulus (GPa) = 28.66959 35.78178 32.22569
#
# Velocity S-wave (km/s) = 3.51483 3.92667 3.72644
# Velocity P-wave (km/s) = 5.80518 6.56424 6.19635
#
# Compressibility (1/GPa) = 0.02501201
#
# Stress axis : x y z
#
# Youngs Moduli (GPa) = 71.17675 61.47985 63.50843
#
# Poissons Ratio (x) = 0.26123 0.22227
# Poissons Ratio (y) = 0.30244 0.17627
# Poissons Ratio (z) = 0.24911 0.17064
#
# Static dielectric constant tensor:
#      x y z
#    x 1.933260 0.026090 -0.010270 
#    y 0.026090 1.811300 0.023790 
#    z -0.010270 0.023790 1.933520 
# 
# From -- ./inp_files/345738.got.cif
#   From: 2010.05.17/outbox.cif.g08.bks.cpg/sg2_173_cif.got.tgz:345738.got - 2010.06.03 11:33:40.
