data_PCOD9025209
_publ_section_title
;
Structure prediction by ZEFSAII (Michael W. Deem and Ramdas Pophale) SiO2 
 PCOD9025209
Probable space group: P -1
;
_chemical_formula_sum "Si O2"
_cell_formula_units_Z 16
_cell_length_a 19.093218
_cell_length_b 19.090229
_cell_length_c 6.036625
_cell_angle_alpha 97.511585
_cell_angle_beta 108.814856
_cell_angle_gamma 23.720333
_cell_volume 755.571404
_symmetry_space_group_name_H-M "P -1"
_symmetry_group_IT_number 2
_symmetry_cell_setting 'triclinic'
loop_
_space_group_symop_operation_xyz
x,y,z
-x,-y,-z
loop_
_atom_site_type_symbol
_atom_site_label
_atom_site_fract_x
_atom_site_fract_y
_atom_site_fract_z
Si Si1 0.419053 0.251429 0.053740
Si Si2 0.407610 0.754107 0.209845
Si Si3 0.973825 0.985974 0.222259
Si Si4 0.245166 0.544464 0.898771
Si Si5 0.360236 0.555426 0.358521
Si Si6 0.556626 0.039843 0.718351
Si Si7 0.240547 0.277424 0.142714
Si Si8 0.220345 0.051241 0.392853
O O1 0.324781 0.266596 0.079166
O O2 0.635278 0.078401 0.303214
O O3 0.281402 0.441889 0.039129
O O4 0.463008 0.185841 0.825980
O O5 0.597149 0.608605 0.197895
O O6 0.511458 0.616346 0.450319
O O7 0.281351 0.930842 0.252857
O O8 0.251552 0.844597 0.950737
O O9 0.000000 0.000000 0.500000
O O10 0.142803 0.774424 0.314301
O O11 0.000000 0.000000 0.000000
O O12 0.308565 0.562570 0.078744
O O13 0.010321 0.751740 0.691702
O O14 0.500000 0.500000 0.500000
O O15 0.361034 0.179699 0.456905
O O16 0.715148 0.934778 0.666020
O O17 0.679337 0.871162 0.910334
O O18 0.000000 0.500000 0.000000
#
# Coordination Sequence:
#
# PCOD9025209 Si02
#       8
#     2   2   2   2   2   2   2   2
#     4  11  23  42  68  99 141 181 234 289 352 431
#     4  12  26  45  72 101 143 185 240 306 363 445
#     4  12  28  49  77 108 149 193 247 317 380 449
#     4  12  26  42  70 103 137 190 238 294 368 435
#     4  12  26  46  73 101 142 186 247 297 372 439
#     4  10  22  42  65  97 138 181 225 291 344 422
#     4  10  22  40  67  98 138 177 232 280 349 423
#     4  11  24  44  65 100 142 181 234 292 357 427
#
# _framework density 21.176027000000001
#
# number of rings (size 3 to 8) (size 9 to 14) (size 15 to 20)
#    0.000    0.750    5.000    1.875    1.750    4.500 
#    0.000    0.000    0.000    0.000    0.000    0.000 
#    0.000    0.000    0.000    0.000    0.000    0.000 
#
# Total GULP energy -89210.118773 kJ/mol
# GULP energy per Si atom -5575.632423 kJ/mol
# Density = 2.112783 g / cm^3
# Si number density = 21.176027 Si / 1000 Ang^3
#
#
#
# Elastic Constant Matrix: (Units=GPa)
#
#
# Indices 1 2 3 4 5 6 
#
# 1 61.2572 23.9203 5.9829 -8.3554 13.0194 3.9788
# 2 23.9203 116.9293 22.9101 -19.6242 21.2575 -13.1899
# 3 5.9829 22.9101 68.0357 -10.6633 30.0066 -20.7546
# 4 -8.3554 -19.6242 -10.6633 40.5520 -0.6222 16.7372
# 5 13.0194 21.2575 30.0066 -0.6222 27.9417 -4.4854
# 6 3.9788 -13.1899 -20.7546 16.7372 -4.4854 27.7986
#
#
#
# Elastic Compliance Matrix: (Units=1/GPa)
#
#
# Indices 1 2 3 4 5 6 
#
# 1 0.021123 -0.002366 0.003085 0.007213 -0.012512 -0.008204
# 2 -0.002366 0.011343 0.002069 0.004011 -0.009117 0.003379
# 3 0.003085 0.002069 0.038813 0.002357 -0.041197 0.021452
# 4 0.007213 0.004011 0.002357 0.037547 -0.011615 -0.021850
# 5 -0.012512 -0.009117 -0.041197 -0.011615 0.090664 -0.011671
# 6 -0.008204 0.003379 0.021452 -0.021850 -0.011671 0.066039
#
#
# Mechanical properties :
#
#
# Convention : Reuss Voigt Hill
#
# Bulk Modulus (GPa) = 13.01142 39.09431 26.05286
# Shear Modulus (GPa) = 17.50883 32.15238 24.83061
#
# Velocity S-wave (km/s) = 2.87857 3.90081 3.42801
# Velocity P-wave (km/s) = 4.14801 6.22817 5.29132
#
# Compressibility (1/GPa) = 0.07685557
#
# Stress axis : x y z
#
# Youngs Moduli (GPa) = 47.34167 88.16338 25.76449
#
# Poissons Ratio (x) = 0.20859 -0.07949
# Poissons Ratio (y) = 0.11201 -0.05331
# Poissons Ratio (z) = -0.14606 -0.18242
#
# Static dielectric constant tensor:
#      x y z
#    x 1.800040 -0.027350 -0.027770 
#    y -0.027350 1.778250 0.062830 
#    z -0.027770 0.062830 1.801940 
# 
# From -- ./inp_files/120427.got.cif
#   From: 2010.05.17/outbox.cif.g08.bks.cpg/sg2_61_cif.got.tgz:120427.got - 2010.06.03 11:33:40.
