data_PCOD9025814
_publ_section_title
;
Structure prediction by ZEFSAII (Michael W. Deem and Ramdas Pophale) SiO2 
 PCOD9025814
Probable space group: P -1
;
_chemical_formula_sum "Si O2"
_cell_formula_units_Z 13
_cell_length_a 9.254758
_cell_length_b 12.242890
_cell_length_c 9.373483
_cell_angle_alpha 117.362651
_cell_angle_beta 131.278811
_cell_angle_gamma 89.982147
_cell_volume 631.638723
_symmetry_space_group_name_H-M "P -1"
_symmetry_group_IT_number 2
_symmetry_cell_setting 'triclinic'
loop_
_space_group_symop_operation_xyz
x,y,z
-x,-y,-z
loop_
_atom_site_type_symbol
_atom_site_label
_atom_site_fract_x
_atom_site_fract_y
_atom_site_fract_z
Si Si1 0.712140 0.930494 0.384645
Si Si2 0.949704 0.244703 0.795045
Si Si3 0.021165 0.791180 0.519275
Si Si4 0.567762 0.536454 0.726940
Si Si5 0.500000 0.000000 0.000000
Si Si6 0.358465 0.680756 0.173720
Si Si7 0.214920 0.497815 0.688038
O O1 0.883905 0.870975 0.431228
O O2 0.594431 0.950743 0.178152
O O3 0.539979 0.825797 0.321282
O O4 0.842912 0.079645 0.633333
O O5 0.830785 0.298429 0.860563
O O6 0.920085 0.268794 0.622013
O O7 0.203238 0.329385 0.036329
O O8 0.855096 0.662422 0.424725
O O9 0.247294 0.886262 0.799587
O O10 0.500000 0.500000 0.500000
O O11 0.575816 0.403172 0.720126
O O12 0.397513 0.560730 0.725977
O O13 0.290543 0.582437 0.933020
O O14 0.000000 0.500000 0.500000
#
# Coordination Sequence:
#
# PCOD9025814 Si02
#       7
#     2   2   2   2   1   2   2
#     4  11  24  47  71 101 147 189 238 292 365 416
#     4  11  24  43  70  99 139 187 229 297 349 420
#     4  11  23  45  70 104 142 191 235 296 355 419
#     4  12  26  45  70 107 140 183 242 296 354 424
#     4  10  22  40  72 104 134 180 246 282 352 434
#     4  12  24  47  70 101 145 186 233 292 364 416
#     4  12  25  43  75 100 141 189 239 292 360 427
#
# _framework density 20.581388
#
# number of rings (size 3 to 8) (size 9 to 14) (size 15 to 20)
#    0.000    0.615    3.077    6.000    2.154    1.231 
#    5.538    0.769    0.000    0.000    0.000    0.000 
#    0.000    0.000    0.000    0.000    0.000    0.000 
#
# Total GULP energy -72394.526308 kJ/mol
# GULP energy per Si atom -5568.809716 kJ/mol
# Density = 2.053454 g / cm^3
# Si number density = 20.581388 Si / 1000 Ang^3
#
#
#
# Elastic Constant Matrix: (Units=GPa)
#
#
# Indices 1 2 3 4 5 6 
#
# 1 178.8208 47.2919 82.0273 -5.5044 15.6865 3.2515
# 2 47.2919 117.7501 86.8953 -9.9109 7.4659 10.3197
# 3 82.0273 86.8953 142.1675 -4.6870 26.6442 12.4039
# 4 -5.5044 -9.9109 -4.6870 30.5377 12.1921 6.0757
# 5 15.6865 7.4659 26.6442 12.1921 38.3662 3.7985
# 6 3.2515 10.3197 12.4039 6.0757 3.7985 30.0729
#
#
#
# Elastic Compliance Matrix: (Units=1/GPa)
#
#
# Indices 1 2 3 4 5 6 
#
# 1 0.007654 0.000339 -0.004616 0.000735 -0.000308 0.000850
# 2 0.000339 0.016348 -0.010505 0.002905 0.003282 -0.002315
# 3 -0.004616 -0.010505 0.018206 0.002837 -0.009336 -0.002799
# 4 0.000735 0.002905 0.002837 0.042143 -0.015355 -0.008821
# 5 -0.000308 0.003282 -0.009336 -0.015355 0.036795 0.001213
# 6 0.000850 -0.002315 -0.002799 -0.008821 0.001213 0.036739
#
#
# Mechanical properties :
#
#
# Convention : Reuss Voigt Hill
#
# Bulk Modulus (GPa) = 79.08902 96.79636 87.94269
# Shear Modulus (GPa) = 26.08756 34.63027 30.35891
#
# Velocity S-wave (km/s) = 3.56410 4.10640 3.84483
# Velocity P-wave (km/s) = 7.44634 8.34365 7.90773
#
# Compressibility (1/GPa) = 0.01264398
#
# Stress axis : x y z
#
# Youngs Moduli (GPa) = 130.65168 61.16891 54.92843
#
# Poissons Ratio (x) = -0.02073 0.25353
# Poissons Ratio (y) = -0.04428 0.57703
# Poissons Ratio (z) = 0.60304 0.64259
#
# Static dielectric constant tensor:
#      x y z
#    x 1.725270 -0.069000 -0.029300 
#    y -0.069000 1.634150 0.004470 
#    z -0.029300 0.004470 1.797840 
# 
# From -- ./inp_files/174709.got.cif
#   From: 2010.05.17/outbox.cif.g08.bks.cpg/sg2_88_cif.got.tgz:174709.got - 2010.06.03 11:33:40.
