data_PCOD9025797
_publ_section_title
;
Structure prediction by ZEFSAII (Michael W. Deem and Ramdas Pophale) SiO2 
 PCOD9025797
Probable space group: P -1
;
_chemical_formula_sum "Si O2"
_cell_formula_units_Z 14
_cell_length_a 12.053614
_cell_length_b 11.287397
_cell_length_c 12.053615
_cell_angle_alpha 145.863487
_cell_angle_beta 142.310617
_cell_angle_gamma 43.151597
_cell_volume 549.196232
_symmetry_space_group_name_H-M "P -1"
_symmetry_group_IT_number 2
_symmetry_cell_setting 'triclinic'
loop_
_space_group_symop_operation_xyz
x,y,z
-x,-y,-z
loop_
_atom_site_type_symbol
_atom_site_label
_atom_site_fract_x
_atom_site_fract_y
_atom_site_fract_z
Si Si1 0.452084 0.641104 0.367503
Si Si2 0.023919 0.322281 0.568815
Si Si3 0.757798 0.895654 0.749314
Si Si4 0.139185 0.330704 0.121446
Si Si5 0.000000 0.500000 0.500000
Si Si6 0.888033 0.120744 0.607855
Si Si7 0.500000 0.500000 0.500000
Si Si8 0.310161 0.611796 0.994650
O O1 0.564298 0.815198 0.549470
O O2 0.321584 0.730154 0.445080
O O3 0.564331 0.441358 0.370339
O O4 0.335619 0.593423 0.133764
O O5 0.957927 0.440284 0.722222
O O6 0.875898 0.374265 0.394748
O O7 0.127054 0.079987 0.480502
O O8 0.153210 0.477242 0.732821
O O9 0.849893 0.836335 0.896885
O O10 0.878314 0.744088 0.636900
O O11 0.264916 0.859169 0.115073
O O12 0.340549 0.344400 0.249831
O O13 0.013616 0.262813 0.875269
O O14 0.000000 0.000000 0.500000
O O15 0.500000 0.500000 0.000000
#
# Coordination Sequence:
#
# PCOD9025797 Si02
#       8
#     2   2   2   2   1   2   1   2
#     4  11  23  46  68 102 146 184 244 308 358 442
#     4  11  24  40  67 106 137 187 235 294 365 432
#     4  10  23  44  70 107 148 191 244 301 370 436
#     4  10  24  47  69 103 143 185 237 317 359 443
#     4  10  22  40  72 100 146 188 236 296 366 444
#     4  12  26  44  73 104 141 195 249 303 371 435
#     4  10  24  46  74  94 136 190 238 306 372 420
#     4  12  24  41  71 105 149 194 239 299 364 441
#
# _framework density 25.491799
#
# number of rings (size 3 to 8) (size 9 to 14) (size 15 to 20)
#    0.000    1.143    1.429    3.857    4.000    2.286 
#    2.571    3.571    0.000    0.000    0.000    0.000 
#    0.000    0.000    0.000    0.000    0.000    0.000 
#
# Total GULP energy -77992.223809 kJ/mol
# GULP energy per Si atom -5570.873129 kJ/mol
# Density = 2.543378 g / cm^3
# Si number density = 25.491799 Si / 1000 Ang^3
#
#
#
# Elastic Constant Matrix: (Units=GPa)
#
#
# Indices 1 2 3 4 5 6 
#
# 1 178.9771 42.0332 78.2653 -3.5452 -3.9747 -1.0773
# 2 42.0332 99.3656 56.1727 18.6859 0.6839 16.6686
# 3 78.2653 56.1727 134.6960 -9.4463 1.3667 -6.6508
# 4 -3.5452 18.6859 -9.4463 55.0353 -1.1589 4.4267
# 5 -3.9747 0.6839 1.3667 -1.1589 46.9844 -2.0051
# 6 -1.0773 16.6686 -6.6508 4.4267 -2.0051 61.3940
#
#
#
# Elastic Compliance Matrix: (Units=1/GPa)
#
#
# Indices 1 2 3 4 5 6 
#
# 1 0.007585 -0.000980 -0.003997 0.000153 0.000775 -0.000019
# 2 -0.000980 0.016443 -0.006973 -0.006468 -0.000483 -0.004786
# 3 -0.003997 -0.006973 0.013091 0.004113 -0.000391 0.002932
# 4 0.000153 -0.006468 0.004113 0.021037 0.000536 0.000705
# 5 0.000775 -0.000483 -0.000391 0.000536 0.021413 0.000763
# 6 -0.000019 -0.004786 0.002932 0.000705 0.000763 0.017879
#
#
# Mechanical properties :
#
#
# Convention : Reuss Voigt Hill
#
# Bulk Modulus (GPa) = 75.64114 85.10898 80.37506
# Shear Modulus (GPa) = 39.75996 48.45392 44.10694
#
# Velocity S-wave (km/s) = 3.95361 4.36451 4.16413
# Velocity P-wave (km/s) = 7.11186 7.67189 7.39717
#
# Compressibility (1/GPa) = 0.01322032
#
# Stress axis : x y z
#
# Youngs Moduli (GPa) = 131.83185 60.81725 76.38564
#
# Poissons Ratio (x) = 0.05961 0.30530
# Poissons Ratio (y) = 0.12922 0.53261
# Poissons Ratio (z) = 0.52691 0.42406
#
# Static dielectric constant tensor:
#      x y z
#    x 2.135790 0.227430 -0.062250 
#    y 0.227430 27.403740 -2.532100 
#    z -0.062250 -2.532100 2.299740 
# 
# From -- ./inp_files/429308.got.cif
#   From: 2010.05.17/outbox.cif.g08.bks.cpg/sg2_215_cif.got.tgz:429308.got - 2010.06.03 11:33:40.
