data_PCOD9025622
_publ_section_title
;
Structure prediction by ZEFSAII (Michael W. Deem and Ramdas Pophale) SiO2 
 PCOD9025622
Probable space group: P -1
;
_chemical_formula_sum "Si O2"
_cell_formula_units_Z 15
_cell_length_a 8.879012
_cell_length_b 17.012942
_cell_length_c 5.103873
_cell_angle_alpha 80.166266
_cell_angle_beta 56.599676
_cell_angle_gamma 58.206247
_cell_volume 539.290528
_symmetry_space_group_name_H-M "P -1"
_symmetry_group_IT_number 2
_symmetry_cell_setting 'triclinic'
loop_
_space_group_symop_operation_xyz
x,y,z
-x,-y,-z
loop_
_atom_site_type_symbol
_atom_site_label
_atom_site_fract_x
_atom_site_fract_y
_atom_site_fract_z
Si Si1 0.829408 0.420693 0.711574
Si Si2 0.770329 0.592394 0.915879
Si Si3 0.486102 0.094231 0.064752
Si Si4 0.152506 0.033824 0.931766
Si Si5 0.962618 0.787567 0.393753
Si Si6 0.207264 0.840163 0.477926
Si Si7 0.492333 0.325718 0.390071
Si Si8 0.500000 0.500000 0.500000
O O1 0.760376 0.496582 0.974987
O O2 0.656913 0.441281 0.645401
O O3 0.998146 0.434078 0.373907
O O4 0.957531 0.313634 0.742822
O O5 0.611445 0.656581 0.803245
O O6 0.693605 0.644485 0.233339
O O7 0.246770 0.180532 0.249133
O O8 0.639933 0.124096 0.771922
O O9 0.500000 0.000000 0.000000
O O10 0.609692 0.053506 0.245303
O O11 0.036495 0.076239 0.295973
O O12 0.126514 0.122996 0.760195
O O13 0.000000 0.000000 0.000000
O O14 0.163607 0.778396 0.355903
O O15 0.316183 0.777228 0.665558
O O16 0.554589 0.401299 0.356880
#
# Coordination Sequence:
#
# PCOD9025622 Si02
#       8
#     2   2   2   2   2   2   2   1
#     4  10  23  45  71 107 144 197 248 308 376 447
#     4  10  25  47  72 107 153 196 249 311 372 451
#     4  12  25  47  73 103 145 192 244 310 388 446
#     4  12  26  46  75 104 147 195 244 317 384 450
#     4  12  25  47  75 108 145 194 258 306 377 460
#     4  12  26  46  73 110 151 190 253 317 370 459
#     4  11  25  45  74 106 149 199 246 311 374 443
#     4  10  22  40  70 102 144 190 236 294 374 446
#
# _framework density 27.814319999999999
#
# number of rings (size 3 to 8) (size 9 to 14) (size 15 to 20)
#    0.000    0.800    4.000    2.400    1.867   10.133 
#    2.400    0.000    0.000    0.000    0.000    0.000 
#    0.000    0.000    0.000    0.000    0.000    0.000 
#
# Total GULP energy -83906.996288 kJ/mol
# GULP energy per Si atom -5593.799753 kJ/mol
# Density = 2.775101 g / cm^3
# Si number density = 27.814320 Si / 1000 Ang^3
#
#
#
# Elastic Constant Matrix: (Units=GPa)
#
#
# Indices 1 2 3 4 5 6 
#
# 1 132.2107 37.5710 32.7050 0.9493 -23.1962 -7.6400
# 2 37.5710 158.4034 19.3947 -12.0156 -4.4034 -12.3015
# 3 32.7050 19.3947 77.3778 12.2188 -17.3183 -3.4416
# 4 0.9493 -12.0156 12.2188 54.8992 -6.2275 -2.1884
# 5 -23.1962 -4.4034 -17.3183 -6.2275 50.6264 -9.5510
# 6 -7.6400 -12.3015 -3.4416 -2.1884 -9.5510 48.5977
#
#
#
# Elastic Compliance Matrix: (Units=1/GPa)
#
#
# Indices 1 2 3 4 5 6 
#
# 1 0.009438 -0.001628 -0.002795 0.000575 0.003601 0.001607
# 2 -0.001628 0.007129 -0.001351 0.001943 -0.000061 0.001529
# 3 -0.002795 -0.001351 0.015857 -0.003309 0.003797 0.000939
# 4 0.000575 0.001943 -0.003309 0.019662 0.002027 0.001632
# 5 0.003601 -0.000061 0.003797 0.002027 0.024007 0.005629
# 6 0.001607 0.001529 0.000939 0.001632 0.005629 0.022463
#
#
# Mechanical properties :
#
#
# Convention : Reuss Voigt Hill
#
# Bulk Modulus (GPa) = 47.89929 60.81481 54.35705
# Shear Modulus (GPa) = 42.71204 49.37942 46.04573
#
# Velocity S-wave (km/s) = 3.92294 4.21803 4.07316
# Velocity P-wave (km/s) = 6.14636 6.75532 6.45803
#
# Compressibility (1/GPa) = 0.02087713
#
# Stress axis : x y z
#
# Youngs Moduli (GPa) = 105.95370 140.27259 63.06187
#
# Poissons Ratio (x) = 0.22835 0.17623
# Poissons Ratio (y) = 0.17248 0.08521
# Poissons Ratio (z) = 0.29609 0.18955
#
# Static dielectric constant tensor:
#      x y z
#    x 2.127680 0.044320 0.098820 
#    y 0.044320 2.169850 0.073850 
#    z 0.098820 0.073850 2.249340 
# 
# From -- ./inp_files/47352.got.cif
#   From: 2010.05.17/outbox.cif.g08.bks.cpg/sg2_24_cif.got.tgz:47352.got - 2010.06.03 11:33:40.
