data_PCOD9025089
_publ_section_title
;
Structure prediction by ZEFSAII (Michael W. Deem and Ramdas Pophale) SiO2 
 PCOD9025089
Probable space group: P -1
;
_chemical_formula_sum "Si O2"
_cell_formula_units_Z 16
_cell_length_a 14.460884
_cell_length_b 9.313431
_cell_length_c 9.313425
_cell_angle_alpha 42.881668
_cell_angle_beta 81.906491
_cell_angle_gamma 105.013919
_cell_volume 712.525963
_symmetry_space_group_name_H-M "P -1"
_symmetry_group_IT_number 2
_symmetry_cell_setting 'triclinic'
loop_
_space_group_symop_operation_xyz
x,y,z
-x,-y,-z
loop_
_atom_site_type_symbol
_atom_site_label
_atom_site_fract_x
_atom_site_fract_y
_atom_site_fract_z
Si Si1 0.702181 0.384029 0.511196
Si Si2 0.550722 0.942327 0.666306
Si Si3 0.065869 0.883035 0.508836
Si Si4 0.154071 0.643875 0.079828
Si Si5 0.626771 0.709379 0.358775
Si Si6 0.365220 0.772054 0.053992
Si Si7 0.723573 0.915283 0.487023
Si Si8 0.120395 0.739638 0.320467
O O1 0.641942 0.205852 0.522562
O O2 0.704333 0.639391 0.303674
O O3 0.623322 0.265746 0.754708
O O4 0.804475 0.355487 0.553895
O O5 0.500000 0.000000 0.500000
O O6 0.619375 0.831403 0.672911
O O7 0.456464 0.788589 0.916894
O O8 0.107139 0.910931 0.313557
O O9 0.970350 0.583572 0.760288
O O10 0.175542 0.021732 0.479143
O O11 0.000000 0.000000 0.500000
O O12 0.238962 0.569660 0.177074
O O13 0.151780 0.805726 0.096791
O O14 0.218533 0.813595 0.805064
O O15 0.500000 0.500000 0.500000
O O16 0.671342 0.732464 0.495453
O O17 0.627309 0.963114 0.151688
O O18 0.000000 0.500000 0.500000
#
# Coordination Sequence:
#
# PCOD9025089 Si02
#       8
#     2   2   2   2   2   2   2   2
#     4  11  22  40  68  86 127 175 207 257 322 371
#     4  12  20  39  63  92 129 169 206 261 324 373
#     4  11  23  40  66  94 125 159 211 270 312 373
#     4   9  20  41  64  86 127 167 206 251 315 389
#     4  11  22  38  63  94 124 165 219 257 303 383
#     4  10  22  40  67  92 129 172 216 252 314 389
#     4  11  23  40  64  92 128 167 205 263 326 364
#     4   9  20  39  64  89 119 166 211 251 317 383
#
# _framework density 22.455321999999999
#
# number of rings (size 3 to 8) (size 9 to 14) (size 15 to 20)
#    0.000    1.500    5.000    0.750    5.250    0.000 
#    0.000    5.000    5.500    0.000    0.000    0.000 
#    0.000    0.000    0.000    0.000    0.000    0.000 
#
# Total GULP energy -89082.800534 kJ/mol
# GULP energy per Si atom -5567.675033 kJ/mol
# Density = 2.240421 g / cm^3
# Si number density = 22.455322 Si / 1000 Ang^3
#
#
#
# Elastic Constant Matrix: (Units=GPa)
#
#
# Indices 1 2 3 4 5 6 
#
# 1 122.7699 48.0008 5.8786 14.8557 -7.8348 14.1453
# 2 48.0008 146.7753 13.2909 4.3853 3.6441 14.8693
# 3 5.8786 13.2909 45.4443 11.5589 -12.3620 -4.3616
# 4 14.8557 4.3853 11.5589 28.9824 0.9683 -4.9332
# 5 -7.8348 3.6441 -12.3620 0.9683 34.5170 4.8197
# 6 14.1453 14.8693 -4.3616 -4.9332 4.8197 53.7234
#
#
#
# Elastic Compliance Matrix: (Units=1/GPa)
#
#
# Indices 1 2 3 4 5 6 
#
# 1 0.010686 -0.003320 0.002064 -0.006390 0.004069 -0.002679
# 2 -0.003320 0.008347 -0.003273 0.001610 -0.002669 -0.001314
# 3 0.002064 -0.003273 0.029034 -0.012433 0.011485 0.000548
# 4 -0.006390 0.001610 -0.012433 0.043603 -0.007987 0.004948
# 5 0.004069 -0.002669 0.011485 -0.007987 0.034971 -0.003271
# 6 -0.002679 -0.001314 0.000548 0.004948 -0.003271 0.020475
#
#
# Mechanical properties :
#
#
# Convention : Reuss Voigt Hill
#
# Bulk Modulus (GPa) = 25.63608 49.92556 37.78082
# Shear Modulus (GPa) = 29.55461 39.96582 34.76021
#
# Velocity S-wave (km/s) = 3.63182 4.22334 3.93870
# Velocity P-wave (km/s) = 5.38777 6.78702 6.12747
#
# Compressibility (1/GPa) = 0.03900752
#
# Stress axis : x y z
#
# Youngs Moduli (GPa) = 93.57829 119.80737 34.44206
#
# Poissons Ratio (x) = 0.39780 -0.07108
# Poissons Ratio (y) = 0.31071 0.11274
# Poissons Ratio (z) = -0.19312 0.39216
#
# Static dielectric constant tensor:
#      x y z
#    x 1.930820 -0.097440 0.020470 
#    y -0.097440 1.953510 -0.029830 
#    z 0.020470 -0.029830 1.882770 
# 
# From -- ./inp_files/297413.got.cif
#   From: 2010.05.17/outbox.cif.g08.bks.cpg/sg2_149_cif.got.tgz:297413.got - 2010.06.03 11:33:40.
