data_PCOD9025020
_publ_section_title
;
Structure prediction by ZEFSAII (Michael W. Deem and Ramdas Pophale) SiO2 
 PCOD9025020
Probable space group: P -1
;
_chemical_formula_sum "Si O2"
_cell_formula_units_Z 16
_cell_length_a 17.549980
_cell_length_b 7.996119
_cell_length_c 9.742212
_cell_angle_alpha 136.082350
_cell_angle_beta 124.920676
_cell_angle_gamma 84.532530
_cell_volume 645.493584
_symmetry_space_group_name_H-M "P -1"
_symmetry_group_IT_number 2
_symmetry_cell_setting 'triclinic'
loop_
_space_group_symop_operation_xyz
x,y,z
-x,-y,-z
loop_
_atom_site_type_symbol
_atom_site_label
_atom_site_fract_x
_atom_site_fract_y
_atom_site_fract_z
Si Si1 0.582206 0.417957 0.468373
Si Si2 0.982874 0.873333 0.253946
Si Si3 0.378692 0.707310 0.166999
Si Si4 0.267148 0.013457 0.907586
Si Si5 0.810387 0.261127 0.851612
Si Si6 0.577668 0.208876 0.053098
Si Si7 0.100305 0.814583 0.832864
Si Si8 0.228866 0.081986 0.632260
O O1 0.500000 0.500000 0.500000
O O2 0.587917 0.421470 0.309653
O O3 0.692727 0.666850 0.805332
O O4 0.543936 0.091447 0.267976
O O5 0.925771 0.966572 0.137453
O O6 0.900654 0.532084 0.007634
O O7 0.000000 0.000000 0.500000
O O8 0.112227 0.032268 0.433790
O O9 0.275833 0.705276 0.127188
O O10 0.500000 0.000000 0.500000
O O11 0.377689 0.673189 0.981200
O O12 0.340023 0.382557 0.977245
O O13 0.356118 0.936432 0.917843
O O14 0.203152 0.840676 0.874417
O O15 0.190449 0.908263 0.632999
O O16 0.735608 0.017279 0.519592
O O17 0.873340 0.175751 0.973713
O O18 0.000000 0.500000 0.500000
#
# Coordination Sequence:
#
# PCOD9025020 Si02
#       8
#     2   2   2   2   2   2   2   2
#     4   9  21  40  67  96 134 180 238 298 348 425
#     4  12  23  48  77 106 150 195 253 314 378 447
#     4  12  26  45  71 106 154 196 244 310 371 448
#     4  11  22  41  67  96 140 186 231 297 359 426
#     4  12  27  49  74 111 154 195 253 314 371 451
#     4  10  22  40  67 101 132 182 247 286 357 435
#     4  12  23  43  77 104 146 195 239 308 379 437
#     4  12  27  46  73 109 148 199 247 309 383 441
#
# _framework density 24.787234000000002
#
# number of rings (size 3 to 8) (size 9 to 14) (size 15 to 20)
#    0.000    0.750    5.000    1.125    1.750    6.000 
#    0.000    0.000    0.000    0.000    0.000    0.000 
#    0.000    0.000    0.000    0.000    0.000    0.000 
#
# Total GULP energy -89122.216748 kJ/mol
# GULP energy per Si atom -5570.138547 kJ/mol
# Density = 2.473082 g / cm^3
# Si number density = 24.787234 Si / 1000 Ang^3
#
#
#
# Elastic Constant Matrix: (Units=GPa)
#
#
# Indices 1 2 3 4 5 6 
#
# 1 87.5620 30.4045 39.7048 -13.3598 -17.3373 12.0168
# 2 30.4045 123.9724 47.0832 -23.3694 -7.1920 7.9853
# 3 39.7048 47.0832 135.3475 -9.9818 -25.5675 7.7251
# 4 -13.3598 -23.3694 -9.9818 32.7633 13.9399 5.0068
# 5 -17.3373 -7.1920 -25.5675 13.9399 50.1588 -15.1086
# 6 12.0168 7.9853 7.7251 5.0068 -15.1086 35.3996
#
#
#
# Elastic Compliance Matrix: (Units=1/GPa)
#
#
# Indices 1 2 3 4 5 6 
#
# 1 0.014715 -0.001232 -0.003169 0.004510 0.000730 -0.004352
# 2 -0.001232 0.011502 -0.003553 0.009276 -0.004570 -0.004664
# 3 -0.003169 -0.003553 0.010158 -0.003301 0.005197 0.002345
# 4 0.004510 0.009276 -0.003301 0.047911 -0.017241 -0.017038
# 5 0.000730 -0.004570 0.005197 -0.017241 0.031675 0.015607
# 6 -0.004352 -0.004664 0.002345 -0.017038 0.015607 0.039337
#
#
# Mechanical properties :
#
#
# Convention : Reuss Voigt Hill
#
# Bulk Modulus (GPa) = 48.85928 64.58522 56.72225
# Shear Modulus (GPa) = 28.08514 38.97697 33.53105
#
# Velocity S-wave (km/s) = 3.36973 3.96973 3.68197
# Velocity P-wave (km/s) = 5.90715 6.86470 6.40384
#
# Compressibility (1/GPa) = 0.02046694
#
# Stress axis : x y z
#
# Youngs Moduli (GPa) = 67.95570 86.94391 98.44103
#
# Poissons Ratio (x) = 0.10716 0.31198
# Poissons Ratio (y) = 0.08375 0.34972
# Poissons Ratio (z) = 0.21537 0.30888
#
# Static dielectric constant tensor:
#      x y z
#    x 2.061960 -0.021370 0.088640 
#    y -0.021370 2.148850 0.092480 
#    z 0.088640 0.092480 2.087600 
# 
# From -- ./inp_files/343880.got.cif
#   From: 2010.05.17/outbox.cif.g08.bks.cpg/sg2_172_cif.got.tgz:343880.got - 2010.06.03 11:33:40.
