data_PCOD9025303
_publ_section_title
;
Structure prediction by ZEFSAII (Michael W. Deem and Ramdas Pophale) SiO2 
 PCOD9025303
Probable space group: P -1
;
_chemical_formula_sum "Si O2"
_cell_formula_units_Z 14
_cell_length_a 12.568337
_cell_length_b 20.469322
_cell_length_c 14.310595
_cell_angle_alpha 21.959636
_cell_angle_beta 139.774284
_cell_angle_gamma 150.337006
_cell_volume 663.229038
_symmetry_space_group_name_H-M "P -1"
_symmetry_group_IT_number 2
_symmetry_cell_setting 'triclinic'
loop_
_space_group_symop_operation_xyz
x,y,z
-x,-y,-z
loop_
_atom_site_type_symbol
_atom_site_label
_atom_site_fract_x
_atom_site_fract_y
_atom_site_fract_z
Si Si1 0.875724 0.208487 0.372705
Si Si2 0.966045 0.812855 0.795509
Si Si3 0.323979 0.525985 0.377025
Si Si4 0.698299 0.714926 0.913693
Si Si5 0.241561 0.489199 0.096848
Si Si6 0.385533 0.523364 0.635452
Si Si7 0.569913 0.023670 0.121362
O O1 0.086979 0.354313 0.392364
O O2 0.006931 0.289595 0.254839
O O3 0.711042 0.932323 0.641989
O O4 0.736627 0.289265 0.171418
O O5 0.174739 0.839750 0.891639
O O6 0.914848 0.826545 0.848048
O O7 0.770038 0.562931 0.950882
O O8 0.000000 0.000000 0.500000
O O9 0.500000 0.500000 0.500000
O O10 0.277216 0.484336 0.513416
O O11 0.444088 0.798145 0.075048
O O12 0.500000 0.500000 0.000000
O O13 0.722276 0.652742 0.115829
O O14 0.414797 0.466079 0.276225
O O15 0.457168 0.757915 0.421113
O O16 0.500000 0.000000 0.000000
#
# Coordination Sequence:
#
# PCOD9025303 Si02
#       7
#     2   2   2   2   2   2   2
#     4  11  24  39  67  95 126 168 212 266 318 377
#     4  12  20  40  68  91 123 166 217 262 306 381
#     4  11  23  42  66  95 124 168 215 260 314 376
#     4  12  25  40  63  96 134 166 211 263 328 372
#     4  11  21  39  66  98 121 161 221 265 313 368
#     4  11  23  42  62  96 132 166 207 263 319 378
#     4  10  22  40  68  91 122 169 218 259 307 380
#
# _framework density 21.108846
#
# number of rings (size 3 to 8) (size 9 to 14) (size 15 to 20)
#    0.000    0.857    7.143    0.000    2.000    1.143 
#    0.000    2.857    0.000    0.000    0.000    0.000 
#    0.000    0.000    0.000    0.000    0.000    0.000 
#
# Total GULP energy -77937.375654 kJ/mol
# GULP energy per Si atom -5566.955404 kJ/mol
# Density = 2.106080 g / cm^3
# Si number density = 21.108846 Si / 1000 Ang^3
#
#
#
# Elastic Constant Matrix: (Units=GPa)
#
#
# Indices 1 2 3 4 5 6 
#
# 1 101.6207 5.4097 48.9288 8.3800 4.9431 -11.1172
# 2 5.4097 81.7759 14.9006 8.0470 10.5157 -20.1901
# 3 48.9288 14.9006 166.6694 -8.2863 25.8695 -2.6469
# 4 8.3800 8.0470 -8.2863 29.7079 -3.5627 6.7531
# 5 4.9431 10.5157 25.8695 -3.5627 49.3032 8.7426
# 6 -11.1172 -20.1901 -2.6469 6.7531 8.7426 26.1036
#
#
#
# Elastic Compliance Matrix: (Units=1/GPa)
#
#
# Indices 1 2 3 4 5 6 
#
# 1 0.013901 0.004104 -0.004281 -0.009296 -0.002825 0.012012
# 2 0.004104 0.020904 -0.001957 -0.014019 -0.009187 0.024421
# 3 -0.004281 -0.001957 0.007996 0.004296 -0.002545 -0.002785
# 4 -0.009296 -0.014019 0.004296 0.049558 0.010706 -0.030773
# 5 -0.002825 -0.009187 -0.002545 0.010706 0.028327 -0.020823
# 6 0.012012 0.024421 -0.002785 -0.030773 -0.020823 0.076966
#
#
# Mechanical properties :
#
#
# Convention : Reuss Voigt Hill
#
# Bulk Modulus (GPa) = 25.95137 54.28270 40.11704
# Shear Modulus (GPa) = 23.28131 39.74471 31.51301
#
# Velocity S-wave (km/s) = 3.32462 4.34389 3.86797
# Velocity P-wave (km/s) = 5.20175 7.13657 6.24455
#
# Compressibility (1/GPa) = 0.03853360
#
# Stress axis : x y z
#
# Youngs Moduli (GPa) = 71.93589 47.83763 125.06411
#
# Poissons Ratio (x) = -0.19633 0.53539
# Poissons Ratio (y) = -0.29523 0.24474
# Poissons Ratio (z) = 0.30795 0.09361
#
# Static dielectric constant tensor:
#      x y z
#    x 1.809260 0.028430 0.029580 
#    y 0.028430 1.709850 -0.073550 
#    z 0.029580 -0.073550 1.825460 
# 
# From -- ./inp_files/155348.got.cif
#   From: 2010.05.17/outbox.cif.g08.bks.cpg/sg2_78_cif.got.tgz:155348.got - 2010.06.03 11:33:40.
