data_PCOD9025470
_publ_section_title
;
Structure prediction by ZEFSAII (Michael W. Deem and Ramdas Pophale) SiO2 
 PCOD9025470
Probable space group: P -1
;
_chemical_formula_sum "Si O2"
_cell_formula_units_Z 16
_cell_length_a 7.449666
_cell_length_b 11.398161
_cell_length_c 13.486983
_cell_angle_alpha 43.398269
_cell_angle_beta 87.410651
_cell_angle_gamma 110.385831
_cell_volume 653.683327
_symmetry_space_group_name_H-M "P -1"
_symmetry_group_IT_number 2
_symmetry_cell_setting 'triclinic'
loop_
_space_group_symop_operation_xyz
x,y,z
-x,-y,-z
loop_
_atom_site_type_symbol
_atom_site_label
_atom_site_fract_x
_atom_site_fract_y
_atom_site_fract_z
Si Si1 0.429852 0.700384 0.601745
Si Si2 0.168010 0.694014 0.771737
Si Si3 0.474829 0.896546 0.171564
Si Si4 0.932653 0.002859 0.390701
Si Si5 0.442967 0.409295 0.943401
Si Si6 0.893184 0.054815 0.761394
Si Si7 0.210219 0.496953 0.523982
Si Si8 0.245417 0.723779 0.965506
O O1 0.303168 0.782350 0.614093
O O2 0.675964 0.866006 0.465604
O O3 0.445636 0.563736 0.770276
O O4 0.302231 0.585651 0.575926
O O5 0.309846 0.748707 0.832918
O O6 0.014575 0.769897 0.760540
O O7 0.004704 0.451757 0.910781
O O8 0.295510 0.915430 0.221719
O O9 0.389267 0.658491 0.339414
O O10 0.693770 0.062825 0.120615
O O11 0.500000 0.000000 0.000000
O O12 0.050419 0.930331 0.364027
O O13 0.000000 0.000000 0.500000
O O14 0.500000 0.500000 0.000000
O O15 0.620893 0.360599 0.937631
O O16 0.215661 0.187650 0.070262
O O17 0.114139 0.253634 0.676699
O O18 0.000000 0.500000 0.500000
#
# Coordination Sequence:
#
# PCOD9025470 Si02
#       8
#     2   2   2   2   2   2   2   2
#     4  12  26  43  75 107 147 203 249 304 373 448
#     4  11  24  40  70 107 142 191 246 304 375 447
#     4  10  23  44  75 102 136 196 249 301 368 440
#     4  12  27  43  70 107 152 195 240 311 388 441
#     4  11  21  45  70 107 150 190 247 305 379 441
#     4  10  25  44  71 102 148 192 239 309 366 444
#     4  10  25  48  72 104 149 191 255 308 366 437
#     4  10  22  40  69 103 143 182 244 313 367 437
#
# _framework density 24.476683999999999
#
# number of rings (size 3 to 8) (size 9 to 14) (size 15 to 20)
#    0.000    1.250    1.250    3.375   10.500    3.000 
#    0.000    2.500    0.000    0.000    0.000    0.000 
#    0.000    0.000    0.000    0.000    0.000    0.000 
#
# Total GULP energy -89295.157211 kJ/mol
# GULP energy per Si atom -5580.947326 kJ/mol
# Density = 2.442097 g / cm^3
# Si number density = 24.476684 Si / 1000 Ang^3
#
#
#
# Elastic Constant Matrix: (Units=GPa)
#
#
# Indices 1 2 3 4 5 6 
#
# 1 68.8902 18.2296 16.9609 10.6358 2.9495 -4.0961
# 2 18.2296 134.6646 61.5251 -12.7372 -11.7401 23.9630
# 3 16.9609 61.5251 110.6209 -13.2087 -8.4690 15.3758
# 4 10.6358 -12.7372 -13.2087 61.4017 0.0947 -6.5588
# 5 2.9495 -11.7401 -8.4690 0.0947 37.2003 4.5820
# 6 -4.0961 23.9630 15.3758 -6.5588 4.5820 35.8048
#
#
#
# Elastic Compliance Matrix: (Units=1/GPa)
#
#
# Indices 1 2 3 4 5 6 
#
# 1 0.016726 -0.002558 -0.002420 -0.003469 -0.003223 0.004442
# 2 -0.002558 0.011431 -0.004705 0.001139 0.003495 -0.006161
# 3 -0.002420 -0.004705 0.012750 0.001916 0.001912 -0.002497
# 4 -0.003469 0.001139 0.001916 0.017656 0.000885 0.001139
# 5 -0.003223 0.003495 0.001912 0.000885 0.029554 -0.007149
# 6 0.004442 -0.006161 -0.002497 0.001139 -0.007149 0.034756
#
#
# Mechanical properties :
#
#
# Convention : Reuss Voigt Hill
#
# Bulk Modulus (GPa) = 46.42538 56.40079 51.41309
# Shear Modulus (GPa) = 33.46273 41.37871 37.42072
#
# Velocity S-wave (km/s) = 3.70148 4.11607 3.91427
# Velocity P-wave (km/s) = 6.10543 6.75885 6.44043
#
# Compressibility (1/GPa) = 0.02153994
#
# Stress axis : x y z
#
# Youngs Moduli (GPa) = 59.78622 87.48446 78.42967
#
# Poissons Ratio (x) = 0.22378 0.18981
# Poissons Ratio (y) = 0.15293 0.36905
# Poissons Ratio (z) = 0.14469 0.41165
#
# Static dielectric constant tensor:
#      x y z
#    x 1.829500 0.047880 -0.078450 
#    y 0.047880 1.962500 -0.019720 
#    z -0.078450 -0.019720 2.045800 
# 
# From -- ./inp_files/392106.got.cif
#   From: 2010.05.17/outbox.cif.g08.bks.cpg/sg2_197_cif.got.tgz:392106.got - 2010.06.03 11:33:40.
