data_PCOD9025871
_publ_section_title
;
Structure prediction by ZEFSAII (Michael W. Deem and Ramdas Pophale) SiO2 
 PCOD9025871
Probable space group: P -1
;
_chemical_formula_sum "Si O2"
_cell_formula_units_Z 13
_cell_length_a 12.065578
_cell_length_b 7.430867
_cell_length_c 9.253803
_cell_angle_alpha 101.297866
_cell_angle_beta 49.529208
_cell_angle_gamma 68.830167
_cell_volume 467.925632
_symmetry_space_group_name_H-M "P -1"
_symmetry_group_IT_number 2
_symmetry_cell_setting 'triclinic'
loop_
_space_group_symop_operation_xyz
x,y,z
-x,-y,-z
loop_
_atom_site_type_symbol
_atom_site_label
_atom_site_fract_x
_atom_site_fract_y
_atom_site_fract_z
Si Si1 0.973019 0.983799 0.190064
Si Si2 0.718888 0.542649 0.543607
Si Si3 0.629834 0.713915 0.321548
Si Si4 0.000000 0.500000 0.500000
Si Si5 0.344398 0.882089 0.370126
Si Si6 0.706796 0.124416 0.911672
Si Si7 0.261350 0.290232 0.052865
O O1 0.836231 0.257382 0.410596
O O2 0.842545 0.922008 0.343550
O O3 0.000000 0.000000 0.000000
O O4 0.171799 0.841722 0.083939
O O5 0.687694 0.592502 0.406296
O O6 0.512715 0.703058 0.822154
O O7 0.854385 0.476770 0.713624
O O8 0.495396 0.686678 0.336609
O O9 0.500000 0.000000 0.500000
O O10 0.788367 0.652216 0.062884
O O11 0.799754 0.841928 0.823573
O O12 0.854832 0.590816 0.495788
O O13 0.285741 0.845010 0.259766
O O14 0.507528 0.891343 0.171111
#
# Coordination Sequence:
#
# PCOD9025871 Si02
#       7
#     2   2   2   1   2   2   2
#     4  12  29  48  70 107 149 196 245 289 367 439
#     4  12  25  46  76 103 150 189 241 303 359 426
#     4  10  22  40  73 105 142 188 236 300 364 419
#     4  12  24  44  72 114 134 190 242 298 366 422
#     4  10  24  44  71 103 141 195 236 294 362 429
#     4  12  23  48  75 102 143 191 242 310 352 427
#     4  10  23  44  70 107 141 179 243 300 358 421
#
# _framework density 27.782195000000002
#
# number of rings (size 3 to 8) (size 9 to 14) (size 15 to 20)
#    0.923    0.000    4.615    1.846    2.154    3.692 
#    2.769    0.000    0.000    0.000    0.000    0.000 
#    0.000    0.000    0.000    0.000    0.000    0.000 
#
# Total GULP energy -72431.949378 kJ/mol
# GULP energy per Si atom -5571.688414 kJ/mol
# Density = 2.771896 g / cm^3
# Si number density = 27.782195 Si / 1000 Ang^3
#
#
#
# Elastic Constant Matrix: (Units=GPa)
#
#
# Indices 1 2 3 4 5 6 
#
# 1 140.8970 64.4958 50.6561 -14.6085 -22.9535 -45.1200
# 2 64.4958 158.8512 87.3521 -46.3949 -10.7059 -42.4634
# 3 50.6561 87.3521 195.6537 -49.5643 -26.6138 -18.9800
# 4 -14.6085 -46.3949 -49.5643 85.4525 -4.4792 13.9086
# 5 -22.9535 -10.7059 -26.6138 -4.4792 42.4041 3.5142
# 6 -45.1200 -42.4634 -18.9800 13.9086 3.5142 55.2786
#
#
#
# Elastic Compliance Matrix: (Units=1/GPa)
#
#
# Indices 1 2 3 4 5 6 
#
# 1 0.011326 -0.002080 -0.000867 -0.000643 0.004394 0.007232
# 2 -0.002080 0.011088 -0.003244 0.002945 -0.000466 0.004994
# 3 -0.000867 -0.003244 0.008023 0.003212 0.004212 -0.001521
# 4 -0.000643 0.002945 0.003212 0.015488 0.004157 -0.001321
# 5 0.004394 -0.000466 0.004212 0.004157 0.028777 0.001800
# 6 0.007232 0.004994 -0.001521 -0.001321 0.001800 0.027524
#
#
# Mechanical properties :
#
#
# Convention : Reuss Voigt Hill
#
# Bulk Modulus (GPa) = 55.39152 100.04554 77.71853
# Shear Modulus (GPa) = 41.44949 56.15358 48.80154
#
# Velocity S-wave (km/s) = 3.86676 4.50066 4.19570
# Velocity P-wave (km/s) = 6.31798 7.94335 7.17682
#
# Compressibility (1/GPa) = 0.01805331
#
# Stress axis : x y z
#
# Youngs Moduli (GPa) = 88.28869 90.19046 124.63637
#
# Poissons Ratio (x) = 0.18762 0.10811
# Poissons Ratio (y) = 0.18366 0.40438
# Poissons Ratio (z) = 0.07658 0.29262
#
# Static dielectric constant tensor:
#      x y z
#    x 2.409700 0.164970 -0.193400 
#    y 0.164970 2.242570 -0.183040 
#    z -0.193400 -0.183040 1.330900 
# 
# From -- ./inp_files/303655.got.cif
#   From: 2010.05.17/outbox.cif.g08.bks.cpg/sg2_152_cif.got.tgz:303655.got - 2010.06.03 11:33:40.
