data_PCOD9025553
_publ_section_title
;
Structure prediction by ZEFSAII (Michael W. Deem and Ramdas Pophale) SiO2 
 PCOD9025553
Probable space group: P -1
;
_chemical_formula_sum "Si O2"
_cell_formula_units_Z 14
_cell_length_a 13.236245
_cell_length_b 24.656501
_cell_length_c 25.541192
_cell_angle_alpha 168.760755
_cell_angle_beta 158.155081
_cell_angle_gamma 22.305068
_cell_volume 591.837977
_symmetry_space_group_name_H-M "P -1"
_symmetry_group_IT_number 2
_symmetry_cell_setting 'triclinic'
loop_
_space_group_symop_operation_xyz
x,y,z
-x,-y,-z
loop_
_atom_site_type_symbol
_atom_site_label
_atom_site_fract_x
_atom_site_fract_y
_atom_site_fract_z
Si Si1 0.742189 0.762385 0.187897
Si Si2 0.914336 0.716034 0.342936
Si Si3 0.899978 0.222091 0.207817
Si Si4 0.120452 0.931466 0.834778
Si Si5 0.367025 0.623949 0.311786
Si Si6 0.234586 0.853407 0.232313
Si Si7 0.528092 0.604855 0.553372
O O1 0.764180 0.801560 0.297095
O O2 0.058865 0.682628 0.243177
O O3 0.581235 0.057445 0.364484
O O4 0.621945 0.500520 0.859973
O O5 0.241120 0.595846 0.377902
O O6 0.927762 0.970667 0.630722
O O7 0.764048 0.475544 0.066987
O O8 0.004269 0.085062 0.183536
O O9 0.573344 0.368216 0.197734
O O10 0.000000 0.500000 0.500000
O O11 0.000000 0.000000 0.000000
O O12 0.230019 0.615264 0.567003
O O13 0.911743 0.084034 0.834733
O O14 0.374203 0.097248 0.116629
O O15 0.500000 0.000000 0.500000
O O16 0.500000 0.500000 0.500000
#
# Coordination Sequence:
#
# PCOD9025553 Si02
#       7
#     2   2   2   2   2   2   2
#     4  10  22  40  69  97 131 170 216 288 344 395
#     4  12  24  41  68 101 129 173 222 269 347 411
#     4  12  27  45  69  98 136 189 237 278 338 413
#     4  12  25  45  68 101 137 177 225 293 342 398
#     4  10  22  43  64  97 133 169 226 283 338 392
#     4  12  26  43  63  94 138 176 217 266 332 421
#     4  12  22  42  73 101 136 170 222 289 347 410
#
# _framework density 23.655121999999999
#
# number of rings (size 3 to 8) (size 9 to 14) (size 15 to 20)
#    0.000    0.571    2.857    5.143    0.000    6.857 
#    0.000    0.000    0.000    0.000    0.000    0.000 
#    0.000    0.000    0.000    0.000    0.000    0.000 
#
# Total GULP energy -78260.393244 kJ/mol
# GULP energy per Si atom -5590.028089 kJ/mol
# Density = 2.360128 g / cm^3
# Si number density = 23.655122 Si / 1000 Ang^3
#
#
#
# Elastic Constant Matrix: (Units=GPa)
#
#
# Indices 1 2 3 4 5 6 
#
# 1 112.4892 7.3222 30.7555 0.6698 -26.2051 24.8232
# 2 7.3222 63.0750 16.4981 0.7094 -1.8198 5.1132
# 3 30.7555 16.4981 137.5345 10.3849 -6.6306 2.8581
# 4 0.6698 0.7094 10.3849 38.9447 -14.1537 -2.9433
# 5 -26.2051 -1.8198 -6.6306 -14.1537 34.7644 -5.7647
# 6 24.8232 5.1132 2.8581 -2.9433 -5.7647 35.6006
#
#
#
# Elastic Compliance Matrix: (Units=1/GPa)
#
#
# Indices 1 2 3 4 5 6 
#
# 1 0.013518 -0.000036 -0.002655 0.003522 0.009903 -0.007312
# 2 -0.000036 0.016542 -0.001932 0.000108 0.000156 -0.002162
# 3 -0.002655 -0.001932 0.008199 -0.002536 -0.001400 0.001034
# 4 0.003522 0.000108 -0.002536 0.032257 0.015800 0.002957
# 5 0.009903 0.000156 -0.001400 0.015800 0.042635 0.001395
# 6 -0.007312 -0.002162 0.001034 0.002957 0.001395 0.033886
#
#
# Mechanical properties :
#
#
# Convention : Reuss Voigt Hill
#
# Bulk Modulus (GPa) = 34.46775 46.91672 40.69224
# Shear Modulus (GPa) = 30.12897 39.09682 34.61289
#
# Velocity S-wave (km/s) = 3.57273 4.06986 3.82937
# Velocity P-wave (km/s) = 5.62333 6.47778 6.06562
#
# Compressibility (1/GPa) = 0.02901262
#
# Stress axis : x y z
#
# Youngs Moduli (GPa) = 73.97801 60.45156 121.96753
#
# Poissons Ratio (x) = 0.00217 0.32384
# Poissons Ratio (y) = 0.00265 0.23564
# Poissons Ratio (z) = 0.19642 0.11679
#
# Static dielectric constant tensor:
#      x y z
#    x 1.998800 -0.134680 -0.067100 
#    y -0.134680 2.100340 0.013290 
#    z -0.067100 0.013290 1.862420 
# 
# From -- ./inp_files/620006.got.cif
#   From: 2010.05.17/outbox.cif.g08.bks.cpg/sg2_311_cif.got.tgz:620006.got - 2010.06.03 11:33:40.
