data_PCOD9025524
_publ_section_title
;
Structure prediction by ZEFSAII (Michael W. Deem and Ramdas Pophale) SiO2 
 PCOD9025524
Probable space group: P -1
;
_chemical_formula_sum "Si O2"
_cell_formula_units_Z 12
_cell_length_a 13.929901
_cell_length_b 4.962899
_cell_length_c 8.729735
_cell_angle_alpha 73.345555
_cell_angle_beta 125.900467
_cell_angle_gamma 89.031930
_cell_volume 454.862742
_symmetry_space_group_name_H-M "P -1"
_symmetry_group_IT_number 2
_symmetry_cell_setting 'triclinic'
loop_
_space_group_symop_operation_xyz
x,y,z
-x,-y,-z
loop_
_atom_site_type_symbol
_atom_site_label
_atom_site_fract_x
_atom_site_fract_y
_atom_site_fract_z
Si Si1 0.359645 0.181322 0.240369
Si Si2 0.232780 0.946223 0.719893
Si Si3 0.298576 0.737312 0.488803
Si Si4 0.132081 0.423259 0.782882
Si Si5 0.947003 0.327912 0.847840
Si Si6 0.458387 0.707583 0.179528
O O1 0.354958 0.958379 0.406128
O O2 0.443258 0.998343 0.215077
O O3 0.401678 0.475841 0.259701
O O4 0.225870 0.272254 0.027193
O O5 0.235407 0.920186 0.545329
O O6 0.144723 0.748487 0.730185
O O7 0.185081 0.251086 0.707982
O O8 0.369069 0.797471 0.936211
O O9 0.197574 0.628511 0.313372
O O10 0.403182 0.463137 0.688325
O O11 0.003245 0.390720 0.727580
O O12 0.000000 0.500000 0.000000
O O13 0.000000 0.000000 0.000000
#
# Coordination Sequence:
#
# PCOD9025524 Si02
#       6
#     2   2   2   2   2   2
#     4  10  22  40  69  94 135 173 220 272 324 393
#     4  10  24  42  70  97 138 172 212 275 333 403
#     4  12  25  42  70 103 132 176 225 270 333 391
#     4  10  22  46  64  94 136 177 216 267 337 379
#     4  12  27  44  70  98 132 173 228 281 314 391
#     4  10  23  43  65 101 136 173 213 274 335 395
#
# _framework density 26.381584
#
# number of rings (size 3 to 8) (size 9 to 14) (size 15 to 20)
#    0.000    1.333    1.667    2.500    4.667    6.667 
#    0.000    5.000    0.000    0.000    0.000    0.000 
#    0.000    0.000    0.000    0.000    0.000    0.000 
#
# Total GULP energy -67377.763045 kJ/mol
# GULP energy per Si atom -5614.813587 kJ/mol
# Density = 2.632154 g / cm^3
# Si number density = 26.381584 Si / 1000 Ang^3
#
#
#
# Elastic Constant Matrix: (Units=GPa)
#
#
# Indices 1 2 3 4 5 6 
#
# 1 67.0388 12.2043 23.4003 14.0745 8.0065 -11.2005
# 2 12.2043 111.3666 37.2897 14.8360 15.6044 7.5004
# 3 23.4003 37.2897 135.7168 8.6959 18.0771 8.4725
# 4 14.0745 14.8360 8.6959 37.6780 0.3735 0.4755
# 5 8.0065 15.6044 18.0771 0.3735 41.9748 4.1785
# 6 -11.2005 7.5004 8.4725 0.4755 4.1785 28.3381
#
#
#
# Elastic Compliance Matrix: (Units=1/GPa)
#
#
# Indices 1 2 3 4 5 6 
#
# 1 0.019284 -0.000454 -0.002949 -0.006429 -0.003097 0.009188
# 2 -0.000454 0.010734 -0.002160 -0.003507 -0.002752 -0.001910
# 3 -0.002949 -0.002160 0.008950 -0.000054 -0.002195 -0.002945
# 4 -0.006429 -0.003507 -0.000054 0.030342 0.002530 -0.002479
# 5 -0.003097 -0.002752 -0.002195 0.002530 0.026741 -0.003825
# 6 0.009188 -0.001910 -0.002945 -0.002479 -0.003825 0.040911
#
#
# Mechanical properties :
#
#
# Convention : Reuss Voigt Hill
#
# Bulk Modulus (GPa) = 35.91972 51.10121 43.51046
# Shear Modulus (GPa) = 31.77231 37.68005 34.72618
#
# Velocity S-wave (km/s) = 3.47412 3.78335 3.63203
# Velocity P-wave (km/s) = 5.45323 6.20460 5.84101
#
# Compressibility (1/GPa) = 0.02783986
#
# Stress axis : x y z
#
# Youngs Moduli (GPa) = 51.85757 93.16239 111.73016
#
# Poissons Ratio (x) = 0.04231 0.32952
# Poissons Ratio (y) = 0.02355 0.24139
# Poissons Ratio (z) = 0.15294 0.20127
#
# Static dielectric constant tensor:
#      x y z
#    x 2.050910 -0.005240 0.012460 
#    y -0.005240 1.956850 0.005860 
#    z 0.012460 0.005860 2.028280 
# 
# From -- ./inp_files/287869.got.cif
#   From: 2010.05.17/outbox.cif.g08.bks.cpg/sg2_144_cif.got.tgz:287869.got - 2010.06.03 11:33:40.
