data_PCOD9025692
_publ_section_title
;
Structure prediction by ZEFSAII (Michael W. Deem and Ramdas Pophale) SiO2 
 PCOD9025692
Probable space group: P -1
;
_chemical_formula_sum "Si O2"
_cell_formula_units_Z 14
_cell_length_a 9.383990
_cell_length_b 22.495322
_cell_length_c 5.291529
_cell_angle_alpha 77.467510
_cell_angle_beta 100.724221
_cell_angle_gamma 40.824686
_cell_volume 595.867324
_symmetry_space_group_name_H-M "P -1"
_symmetry_group_IT_number 2
_symmetry_cell_setting 'triclinic'
loop_
_space_group_symop_operation_xyz
x,y,z
-x,-y,-z
loop_
_atom_site_type_symbol
_atom_site_label
_atom_site_fract_x
_atom_site_fract_y
_atom_site_fract_z
Si Si1 0.436363 0.349082 0.746064
Si Si2 0.355269 0.029790 0.174001
Si Si3 0.798343 0.381792 0.126607
Si Si4 0.841719 0.287483 0.717015
Si Si5 0.698151 0.142941 0.048683
Si Si6 0.688630 0.091846 0.590026
Si Si7 0.033430 0.544991 0.780325
O O1 0.571762 0.343077 0.582592
O O2 0.204638 0.384486 0.554791
O O3 0.302430 0.440409 0.815549
O O4 0.655405 0.227392 0.040661
O O5 0.500000 0.000000 0.500000
O O6 0.364045 0.954366 0.262595
O O7 0.070788 0.158965 0.953967
O O8 0.500000 0.000000 0.000000
O O9 0.892542 0.305795 0.457912
O O10 0.952908 0.392111 0.162144
O O11 0.500000 0.500000 0.000000
O O12 0.823394 0.339315 0.904422
O O13 0.573213 0.145449 0.225946
O O14 0.607916 0.167996 0.706213
O O15 0.998924 0.018214 0.243159
O O16 0.000000 0.500000 0.000000
#
# Coordination Sequence:
#
# PCOD9025692 Si02
#       7
#     2   2   2   2   2   2   2
#     4  11  25  45  72 103 143 186 240 290 354 425
#     4  12  26  47  69 102 146 182 237 298 347 426
#     4  12  26  47  76 106 148 187 243 294 354 438
#     4  12  27  48  76 106 139 203 237 286 373 429
#     4  10  22  40  70  97 129 179 222 284 336 411
#     4  10  22  42  65 100 133 170 231 278 340 402
#     4  11  27  46  69 107 144 183 234 304 348 417
#
# _framework density 23.495162000000001
#
# number of rings (size 3 to 8) (size 9 to 14) (size 15 to 20)
#    0.000    0.857    2.857    3.000    6.000    3.429 
#    0.000    0.000    0.000    0.000    0.000    0.000 
#    0.000    0.000    0.000    0.000    0.000    0.000 
#
# Total GULP energy -78280.357105 kJ/mol
# GULP energy per Si atom -5591.454079 kJ/mol
# Density = 2.344169 g / cm^3
# Si number density = 23.495162 Si / 1000 Ang^3
#
#
#
# Elastic Constant Matrix: (Units=GPa)
#
#
# Indices 1 2 3 4 5 6 
#
# 1 117.6049 21.0998 19.1391 13.9405 -22.7510 3.0708
# 2 21.0998 92.1372 7.3058 1.9200 1.8978 -8.2554
# 3 19.1391 7.3058 73.2323 17.2324 -21.8711 -15.2238
# 4 13.9405 1.9200 17.2324 35.4232 -1.1843 -5.5793
# 5 -22.7510 1.8978 -21.8711 -1.1843 40.4387 3.5145
# 6 3.0708 -8.2554 -15.2238 -5.5793 3.5145 29.8541
#
#
#
# Elastic Compliance Matrix: (Units=1/GPa)
#
#
# Indices 1 2 3 4 5 6 
#
# 1 0.010887 -0.002823 -0.000470 -0.004274 0.006197 -0.003668
# 2 -0.002823 0.011935 -0.000864 0.001378 -0.002901 0.003749
# 3 -0.000470 -0.000864 0.020271 -0.008124 0.009853 0.007468
# 4 -0.004274 0.001378 -0.008124 0.034180 -0.006191 0.003795
# 5 0.006197 -0.002901 0.009853 -0.006191 0.033632 -0.001532
# 6 -0.003668 0.003749 0.007468 0.003795 -0.001532 0.039608
#
#
# Mechanical properties :
#
#
# Convention : Reuss Voigt Hill
#
# Bulk Modulus (GPa) = 28.75311 42.00709 35.38010
# Shear Modulus (GPa) = 29.33907 36.83853 33.08880
#
# Velocity S-wave (km/s) = 3.53757 3.96399 3.75684
# Velocity P-wave (km/s) = 5.38055 6.23449 5.82319
#
# Compressibility (1/GPa) = 0.03477885
#
# Stress axis : x y z
#
# Youngs Moduli (GPa) = 91.85035 83.78424 49.33199
#
# Poissons Ratio (x) = 0.23654 0.02318
# Poissons Ratio (y) = 0.25932 0.04263
# Poissons Ratio (z) = 0.04316 0.07241
#
# Static dielectric constant tensor:
#      x y z
#    x 1.825790 -0.084740 0.113000 
#    y -0.084740 1.783600 0.033020 
#    z 0.113000 0.033020 1.962780 
# 
# From -- ./inp_files/27211.got.cif
#   From: 2010.05.17/outbox.cif.g08.bks.cpg/sg2_14_cif.got.tgz:27211.got - 2010.06.03 11:33:40.
