data_PCOD9025344
_publ_section_title
;
Structure prediction by ZEFSAII (Michael W. Deem and Ramdas Pophale) SiO2 
 PCOD9025344
Probable space group: P -1
;
_chemical_formula_sum "Si O2"
_cell_formula_units_Z 16
_cell_length_a 12.196653
_cell_length_b 16.885387
_cell_length_c 5.332869
_cell_angle_alpha 95.972977
_cell_angle_beta 61.472269
_cell_angle_gamma 124.274971
_cell_volume 776.527011
_symmetry_space_group_name_H-M "P -1"
_symmetry_group_IT_number 2
_symmetry_cell_setting 'triclinic'
loop_
_space_group_symop_operation_xyz
x,y,z
-x,-y,-z
loop_
_atom_site_type_symbol
_atom_site_label
_atom_site_fract_x
_atom_site_fract_y
_atom_site_fract_z
Si Si1 0.990549 0.422460 0.672239
Si Si2 0.031966 0.287073 0.292339
Si Si3 0.083884 0.933030 0.635107
Si Si4 0.371505 0.390556 0.199014
Si Si5 0.204738 0.056598 0.041298
Si Si6 0.229612 0.438488 0.742928
Si Si7 0.505441 0.270307 0.864285
Si Si8 0.688751 0.365003 0.178308
O O1 0.000000 0.500000 0.500000
O O2 0.946228 0.324256 0.548521
O O3 0.160806 0.466211 0.602162
O O4 0.863548 0.398590 0.007411
O O5 0.202711 0.337576 0.240784
O O6 0.945471 0.171617 0.342841
O O7 0.078875 0.342160 0.993913
O O8 0.919165 0.917218 0.819686
O O9 0.158375 0.984766 0.305262
O O10 0.181565 0.002492 0.786112
O O11 0.337804 0.407591 0.525113
O O12 0.500000 0.500000 0.000000
O O13 0.422549 0.321414 0.054428
O O14 0.373553 0.155554 0.928560
O O15 0.306545 0.537494 0.851703
O O16 0.595557 0.315333 0.518672
O O17 0.613866 0.295259 0.993752
#
# Coordination Sequence:
#
# PCOD9025344 Si02
#       8
#     2   2   2   2   2   2   2   2
#     4  11  24  43  63  93 134 175 233 269 308 378
#     4  11  24  39  66  97 129 177 213 278 317 386
#     4  10  22  40  68  95 127 167 217 269 331 377
#     4  11  23  38  57  97 140 168 205 255 332 406
#     4  10  22  42  65  95 130 165 213 275 324 398
#     4  11  24  38  65  92 134 175 217 270 316 386
#     4  12  25  41  67  94 135 174 211 266 336 402
#     4  12  25  41  64  93 131 182 216 256 326 390
#
# _framework density 20.604565000000001
#
# number of rings (size 3 to 8) (size 9 to 14) (size 15 to 20)
#    0.000    1.000    3.750    2.625    7.000    2.000 
#    0.000    0.000    0.000    4.500    0.000    0.000 
#    0.000    0.000    0.000    0.000    0.000    0.000 
#
# Total GULP energy -89389.389443 kJ/mol
# GULP energy per Si atom -5586.836840 kJ/mol
# Density = 2.055767 g / cm^3
# Si number density = 20.604565 Si / 1000 Ang^3
#
#
#
# Elastic Constant Matrix: (Units=GPa)
#
#
# Indices 1 2 3 4 5 6 
#
# 1 65.2835 28.9916 19.9890 2.7486 4.4859 12.6288
# 2 28.9916 150.1082 44.7462 -6.6920 6.0230 6.2831
# 3 19.9890 44.7462 115.4335 8.3881 -2.8504 -4.0702
# 4 2.7486 -6.6920 8.3881 31.2526 -2.6838 -3.1012
# 5 4.4859 6.0230 -2.8504 -2.6838 34.7490 4.1560
# 6 12.6288 6.2831 -4.0702 -3.1012 4.1560 28.4704
#
#
#
# Elastic Compliance Matrix: (Units=1/GPa)
#
#
# Indices 1 2 3 4 5 6 
#
# 1 0.019044 -0.002673 -0.002403 -0.002543 -0.001399 -0.008274
# 2 -0.002673 0.008251 -0.002976 0.002649 -0.001051 -0.000619
# 3 -0.002403 -0.002976 0.010568 -0.002891 0.001140 0.002752
# 4 -0.002543 0.002649 -0.002891 0.034077 0.001836 0.003574
# 5 -0.001399 -0.001051 0.001140 0.001836 0.029750 -0.003127
# 6 -0.008274 -0.000619 0.002752 0.003574 -0.003127 0.040170
#
#
# Mechanical properties :
#
#
# Convention : Reuss Voigt Hill
#
# Bulk Modulus (GPa) = 45.95600 57.58652 51.77126
# Shear Modulus (GPa) = 30.26309 34.70096 32.48203
#
# Velocity S-wave (km/s) = 3.83659 4.10828 3.97476
# Velocity P-wave (km/s) = 6.47905 7.10725 6.80041
#
# Compressibility (1/GPa) = 0.02175994
#
# Stress axis : x y z
#
# Youngs Moduli (GPa) = 52.50886 121.19260 94.62490
#
# Poissons Ratio (x) = 0.32391 0.22741
# Poissons Ratio (y) = 0.14034 0.28160
# Poissons Ratio (z) = 0.12619 0.36066
#
# Static dielectric constant tensor:
#      x y z
#    x 1.804160 0.037550 0.062610 
#    y 0.037550 1.732310 0.047560 
#    z 0.062610 0.047560 1.812760 
# 
# From -- ./inp_files/77795.got.cif
#   From: 2010.05.17/outbox.cif.g08.bks.cpg/sg2_39_cif.got.tgz:77795.got - 2010.06.03 11:33:40.
