data_PCOD9025393
_publ_section_title
;
Structure prediction by ZEFSAII (Michael W. Deem and Ramdas Pophale) SiO2 
 PCOD9025393
Probable space group: P -1
;
_chemical_formula_sum "Si O2"
_cell_formula_units_Z 14
_cell_length_a 20.700050
_cell_length_b 5.191305
_cell_length_c 7.174258
_cell_angle_alpha 102.948234
_cell_angle_beta 127.866238
_cell_angle_gamma 63.029330
_cell_volume 540.808260
_symmetry_space_group_name_H-M "P -1"
_symmetry_group_IT_number 2
_symmetry_cell_setting 'triclinic'
loop_
_space_group_symop_operation_xyz
x,y,z
-x,-y,-z
loop_
_atom_site_type_symbol
_atom_site_label
_atom_site_fract_x
_atom_site_fract_y
_atom_site_fract_z
Si Si1 0.361954 0.819315 0.833523
Si Si2 0.053537 0.156357 0.516159
Si Si3 0.309319 0.286199 0.260517
Si Si4 0.093522 0.284351 0.222220
Si Si5 0.751289 0.547827 0.400210
Si Si6 0.213971 0.898511 0.035180
Si Si7 0.472064 0.412033 0.631512
O O1 0.405518 0.678610 0.687471
O O2 0.291775 0.683676 0.746939
O O3 0.311291 0.159544 0.768823
O O4 0.443448 0.742540 0.109056
O O5 0.000000 0.500000 0.500000
O O6 0.929124 0.887957 0.679959
O O7 0.145606 0.037839 0.771000
O O8 0.000000 0.000000 0.500000
O O9 0.293564 0.999564 0.161205
O O10 0.411442 0.239127 0.447491
O O11 0.252806 0.553379 0.067875
O O12 0.148600 0.458932 0.439971
O O13 0.157871 0.057905 0.147662
O O14 0.000000 0.500000 0.000000
O O15 0.734034 0.597577 0.597600
O O16 0.500000 0.500000 0.500000
#
# Coordination Sequence:
#
# PCOD9025393 Si02
#       7
#     2   2   2   2   2   2   2
#     4  10  23  44  64  94 135 170 210 275 321 383
#     4  12  27  44  64  98 132 169 220 276 329 384
#     4  10  22  42  67  97 130 174 213 270 325 386
#     4  11  24  44  71  97 128 178 225 270 328 395
#     4  10  22  43  67  93 131 174 219 264 331 384
#     4  11  24  45  68  92 138 171 217 271 330 383
#     4  10  22  40  68  98 130 170 218 262 325 392
#
# _framework density 25.887179
#
# number of rings (size 3 to 8) (size 9 to 14) (size 15 to 20)
#    0.000    1.429    1.429    4.286    2.000   12.571 
#    0.000   10.000    0.000    0.000    0.000    0.000 
#    0.000    0.000    0.000    0.000    0.000    0.000 
#
# Total GULP energy -78554.155500 kJ/mol
# GULP energy per Si atom -5611.011107 kJ/mol
# Density = 2.582826 g / cm^3
# Si number density = 25.887179 Si / 1000 Ang^3
#
#
#
# Elastic Constant Matrix: (Units=GPa)
#
#
# Indices 1 2 3 4 5 6 
#
# 1 189.9997 81.5770 70.1437 0.5364 3.7123 16.5882
# 2 81.5770 162.3637 55.2359 -21.4817 -6.4292 16.0661
# 3 70.1437 55.2359 154.1988 -21.3884 6.7800 9.6001
# 4 0.5364 -21.4817 -21.3884 44.3806 4.6231 -2.5130
# 5 3.7123 -6.4292 6.7800 4.6231 46.8894 0.1467
# 6 16.5882 16.0661 9.6001 -2.5130 0.1467 52.1883
#
#
#
# Elastic Compliance Matrix: (Units=1/GPa)
#
#
# Indices 1 2 3 4 5 6 
#
# 1 0.007787 -0.003300 -0.002692 -0.003012 -0.000379 -0.001108
# 2 -0.003300 0.008861 -0.001155 0.003564 0.001296 -0.001299
# 3 -0.002692 -0.001155 0.008738 0.003838 -0.001587 -0.000207
# 4 -0.003012 0.003564 0.003838 0.026422 -0.002434 0.000433
# 5 -0.000379 0.001296 -0.001587 -0.002434 0.022004 -0.000166
# 6 -0.001108 -0.001299 -0.000207 0.000433 -0.000166 0.019973
#
#
# Mechanical properties :
#
#
# Convention : Reuss Voigt Hill
#
# Bulk Modulus (GPa) = 90.15303 102.27503 96.21403
# Shear Modulus (GPa) = 44.73180 48.66536 46.69858
#
# Velocity S-wave (km/s) = 4.16137 4.34049 4.25187
# Velocity P-wave (km/s) = 7.61514 8.04447 7.83275
#
# Compressibility (1/GPa) = 0.01109225
#
# Stress axis : x y z
#
# Youngs Moduli (GPa) = 128.42463 112.84838 114.43726
#
# Poissons Ratio (x) = 0.37245 0.30807
# Poissons Ratio (y) = 0.42385 0.13214
# Poissons Ratio (z) = 0.34572 0.13031
#
# Static dielectric constant tensor:
#      x y z
#    x 1.967560 -0.163800 -0.245640 
#    y -0.163800 1.961470 -0.074110 
#    z -0.245640 -0.074110 1.750180 
# 
# From -- ./inp_files/350749.got.cif
#   From: 2010.05.17/outbox.cif.g08.bks.cpg/sg2_176_cif.got.tgz:350749.got - 2010.06.03 11:33:40.
