data_PCOD9025601
_publ_section_title
;
Structure prediction by ZEFSAII (Michael W. Deem and Ramdas Pophale) SiO2 
 PCOD9025601
Probable space group: P -1
;
_chemical_formula_sum "Si O2"
_cell_formula_units_Z 15
_cell_length_a 12.939146
_cell_length_b 24.633997
_cell_length_c 4.922975
_cell_angle_alpha 68.959156
_cell_angle_beta 71.823637
_cell_angle_gamma 22.868396
_cell_volume 568.372102
_symmetry_space_group_name_H-M "P -1"
_symmetry_group_IT_number 2
_symmetry_cell_setting 'triclinic'
loop_
_space_group_symop_operation_xyz
x,y,z
-x,-y,-z
loop_
_atom_site_type_symbol
_atom_site_label
_atom_site_fract_x
_atom_site_fract_y
_atom_site_fract_z
Si Si1 0.586775 0.140310 0.478483
Si Si2 0.000000 0.500000 0.000000
Si Si3 0.063519 0.356804 0.843988
Si Si4 0.745311 0.262381 0.737871
Si Si5 0.318293 0.124417 0.216122
Si Si6 0.429531 0.774487 0.172809
Si Si7 0.544467 0.547129 0.870886
Si Si8 0.167931 0.091995 0.124158
O O1 0.293973 0.265112 0.608999
O O2 0.571726 0.170969 0.132844
O O3 0.794773 0.986433 0.607147
O O4 0.658831 0.158653 0.584527
O O5 0.738351 0.605839 0.207955
O O6 0.962630 0.462770 0.890915
O O7 0.831118 0.432471 0.759742
O O8 0.180711 0.253065 0.157418
O O9 0.671860 0.319780 0.395540
O O10 0.745247 0.192899 0.851780
O O11 0.513527 0.399078 0.880377
O O12 0.000826 0.163394 0.861133
O O13 0.107488 0.180809 0.173958
O O14 0.500000 0.000000 0.500000
O O15 0.528233 0.042981 0.966622
O O16 0.500000 0.500000 0.000000
#
# Coordination Sequence:
#
# PCOD9025601 Si02
#       8
#     2   1   2   2   2   2   2   2
#     4  10  25  42  72 103 137 190 240 298 357 413
#     4  10  22  40  70 100 146 182 240 290 354 424
#     4  10  23  44  72 106 143 190 244 304 358 433
#     4  12  27  46  70 104 145 191 235 295 367 437
#     4  10  23  45  73 101 136 189 241 306 357 422
#     4  11  24  43  67 106 142 187 238 296 357 426
#     4  12  27  46  69 106 144 193 236 295 366 437
#     4  10  25  44  68 103 141 187 244 295 359 436
#
# _framework density 26.391159999999999
#
# number of rings (size 3 to 8) (size 9 to 14) (size 15 to 20)
#    0.000    1.333    1.333    2.000   11.200    2.133 
#    2.400    0.000    0.000    0.000    0.000    0.000 
#    0.000    0.000    0.000    0.000    0.000    0.000 
#
# Total GULP energy -83764.356631 kJ/mol
# GULP energy per Si atom -5584.290442 kJ/mol
# Density = 2.633109 g / cm^3
# Si number density = 26.391160 Si / 1000 Ang^3
#
#
#
# Elastic Constant Matrix: (Units=GPa)
#
#
# Indices 1 2 3 4 5 6 
#
# 1 192.2279 28.2688 22.2215 -17.9912 1.6450 -16.2702
# 2 28.2688 59.1380 8.7093 -3.9238 -4.7807 -9.5850
# 3 22.2215 8.7093 77.1114 -17.2566 -6.5400 2.5480
# 4 -17.9912 -3.9238 -17.2566 29.6565 2.3328 1.2573
# 5 1.6450 -4.7807 -6.5400 2.3328 32.0488 5.1384
# 6 -16.2702 -9.5850 2.5480 1.2573 5.1384 30.7243
#
#
#
# Elastic Compliance Matrix: (Units=1/GPa)
#
#
# Indices 1 2 3 4 5 6 
#
# 1 0.006178 -0.002273 -0.001120 0.002797 -0.001537 0.002798
# 2 -0.002273 0.019109 -0.001506 -0.000073 0.001934 0.004562
# 3 -0.001120 -0.001506 0.015633 0.008121 0.002942 -0.003184
# 4 0.002797 -0.000073 0.008121 0.040264 -0.001325 -0.000641
# 5 -0.001537 0.001934 0.002942 -0.001325 0.033222 -0.005957
# 6 0.002798 0.004562 -0.003184 -0.000641 -0.005957 0.036739
#
#
# Mechanical properties :
#
#
# Convention : Reuss Voigt Hill
#
# Bulk Modulus (GPa) = 32.13294 49.65294 40.89294
# Shear Modulus (GPa) = 29.18555 36.43776 32.81165
#
# Velocity S-wave (km/s) = 3.32909 3.71978 3.52985
# Velocity P-wave (km/s) = 5.19415 6.10771 5.66936
#
# Compressibility (1/GPa) = 0.03112071
#
# Stress axis : x y z
#
# Youngs Moduli (GPa) = 161.87170 52.33144 63.96542
#
# Poissons Ratio (x) = 0.11896 0.07166
# Poissons Ratio (y) = 0.36797 0.09634
# Poissons Ratio (z) = 0.18134 0.07882
#
# Static dielectric constant tensor:
#      x y z
#    x 1.970320 -0.114870 0.014900 
#    y -0.114870 2.122340 -0.025340 
#    z 0.014900 -0.025340 2.049930 
# 
# From -- ./inp_files/84215.got.cif
#   From: 2010.05.17/outbox.cif.g08.bks.cpg/sg2_43_cif.got.tgz:84215.got - 2010.06.03 11:33:40.
