data_PCOD9025965
_publ_section_title
;
Structure prediction by ZEFSAII (Michael W. Deem and Ramdas Pophale) SiO2 
 PCOD9025965
Probable space group: P -1
;
_chemical_formula_sum "Si O2"
_cell_formula_units_Z 16
_cell_length_a 5.200871
_cell_length_b 27.307459
_cell_length_c 15.033084
_cell_angle_alpha 154.292761
_cell_angle_beta 114.020428
_cell_angle_gamma 62.109972
_cell_volume 817.970910
_symmetry_space_group_name_H-M "P -1"
_symmetry_group_IT_number 2
_symmetry_cell_setting 'triclinic'
loop_
_space_group_symop_operation_xyz
x,y,z
-x,-y,-z
loop_
_atom_site_type_symbol
_atom_site_label
_atom_site_fract_x
_atom_site_fract_y
_atom_site_fract_z
Si Si1 0.957124 0.339262 0.857291
Si Si2 0.325631 0.478987 0.231728
Si Si3 0.762396 0.426024 0.355331
Si Si4 0.977122 0.704962 0.663435
Si Si5 0.149858 0.034515 0.990336
Si Si6 0.967436 0.838200 0.551665
Si Si7 0.499228 0.355204 0.602771
Si Si8 0.690829 0.658422 0.258083
O O1 0.048080 0.201563 0.618021
O O2 0.611942 0.362425 0.851948
O O3 0.064243 0.385268 0.854092
O O4 0.125386 0.390332 0.039618
O O5 0.614383 0.414258 0.220953
O O6 0.405069 0.536180 0.246096
O O7 0.166404 0.592102 0.452582
O O8 0.500000 0.500000 0.500000
O O9 0.000000 0.500000 0.500000
O O10 0.916850 0.312466 0.248717
O O11 0.970524 0.828943 0.823738
O O12 0.653798 0.691592 0.577464
O O13 0.500000 0.000000 0.000000
O O14 0.033313 0.960863 0.777569
O O15 0.000000 0.000000 0.000000
O O16 0.238949 0.747822 0.491958
O O17 0.696949 0.796516 0.489479
O O18 0.287828 0.385601 0.709380
#
# Coordination Sequence:
#
# PCOD9025965 Si02
#       8
#     2   2   2   2   2   2   2   2
#     4   9  22  36  56  79 117 158 193 232 290 343
#     4  11  23  37  59  86 116 160 194 246 288 349
#     4  10  22  41  60  83 118 154 198 247 290 343
#     4  11  24  37  60  90 121 153 199 241 297 348
#     4  12  24  37  62  86 118 159 191 239 292 354
#     4   9  21  38  52  83 119 153 193 230 287 347
#     4  11  18  34  56  82 123 149 193 227 291 354
#     4   9  20  35  52  81 114 155 189 230 279 355
#
# _framework density 19.560599
#
# number of rings (size 3 to 8) (size 9 to 14) (size 15 to 20)
#    0.750    1.000    2.500    2.250    3.500    2.500 
#    0.000    0.000    0.000    0.750    0.000    0.875 
#    0.000    0.125    0.000    0.000    0.000    0.625 
#
# Total GULP energy -89085.888282 kJ/mol
# GULP energy per Si atom -5567.868018 kJ/mol
# Density = 1.951608 g / cm^3
# Si number density = 19.560599 Si / 1000 Ang^3
#
#
#
# Elastic Constant Matrix: (Units=GPa)
#
#
# Indices 1 2 3 4 5 6 
#
# 1 99.7603 19.7988 20.7367 -3.3536 23.0861 -7.0757
# 2 19.7988 91.8039 40.0132 -1.1876 11.1403 -20.6678
# 3 20.7367 40.0132 133.0986 -16.5185 22.3132 -16.2330
# 4 -3.3536 -1.1876 -16.5185 24.6347 -2.8789 8.8750
# 5 23.0861 11.1403 22.3132 -2.8789 29.2172 -10.5404
# 6 -7.0757 -20.6678 -16.2330 8.8750 -10.5404 23.1660
#
#
#
# Elastic Compliance Matrix: (Units=1/GPa)
#
#
# Indices 1 2 3 4 5 6 
#
# 1 0.012650 -0.002345 0.000280 0.001829 -0.010382 -0.003456
# 2 -0.002345 0.016094 -0.004143 -0.007381 0.003646 0.015225
# 3 0.000280 -0.004143 0.010432 0.006743 -0.006629 -0.001901
# 4 0.001829 -0.007381 0.006743 0.053174 -0.007608 -0.025134
# 5 -0.010382 0.003646 -0.006629 -0.007608 0.053548 0.022715
# 6 -0.003456 0.015225 -0.001901 -0.025134 0.022715 0.074327
#
#
# Mechanical properties :
#
#
# Convention : Reuss Voigt Hill
#
# Bulk Modulus (GPa) = 37.36995 53.97336 45.67166
# Shear Modulus (GPa) = 20.69881 31.67785 26.18833
#
# Velocity S-wave (km/s) = 3.25651 4.02863 3.66297
# Velocity P-wave (km/s) = 5.76940 7.02087 6.42568
#
# Compressibility (1/GPa) = 0.02675947
#
# Stress axis : x y z
#
# Youngs Moduli (GPa) = 79.05084 62.13437 95.86242
#
# Poissons Ratio (x) = 0.14569 -0.02683
# Poissons Ratio (y) = 0.18536 0.39719
# Poissons Ratio (z) = -0.02213 0.25744
#
# Static dielectric constant tensor:
#      x y z
#    x 1.791530 -0.005130 -0.038300 
#    y -0.005130 1.708710 -0.056270 
#    z -0.038300 -0.056270 1.809100 
# 
# From -- ./inp_files/551494.got.cif
#   From: 2010.05.17/outbox.cif.g08.bks.cpg/sg2_276_cif.got.tgz:551494.got - 2010.06.03 11:33:40.
