data_PCOD9025587
_publ_section_title
;
Structure prediction by ZEFSAII (Michael W. Deem and Ramdas Pophale) SiO2 
 PCOD9025587
Probable space group: P -1
;
_chemical_formula_sum "Si O2"
_cell_formula_units_Z 15
_cell_length_a 11.718386
_cell_length_b 8.816745
_cell_length_c 9.816644
_cell_angle_alpha 133.687087
_cell_angle_beta 87.164219
_cell_angle_gamma 94.122711
_cell_volume 731.519539
_symmetry_space_group_name_H-M "P -1"
_symmetry_group_IT_number 2
_symmetry_cell_setting 'triclinic'
loop_
_space_group_symop_operation_xyz
x,y,z
-x,-y,-z
loop_
_atom_site_type_symbol
_atom_site_label
_atom_site_fract_x
_atom_site_fract_y
_atom_site_fract_z
Si Si1 0.169221 0.175432 0.115133
Si Si2 0.500000 0.500000 0.500000
Si Si3 0.491355 0.748052 0.358382
Si Si4 0.902087 0.084251 0.462776
Si Si5 0.244772 0.564603 0.175584
Si Si6 0.076805 0.768085 0.740900
Si Si7 0.761620 0.603320 0.497160
Si Si8 0.259199 0.318122 0.769012
O O1 0.236642 0.345232 0.122762
O O2 0.220005 0.202146 0.280012
O O3 0.037610 0.242255 0.169566
O O4 0.163841 0.940858 0.913019
O O5 0.497611 0.654414 0.453859
O O6 0.638659 0.495012 0.473632
O O7 0.371974 0.665308 0.249100
O O8 0.603564 0.677615 0.228286
O O9 0.500000 0.000000 0.500000
O O10 0.842634 0.277202 0.657356
O O11 0.954157 0.149578 0.355004
O O12 0.803959 0.902945 0.325670
O O13 0.000000 0.000000 0.500000
O O14 0.217800 0.500600 0.982060
O O15 0.139102 0.555723 0.582906
O O16 0.768090 0.657783 0.372902
#
# Coordination Sequence:
#
# PCOD9025587 Si02
#       8
#     2   1   2   2   2   2   2   2
#     4  11  23  41  72  93 130 176 224 270 337 404
#     4  10  22  40  70 100 126 182 228 268 334 412
#     4  11  22  45  72  99 138 178 227 285 347 403
#     4  12  25  41  66  99 135 175 226 273 334 403
#     4  12  24  44  70  96 135 183 219 280 345 396
#     4  11  24  43  67  99 128 177 223 276 333 401
#     4  11  23  44  67  94 137 171 219 279 335 396
#     4  11  26  42  67 103 133 173 228 278 335 410
#
# _framework density 20.505261999999998
#
# number of rings (size 3 to 8) (size 9 to 14) (size 15 to 20)
#    0.000    0.800    5.333    1.600    1.867    3.733 
#    0.000    0.667    0.000    0.000    0.000    0.000 
#    0.000    0.000    0.000    0.000    0.000    0.000 
#
# Total GULP energy -83564.536849 kJ/mol
# GULP energy per Si atom -5570.969123 kJ/mol
# Density = 2.045859 g / cm^3
# Si number density = 20.505262 Si / 1000 Ang^3
#
#
#
# Elastic Constant Matrix: (Units=GPa)
#
#
# Indices 1 2 3 4 5 6 
#
# 1 40.3556 8.9648 1.2523 -2.6654 2.8306 16.8270
# 2 8.9648 65.0862 22.4342 -0.4662 9.1998 17.4715
# 3 1.2523 22.4342 119.4137 1.8629 17.8361 3.4910
# 4 -2.6654 -0.4662 1.8629 25.8611 0.2801 6.8829
# 5 2.8306 9.1998 17.8361 0.2801 23.3369 -2.1188
# 6 16.8270 17.4715 3.4910 6.8829 -2.1188 36.3682
#
#
#
# Elastic Compliance Matrix: (Units=1/GPa)
#
#
# Indices 1 2 3 4 5 6 
#
# 1 0.032936 0.000921 0.000878 0.008131 -0.006733 -0.017697
# 2 0.000921 0.020055 -0.002441 0.003619 -0.007188 -0.010930
# 3 0.000878 -0.002441 0.009847 -0.000462 -0.006708 -0.000482
# 4 0.008131 0.003619 -0.000462 0.043341 -0.003841 -0.013883
# 5 -0.006733 -0.007188 -0.006708 -0.003841 0.052674 0.011008
# 6 -0.017697 -0.010930 -0.000482 -0.013883 0.011008 0.044251
#
#
# Mechanical properties :
#
#
# Convention : Reuss Voigt Hill
#
# Bulk Modulus (GPa) = 16.24566 32.23978 24.24272
# Shear Modulus (GPa) = 22.23168 29.92686 26.07927
#
# Velocity S-wave (km/s) = 3.29628 3.82445 3.57015
# Velocity P-wave (km/s) = 4.73573 5.93790 5.37056
#
# Compressibility (1/GPa) = 0.06155490
#
# Stress axis : x y z
#
# Youngs Moduli (GPa) = 30.36164 49.86403 101.55529
#
# Poissons Ratio (x) = -0.04595 -0.08914
# Poissons Ratio (y) = -0.02798 0.24785
# Poissons Ratio (z) = -0.02665 0.12170
#
# Static dielectric constant tensor:
#      x y z
#    x 1.721110 0.010860 0.025630 
#    y 0.010860 1.753690 -0.027700 
#    z 0.025630 -0.027700 1.744180 
# 
# From -- ./inp_files/178380.got.cif
#   From: 2010.05.17/outbox.cif.g08.bks.cpg/sg2_90_cif.got.tgz:178380.got - 2010.06.03 11:33:40.
