data_PCOD9025549
_publ_section_title
;
Structure prediction by ZEFSAII (Michael W. Deem and Ramdas Pophale) SiO2 
 PCOD9025549
Probable space group: P -1
;
_chemical_formula_sum "Si O2"
_cell_formula_units_Z 14
_cell_length_a 8.923674
_cell_length_b 15.356090
_cell_length_c 5.371616
_cell_angle_alpha 68.182314
_cell_angle_beta 72.204527
_cell_angle_gamma 68.729153
_cell_volume 624.275881
_symmetry_space_group_name_H-M "P -1"
_symmetry_group_IT_number 2
_symmetry_cell_setting 'triclinic'
loop_
_space_group_symop_operation_xyz
x,y,z
-x,-y,-z
loop_
_atom_site_type_symbol
_atom_site_label
_atom_site_fract_x
_atom_site_fract_y
_atom_site_fract_z
Si Si1 0.447714 0.901593 0.110150
Si Si2 0.033461 0.342679 0.318398
Si Si3 0.666673 0.165309 0.274262
Si Si4 0.244504 0.686024 0.204428
Si Si5 0.659852 0.724783 0.455205
Si Si6 0.590260 0.579856 0.293258
Si Si7 0.862593 0.473702 0.857935
O O1 0.322645 0.894433 0.408909
O O2 0.611179 0.812118 0.185598
O O3 0.374953 0.890533 0.887226
O O4 0.500000 0.000000 0.000000
O O5 0.198315 0.273339 0.424776
O O6 0.038797 0.446562 0.328692
O O7 0.885099 0.302135 0.521735
O O8 0.995455 0.380177 0.017974
O O9 0.506376 0.253998 0.327221
O O10 0.795655 0.221855 0.059025
O O11 0.428726 0.669960 0.224767
O O12 0.233706 0.584520 0.198863
O O13 0.682185 0.621912 0.417111
O O14 0.500000 0.500000 0.500000
O O15 0.720911 0.534238 0.060000
#
# Coordination Sequence:
#
# PCOD9025549 Si02
#       7
#     2   2   2   2   2   2   2
#     4  10  22  43  72  99 121 155 210 271 327 389
#     4  11  25  38  54  87 129 176 218 254 311 369
#     4  10  22  40  69  97 122 157 208 266 322 380
#     4  12  22  39  58  87 124 169 218 266 306 363
#     4  10  24  39  63  91 127 165 213 259 316 385
#     4  12  21  38  59  87 124 171 220 262 307 360
#     4  11  25  36  57  82 132 183 218 256 303 369
#
# _framework density 22.425982000000001
#
# number of rings (size 3 to 8) (size 9 to 14) (size 15 to 20)
#    0.857    0.286    2.857    3.857    6.000    0.000 
#    0.000    0.000    0.000    1.714    0.000    0.000 
#    0.000    0.000    0.000    0.000    0.000    0.000 
#
# Total GULP energy -77980.908888 kJ/mol
# GULP energy per Si atom -5570.064921 kJ/mol
# Density = 2.237494 g / cm^3
# Si number density = 22.425982 Si / 1000 Ang^3
#
#
#
# Elastic Constant Matrix: (Units=GPa)
#
#
# Indices 1 2 3 4 5 6 
#
# 1 72.5674 -4.4619 -2.9147 -0.4989 9.9988 8.4567
# 2 -4.4619 74.8287 18.1830 -10.2190 -2.9223 26.6022
# 3 -2.9147 18.1830 87.8955 -10.6055 -13.7137 15.8096
# 4 -0.4989 -10.2190 -10.6055 31.0477 10.9058 2.9966
# 5 9.9988 -2.9223 -13.7137 10.9058 39.3974 -1.7208
# 6 8.4567 26.6022 15.8096 2.9966 -1.7208 21.1225
#
#
#
# Elastic Compliance Matrix: (Units=1/GPa)
#
#
# Indices 1 2 3 4 5 6 
#
# 1 0.018167 0.009688 0.002901 0.008979 -0.006392 -0.023440
# 2 0.009688 0.034791 0.004401 0.020624 -0.006433 -0.054440
# 3 0.002901 0.004401 0.015238 0.007881 0.001880 -0.019074
# 4 0.008979 0.020624 0.007881 0.050995 -0.014037 -0.043846
# 5 -0.006392 -0.006433 0.001880 -0.014037 0.031671 0.013826
# 6 -0.023440 -0.054440 -0.019074 -0.043846 0.013826 0.146913
#
#
# Mechanical properties :
#
#
# Convention : Reuss Voigt Hill
#
# Bulk Modulus (GPa) = 9.78715 28.54494 19.16604
# Shear Modulus (GPa) = 16.78671 33.27920 25.03296
#
# Velocity S-wave (km/s) = 2.73891 3.85640 3.34465
# Velocity P-wave (km/s) = 3.79155 5.70834 4.84567
#
# Compressibility (1/GPa) = 0.10217480
#
# Stress axis : x y z
#
# Youngs Moduli (GPa) = 55.04620 28.74295 65.62584
#
# Poissons Ratio (x) = -0.27847 -0.19035
# Poissons Ratio (y) = -0.53330 -0.28880
# Poissons Ratio (z) = -0.15967 -0.12649
#
# Static dielectric constant tensor:
#      x y z
#    x 1.874110 -0.047700 0.075540 
#    y -0.047700 1.818600 0.000600 
#    z 0.075540 0.000600 1.970460 
# 
# From -- ./inp_files/34317.got.cif
#   From: 2010.05.17/outbox.cif.g08.bks.cpg/sg2_18_cif.got.tgz:34317.got - 2010.06.03 11:33:40.
