data_PCOD9025377
_publ_section_title
;
Structure prediction by ZEFSAII (Michael W. Deem and Ramdas Pophale) SiO2 
 PCOD9025377
Probable space group: P -1
;
_chemical_formula_sum "Si O2"
_cell_formula_units_Z 15
_cell_length_a 8.385234
_cell_length_b 13.689900
_cell_length_c 8.155312
_cell_angle_alpha 117.693027
_cell_angle_beta 103.965984
_cell_angle_gamma 51.198679
_cell_volume 644.319073
_symmetry_space_group_name_H-M "P -1"
_symmetry_group_IT_number 2
_symmetry_cell_setting 'triclinic'
loop_
_space_group_symop_operation_xyz
x,y,z
-x,-y,-z
loop_
_atom_site_type_symbol
_atom_site_label
_atom_site_fract_x
_atom_site_fract_y
_atom_site_fract_z
Si Si1 0.500000 0.500000 0.000000
Si Si2 0.706071 0.502005 0.733564
Si Si3 0.094737 0.445614 0.662803
Si Si4 0.782393 0.061842 0.423581
Si Si5 0.118625 0.678344 0.894861
Si Si6 0.559135 0.848786 0.355468
Si Si7 0.285502 0.711145 0.633564
Si Si8 0.326510 0.116505 0.923991
O O1 0.412533 0.462718 0.100861
O O2 0.728959 0.341414 0.943714
O O3 0.529872 0.607657 0.643829
O O4 0.773688 0.355096 0.569260
O O5 0.900401 0.503244 0.777593
O O6 0.210533 0.515378 0.775346
O O7 0.241554 0.282766 0.606912
O O8 0.000000 0.500000 0.500000
O O9 0.620881 0.144809 0.594296
O O10 0.753491 0.152768 0.333661
O O11 0.755343 0.950865 0.259843
O O12 0.000000 0.000000 0.500000
O O13 0.161540 0.725697 0.775650
O O14 0.878628 0.763545 0.938280
O O15 0.587291 0.833092 0.152834
O O16 0.500000 0.000000 0.500000
O O17 0.500000 0.000000 0.000000
#
# Coordination Sequence:
#
# PCOD9025377 Si02
#       8
#     1   2   2   2   2   2   2   2
#     4  10  24  42  62 100 142 174 224 304 352 408
#     4  10  22  40  68  96 142 175 231 290 352 416
#     4  12  24  42  78 105 138 191 245 291 359 435
#     4  11  27  45  75  99 138 196 245 285 364 440
#     4  11  26  44  72 103 142 184 240 302 362 422
#     4  10  26  46  70 102 145 194 239 295 358 443
#     4  10  23  43  67 100 138 183 232 294 351 429
#     4  11  28  49  70 105 152 191 242 306 368 436
#
# _framework density 23.280393
#
# number of rings (size 3 to 8) (size 9 to 14) (size 15 to 20)
#    0.000    1.333    1.333    1.600   16.800    2.667 
#    2.400    0.000    0.000    0.000    0.000    0.000 
#    0.000    0.000    0.000    0.000    0.000    0.000 
#
# Total GULP energy -83552.775254 kJ/mol
# GULP energy per Si atom -5570.185017 kJ/mol
# Density = 2.322741 g / cm^3
# Si number density = 23.280393 Si / 1000 Ang^3
#
#
#
# Elastic Constant Matrix: (Units=GPa)
#
#
# Indices 1 2 3 4 5 6 
#
# 1 110.0770 38.5159 24.9903 -3.6771 -37.3315 -7.6080
# 2 38.5159 119.7806 30.3318 -9.8472 -19.7849 -5.9959
# 3 24.9903 30.3318 56.7414 -15.8342 -19.2113 -4.5635
# 4 -3.6771 -9.8472 -15.8342 29.8951 3.8894 -0.9950
# 5 -37.3315 -19.7849 -19.2113 3.8894 41.8541 4.7054
# 6 -7.6080 -5.9959 -4.5635 -0.9950 4.7054 47.4847
#
#
#
# Elastic Compliance Matrix: (Units=1/GPa)
#
#
# Indices 1 2 3 4 5 6 
#
# 1 0.013859 -0.002389 -0.001544 -0.001251 0.010561 0.000698
# 2 -0.002389 0.010342 -0.003888 0.000962 0.000829 0.000487
# 3 -0.001544 -0.003888 0.026278 0.011497 0.007635 0.001271
# 4 -0.001251 0.000962 0.011497 0.039667 0.000729 0.001785
# 5 0.010561 0.000829 0.007635 0.000729 0.037271 -0.001147
# 6 0.000698 0.000487 0.001271 0.001785 -0.001147 0.021506
#
#
# Mechanical properties :
#
#
# Convention : Reuss Voigt Hill
#
# Bulk Modulus (GPa) = 28.70491 52.69722 40.70106
# Shear Modulus (GPa) = 28.38067 36.69750 32.53909
#
# Velocity S-wave (km/s) = 3.49532 3.97461 3.74264
# Velocity P-wave (km/s) = 5.35225 6.61425 6.01643
#
# Compressibility (1/GPa) = 0.03483725
#
# Stress axis : x y z
#
# Youngs Moduli (GPa) = 72.15420 96.69599 38.05501
#
# Poissons Ratio (x) = 0.23100 0.05876
# Poissons Ratio (y) = 0.17237 0.14795
# Poissons Ratio (z) = 0.11140 0.37594
#
# Static dielectric constant tensor:
#      x y z
#    x 2.342700 0.208590 0.313180 
#    y 0.208590 1.771820 0.240760 
#    z 0.313180 0.240760 2.088140 
# 
# From -- ./inp_files/180278.got.cif
#   From: 2010.05.17/outbox.cif.g08.bks.cpg/sg2_91_cif.got.tgz:180278.got - 2010.06.03 11:33:40.
