data_PCOD9025073
_publ_section_title
;
Structure prediction by ZEFSAII (Michael W. Deem and Ramdas Pophale) SiO2 
 PCOD9025073
Probable space group: P -1
;
_chemical_formula_sum "Si O2"
_cell_formula_units_Z 13
_cell_length_a 13.603722
_cell_length_b 9.054792
_cell_length_c 8.091291
_cell_angle_alpha 67.936368
_cell_angle_beta 135.630418
_cell_angle_gamma 137.989852
_cell_volume 439.944294
_symmetry_space_group_name_H-M "P -1"
_symmetry_group_IT_number 2
_symmetry_cell_setting 'triclinic'
loop_
_space_group_symop_operation_xyz
x,y,z
-x,-y,-z
loop_
_atom_site_type_symbol
_atom_site_label
_atom_site_fract_x
_atom_site_fract_y
_atom_site_fract_z
Si Si1 0.828428 0.558847 0.663573
Si Si2 0.000000 0.000000 0.500000
Si Si3 0.540984 0.971429 0.839192
Si Si4 0.927834 0.494456 0.161785
Si Si5 0.692460 0.892331 0.457222
Si Si6 0.650630 0.811747 0.799804
Si Si7 0.323814 0.503659 0.961180
O O1 0.893735 0.559806 0.922480
O O2 0.591540 0.406591 0.436838
O O3 0.957321 0.807655 0.639710
O O4 0.872846 0.445681 0.646443
O O5 0.156892 0.027678 0.544581
O O6 0.650365 0.990287 0.798618
O O7 0.733900 0.212478 0.064517
O O8 0.381464 0.986339 0.646359
O O9 0.445578 0.728535 0.898109
O O10 0.893824 0.594628 0.220435
O O11 0.761567 0.889152 0.723729
O O12 0.472605 0.629555 0.246871
O O13 0.708604 0.709353 0.034201
#
# Coordination Sequence:
#
# PCOD9025073 Si02
#       7
#     2   1   2   2   2   2   2
#     4  11  22  39  66  96 126 169 218 270 311 386
#     4  12  22  38  64  98 126 160 228 270 298 370
#     4  11  23  40  67  99 135 168 211 271 336 382
#     4  10  22  40  67  90 131 175 220 256 322 392
#     4  11  22  40  68  94 125 177 221 261 313 396
#     4  12  23  41  70 100 131 165 218 275 328 376
#     4  11  20  40  64  96 125 177 218 259 312 398
#
# _framework density 29.549195000000001
#
# number of rings (size 3 to 8) (size 9 to 14) (size 15 to 20)
#    0.000    0.923    4.615    6.000    0.000    0.000 
#    0.000    3.077    0.000    5.538    0.000    0.000 
#    0.000    0.000    0.000    0.000    0.000    0.000 
#
# Total GULP energy -72669.592243 kJ/mol
# GULP energy per Si atom -5589.968634 kJ/mol
# Density = 2.948194 g / cm^3
# Si number density = 29.549195 Si / 1000 Ang^3
#
#
#
# Elastic Constant Matrix: (Units=GPa)
#
#
# Indices 1 2 3 4 5 6 
#
# 1 232.9284 70.1186 50.0609 -13.0097 27.0876 -16.9672
# 2 70.1186 151.3985 35.2896 -21.8466 11.4977 -15.3218
# 3 50.0609 35.2896 75.0537 -29.9763 24.1871 -0.5495
# 4 -13.0097 -21.8466 -29.9763 45.6299 -6.9944 0.2849
# 5 27.0876 11.4977 24.1871 -6.9944 57.3055 -9.7453
# 6 -16.9672 -15.3218 -0.5495 0.2849 -9.7453 63.1554
#
#
#
# Elastic Compliance Matrix: (Units=1/GPa)
#
#
# Indices 1 2 3 4 5 6 
#
# 1 0.005646 -0.001941 -0.003143 -0.001542 -0.000993 0.000872
# 2 -0.001941 0.008396 -0.001918 0.002287 0.000590 0.001580
# 3 -0.003143 -0.001918 0.023580 0.012629 -0.006920 -0.002229
# 4 -0.001542 0.002287 0.012629 0.030664 -0.001334 -0.000094
# 5 -0.000993 0.000590 -0.006920 -0.001334 0.021082 0.003075
# 6 0.000872 0.001580 -0.002229 -0.000094 0.003075 0.016907
#
#
# Mechanical properties :
#
#
# Convention : Reuss Voigt Hill
#
# Bulk Modulus (GPa) = 42.34154 85.59096 63.96625
# Shear Modulus (GPa) = 39.01650 53.47893 46.24772
#
# Velocity S-wave (km/s) = 3.63766 4.25882 3.96044
# Velocity P-wave (km/s) = 5.65718 7.29465 6.52746
#
# Compressibility (1/GPa) = 0.02361747
#
# Stress axis : x y z
#
# Youngs Moduli (GPa) = 177.12438 119.10059 42.40949
#
# Poissons Ratio (x) = 0.23118 0.13327
# Poissons Ratio (y) = 0.34381 0.08136
# Poissons Ratio (z) = 0.55662 0.22849
#
# Static dielectric constant tensor:
#      x y z
#    x 2.359510 -0.048550 -0.158720 
#    y -0.048550 2.320700 0.098120 
#    z -0.158720 0.098120 2.438040 
# 
# From -- ./inp_files/147314.got.cif
#   From: 2010.05.17/outbox.cif.g08.bks.cpg/sg2_74_cif.got.tgz:147314.got - 2010.06.03 11:33:40.
