data_PCOD9025687
_publ_section_title
;
Structure prediction by ZEFSAII (Michael W. Deem and Ramdas Pophale) SiO2 
 PCOD9025687
Probable space group: P -1
;
_chemical_formula_sum "Si O2"
_cell_formula_units_Z 16
_cell_length_a 23.437585
_cell_length_b 9.035048
_cell_length_c 12.397995
_cell_angle_alpha 142.085387
_cell_angle_beta 155.150805
_cell_angle_gamma 45.595198
_cell_volume 676.617360
_symmetry_space_group_name_H-M "P -1"
_symmetry_group_IT_number 2
_symmetry_cell_setting 'triclinic'
loop_
_space_group_symop_operation_xyz
x,y,z
-x,-y,-z
loop_
_atom_site_type_symbol
_atom_site_label
_atom_site_fract_x
_atom_site_fract_y
_atom_site_fract_z
Si Si1 0.462522 0.197725 0.460334
Si Si2 0.242636 0.353186 0.315745
Si Si3 0.359713 0.043887 0.534209
Si Si4 0.920724 0.455127 0.448534
Si Si5 0.987118 0.964485 0.330799
Si Si6 0.636026 0.691762 0.084966
Si Si7 0.753459 0.104830 0.393902
Si Si8 0.110705 0.799740 0.087718
O O1 0.311731 0.261000 0.270745
O O2 0.500000 0.000000 0.500000
O O3 0.512502 0.085430 0.370451
O O4 0.545131 0.454322 0.763992
O O5 0.299764 0.212036 0.435114
O O6 0.281109 0.636058 0.561939
O O7 0.084627 0.279456 0.981238
O O8 0.398069 0.198927 0.794975
O O9 0.235672 0.856606 0.252200
O O10 0.788475 0.604065 0.308112
O O11 0.000000 0.500000 0.500000
O O12 0.890529 0.172285 0.245900
O O13 0.025922 0.551058 0.775776
O O14 0.135637 0.004040 0.555696
O O15 0.000000 0.000000 0.500000
O O16 0.641595 0.899808 0.123228
O O17 0.828126 0.178209 0.676671
O O18 0.000000 0.000000 0.000000
#
# Coordination Sequence:
#
# PCOD9025687 Si02
#       8
#     2   2   2   2   2   2   2   2
#     4  10  23  45  66  96 131 168 224 267 316 385
#     4  11  24  44  63  88 136 171 209 270 329 380
#     4  10  22  40  70  97 124 173 217 268 321 385
#     4  12  20  36  63  95 127 162 210 268 318 382
#     4  12  26  40  62  97 130 168 211 269 333 389
#     4  11  23  41  69 100 126 169 224 262 322 388
#     4  11  24  42  62  96 131 166 213 268 329 391
#     4  11  19  37  64  94 127 166 210 263 330 384
#
# _framework density 23.647043
#
# number of rings (size 3 to 8) (size 9 to 14) (size 15 to 20)
#    0.000    1.000    3.750    4.875    1.750    2.500 
#    2.250    2.500    0.000    0.000    0.000    0.000 
#    0.000    0.000    0.000    0.000    0.000    0.000 
#
# Total GULP energy -89544.266225 kJ/mol
# GULP energy per Si atom -5596.516639 kJ/mol
# Density = 2.359322 g / cm^3
# Si number density = 23.647043 Si / 1000 Ang^3
#
#
#
# Elastic Constant Matrix: (Units=GPa)
#
#
# Indices 1 2 3 4 5 6 
#
# 1 155.4301 35.0538 25.6107 6.4516 -0.8181 -12.2207
# 2 35.0538 86.6843 29.2847 21.7127 -0.4891 -1.0952
# 3 25.6107 29.2847 68.4113 29.3158 3.6497 15.3413
# 4 6.4516 21.7127 29.3158 38.6947 0.4709 2.2743
# 5 -0.8181 -0.4891 3.6497 0.4709 28.0625 1.6677
# 6 -12.2207 -1.0952 15.3413 2.2743 1.6677 42.4189
#
#
#
# Elastic Compliance Matrix: (Units=1/GPa)
#
#
# Indices 1 2 3 4 5 6 
#
# 1 0.007783 -0.002513 -0.003824 0.002805 0.000432 0.003393
# 2 -0.002513 0.015126 -0.003474 -0.005515 0.000664 0.001193
# 3 -0.003824 -0.003474 0.027499 -0.017620 -0.002854 -0.010080
# 4 0.002805 -0.005515 -0.017620 0.041524 0.001297 0.004761
# 5 0.000432 0.000664 -0.002854 0.001297 0.036027 -0.000312
# 6 0.003393 0.001193 -0.010080 0.004761 -0.000312 0.027985
#
#
# Mechanical properties :
#
#
# Convention : Reuss Voigt Hill
#
# Bulk Modulus (GPa) = 32.48066 54.49159 43.48612
# Shear Modulus (GPa) = 26.90660 36.54029 31.72345
#
# Velocity S-wave (km/s) = 3.37685 3.93522 3.66668
# Velocity P-wave (km/s) = 5.38234 6.61375 6.02956
#
# Compressibility (1/GPa) = 0.03078755
#
# Stress axis : x y z
#
# Youngs Moduli (GPa) = 128.48247 66.11118 36.36463
#
# Poissons Ratio (x) = 0.16612 0.13905
# Poissons Ratio (y) = 0.32285 0.12632
# Poissons Ratio (z) = 0.49130 0.22966
#
# Static dielectric constant tensor:
#      x y z
#    x 1.874450 0.000620 0.027460 
#    y 0.000620 1.920630 0.007080 
#    z 0.027460 0.007080 1.939010 
# 
# From -- ./inp_files/273179.got.cif
#   From: 2010.05.17/outbox.cif.g08.bks.cpg/sg2_137_cif.got.tgz:273179.got - 2010.06.03 11:33:40.
