data_PCOD9025865
_publ_section_title
;
Structure prediction by ZEFSAII (Michael W. Deem and Ramdas Pophale) SiO2 
 PCOD9025865
Probable space group: P -1
;
_chemical_formula_sum "Si O2"
_cell_formula_units_Z 16
_cell_length_a 6.801433
_cell_length_b 14.751723
_cell_length_c 11.763211
_cell_angle_alpha 146.368375
_cell_angle_beta 86.765772
_cell_angle_gamma 100.470610
_cell_volume 632.958357
_symmetry_space_group_name_H-M "P -1"
_symmetry_group_IT_number 2
_symmetry_cell_setting 'triclinic'
loop_
_space_group_symop_operation_xyz
x,y,z
-x,-y,-z
loop_
_atom_site_type_symbol
_atom_site_label
_atom_site_fract_x
_atom_site_fract_y
_atom_site_fract_z
Si Si1 0.247665 0.908171 0.443836
Si Si2 0.645412 0.905515 0.143775
Si Si3 0.773448 0.445994 0.995229
Si Si4 0.255421 0.638953 0.834035
Si Si5 0.778792 0.808777 0.434949
Si Si6 0.078728 0.263603 0.177090
Si Si7 0.690142 0.133153 0.183499
Si Si8 0.622555 0.684248 0.561587
O O1 0.643138 0.956533 0.325977
O O2 0.020216 0.846005 0.439201
O O3 0.258135 0.023089 0.449852
O O4 0.321966 0.734813 0.250357
O O5 0.732012 0.073297 0.243744
O O6 0.421123 0.816576 0.012943
O O7 0.802391 0.792771 0.990423
O O8 0.801092 0.393985 0.068997
O O9 0.693923 0.618588 0.184125
O O10 0.000000 0.500000 0.000000
O O11 0.386811 0.507734 0.664130
O O12 0.049622 0.608110 0.734434
O O13 0.709431 0.786207 0.547788
O O14 0.230472 0.282635 0.298721
O O15 0.879714 0.135356 0.100793
O O16 0.598530 0.294434 0.372855
O O17 0.500000 0.000000 0.000000
#
# Coordination Sequence:
#
# PCOD9025865 Si02
#       8
#     2   2   2   2   2   2   2   2
#     4  10  22  40  73 101 142 192 237 291 368 424
#     4  12  27  44  70 111 143 189 242 290 362 433
#     4   9  21  44  69 103 145 185 240 300 353 425
#     4  11  26  46  70 107 146 183 241 305 352 436
#     4   9  21  42  72 104 139 185 241 299 354 435
#     4  12  25  44  77 100 144 190 242 292 369 429
#     4  12  25  45  68 103 145 184 238 303 350 434
#     4  11  25  47  72 103 143 187 239 299 366 423
#
# _framework density 25.278123999999998
#
# number of rings (size 3 to 8) (size 9 to 14) (size 15 to 20)
#    0.000    1.250    2.500    1.500    8.750    3.500 
#    2.250    1.250    0.000    0.000    0.000    0.000 
#    0.000    0.000    0.000    0.000    0.000    0.000 
#
# Total GULP energy -89272.852255 kJ/mol
# GULP energy per Si atom -5579.553266 kJ/mol
# Density = 2.522059 g / cm^3
# Si number density = 25.278124 Si / 1000 Ang^3
#
#
#
# Elastic Constant Matrix: (Units=GPa)
#
#
# Indices 1 2 3 4 5 6 
#
# 1 100.0799 19.9217 43.9959 1.5065 -18.6879 12.9951
# 2 19.9217 104.1526 34.7420 12.4721 -1.0799 4.8968
# 3 43.9959 34.7420 129.9784 -7.0044 -13.8427 -4.1239
# 4 1.5065 12.4721 -7.0044 23.5583 -2.8979 -2.0248
# 5 -18.6879 -1.0799 -13.8427 -2.8979 38.2868 7.3907
# 6 12.9951 4.8968 -4.1239 -2.0248 7.3907 32.7008
#
#
#
# Elastic Compliance Matrix: (Units=1/GPa)
#
#
# Indices 1 2 3 4 5 6 
#
# 1 0.014306 -0.000677 -0.004274 -0.001659 0.006791 -0.007760
# 2 -0.000677 0.011940 -0.003602 -0.007712 -0.001471 -0.002118
# 3 -0.004274 -0.003602 0.010684 0.005843 0.001417 0.003627
# 4 -0.001659 -0.007712 0.005843 0.049259 0.003903 0.004719
# 5 0.006791 -0.001471 0.001417 0.003903 0.031993 -0.009289
# 6 -0.007760 -0.002118 0.003627 0.004719 -0.009289 0.036830
#
#
# Mechanical properties :
#
#
# Convention : Reuss Voigt Hill
#
# Bulk Modulus (GPa) = 50.44118 59.05892 54.75005
# Shear Modulus (GPa) = 27.97575 34.61261 31.29418
#
# Velocity S-wave (km/s) = 3.33035 3.70438 3.52233
# Velocity P-wave (km/s) = 5.89797 6.45840 6.18454
#
# Compressibility (1/GPa) = 0.01982507
#
# Stress axis : x y z
#
# Youngs Moduli (GPa) = 69.89898 83.75207 93.59943
#
# Poissons Ratio (x) = 0.05669 0.40004
# Poissons Ratio (y) = 0.04731 0.33712
# Poissons Ratio (z) = 0.29874 0.30165
#
# Static dielectric constant tensor:
#      x y z
#    x 1.968890 -0.175550 -0.034960 
#    y -0.175550 0.761850 -0.123680 
#    z -0.034960 -0.123680 2.068350 
# 
# From -- ./inp_files/485301.got.cif
#   From: 2010.05.17/outbox.cif.g08.bks.cpg/sg2_243_cif.got.tgz:485301.got - 2010.06.03 11:33:40.
