data_PCOD9025890
_publ_section_title
;
Structure prediction by ZEFSAII (Michael W. Deem and Ramdas Pophale) SiO2 
 PCOD9025890
Probable space group: P -1
;
_chemical_formula_sum "Si O2"
_cell_formula_units_Z 12
_cell_length_a 9.557873
_cell_length_b 18.172084
_cell_length_c 9.234484
_cell_angle_alpha 146.381157
_cell_angle_beta 149.019388
_cell_angle_gamma 41.215159
_cell_volume 452.963795
_symmetry_space_group_name_H-M "P -1"
_symmetry_group_IT_number 2
_symmetry_cell_setting 'triclinic'
loop_
_space_group_symop_operation_xyz
x,y,z
-x,-y,-z
loop_
_atom_site_type_symbol
_atom_site_label
_atom_site_fract_x
_atom_site_fract_y
_atom_site_fract_z
Si Si1 0.420164 0.950458 0.537757
Si Si2 0.691324 0.383200 0.360055
Si Si3 0.534799 0.711505 0.459178
Si Si4 0.910185 0.852170 0.596026
Si Si5 0.373603 0.248084 0.069404
Si Si6 0.215845 0.477144 0.866809
O O1 0.414653 0.846136 0.490306
O O2 0.643497 0.881377 0.509437
O O3 0.128781 0.006330 0.293092
O O4 0.510191 0.092693 0.906112
O O5 0.544789 0.363250 0.350942
O O6 0.852125 0.231553 0.239789
O O7 0.930478 0.473351 0.689062
O O8 0.461959 0.413493 0.084889
O O9 0.660368 0.741313 0.773691
O O10 0.757601 0.619833 0.408316
O O11 0.295319 0.619876 0.125248
O O12 0.872424 0.751042 0.262427
#
# Coordination Sequence:
#
# PCOD9025890 Si02
#       6
#     2   2   2   2   2   2
#     4   9  18  44  69 104 135 180 224 283 344 412
#     4  12  22  51  68 103 132 186 239 266 339 417
#     4  11  23  46  65 108 138 182 224 287 344 402
#     4   9  20  41  72  99 131 181 222 280 336 407
#     4  10  22  40  74 104 136 172 231 295 337 388
#     4  11  27  46  73  93 143 191 224 273 338 418
#
# _framework density 26.492182
#
# number of rings (size 3 to 8) (size 9 to 14) (size 15 to 20)
#    1.000    0.667    3.333    0.500    0.000    4.667 
#    6.000    0.833    0.000    0.000    0.000    0.000 
#    0.000    0.000    0.000    0.000    0.000    0.000 
#
# Total GULP energy -67106.375130 kJ/mol
# GULP energy per Si atom -5592.197927 kJ/mol
# Density = 2.643188 g / cm^3
# Si number density = 26.492182 Si / 1000 Ang^3
#
#
#
# Elastic Constant Matrix: (Units=GPa)
#
#
# Indices 1 2 3 4 5 6 
#
# 1 141.4355 74.7889 55.1109 -9.2436 -6.7868 16.9655
# 2 74.7889 166.5568 44.7634 -6.6791 20.4908 40.4335
# 3 55.1109 44.7634 97.3666 8.7583 -7.0304 3.7681
# 4 -9.2436 -6.6791 8.7583 52.5922 -3.9339 18.9217
# 5 -6.7868 20.4908 -7.0304 -3.9339 46.5082 6.1722
# 6 16.9655 40.4335 3.7681 18.9217 6.1722 57.9085
#
#
#
# Elastic Compliance Matrix: (Units=1/GPa)
#
#
# Indices 1 2 3 4 5 6 
#
# 1 0.011458 -0.003639 -0.004811 0.003266 0.003076 -0.001898
# 2 -0.003639 0.010949 -0.003351 0.003482 -0.004637 -0.007004
# 3 -0.004811 -0.003351 0.014980 -0.005137 0.002042 0.004235
# 4 0.003266 0.003482 -0.005137 0.025146 0.001814 -0.011464
# 5 0.003076 -0.004637 0.002042 0.001814 0.024590 -0.001010
# 6 -0.001898 -0.007004 0.004235 -0.011464 -0.001010 0.026293
#
#
# Mechanical properties :
#
#
# Convention : Reuss Voigt Hill
#
# Bulk Modulus (GPa) = 72.54012 83.85394 78.19703
# Shear Modulus (GPa) = 35.30791 46.78148 41.04469
#
# Velocity S-wave (km/s) = 3.65467 4.20677 3.94040
# Velocity P-wave (km/s) = 6.72681 7.43754 7.09108
#
# Compressibility (1/GPa) = 0.01378548
#
# Stress axis : x y z
#
# Youngs Moduli (GPa) = 87.27860 91.33224 66.75743
#
# Poissons Ratio (x) = 0.33232 0.32114
# Poissons Ratio (y) = 0.31757 0.22372
# Poissons Ratio (z) = 0.41986 0.30608
#
# Static dielectric constant tensor:
#      x y z
#    x 2.075680 -0.051490 0.006400 
#    y -0.051490 2.099180 0.021430 
#    z 0.006400 0.021430 2.179850 
# 
# From -- ./inp_files/216245.got.cif
#   From: 2010.05.17/outbox.cif.g08.bks.cpg/sg2_109_cif.got.tgz:216245.got - 2010.06.03 11:33:40.
