data_PCOD9025052
_publ_section_title
;
Structure prediction by ZEFSAII (Michael W. Deem and Ramdas Pophale) SiO2 
 PCOD9025052
Probable space group: P -1
;
_chemical_formula_sum "Si O2"
_cell_formula_units_Z 8
_cell_length_a 13.759385
_cell_length_b 5.472659
_cell_length_c 12.492600
_cell_angle_alpha 98.732132
_cell_angle_beta 29.019514
_cell_angle_gamma 78.807274
_cell_volume 330.002093
_symmetry_space_group_name_H-M "P -1"
_symmetry_group_IT_number 2
_symmetry_cell_setting 'triclinic'
loop_
_space_group_symop_operation_xyz
x,y,z
-x,-y,-z
loop_
_atom_site_type_symbol
_atom_site_label
_atom_site_fract_x
_atom_site_fract_y
_atom_site_fract_z
Si Si1 0.676644 0.180614 0.691537
Si Si2 0.232894 0.954191 0.173217
Si Si3 0.037056 0.241141 0.029694
Si Si4 0.554613 0.863911 0.652978
O O1 0.732492 0.981215 0.734436
O O2 0.690887 0.012317 0.558479
O O3 0.383459 0.559456 0.004746
O O4 0.916858 0.180874 0.465688
O O5 0.386401 0.959354 0.930231
O O6 0.799604 0.476052 0.362261
O O7 0.000000 0.500000 0.000000
O O8 0.333110 0.029510 0.783872
O O9 0.000000 0.000000 0.000000
#
# Coordination Sequence:
#
# PCOD9025052 Si02
#       4
#     2   2   2   2
#     4  10  22  40  67 105 142 177 225 280 348 432
#     4  10  22  40  67 105 142 177 225 280 348 432
#     4  12  30  50  73 104 139 186 246 308 350 412
#     4  12  25  44  76  96 142 184 235 288 366 414
#
# _framework density 24.242270000000001
#
# number of rings (size 3 to 8) (size 9 to 14) (size 15 to 20)
#    0.000    1.000    0.000    5.250   10.500    0.000 
#    0.000   10.000    0.000    0.000    0.000    0.000 
#    0.000    0.000    0.000    0.000    0.000    0.000 
#
# Total GULP energy -44768.591289 kJ/mol
# GULP energy per Si atom -5596.073911 kJ/mol
# Density = 2.418709 g / cm^3
# Si number density = 24.242270 Si / 1000 Ang^3
#
#
#
# Elastic Constant Matrix: (Units=GPa)
#
#
# Indices 1 2 3 4 5 6 
#
# 1 155.6852 52.0764 20.5472 12.2176 -25.7425 32.7869
# 2 52.0764 81.3383 7.3267 -6.5820 -8.0406 5.7376
# 3 20.5472 7.3267 105.7358 10.1651 0.1813 10.5874
# 4 12.2176 -6.5820 10.1651 39.9455 -6.5587 13.4780
# 5 -25.7425 -8.0406 0.1813 -6.5587 34.8346 1.6384
# 6 32.7869 5.7376 10.5874 13.4780 1.6384 46.7353
#
#
#
# Elastic Compliance Matrix: (Units=1/GPa)
#
#
# Indices 1 2 3 4 5 6 
#
# 1 0.011264 -0.005968 -0.001026 -0.000627 0.007164 -0.007008
# 2 -0.005968 0.016456 -0.000501 0.004346 0.000161 0.001021
# 3 -0.001026 -0.000501 0.009990 -0.002262 -0.001315 -0.000783
# 4 -0.000627 0.004346 -0.002262 0.030527 0.006705 -0.008620
# 5 0.007164 0.000161 -0.001315 0.006705 0.035681 -0.007932
# 6 -0.007008 0.001021 -0.000783 -0.008620 -0.007932 0.029130
#
#
# Mechanical properties :
#
#
# Convention : Reuss Voigt Hill
#
# Bulk Modulus (GPa) = 44.01181 55.85108 49.93145
# Shear Modulus (GPa) = 32.13166 41.82367 36.97767
#
# Velocity S-wave (km/s) = 3.64461 4.15810 3.90980
# Velocity P-wave (km/s) = 5.99210 6.79278 6.40496
#
# Compressibility (1/GPa) = 0.02272117
#
# Stress axis : x y z
#
# Youngs Moduli (GPa) = 88.77599 60.76838 100.10236
#
# Poissons Ratio (x) = 0.36265 0.10268
# Poissons Ratio (y) = 0.52979 0.05014
# Poissons Ratio (z) = 0.09106 0.03044
#
# Static dielectric constant tensor:
#      x y z
#    x 1.919080 -0.029910 0.039910 
#    y -0.029910 1.984950 -0.083010 
#    z 0.039910 -0.083010 1.888760 
# 
# From -- ./inp_files/1416.got.cif
#   From: 2010.05.17/outbox.cif.g08.bks.cpg/sg2_1_cif.got.tgz:1416.got - 2010.06.03 11:33:40.
