data_PCOD9025061
_publ_section_title
;
Structure prediction by ZEFSAII (Michael W. Deem and Ramdas Pophale) SiO2 
 PCOD9025061
Probable space group: P -1
;
_chemical_formula_sum "Si O2"
_cell_formula_units_Z 16
_cell_length_a 23.728479
_cell_length_b 9.482169
_cell_length_c 8.698271
_cell_angle_alpha 128.027526
_cell_angle_beta 31.369105
_cell_angle_gamma 129.861839
_cell_volume 770.318419
_symmetry_space_group_name_H-M "P -1"
_symmetry_group_IT_number 2
_symmetry_cell_setting 'triclinic'
loop_
_space_group_symop_operation_xyz
x,y,z
-x,-y,-z
loop_
_atom_site_type_symbol
_atom_site_label
_atom_site_fract_x
_atom_site_fract_y
_atom_site_fract_z
Si Si1 0.187239 0.347714 0.829619
Si Si2 0.758049 0.120301 0.649031
Si Si3 0.056677 0.597454 0.168543
Si Si4 0.669380 0.474692 0.115660
Si Si5 0.978359 0.118341 0.322218
Si Si6 0.920973 0.206662 0.065315
Si Si7 0.612281 0.751993 0.853255
Si Si8 0.460085 0.423631 0.786113
O O1 0.253187 0.368556 0.850456
O O2 0.273245 0.311613 0.479730
O O3 0.153412 0.533243 0.988999
O O4 0.071138 0.188852 0.019519
O O5 0.855739 0.106323 0.531592
O O6 0.810019 0.102711 0.349069
O O7 0.647279 0.958055 0.841430
O O8 0.730987 0.315802 0.846452
O O9 0.998981 0.711143 0.494132
O O10 0.976897 0.402281 0.156350
O O11 0.101398 0.731583 0.010978
O O12 0.555271 0.395787 0.428950
O O13 0.638137 0.548356 0.075875
O O14 0.998299 0.930662 0.218991
O O15 0.516948 0.611731 0.877984
O O16 0.578144 0.731164 0.096858
#
# Coordination Sequence:
#
# PCOD9025061 Si02
#       8
#     2   2   2   2   2   2   2   2
#     4  11  20  40  63  89 126 173 203 249 319 380
#     4  12  22  39  63  96 123 170 204 255 317 382
#     4  11  23  39  60  88 132 181 209 252 302 366
#     4  10  22  40  67  89 121 159 213 254 323 379
#     4  12  22  43  60  94 140 169 208 254 307 385
#     4  11  24  39  59  93 132 174 217 251 300 372
#     4  10  22  40  68  88 121 160 207 265 325 367
#     4   9  22  46  63  91 116 158 210 273 317 374
#
# _framework density 20.770631000000002
#
# number of rings (size 3 to 8) (size 9 to 14) (size 15 to 20)
#    0.000    1.250    3.750    2.625    1.750    1.000 
#    4.500    0.000    0.000    0.000    0.000    0.000 
#    0.000    0.000    0.000    0.000    0.000    0.000 
#
# Total GULP energy -89364.687763 kJ/mol
# GULP energy per Si atom -5585.292985 kJ/mol
# Density = 2.072336 g / cm^3
# Si number density = 20.770631 Si / 1000 Ang^3
#
#
#
# Elastic Constant Matrix: (Units=GPa)
#
#
# Indices 1 2 3 4 5 6 
#
# 1 93.5539 18.3338 18.6648 -4.9140 -3.0530 -24.3621
# 2 18.3338 59.6604 3.4491 5.0895 -5.2773 -16.0248
# 3 18.6648 3.4491 39.4765 13.6891 4.7817 -2.1186
# 4 -4.9140 5.0895 13.6891 41.7233 -3.2889 2.5381
# 5 -3.0530 -5.2773 4.7817 -3.2889 25.8520 -5.3046
# 6 -24.3621 -16.0248 -2.1186 2.5381 -5.3046 25.3806
#
#
#
# Elastic Compliance Matrix: (Units=1/GPa)
#
#
# Indices 1 2 3 4 5 6 
#
# 1 0.017807 0.000135 -0.010231 0.005021 0.008263 0.017548
# 2 0.000135 0.021903 -0.001138 -0.002640 0.007586 0.015713
# 3 -0.010231 -0.001138 0.035770 -0.013184 -0.011507 -0.008640
# 4 0.005021 -0.002640 -0.013184 0.029682 0.006353 0.000412
# 5 0.008263 0.007586 -0.011507 0.006353 0.048506 0.021263
# 6 0.017548 0.015713 -0.008640 0.000412 0.021263 0.069847
#
#
# Mechanical properties :
#
#
# Convention : Reuss Voigt Hill
#
# Bulk Modulus (GPa) = 18.86348 30.39848 24.63098
# Shear Modulus (GPa) = 18.96437 28.74073 23.85255
#
# Velocity S-wave (km/s) = 3.02493 3.72387 3.39245
# Velocity P-wave (km/s) = 4.61539 5.75819 5.21817
#
# Compressibility (1/GPa) = 0.05301250
#
# Stress axis : x y z
#
# Youngs Moduli (GPa) = 56.15811 45.65668 27.95625
#
# Poissons Ratio (x) = -0.00618 0.28603
# Poissons Ratio (y) = -0.00761 0.03180
# Poissons Ratio (z) = 0.57457 0.05194
#
# Static dielectric constant tensor:
#      x y z
#    x 1.759520 0.036700 0.000750 
#    y 0.036700 1.766670 -0.003240 
#    z 0.000750 -0.003240 1.745690 
# 
# From -- ./inp_files/203821.got.cif
#   From: 2010.05.17/outbox.cif.g08.bks.cpg/sg2_102_cif.got.tgz:203821.got - 2010.06.03 11:33:40.
