data_PCOD9025460
_publ_section_title
;
Structure prediction by ZEFSAII (Michael W. Deem and Ramdas Pophale) SiO2 
 PCOD9025460
Probable space group: P -1
;
_chemical_formula_sum "Si O2"
_cell_formula_units_Z 16
_cell_length_a 8.388430
_cell_length_b 11.477106
_cell_length_c 13.062420
_cell_angle_alpha 52.499157
_cell_angle_beta 73.641625
_cell_angle_gamma 112.714012
_cell_volume 651.718979
_symmetry_space_group_name_H-M "P -1"
_symmetry_group_IT_number 2
_symmetry_cell_setting 'triclinic'
loop_
_space_group_symop_operation_xyz
x,y,z
-x,-y,-z
loop_
_atom_site_type_symbol
_atom_site_label
_atom_site_fract_x
_atom_site_fract_y
_atom_site_fract_z
Si Si1 0.317754 0.754680 0.199393
Si Si2 0.966446 0.810626 0.940063
Si Si3 0.651079 0.711140 0.428658
Si Si4 0.869970 0.711860 0.769967
Si Si5 0.570655 0.501562 0.748871
Si Si6 0.798510 0.343640 0.035190
Si Si7 0.351694 0.986921 0.442712
Si Si8 0.228254 0.644190 0.514224
O O1 0.402059 0.655466 0.187747
O O2 0.307890 0.723954 0.340110
O O3 0.034389 0.603239 0.303898
O O4 0.500000 0.000000 0.000000
O O5 0.879612 0.752042 0.867266
O O6 0.135084 0.776880 0.951189
O O7 0.715023 0.646709 0.134437
O O8 0.128166 0.061727 0.787402
O O9 0.500000 0.500000 0.500000
O O10 0.725218 0.674871 0.536974
O O11 0.450396 0.704059 0.495486
O O12 0.661769 0.624186 0.775477
O O13 0.134334 0.932957 0.563987
O O14 0.837962 0.513712 0.871367
O O15 0.543358 0.183618 0.226223
O O16 0.000000 0.500000 0.000000
O O17 0.210900 0.783616 0.502996
O O18 0.500000 0.000000 0.500000
#
# Coordination Sequence:
#
# PCOD9025460 Si02
#       8
#     2   2   2   2   2   2   2   2
#     4  11  27  48  74 102 135 183 240 293 350 399
#     4  11  26  44  72 104 143 185 225 287 358 410
#     4  12  27  48  69  99 145 184 238 280 344 424
#     4  11  25  46  69 109 141 178 236 287 348 423
#     4  12  28  44  70 103 141 188 228 286 355 415
#     4  10  22  40  69 102 139 175 234 281 338 416
#     4  12  21  40  73 104 135 178 227 281 350 400
#     4  11  25  46  73 103 136 181 236 287 338 422
#
# _framework density 24.550459
#
# number of rings (size 3 to 8) (size 9 to 14) (size 15 to 20)
#    0.000    0.750    6.250    0.375    5.250    5.000 
#    0.000    0.000    0.000    0.000    0.000    0.000 
#    0.000    0.000    0.000    0.000    0.000    0.000 
#
# Total GULP energy -89506.105189 kJ/mol
# GULP energy per Si atom -5594.131574 kJ/mol
# Density = 2.449458 g / cm^3
# Si number density = 24.550459 Si / 1000 Ang^3
#
#
#
# Elastic Constant Matrix: (Units=GPa)
#
#
# Indices 1 2 3 4 5 6 
#
# 1 50.7347 -5.1170 25.6674 -8.5598 -1.1328 5.3012
# 2 -5.1170 91.6408 16.1894 -2.0055 14.4634 11.3973
# 3 25.6674 16.1894 171.1386 -21.1768 -9.9020 -3.5442
# 4 -8.5598 -2.0055 -21.1768 36.2979 -5.1777 -6.1405
# 5 -1.1328 14.4634 -9.9020 -5.1777 39.6190 -3.6945
# 6 5.3012 11.3973 -3.5442 -6.1405 -3.6945 30.7924
#
#
#
# Elastic Compliance Matrix: (Units=1/GPa)
#
#
# Indices 1 2 3 4 5 6 
#
# 1 0.022691 0.002801 -0.003562 0.002370 -0.001426 -0.005052
# 2 0.002801 0.013302 -0.002444 -0.002089 -0.006299 -0.006859
# 3 -0.003562 -0.002444 0.007451 0.004511 0.003587 0.003705
# 4 0.002370 -0.002089 0.004511 0.033038 0.007051 0.008319
# 5 -0.001426 -0.006299 0.003587 0.007051 0.030064 0.008003
# 6 -0.005052 -0.006859 0.003705 0.008319 0.008003 0.038930
#
#
# Mechanical properties :
#
#
# Convention : Reuss Voigt Hill
#
# Bulk Modulus (GPa) = 27.00118 42.99931 35.00024
# Shear Modulus (GPa) = 30.44543 39.79348 35.11946
#
# Velocity S-wave (km/s) = 3.52535 4.03039 3.78630
# Velocity P-wave (km/s) = 5.25289 6.26190 5.77946
#
# Compressibility (1/GPa) = 0.03703542
#
# Stress axis : x y z
#
# Youngs Moduli (GPa) = 44.07066 75.17760 134.20923
#
# Poissons Ratio (x) = -0.21060 0.47806
# Poissons Ratio (y) = -0.12346 0.32794
# Poissons Ratio (z) = 0.15698 0.18370
#
# Static dielectric constant tensor:
#      x y z
#    x 2.068520 -0.035280 0.010240 
#    y -0.035280 1.957170 -0.001840 
#    z 0.010240 -0.001840 1.930870 
# 
# From -- ./inp_files/500031.got.cif
#   From: 2010.05.17/outbox.cif.g08.bks.cpg/sg2_251_cif.got.tgz:500031.got - 2010.06.03 11:33:40.
