data_PCOD9025994
_publ_section_title
;
Structure prediction by ZEFSAII (Michael W. Deem and Ramdas Pophale) SiO2 
 PCOD9025994
Probable space group: P -1
;
_chemical_formula_sum "Si O2"
_cell_formula_units_Z 15
_cell_length_a 12.506104
_cell_length_b 15.631726
_cell_length_c 8.453946
_cell_angle_alpha 130.133237
_cell_angle_beta 121.382695
_cell_angle_gamma 30.638221
_cell_volume 641.492851
_symmetry_space_group_name_H-M "P -1"
_symmetry_group_IT_number 2
_symmetry_cell_setting 'triclinic'
loop_
_space_group_symop_operation_xyz
x,y,z
-x,-y,-z
loop_
_atom_site_type_symbol
_atom_site_label
_atom_site_fract_x
_atom_site_fract_y
_atom_site_fract_z
Si Si1 0.027903 0.513110 0.717683
Si Si2 0.603460 0.973457 0.297290
Si Si3 0.486799 0.855875 0.247226
Si Si4 0.472982 0.379493 0.186916
Si Si5 0.000000 0.000000 0.500000
Si Si6 0.367892 0.331065 0.361129
Si Si7 0.476168 0.585657 0.249968
Si Si8 0.010008 0.254058 0.852131
O O1 0.862309 0.548695 0.717309
O O2 0.000000 0.500000 0.500000
O O3 0.265116 0.323055 0.731487
O O4 0.983188 0.677306 0.902480
O O5 0.627419 0.022139 0.538856
O O6 0.485681 0.135000 0.273322
O O7 0.472888 0.957256 0.219405
O O8 0.832852 0.789417 0.188565
O O9 0.422483 0.782053 0.046701
O O10 0.480113 0.316953 0.288274
O O11 0.551913 0.445719 0.281681
O O12 0.226446 0.566750 0.180175
O O13 0.763430 0.200686 0.643068
O O14 0.070042 0.080547 0.683349
O O15 0.379104 0.408769 0.611033
O O16 0.500000 0.500000 0.000000
#
# Coordination Sequence:
#
# PCOD9025994 Si02
#       8
#     2   2   2   2   1   2   2   2
#     4  11  23  40  63  97 134 173 224 272 332 406
#     4  11  21  38  62  93 130 167 216 270 335 388
#     4  10  22  41  60  95 129 174 218 263 336 402
#     4  10  23  41  67  92 130 172 225 271 329 409
#     4  10  22  42  68 100 130 170 236 268 330 412
#     4  12  23  40  67  98 131 171 224 276 338 397
#     4  11  24  44  74  95 133 184 227 279 340 407
#     4  10  22  41  66  91 133 178 213 273 341 392
#
# _framework density 23.382957999999999
#
# number of rings (size 3 to 8) (size 9 to 14) (size 15 to 20)
#    0.000    1.333    2.667    2.800    3.733    4.267 
#    0.000    0.000    2.933    2.400    0.000    0.000 
#    0.000    0.000    0.000    0.000    0.000    0.000 
#
# Total GULP energy -83532.851014 kJ/mol
# GULP energy per Si atom -5568.856734 kJ/mol
# Density = 2.332974 g / cm^3
# Si number density = 23.382958 Si / 1000 Ang^3
#
#
#
# Elastic Constant Matrix: (Units=GPa)
#
#
# Indices 1 2 3 4 5 6 
#
# 1 63.3281 25.6648 26.1881 -1.1214 -1.5104 18.1643
# 2 25.6648 56.0381 33.3257 1.7363 13.5984 17.2265
# 3 26.1881 33.3257 153.4183 25.2079 17.7969 5.3911
# 4 -1.1214 1.7363 25.2079 23.1020 -2.8312 4.1308
# 5 -1.5104 13.5984 17.7969 -2.8312 26.6069 8.7990
# 6 18.1643 17.2265 5.3911 4.1308 8.7990 40.8788
#
#
#
# Elastic Compliance Matrix: (Units=1/GPa)
#
#
# Indices 1 2 3 4 5 6 
#
# 1 0.025514 -0.008761 -0.005738 0.011985 0.014769 -0.011278
# 2 -0.008761 0.028002 -0.003247 0.000614 -0.010850 -0.005206
# 3 -0.005738 -0.003247 0.011626 -0.015037 -0.010050 0.006067
# 4 0.011985 0.000614 -0.015037 0.065666 0.022391 -0.015056
# 5 0.014769 -0.010850 -0.010050 0.022391 0.058182 -0.015451
# 6 -0.011278 -0.005206 0.006067 -0.015056 -0.015451 0.035715
#
#
# Mechanical properties :
#
#
# Convention : Reuss Voigt Hill
#
# Bulk Modulus (GPa) = 33.72546 49.23796 41.48171
# Shear Modulus (GPa) = 18.51305 30.62460 24.56882
#
# Velocity S-wave (km/s) = 2.81683 3.62290 3.24499
# Velocity P-wave (km/s) = 5.00337 6.21317 5.64080
#
# Compressibility (1/GPa) = 0.02965119
#
# Stress axis : x y z
#
# Youngs Moduli (GPa) = 39.19489 35.71143 86.01315
#
# Poissons Ratio (x) = 0.31285 0.49357
# Poissons Ratio (y) = 0.34337 0.27924
# Poissons Ratio (z) = 0.22491 0.11594
#
# Static dielectric constant tensor:
#      x y z
#    x 1.912490 0.009650 -0.022380 
#    y 0.009650 1.908320 -0.000800 
#    z -0.022380 -0.000800 1.913220 
# 
# From -- ./inp_files/171098.got.cif
#   From: 2010.05.17/outbox.cif.g08.bks.cpg/sg2_86_cif.got.tgz:171098.got - 2010.06.03 11:33:40.
