data_PCOD9025912
_publ_section_title
;
Structure prediction by ZEFSAII (Michael W. Deem and Ramdas Pophale) SiO2 
 PCOD9025912
Probable space group: P -1
;
_chemical_formula_sum "Si O2"
_cell_formula_units_Z 15
_cell_length_a 13.087794
_cell_length_b 6.150609
_cell_length_c 14.779823
_cell_angle_alpha 76.023346
_cell_angle_beta 143.074750
_cell_angle_gamma 118.647042
_cell_volume 604.183355
_symmetry_space_group_name_H-M "P -1"
_symmetry_group_IT_number 2
_symmetry_cell_setting 'triclinic'
loop_
_space_group_symop_operation_xyz
x,y,z
-x,-y,-z
loop_
_atom_site_type_symbol
_atom_site_label
_atom_site_fract_x
_atom_site_fract_y
_atom_site_fract_z
Si Si1 0.763047 0.743621 0.032710
Si Si2 0.162745 0.030555 0.747256
Si Si3 0.605580 0.019787 0.441717
Si Si4 0.952130 0.700648 0.898390
Si Si5 0.937164 0.481254 0.735420
Si Si6 0.858128 0.185237 0.432786
Si Si7 0.612743 0.709073 0.752571
Si Si8 0.500000 0.500000 0.500000
O O1 0.726094 0.769229 0.110946
O O2 0.906977 0.622084 0.131999
O O3 0.586074 0.614301 0.847736
O O4 0.876762 0.038742 0.047274
O O5 0.007524 0.102614 0.589316
O O6 0.234297 0.949861 0.715361
O O7 0.051700 0.757129 0.744624
O O8 0.774624 0.283415 0.575945
O O9 0.677276 0.055674 0.386177
O O10 0.410409 0.040317 0.297604
O O11 0.595964 0.810525 0.525398
O O12 0.830431 0.534385 0.740818
O O13 0.825473 0.765667 0.868182
O O14 0.000000 0.500000 0.000000
O O15 0.000000 0.500000 0.500000
O O16 0.490645 0.513528 0.606540
#
# Coordination Sequence:
#
# PCOD9025912 Si02
#       8
#     2   2   2   2   2   2   2   1
#     4  11  23  42  67  99 135 182 238 296 343 416
#     4  10  22  40  75 107 129 170 240 299 352 398
#     4  12  27  45  68 102 146 188 230 288 356 418
#     4  11  24  38  66  95 133 188 241 282 343 414
#     4  11  22  43  68 100 140 178 239 294 344 418
#     4  11  22  44  76 106 135 176 238 299 345 411
#     4  12  27  43  64  99 145 191 234 285 348 422
#     4  12  30  44  64  98 156 192 224 270 366 426
#
# _framework density 24.826902
#
# number of rings (size 3 to 8) (size 9 to 14) (size 15 to 20)
#    0.000    0.800    4.000    2.400    7.467    0.000 
#    0.000    0.667    0.000    4.000    0.000    0.000 
#    0.000    0.000    0.000    0.000    0.000    0.000 
#
# Total GULP energy -83536.975197 kJ/mol
# GULP energy per Si atom -5569.131680 kJ/mol
# Density = 2.477039 g / cm^3
# Si number density = 24.826902 Si / 1000 Ang^3
#
#
#
# Elastic Constant Matrix: (Units=GPa)
#
#
# Indices 1 2 3 4 5 6 
#
# 1 144.1762 42.0991 34.8611 -3.8896 -53.9131 -15.7283
# 2 42.0991 111.8301 24.2771 -28.5818 1.3595 -3.3539
# 3 34.8611 24.2771 112.6452 -0.6670 -52.0751 -11.9900
# 4 -3.8896 -28.5818 -0.6670 41.9660 -15.9017 -6.0271
# 5 -53.9131 1.3595 -52.0751 -15.9017 58.5222 7.7500
# 6 -15.7283 -3.3539 -11.9900 -6.0271 7.7500 21.7529
#
#
#
# Elastic Compliance Matrix: (Units=1/GPa)
#
#
# Indices 1 2 3 4 5 6 
#
# 1 0.016973 -0.006142 0.008234 0.007988 0.024015 0.009521
# 2 -0.006142 0.013849 -0.005426 0.005162 -0.009333 -0.000540
# 3 0.008234 -0.005426 0.021659 0.009515 0.028297 0.009610
# 4 0.007988 0.005162 0.009515 0.039571 0.024602 0.014015
# 5 0.024015 -0.009333 0.028297 0.024602 0.069494 0.013579
# 6 0.009521 -0.000540 0.009610 0.014015 0.013579 0.057114
#
#
# Mechanical properties :
#
#
# Convention : Reuss Voigt Hill
#
# Bulk Modulus (GPa) = 21.82765 63.45844 42.64305
# Shear Modulus (GPa) = 20.78152 42.27582 31.52867
#
# Velocity S-wave (km/s) = 2.89633 4.13100 3.56749
# Velocity P-wave (km/s) = 4.47169 6.95481 5.84660
#
# Compressibility (1/GPa) = 0.04581344
#
# Stress axis : x y z
#
# Youngs Moduli (GPa) = 58.91829 72.20914 46.16915
#
# Poissons Ratio (x) = 0.44348 -0.38014
# Poissons Ratio (y) = 0.36186 0.25050
# Poissons Ratio (z) = -0.48511 0.39178
#
# Static dielectric constant tensor:
#      x y z
#    x 2.068970 -0.111160 -0.036360 
#    y -0.111160 1.961410 -0.032020 
#    z -0.036360 -0.032020 2.003520 
# 
# From -- ./inp_files/525629.got.cif
#   From: 2010.05.17/outbox.cif.g08.bks.cpg/sg2_263_cif.got.tgz:525629.got - 2010.06.03 11:33:40.
