data_PCOD9025322
_publ_section_title
;
Structure prediction by ZEFSAII (Michael W. Deem and Ramdas Pophale) SiO2 
 PCOD9025322
Probable space group: P -1
;
_chemical_formula_sum "Si O2"
_cell_formula_units_Z 14
_cell_length_a 15.142075
_cell_length_b 7.991858
_cell_length_c 10.955712
_cell_angle_alpha 64.325802
_cell_angle_beta 142.643242
_cell_angle_gamma 135.821285
_cell_volume 530.474133
_symmetry_space_group_name_H-M "P -1"
_symmetry_group_IT_number 2
_symmetry_cell_setting 'triclinic'
loop_
_space_group_symop_operation_xyz
x,y,z
-x,-y,-z
loop_
_atom_site_type_symbol
_atom_site_label
_atom_site_fract_x
_atom_site_fract_y
_atom_site_fract_z
Si Si1 0.939111 0.152126 0.338236
Si Si2 0.319407 0.646674 0.461825
Si Si3 0.857311 0.137657 0.727565
Si Si4 0.094303 0.359959 0.683801
Si Si5 0.223791 0.346086 0.216507
Si Si6 0.520072 0.839995 0.987685
Si Si7 0.612681 0.611323 0.876975
O O1 0.118461 0.382386 0.381277
O O2 0.933313 0.235518 0.442074
O O3 0.000000 0.000000 0.500000
O O4 0.727547 0.023936 0.087898
O O5 0.298884 0.846061 0.404655
O O6 0.310719 0.565022 0.339228
O O7 0.508906 0.715592 0.711097
O O8 0.997795 0.340768 0.710737
O O9 0.776436 0.870071 0.673305
O O10 0.999690 0.208429 0.975476
O O11 0.295376 0.620106 0.762409
O O12 0.187614 0.241754 0.869179
O O13 0.339308 0.434663 0.187278
O O14 0.539090 0.661730 0.138638
O O15 0.500000 0.000000 0.000000
#
# Coordination Sequence:
#
# PCOD9025322 Si02
#       7
#     2   2   2   2   2   2   2
#     4  12  23  40  68  97 134 176 216 271 335 388
#     4  12  23  39  66 100 128 169 228 269 324 399
#     4  10  22  40  68  93 128 177 218 273 331 386
#     4   9  22  44  62  96 136 172 217 271 326 396
#     4  10  22  44  64  91 134 173 217 273 334 385
#     4  10  22  41  65  96 130 175 217 262 338 388
#     4   9  22  43  65  92 134 172 217 276 324 392
#
# _framework density 26.391482
#
# number of rings (size 3 to 8) (size 9 to 14) (size 15 to 20)
#    0.857    0.857    1.429    2.571    0.000    5.143 
#    0.000    0.000    0.000    0.000    0.000    0.000 
#    0.000    0.000    0.000    0.000    0.000    0.000 
#
# Total GULP energy -78214.512057 kJ/mol
# GULP energy per Si atom -5586.750861 kJ/mol
# Density = 2.633141 g / cm^3
# Si number density = 26.391482 Si / 1000 Ang^3
#
#
#
# Elastic Constant Matrix: (Units=GPa)
#
#
# Indices 1 2 3 4 5 6 
#
# 1 120.0476 10.8975 53.6690 -2.7854 15.9154 -20.4002
# 2 10.8975 63.6355 12.3813 -12.7881 0.3650 -13.5324
# 3 53.6690 12.3813 131.2837 -5.8463 24.1862 -23.6883
# 4 -2.7854 -12.7881 -5.8463 36.2091 -9.0110 14.6608
# 5 15.9154 0.3650 24.1862 -9.0110 45.5725 -9.4927
# 6 -20.4002 -13.5324 -23.6883 14.6608 -9.4927 45.8567
#
#
#
# Elastic Compliance Matrix: (Units=1/GPa)
#
#
# Indices 1 2 3 4 5 6 
#
# 1 0.010642 -0.000838 -0.003543 -0.001586 -0.001551 0.002843
# 2 -0.000838 0.017783 -0.000965 0.005377 0.002382 0.003150
# 3 -0.003543 -0.000965 0.010367 -0.001136 -0.003843 0.003061
# 4 -0.001586 0.005377 -0.001136 0.034548 0.005963 -0.009517
# 5 -0.001551 0.002382 -0.003843 0.005963 0.025997 0.001503
# 6 0.002843 0.003150 0.003061 -0.009517 0.001503 0.028936
#
#
# Mechanical properties :
#
#
# Convention : Reuss Voigt Hill
#
# Bulk Modulus (GPa) = 35.59108 52.09583 43.84345
# Shear Modulus (GPa) = 33.70781 41.39559 37.55170
#
# Velocity S-wave (km/s) = 3.57770 3.96475 3.77619
# Velocity P-wave (km/s) = 5.53007 6.38291 5.97173
#
# Compressibility (1/GPa) = 0.02809693
#
# Stress axis : x y z
#
# Youngs Moduli (GPa) = 93.96585 56.23431 96.46385
#
# Poissons Ratio (x) = 0.04715 0.34182
# Poissons Ratio (y) = 0.07878 0.09312
# Poissons Ratio (z) = 0.33297 0.05429
#
# Static dielectric constant tensor:
#      x y z
#    x 2.137120 -0.128310 -0.014880 
#    y -0.128310 2.269960 0.041130 
#    z -0.014880 0.041130 2.009450 
# 
# From -- ./inp_files/442836.got.cif
#   From: 2010.05.17/outbox.cif.g08.bks.cpg/sg2_222_cif.got.tgz:442836.got - 2010.06.03 11:33:40.
