data_PCOD9025910
_publ_section_title
;
Structure prediction by ZEFSAII (Michael W. Deem and Ramdas Pophale) SiO2 
 PCOD9025910
Probable space group: P -1
;
_chemical_formula_sum "Si O2"
_cell_formula_units_Z 14
_cell_length_a 9.198671
_cell_length_b 10.430008
_cell_length_c 7.684153
_cell_angle_alpha 128.291309
_cell_angle_beta 99.133359
_cell_angle_gamma 87.167198
_cell_volume 570.157042
_symmetry_space_group_name_H-M "P -1"
_symmetry_group_IT_number 2
_symmetry_cell_setting 'triclinic'
loop_
_space_group_symop_operation_xyz
x,y,z
-x,-y,-z
loop_
_atom_site_type_symbol
_atom_site_label
_atom_site_fract_x
_atom_site_fract_y
_atom_site_fract_z
Si Si1 0.814557 0.656362 0.339801
Si Si2 0.531246 0.810749 0.370897
Si Si3 0.895607 0.313946 0.967193
Si Si4 0.873040 0.897410 0.995769
Si Si5 0.449479 0.170165 0.215746
Si Si6 0.374446 0.643974 0.878467
Si Si7 0.086218 0.870595 0.520360
O O1 0.704885 0.783643 0.348894
O O2 0.879408 0.508743 0.115361
O O3 0.963292 0.757228 0.507458
O O4 0.698295 0.536960 0.323826
O O5 0.491303 0.787882 0.546294
O O6 0.450613 0.684217 0.113641
O O7 0.500000 0.000000 0.500000
O O8 0.047834 0.248603 0.011692
O O9 0.773011 0.256278 0.041417
O O10 0.849206 0.236483 0.708505
O O11 0.271544 0.160914 0.185791
O O12 0.818319 0.023203 0.236930
O O13 0.000000 0.000000 0.000000
O O14 0.512433 0.301701 0.200675
O O15 0.500000 0.000000 0.000000
O O16 0.000000 0.000000 0.500000
#
# Coordination Sequence:
#
# PCOD9025910 Si02
#       7
#     2   2   2   2   2   2   2
#     4  10  24  45  71 110 147 187 247 307 371 432
#     4  12  26  44  77 104 146 195 243 299 364 441
#     4   9  23  44  69 104 146 184 240 303 366 426
#     4  11  24  44  72 105 146 188 247 303 349 439
#     4  12  26  45  75 111 144 193 247 300 368 434
#     4  10  25  46  74 107 152 185 241 310 370 428
#     4  10  22  40  75 102 135 197 244 290 363 433
#
# _framework density 24.554638000000001
#
# number of rings (size 3 to 8) (size 9 to 14) (size 15 to 20)
#    0.857    0.571    1.429    2.571   10.000    0.571 
#    0.000    2.857    0.000    0.000    0.000    0.000 
#    0.000    0.000    0.000    0.000    0.000    0.000 
#
# Total GULP energy -78100.746292 kJ/mol
# GULP energy per Si atom -5578.624735 kJ/mol
# Density = 2.449875 g / cm^3
# Si number density = 24.554638 Si / 1000 Ang^3
#
#
#
# Elastic Constant Matrix: (Units=GPa)
#
#
# Indices 1 2 3 4 5 6 
#
# 1 105.7187 36.7669 15.4222 4.2693 -7.4351 -1.0219
# 2 36.7669 90.2510 51.8117 0.0287 -4.2798 17.2056
# 3 15.4222 51.8117 128.0272 -0.1618 -1.2981 -7.0825
# 4 4.2693 0.0287 -0.1618 38.3554 -6.0342 -7.3772
# 5 -7.4351 -4.2798 -1.2981 -6.0342 44.7599 8.0599
# 6 -1.0219 17.2056 -7.0825 -7.3772 8.0599 46.7107
#
#
#
# Elastic Compliance Matrix: (Units=1/GPa)
#
#
# Indices 1 2 3 4 5 6 
#
# 1 0.011368 -0.005598 0.001026 -0.000693 0.000893 0.002203
# 2 -0.005598 0.019644 -0.007754 -0.000812 0.002244 -0.009049
# 3 0.001026 -0.007754 0.011084 0.000709 -0.001027 0.004849
# 4 -0.000693 -0.000812 0.000709 0.027403 0.002758 0.004243
# 5 0.000893 0.002244 -0.001027 0.002758 0.023883 -0.004648
# 6 0.002203 -0.009049 0.004849 0.004243 -0.004648 0.026997
#
#
# Mechanical properties :
#
#
# Convention : Reuss Voigt Hill
#
# Bulk Modulus (GPa) = 57.32536 59.11093 58.21814
# Shear Modulus (GPa) = 33.14624 40.63159 36.88892
#
# Velocity S-wave (km/s) = 3.67808 4.07227 3.88018
# Velocity P-wave (km/s) = 6.43696 6.79975 6.62084
#
# Compressibility (1/GPa) = 0.01744429
#
# Stress axis : x y z
#
# Youngs Moduli (GPa) = 87.96474 50.90580 90.21895
#
# Poissons Ratio (x) = 0.28495 -0.09256
# Poissons Ratio (y) = 0.49239 0.69960
# Poissons Ratio (z) = -0.09024 0.39475
#
# Static dielectric constant tensor:
#      x y z
#    x 2.041470 0.165150 0.082340 
#    y 0.165150 2.611630 0.527290 
#    z 0.082340 0.527290 2.430240 
# 
# From -- ./inp_files/183251.got.cif
#   From: 2010.05.17/outbox.cif.g08.bks.cpg/sg2_92_cif.got.tgz:183251.got - 2010.06.03 11:33:40.
