data_PCOD9025902
_publ_section_title
;
Structure prediction by ZEFSAII (Michael W. Deem and Ramdas Pophale) SiO2 
 PCOD9025902
Probable space group: P -1
;
_chemical_formula_sum "Si O2"
_cell_formula_units_Z 16
_cell_length_a 9.691984
_cell_length_b 11.105035
_cell_length_c 8.652563
_cell_angle_alpha 110.861181
_cell_angle_beta 57.409444
_cell_angle_gamma 116.226486
_cell_volume 695.219597
_symmetry_space_group_name_H-M "P -1"
_symmetry_group_IT_number 2
_symmetry_cell_setting 'triclinic'
loop_
_space_group_symop_operation_xyz
x,y,z
-x,-y,-z
loop_
_atom_site_type_symbol
_atom_site_label
_atom_site_fract_x
_atom_site_fract_y
_atom_site_fract_z
Si Si1 0.212074 0.395066 0.547958
Si Si2 0.818191 0.360648 0.779244
Si Si3 0.774370 0.615172 0.102366
Si Si4 0.245021 0.938146 0.266766
Si Si5 0.431437 0.650707 0.353875
Si Si6 0.444327 0.907668 0.645155
Si Si7 0.924122 0.870709 0.655670
Si Si8 0.041784 0.858690 0.903153
O O1 0.247140 0.413895 0.716211
O O2 0.348945 0.504901 0.414641
O O3 0.195236 0.243568 0.436421
O O4 0.021079 0.405477 0.639712
O O5 0.771949 0.216804 0.830809
O O6 0.703336 0.329272 0.680157
O O7 0.784133 0.482295 0.948561
O O8 0.609414 0.656557 0.167649
O O9 0.942409 0.744489 0.031736
O O10 0.109711 0.930045 0.486942
O O11 0.432382 0.020942 0.255766
O O12 0.170093 0.015695 0.218659
O O13 0.464513 0.764391 0.517794
O O14 0.244743 0.885081 0.789030
O O15 0.500000 0.000000 0.500000
O O16 0.958496 0.803230 0.760946
O O17 0.000000 0.000000 0.000000
#
# Coordination Sequence:
#
# PCOD9025902 Si02
#       8
#     2   2   2   2   2   2   2   2
#     4  11  24  46  73  97 132 185 231 273 332 413
#     4  11  23  42  69 102 140 170 224 284 347 385
#     4  12  27  45  68 102 142 174 222 292 343 392
#     4  10  22  40  74  98 134 185 223 279 322 416
#     4  12  24  44  75  97 133 184 232 273 332 417
#     4  12  21  44  70 104 133 179 234 271 332 414
#     4  10  22  44  71 100 135 178 234 268 338 406
#     4  12  27  43  70 105 141 174 222 289 351 390
#
# _framework density 23.014310999999999
#
# number of rings (size 3 to 8) (size 9 to 14) (size 15 to 20)
#    0.000    0.750    2.500    5.250    5.250    0.000 
#    0.000    1.875    0.000    0.000    0.000    0.000 
#    0.000    0.000    0.000    0.000    0.000    0.000 
#
# Total GULP energy -89639.075681 kJ/mol
# GULP energy per Si atom -5602.442230 kJ/mol
# Density = 2.296193 g / cm^3
# Si number density = 23.014311 Si / 1000 Ang^3
#
#
#
# Elastic Constant Matrix: (Units=GPa)
#
#
# Indices 1 2 3 4 5 6 
#
# 1 110.2370 32.8168 15.8450 -8.1167 -16.8700 9.6232
# 2 32.8168 120.6848 31.3192 16.1443 -27.4470 9.3262
# 3 15.8450 31.3192 44.8021 14.8296 -18.8132 0.6410
# 4 -8.1167 16.1443 14.8296 41.6941 -4.5818 -1.9463
# 5 -16.8700 -27.4470 -18.8132 -4.5818 43.5870 -0.0159
# 6 9.6232 9.3262 0.6410 -1.9463 -0.0159 33.8690
#
#
#
# Elastic Compliance Matrix: (Units=1/GPa)
#
#
# Indices 1 2 3 4 5 6 
#
# 1 0.010928 -0.002140 -0.002807 0.004081 0.002099 -0.002227
# 2 -0.002140 0.011612 -0.004587 -0.002945 0.004194 -0.002670
# 3 -0.002807 -0.004587 0.033726 -0.009674 0.009566 0.000871
# 4 0.004081 -0.002945 -0.009674 0.029280 -0.001372 0.001517
# 5 0.002099 0.004194 0.009566 -0.001372 0.030380 -0.001997
# 6 -0.002227 -0.002670 0.000871 0.001517 -0.001997 0.030963
#
#
# Mechanical properties :
#
#
# Convention : Reuss Voigt Hill
#
# Bulk Modulus (GPa) = 26.88163 48.40953 37.64558
# Shear Modulus (GPa) = 28.03399 36.87953 32.45676
#
# Velocity S-wave (km/s) = 3.49393 4.00742 3.75945
# Velocity P-wave (km/s) = 5.28985 6.51864 5.93613
#
# Compressibility (1/GPa) = 0.03720012
#
# Stress axis : x y z
#
# Youngs Moduli (GPa) = 91.50965 86.11547 29.65081
#
# Poissons Ratio (x) = 0.18425 0.08322
# Poissons Ratio (y) = 0.19579 0.13600
# Poissons Ratio (z) = 0.25683 0.39499
#
# Static dielectric constant tensor:
#      x y z
#    x 1.855340 -0.015500 0.015520 
#    y -0.015500 1.862550 0.032630 
#    z 0.015520 0.032630 1.854830 
# 
# From -- ./inp_files/189050.got.cif
#   From: 2010.05.17/outbox.cif.g08.bks.cpg/sg2_95_cif.got.tgz:189050.got - 2010.06.03 11:33:40.
