data_PCOD9025449
_publ_section_title
;
Structure prediction by ZEFSAII (Michael W. Deem and Ramdas Pophale) SiO2 
 PCOD9025449
Probable space group: P -1
;
_chemical_formula_sum "Si O2"
_cell_formula_units_Z 14
_cell_length_a 12.206437
_cell_length_b 16.423278
_cell_length_c 9.214043
_cell_angle_alpha 153.514029
_cell_angle_beta 55.717685
_cell_angle_gamma 130.741354
_cell_volume 622.958464
_symmetry_space_group_name_H-M "P -1"
_symmetry_group_IT_number 2
_symmetry_cell_setting 'triclinic'
loop_
_space_group_symop_operation_xyz
x,y,z
-x,-y,-z
loop_
_atom_site_type_symbol
_atom_site_label
_atom_site_fract_x
_atom_site_fract_y
_atom_site_fract_z
Si Si1 0.128148 0.423773 0.747587
Si Si2 0.549845 0.455038 0.234538
Si Si3 0.139025 0.769465 0.874215
Si Si4 0.855645 0.609526 0.660657
Si Si5 0.668595 0.842135 0.273056
Si Si6 0.418439 0.147037 0.326589
Si Si7 0.957388 0.136943 0.636557
O O1 0.290147 0.544031 0.878185
O O2 0.151083 0.395190 0.515282
O O3 0.070282 0.218908 0.555114
O O4 0.000000 0.500000 0.000000
O O5 0.500000 0.500000 0.500000
O O6 0.546330 0.642447 0.443185
O O7 0.441664 0.240921 0.910058
O O8 0.208879 0.609410 0.568179
O O9 0.023285 0.725330 0.764682
O O10 0.046669 0.703878 0.988904
O O11 0.255203 0.992391 0.159207
O O12 0.768009 0.720428 0.979821
O O13 0.578136 0.804525 0.428167
O O14 0.799132 0.056153 0.549143
O O15 0.500000 0.000000 0.000000
O O16 0.000000 0.000000 0.500000
#
# Coordination Sequence:
#
# PCOD9025449 Si02
#       7
#     2   2   2   2   2   2   2
#     4  12  26  44  73 104 142 186 239 293 355 419
#     4  12  27  46  71 104 149 186 234 299 361 418
#     4  10  22  40  69 101 138 179 237 291 349 424
#     4  11  22  40  70 101 140 178 236 290 360 410
#     4  11  24  44  70 100 141 185 234 290 355 422
#     4  11  26  45  73  99 139 189 242 284 357 430
#     4  11  22  43  70 103 140 182 236 291 350 422
#
# _framework density 22.473407000000002
#
# number of rings (size 3 to 8) (size 9 to 14) (size 15 to 20)
#    0.000    0.857    4.286    3.000    0.000    2.857 
#    0.000    1.429    0.000    0.000    0.000    0.000 
#    0.000    0.000    0.000    0.000    0.000    0.000 
#
# Total GULP energy -78018.830942 kJ/mol
# GULP energy per Si atom -5572.773639 kJ/mol
# Density = 2.242226 g / cm^3
# Si number density = 22.473407 Si / 1000 Ang^3
#
#
#
# Elastic Constant Matrix: (Units=GPa)
#
#
# Indices 1 2 3 4 5 6 
#
# 1 115.4267 30.0723 34.9985 -5.9319 13.7461 17.0636
# 2 30.0723 58.8610 6.4540 -7.7275 9.6615 7.4595
# 3 34.9985 6.4540 75.0056 -18.5483 12.9875 0.7633
# 4 -5.9319 -7.7275 -18.5483 34.6578 15.2118 0.0559
# 5 13.7461 9.6615 12.9875 15.2118 60.8017 2.5654
# 6 17.0636 7.4595 0.7633 0.0559 2.5654 23.7749
#
#
#
# Elastic Compliance Matrix: (Units=1/GPa)
#
#
# Indices 1 2 3 4 5 6 
#
# 1 0.012825 -0.005267 -0.006025 -0.002233 0.000094 -0.007364
# 2 -0.005267 0.021442 0.003397 0.007802 -0.004786 -0.002558
# 3 -0.006025 0.003397 0.020471 0.013813 -0.007147 0.003340
# 4 -0.002233 0.007802 0.013813 0.044063 -0.014718 0.000196
# 5 0.000094 -0.004786 -0.007147 -0.014718 0.022426 -0.000721
# 6 -0.007364 -0.002558 0.003340 0.000196 -0.000721 0.048119
#
#
# Mechanical properties :
#
#
# Convention : Reuss Voigt Hill
#
# Bulk Modulus (GPa) = 25.67539 43.59367 34.63453
# Shear Modulus (GPa) = 25.23753 35.69812 30.46783
#
# Velocity S-wave (km/s) = 3.35475 3.98987 3.68602
# Velocity P-wave (km/s) = 5.14348 6.37695 5.79314
#
# Compressibility (1/GPa) = 0.03894779
#
# Stress axis : x y z
#
# Youngs Moduli (GPa) = 77.97196 46.63808 48.85028
#
# Poissons Ratio (x) = 0.24565 0.29430
# Poissons Ratio (y) = 0.41069 -0.16593
# Poissons Ratio (z) = 0.46975 -0.15842
#
# Static dielectric constant tensor:
#      x y z
#    x 1.923860 0.031700 -0.060440 
#    y 0.031700 1.933230 0.042620 
#    z -0.060440 0.042620 1.908280 
# 
# From -- ./inp_files/280236.got.cif
#   From: 2010.05.17/outbox.cif.g08.bks.cpg/sg2_141_cif.got.tgz:280236.got - 2010.06.03 11:33:40.
