data_PCOD9025567
_publ_section_title
;
Structure prediction by ZEFSAII (Michael W. Deem and Ramdas Pophale) SiO2 
 PCOD9025567
Probable space group: P -1
;
_chemical_formula_sum "Si O2"
_cell_formula_units_Z 12
_cell_length_a 11.843484
_cell_length_b 9.249544
_cell_length_c 7.012634
_cell_angle_alpha 76.172689
_cell_angle_beta 41.239632
_cell_angle_gamma 87.952572
_cell_volume 479.134599
_symmetry_space_group_name_H-M "P -1"
_symmetry_group_IT_number 2
_symmetry_cell_setting 'triclinic'
loop_
_space_group_symop_operation_xyz
x,y,z
-x,-y,-z
loop_
_atom_site_type_symbol
_atom_site_label
_atom_site_fract_x
_atom_site_fract_y
_atom_site_fract_z
Si Si1 0.654740 0.136387 0.693393
Si Si2 0.338180 0.076534 0.579408
Si Si3 0.634645 0.591837 0.645158
Si Si4 0.400602 0.685113 0.616162
Si Si5 0.886551 0.084980 0.749106
Si Si6 0.008417 0.606974 0.273568
O O1 0.580511 0.269344 0.644426
O O2 0.777766 0.165505 0.710116
O O3 0.730147 0.060776 0.439817
O O4 0.500000 0.000000 0.000000
O O5 0.324620 0.225520 0.426358
O O6 0.535288 0.151898 0.395050
O O7 0.224119 0.041706 0.927393
O O8 0.529658 0.592733 0.580714
O O9 0.825839 0.553411 0.408826
O O10 0.500000 0.500000 0.000000
O O11 0.196003 0.613685 0.934367
O O12 0.982718 0.223068 0.714015
O O13 0.000000 0.000000 0.500000
O O14 0.000000 0.500000 0.500000
#
# Coordination Sequence:
#
# PCOD9025567 Si02
#       6
#     2   2   2   2   2   2
#     4  12  21  39  70 101 138 180 234 289 350 422
#     4  10  22  43  67 100 144 185 229 292 354 408
#     4  10  22  40  69  98 131 187 235 279 348 421
#     4  10  22  40  70 101 136 189 228 284 358 414
#     4  12  27  42  69 112 139 181 243 291 348 422
#     4  12  23  45  75  98 142 192 230 287 363 417
#
# _framework density 25.045154
#
# number of rings (size 3 to 8) (size 9 to 14) (size 15 to 20)
#    1.000    0.000    5.000    2.500    2.333    1.333 
#    0.000    0.833    3.667    5.000    0.000    0.000 
#    0.000    0.000    0.000    0.000    0.000    0.000 
#
# Total GULP energy -66961.749462 kJ/mol
# GULP energy per Si atom -5580.145788 kJ/mol
# Density = 2.498815 g / cm^3
# Si number density = 25.045154 Si / 1000 Ang^3
#
#
#
# Elastic Constant Matrix: (Units=GPa)
#
#
# Indices 1 2 3 4 5 6 
#
# 1 208.1976 26.5209 77.2850 -14.7500 -4.7032 -3.8885
# 2 26.5209 54.8477 21.8614 -18.4247 5.2960 8.0127
# 3 77.2850 21.8614 176.7291 -29.9282 5.9312 -14.8130
# 4 -14.7500 -18.4247 -29.9282 40.6988 -6.2215 14.0297
# 5 -4.7032 5.2960 5.9312 -6.2215 44.2447 -4.0992
# 6 -3.8885 8.0127 -14.8130 14.0297 -4.0992 32.5883
#
#
#
# Elastic Compliance Matrix: (Units=1/GPa)
#
#
# Indices 1 2 3 4 5 6 
#
# 1 0.006000 -0.002396 -0.002439 -0.000750 0.001208 0.000672
# 2 -0.002396 0.027227 -0.000827 0.015388 -0.002564 -0.014304
# 3 -0.002439 -0.000827 0.007610 0.003664 -0.000505 0.001731
# 4 -0.000750 0.015388 0.003664 0.040967 0.001527 -0.019653
# 5 0.001208 -0.002564 -0.000505 0.001527 0.023584 0.002854
# 6 0.000672 -0.014304 0.001731 -0.019653 0.002854 0.043889
#
#
# Mechanical properties :
#
#
# Convention : Reuss Voigt Hill
#
# Bulk Modulus (GPa) = 33.88358 76.78988 55.33673
# Shear Modulus (GPa) = 29.33590 44.44683 36.89137
#
# Velocity S-wave (km/s) = 3.42617 4.21725 3.84212
# Velocity P-wave (km/s) = 5.40462 7.37840 6.46725
#
# Compressibility (1/GPa) = 0.02951282
#
# Stress axis : x y z
#
# Youngs Moduli (GPa) = 166.65561 36.72812 131.41130
#
# Poissons Ratio (x) = 0.08801 0.32051
# Poissons Ratio (y) = 0.39933 0.10869
# Poissons Ratio (z) = 0.40647 0.03038
#
# Static dielectric constant tensor:
#      x y z
#    x 2.158690 -0.074950 0.045430 
#    y -0.074950 2.274870 0.032220 
#    z 0.045430 0.032220 1.957360 
# 
# From -- ./inp_files/65751.got.cif
#   From: 2010.05.17/outbox.cif.g08.bks.cpg/sg2_33_cif.got.tgz:65751.got - 2010.06.03 11:33:40.
