data_PCOD9025740
_publ_section_title
;
Structure prediction by ZEFSAII (Michael W. Deem and Ramdas Pophale) SiO2 
 PCOD9025740
Probable space group: P -1
;
_chemical_formula_sum "Si O2"
_cell_formula_units_Z 16
_cell_length_a 6.984195
_cell_length_b 12.032058
_cell_length_c 24.662433
_cell_angle_alpha 28.984555
_cell_angle_beta 131.653249
_cell_angle_gamma 122.004213
_cell_volume 742.775432
_symmetry_space_group_name_H-M "P -1"
_symmetry_group_IT_number 2
_symmetry_cell_setting 'triclinic'
loop_
_space_group_symop_operation_xyz
x,y,z
-x,-y,-z
loop_
_atom_site_type_symbol
_atom_site_label
_atom_site_fract_x
_atom_site_fract_y
_atom_site_fract_z
Si Si1 0.416263 0.657802 0.085118
Si Si2 0.826520 0.657884 0.337648
Si Si3 0.610921 0.068629 0.789889
Si Si4 0.155733 0.158255 0.850997
Si Si5 0.410536 0.784432 0.507656
Si Si6 0.594973 0.249045 0.599210
Si Si7 0.361756 0.434615 0.946952
Si Si8 0.781315 0.692697 0.717822
O O1 0.685006 0.757065 0.106039
O O2 0.445741 0.572912 0.065130
O O3 0.350945 0.460031 0.197856
O O4 0.213087 0.886406 0.962557
O O5 0.635409 0.795370 0.285482
O O6 0.743035 0.717800 0.234920
O O7 0.803608 0.390194 0.455784
O O8 0.101641 0.744994 0.355824
O O9 0.560648 0.060641 0.719253
O O10 0.851248 0.212369 0.779079
O O11 0.682893 0.828077 0.936755
O O12 0.520158 0.784236 0.467156
O O13 0.634032 0.693438 0.631946
O O14 0.276238 0.040500 0.388110
O O15 0.500000 0.500000 0.500000
O O16 0.086566 0.592675 0.816682
O O17 0.500000 0.500000 0.000000
#
# Coordination Sequence:
#
# PCOD9025740 Si02
#       8
#     2   2   2   2   2   2   2   2
#     4  11  23  43  69 103 132 181 226 286 352 400
#     4  11  22  42  70 103 140 175 230 291 345 399
#     4  11  24  42  68 108 138 178 226 293 353 399
#     4  10  22  40  71 102 136 168 231 294 343 408
#     4  11  25  48  69  96 143 190 232 276 339 420
#     4  11  25  41  71 106 135 182 232 290 343 402
#     4  12  29  44  70 103 140 185 231 281 355 424
#     4  11  27  49  68  97 144 191 228 282 339 421
#
# _framework density 21.540831000000001
#
# number of rings (size 3 to 8) (size 9 to 14) (size 15 to 20)
#    0.000    1.000    5.000    0.375    5.250    1.000 
#    0.000    1.250    0.000    0.000    0.000    0.000 
#    0.000    0.000    0.000    0.000    0.000    0.000 
#
# Total GULP energy -89409.900069 kJ/mol
# GULP energy per Si atom -5588.118754 kJ/mol
# Density = 2.149180 g / cm^3
# Si number density = 21.540831 Si / 1000 Ang^3
#
#
#
# Elastic Constant Matrix: (Units=GPa)
#
#
# Indices 1 2 3 4 5 6 
#
# 1 115.8197 30.6081 31.8954 8.2929 10.3604 -7.7412
# 2 30.6081 52.2549 7.3744 13.4886 15.3175 -25.6434
# 3 31.8954 7.3744 107.1054 0.9950 3.0577 -7.2161
# 4 8.2929 13.4886 0.9950 31.7527 -2.2572 -8.2667
# 5 10.3604 15.3175 3.0577 -2.2572 30.8591 7.5088
# 6 -7.7412 -25.6434 -7.2161 -8.2667 7.5088 27.3321
#
#
#
# Elastic Compliance Matrix: (Units=1/GPa)
#
#
# Indices 1 2 3 4 5 6 
#
# 1 0.012327 -0.017054 -0.003803 0.000676 0.008563 -0.015661
# 2 -0.017054 0.127544 0.008329 -0.021143 -0.093099 0.136214
# 3 -0.003803 0.008329 0.010854 -0.000415 -0.006718 0.011323
# 4 0.000676 -0.021143 -0.000415 0.038167 0.016180 -0.012657
# 5 0.008563 -0.093099 -0.006718 0.016180 0.104480 -0.110505
# 6 -0.015661 0.136214 0.011323 -0.012657 -0.110505 0.189470
#
#
# Mechanical properties :
#
#
# Convention : Reuss Voigt Hill
#
# Bulk Modulus (GPa) = 7.95738 46.10397 27.03067
# Shear Modulus (GPa) = 9.09443 31.67560 20.38502
#
# Velocity S-wave (km/s) = 2.05697 3.83886 3.07961
# Velocity P-wave (km/s) = 3.05673 6.41082 5.02206
#
# Compressibility (1/GPa) = 0.12566945
#
# Stress axis : x y z
#
# Youngs Moduli (GPa) = 81.12242 7.84042 92.13120
#
# Poissons Ratio (x) = 0.13371 0.35034
# Poissons Ratio (y) = 1.38345 -0.76732
# Poissons Ratio (z) = 0.30848 -0.06530
#
# Static dielectric constant tensor:
#      x y z
#    x 1.760830 0.003340 -0.007600 
#    y 0.003340 1.828240 0.040280 
#    z -0.007600 0.040280 1.833100 
# 
# From -- ./inp_files/604422.got.cif
#   From: 2010.05.17/outbox.cif.g08.bks.cpg/sg2_303_cif.got.tgz:604422.got - 2010.06.03 11:33:40.
