data_PCOD9025310
_publ_section_title
;
Structure prediction by ZEFSAII (Michael W. Deem and Ramdas Pophale) SiO2 
 PCOD9025310
Probable space group: P -1
;
_chemical_formula_sum "Si O2"
_cell_formula_units_Z 14
_cell_length_a 9.926483
_cell_length_b 5.006546
_cell_length_c 13.425259
_cell_angle_alpha 98.357005
_cell_angle_beta 90.005209
_cell_angle_gamma 95.882352
_cell_volume 656.563815
_symmetry_space_group_name_H-M "P -1"
_symmetry_group_IT_number 2
_symmetry_cell_setting 'triclinic'
loop_
_space_group_symop_operation_xyz
x,y,z
-x,-y,-z
loop_
_atom_site_type_symbol
_atom_site_label
_atom_site_fract_x
_atom_site_fract_y
_atom_site_fract_z
Si Si1 0.974402 0.278548 0.273208
Si Si2 0.496168 0.180388 0.362663
Si Si3 0.946056 0.160088 0.601854
Si Si4 0.348277 0.665233 0.431953
Si Si5 0.650314 0.551428 0.046131
Si Si6 0.680082 0.108813 0.180645
Si Si7 0.074756 0.288696 0.052073
O O1 0.821678 0.164450 0.240556
O O2 0.971865 0.554572 0.351227
O O3 0.049747 0.333157 0.170948
O O4 0.046036 0.050743 0.319554
O O5 0.372186 0.362947 0.383220
O O6 0.606134 0.298064 0.451269
O O7 0.561498 0.193810 0.255506
O O8 0.449681 0.874456 0.379661
O O9 0.799107 0.247782 0.581287
O O10 0.000000 0.000000 0.500000
O O11 0.686348 0.283246 0.088914
O O12 0.654099 0.793321 0.138810
O O13 0.500000 0.500000 0.000000
O O14 0.766962 0.655580 0.972983
O O15 0.000000 0.500000 0.000000
O O16 0.000000 0.000000 0.000000
#
# Coordination Sequence:
#
# PCOD9025310 Si02
#       7
#     2   2   2   2   2   2   2
#     4  12  25  42  73  99 132 194 232 277 356 423
#     4  10  22  40  68  91 131 181 221 273 344 420
#     4  12  26  43  66 103 143 173 232 296 338 406
#     4  10  22  42  62  96 135 177 220 280 346 402
#     4  12  26  44  70 103 140 174 228 303 359 406
#     4  12  24  44  69  99 133 177 238 277 351 430
#     4  12  23  47  71  99 140 184 236 296 343 432
#
# _framework density 21.323136999999999
#
# number of rings (size 3 to 8) (size 9 to 14) (size 15 to 20)
#    0.000    0.571    2.857    5.143    0.000    6.857 
#    0.000    0.000    0.000    0.000    0.000    0.000 
#    0.000    0.000    0.000    0.000    0.000    0.000 
#
# Total GULP energy -78365.610799 kJ/mol
# GULP energy per Si atom -5597.543628 kJ/mol
# Density = 2.127460 g / cm^3
# Si number density = 21.323137 Si / 1000 Ang^3
#
#
#
# Elastic Constant Matrix: (Units=GPa)
#
#
# Indices 1 2 3 4 5 6 
#
# 1 125.2070 18.6341 39.2142 9.7049 15.5348 -0.0466
# 2 18.6341 98.8148 8.2369 3.4435 14.7088 -10.0793
# 3 39.2142 8.2369 59.0226 1.1568 2.1361 -2.5294
# 4 9.7049 3.4435 1.1568 37.8786 -2.0730 10.4299
# 5 15.5348 14.7088 2.1361 -2.0730 32.6104 -6.6293
# 6 -0.0466 -10.0793 -2.5294 10.4299 -6.6293 39.5850
#
#
#
# Elastic Compliance Matrix: (Units=1/GPa)
#
#
# Indices 1 2 3 4 5 6 
#
# 1 0.011120 -0.000777 -0.007087 -0.002618 -0.004802 -0.000752
# 2 -0.000777 0.011287 -0.000760 -0.001745 -0.004259 0.002571
# 3 -0.007087 -0.000760 0.021701 0.000991 0.002638 0.001366
# 4 -0.002618 -0.001745 0.000991 0.029462 0.002263 -0.007768
# 5 -0.004802 -0.004259 0.002638 0.002263 0.035754 0.004470
# 6 -0.000752 0.002571 0.001366 -0.007768 0.004470 0.028798
#
#
# Mechanical properties :
#
#
# Convention : Reuss Voigt Hill
#
# Bulk Modulus (GPa) = 37.23084 46.13499 41.68292
# Shear Modulus (GPa) = 30.42767 36.47875 33.45321
#
# Velocity S-wave (km/s) = 3.78164 4.14062 3.96519
# Velocity P-wave (km/s) = 6.04697 6.67403 6.36823
#
# Compressibility (1/GPa) = 0.02685945
#
# Stress axis : x y z
#
# Youngs Moduli (GPa) = 89.92409 88.59851 46.08081
#
# Poissons Ratio (x) = 0.06884 0.32658
# Poissons Ratio (y) = 0.06987 0.03504
# Poissons Ratio (z) = 0.63730 0.06737
#
# Static dielectric constant tensor:
#      x y z
#    x 1.777340 0.027720 -0.019240 
#    y 0.027720 1.740560 -0.005480 
#    z -0.019240 -0.005480 1.747230 
# 
# From -- ./inp_files/373065.got.cif
#   From: 2010.05.17/outbox.cif.g08.bks.cpg/sg2_187_cif.got.tgz:373065.got - 2010.06.03 11:33:40.
