data_PCOD9025736
_publ_section_title
;
Structure prediction by ZEFSAII (Michael W. Deem and Ramdas Pophale) SiO2 
 PCOD9025736
Probable space group: P -1
;
_chemical_formula_sum "Si O2"
_cell_formula_units_Z 16
_cell_length_a 6.850140
_cell_length_b 15.527656
_cell_length_c 10.213979
_cell_angle_alpha 45.139652
_cell_angle_beta 68.493086
_cell_angle_gamma 54.936402
_cell_volume 628.931985
_symmetry_space_group_name_H-M "P -1"
_symmetry_group_IT_number 2
_symmetry_cell_setting 'triclinic'
loop_
_space_group_symop_operation_xyz
x,y,z
-x,-y,-z
loop_
_atom_site_type_symbol
_atom_site_label
_atom_site_fract_x
_atom_site_fract_y
_atom_site_fract_z
Si Si1 0.525176 0.639201 0.746690
Si Si2 0.599346 0.974135 0.819417
Si Si3 0.100954 0.926948 0.868446
Si Si4 0.745116 0.516670 0.091323
Si Si5 0.401638 0.232883 0.761369
Si Si6 0.058203 0.515647 0.642613
Si Si7 0.727931 0.056004 0.465676
Si Si8 0.132673 0.774781 0.275119
O O1 0.318612 0.608237 0.776135
O O2 0.788088 0.552936 0.710933
O O3 0.434292 0.799141 0.580272
O O4 0.559105 0.614508 0.922057
O O5 0.051056 0.068840 0.801088
O O6 0.849975 0.950727 0.844924
O O7 0.640545 0.962119 0.666128
O O8 0.563308 0.852640 0.020913
O O9 0.265535 0.918355 0.716055
O O10 0.173241 0.799139 0.086684
O O11 0.762196 0.540449 0.214706
O O12 0.000000 0.500000 0.000000
O O13 0.172532 0.382819 0.662450
O O14 0.626933 0.259217 0.667756
O O15 0.413278 0.121662 0.771304
O O16 0.070581 0.653361 0.450484
O O17 0.000000 0.000000 0.500000
#
# Coordination Sequence:
#
# PCOD9025736 Si02
#       8
#     2   2   2   2   2   2   2   2
#     4  10  23  43  67 103 146 181 240 298 352 428
#     4   9  21  43  68  97 136 179 237 299 355 427
#     4   9  21  41  67  97 133 184 234 298 357 430
#     4   9  22  43  68  97 145 189 225 296 353 426
#     4  10  22  42  67  96 137 189 231 291 360 423
#     4  11  24  43  70 104 141 191 238 292 361 431
#     4  10  22  40  71 102 129 183 237 295 363 424
#     4  10  22  43  65  96 144 181 237 295 356 427
#
# _framework density 25.439951000000001
#
# number of rings (size 3 to 8) (size 9 to 14) (size 15 to 20)
#    0.000    2.250    0.000    0.375    7.000   10.000 
#    2.250    2.500    0.000    0.000    0.000    0.000 
#    0.000    0.000    0.000    0.000    0.000    0.000 
#
# Total GULP energy -89393.698143 kJ/mol
# GULP energy per Si atom -5587.106134 kJ/mol
# Density = 2.538205 g / cm^3
# Si number density = 25.439951 Si / 1000 Ang^3
#
#
#
# Elastic Constant Matrix: (Units=GPa)
#
#
# Indices 1 2 3 4 5 6 
#
# 1 151.7364 28.6116 5.3841 -1.5245 -21.6401 9.6706
# 2 28.6116 93.6477 56.4857 -5.9089 -1.5997 -13.1475
# 3 5.3841 56.4857 156.3223 21.6557 -28.9902 7.6068
# 4 -1.5245 -5.9089 21.6557 41.5645 -2.4906 6.1631
# 5 -21.6401 -1.5997 -28.9902 -2.4906 30.8073 -2.8054
# 6 9.6706 -13.1475 7.6068 6.1631 -2.8054 18.2305
#
#
#
# Elastic Compliance Matrix: (Units=1/GPa)
#
#
# Indices 1 2 3 4 5 6 
#
# 1 0.009909 -0.007336 0.004839 -0.001014 0.010079 -0.010672
# 2 -0.007336 0.023879 -0.012732 0.005626 -0.013394 0.022462
# 3 0.004839 -0.012732 0.015252 -0.006659 0.015322 -0.013504
# 4 -0.001014 0.005626 -0.006659 0.028451 -0.004656 -0.002961
# 5 0.010079 -0.013394 0.015322 -0.004656 0.051807 -0.011854
# 6 -0.010672 0.022462 -0.013504 -0.002961 -0.011854 0.081526
#
#
# Mechanical properties :
#
#
# Convention : Reuss Voigt Hill
#
# Bulk Modulus (GPa) = 53.81841 64.74102 59.27972
# Shear Modulus (GPa) = 20.20380 38.86877 29.53629
#
# Velocity S-wave (km/s) = 2.82117 3.91303 3.41107
# Velocity P-wave (km/s) = 5.64030 6.77640 6.23428
#
# Compressibility (1/GPa) = 0.01858100
#
# Stress axis : x y z
#
# Youngs Moduli (GPa) = 100.91356 41.87740 65.56443
#
# Poissons Ratio (x) = 0.30722 -0.31724
# Poissons Ratio (y) = 0.74032 0.83478
# Poissons Ratio (z) = -0.48828 0.53319
#
# Static dielectric constant tensor:
#      x y z
#    x 1.992810 0.014600 0.020350 
#    y 0.014600 1.988620 0.056860 
#    z 0.020350 0.056860 1.992380 
# 
# From -- ./inp_files/370339.got.cif
#   From: 2010.05.17/outbox.cif.g08.bks.cpg/sg2_186_cif.got.tgz:370339.got - 2010.06.03 11:33:40.
