data_PCOD9025932
_publ_section_title
;
Structure prediction by ZEFSAII (Michael W. Deem and Ramdas Pophale) SiO2 
 PCOD9025932
Probable space group: P -1
;
_chemical_formula_sum "Si O2"
_cell_formula_units_Z 14
_cell_length_a 15.924123
_cell_length_b 7.631100
_cell_length_c 5.385429
_cell_angle_alpha 118.014019
_cell_angle_beta 83.010138
_cell_angle_gamma 109.313228
_cell_volume 544.793874
_symmetry_space_group_name_H-M "P -1"
_symmetry_group_IT_number 2
_symmetry_cell_setting 'triclinic'
loop_
_space_group_symop_operation_xyz
x,y,z
-x,-y,-z
loop_
_atom_site_type_symbol
_atom_site_label
_atom_site_fract_x
_atom_site_fract_y
_atom_site_fract_z
Si Si1 0.553839 0.234046 0.693786
Si Si2 0.207667 0.950439 0.592141
Si Si3 0.959800 0.279953 0.732561
Si Si4 0.153979 0.312747 0.593374
Si Si5 0.406154 0.436172 0.749917
Si Si6 0.692816 0.592920 0.736283
Si Si7 0.208194 0.804300 0.005922
O O1 0.492199 0.363202 0.685182
O O2 0.650491 0.340867 0.609729
O O3 0.500000 0.000000 0.500000
O O4 0.566118 0.315777 0.029967
O O5 0.113388 0.752931 0.481798
O O6 0.245876 0.927769 0.828964
O O7 0.179563 0.153503 0.665185
O O8 0.259564 0.903638 0.302628
O O9 0.047197 0.235807 0.574149
O O10 0.111738 0.842608 0.115348
O O11 0.000000 0.500000 0.000000
O O12 0.204060 0.326665 0.320419
O O13 0.191216 0.555642 0.834321
O O14 0.353683 0.365564 0.470681
O O15 0.344393 0.343351 0.951880
#
# Coordination Sequence:
#
# PCOD9025932 Si02
#       7
#     2   2   2   2   2   2   2
#     4   9  20  41  68  90 115 162 199 236 294 366
#     4  10  22  42  60  90 113 171 215 246 320 358
#     4   8  19  41  59  90 115 168 211 263 296 364
#     4  11  22  42  63  88 132 162 202 266 310 364
#     4   9  21  42  60  88 126 148 199 242 288 368
#     4  10  22  41  57  95 123 158 192 251 308 347
#     4   9  23  41  59  89 120 157 222 255 297 369
#
# _framework density 25.697790999999999
#
# number of rings (size 3 to 8) (size 9 to 14) (size 15 to 20)
#    1.714    0.857    0.000    0.857    0.000    6.857 
#    7.714    0.000    0.000    0.000    0.000    0.000 
#    0.000    0.000    0.000    0.000    0.000    0.000 
#
# Total GULP energy -78016.797317 kJ/mol
# GULP energy per Si atom -5572.628380 kJ/mol
# Density = 2.563930 g / cm^3
# Si number density = 25.697791 Si / 1000 Ang^3
#
#
#
# Elastic Constant Matrix: (Units=GPa)
#
#
# Indices 1 2 3 4 5 6 
#
# 1 69.5890 25.5501 20.3499 -8.4742 -13.8664 13.5567
# 2 25.5501 135.7054 60.4384 4.0350 -4.2855 14.5785
# 3 20.3499 60.4384 117.3213 -31.5157 -8.3226 -8.0265
# 4 -8.4742 4.0350 -31.5157 51.4090 1.3172 7.5410
# 5 -13.8664 -4.2855 -8.3226 1.3172 41.4289 -5.1037
# 6 13.5567 14.5785 -8.0265 7.5410 -5.1037 42.8591
#
#
#
# Elastic Compliance Matrix: (Units=1/GPa)
#
#
# Indices 1 2 3 4 5 6 
#
# 1 0.017836 -0.002258 -0.001117 0.003050 0.004793 -0.005049
# 2 -0.002258 0.011578 -0.007320 -0.005170 -0.001338 -0.003845
# 3 -0.001117 -0.007320 0.015397 0.009130 0.002212 0.004384
# 4 0.003050 -0.005170 0.009130 0.026213 0.001245 -0.001960
# 5 0.004793 -0.001338 0.002212 0.001245 0.026287 0.002264
# 6 -0.005049 -0.003845 0.004384 -0.001960 0.002264 0.027672
#
#
# Mechanical properties :
#
#
# Convention : Reuss Voigt Hill
#
# Bulk Modulus (GPa) = 42.69237 59.47693 51.08465
# Shear Modulus (GPa) = 32.42953 41.55787 36.99370
#
# Velocity S-wave (km/s) = 3.55626 4.02578 3.79828
# Velocity P-wave (km/s) = 5.78895 6.69359 6.25764
#
# Compressibility (1/GPa) = 0.02342339
#
# Stress axis : x y z
#
# Youngs Moduli (GPa) = 56.06769 86.36721 64.94568
#
# Poissons Ratio (x) = 0.19499 0.07251
# Poissons Ratio (y) = 0.12659 0.47539
# Poissons Ratio (z) = 0.06260 0.63219
#
# Static dielectric constant tensor:
#      x y z
#    x 2.117950 0.042670 0.075310 
#    y 0.042670 2.101920 0.064020 
#    z 0.075310 0.064020 2.216150 
# 
# From -- ./inp_files/105928.got.cif
#   From: 2010.05.17/outbox.cif.g08.bks.cpg/sg2_53_cif.got.tgz:105928.got - 2010.06.03 11:33:40.
