data_PCOD9025848
_publ_section_title
;
Structure prediction by ZEFSAII (Michael W. Deem and Ramdas Pophale) SiO2 
 PCOD9025848
Probable space group: P -1
;
_chemical_formula_sum "Si O2"
_cell_formula_units_Z 14
_cell_length_a 5.143290
_cell_length_b 9.052732
_cell_length_c 16.260785
_cell_angle_alpha 93.782350
_cell_angle_beta 126.609142
_cell_angle_gamma 101.670946
_cell_volume 578.177629
_symmetry_space_group_name_H-M "P -1"
_symmetry_group_IT_number 2
_symmetry_cell_setting 'triclinic'
loop_
_space_group_symop_operation_xyz
x,y,z
-x,-y,-z
loop_
_atom_site_type_symbol
_atom_site_label
_atom_site_fract_x
_atom_site_fract_y
_atom_site_fract_z
Si Si1 0.783912 0.688403 0.729406
Si Si2 0.628891 0.400304 0.584894
Si Si3 0.309334 0.860904 0.714713
Si Si4 0.306062 0.426677 0.042675
Si Si5 0.491553 0.866642 0.928080
Si Si6 0.757222 0.657461 0.257465
Si Si7 0.562744 0.165613 0.681426
O O1 0.104915 0.747421 0.852921
O O2 0.708318 0.511124 0.684444
O O3 0.933666 0.786554 0.677870
O O4 0.463506 0.730729 0.704312
O O5 0.500000 0.500000 0.500000
O O6 0.424059 0.232797 0.576643
O O7 0.989488 0.378121 0.628167
O O8 0.382076 0.989856 0.663582
O O9 0.517405 0.926829 0.840674
O O10 0.263402 0.242620 0.022057
O O11 0.558830 0.501746 0.167985
O O12 0.500000 0.500000 0.000000
O O13 0.000000 0.500000 0.000000
O O14 0.500000 0.000000 0.000000
O O15 0.507376 0.741709 0.250251
O O16 0.032861 0.781739 0.256719
#
# Coordination Sequence:
#
# PCOD9025848 Si02
#       7
#     2   2   2   2   2   2   2
#     4  10  23  42  69  93 140 174 229 282 348 401
#     4  10  24  44  75 104 133 176 232 288 350 411
#     4  10  23  43  69  93 139 188 219 280 352 408
#     4  12  27  42  67  99 138 184 237 288 345 411
#     4  10  25  43  66  98 139 184 234 281 344 408
#     4  10  22  42  66  96 137 172 229 283 337 398
#     4  10  22  40  72  95 135 179 221 277 351 405
#
# _framework density 24.214010999999999
#
# number of rings (size 3 to 8) (size 9 to 14) (size 15 to 20)
#    1.714    0.000    1.429    1.714    8.000    2.286 
#    0.000    1.429    0.000    0.000    0.000    0.000 
#    0.000    0.000    0.000    0.000    0.000    0.000 
#
# Total GULP energy -78111.861653 kJ/mol
# GULP energy per Si atom -5579.418690 kJ/mol
# Density = 2.415890 g / cm^3
# Si number density = 24.214011 Si / 1000 Ang^3
#
#
#
# Elastic Constant Matrix: (Units=GPa)
#
#
# Indices 1 2 3 4 5 6 
#
# 1 126.1070 22.3494 11.4265 -11.5607 -10.9863 3.2598
# 2 22.3494 97.7277 21.4119 -24.5984 -3.3853 16.3097
# 3 11.4265 21.4119 47.6106 -22.4513 2.5303 3.9507
# 4 -11.5607 -24.5984 -22.4513 38.8802 5.0565 -11.6608
# 5 -10.9863 -3.3853 2.5303 5.0565 9.4046 -0.6412
# 6 3.2598 16.3097 3.9507 -11.6608 -0.6412 42.2797
#
#
#
# Elastic Compliance Matrix: (Units=1/GPa)
#
#
# Indices 1 2 3 4 5 6 
#
# 1 0.009358 -0.001423 -0.002869 -0.001353 0.011912 -0.000097
# 2 -0.001423 0.013041 -0.002916 0.005058 0.000876 -0.003240
# 3 -0.002869 -0.002916 0.034051 0.021282 -0.024756 0.003658
# 4 -0.001353 0.005058 0.021282 0.047387 -0.030366 0.008773
# 5 0.011912 0.000876 -0.024756 -0.030366 0.143198 -0.005146
# 6 -0.000097 -0.003240 0.003658 0.008773 -0.005146 0.026909
#
#
# Mechanical properties :
#
#
# Convention : Reuss Voigt Hill
#
# Bulk Modulus (GPa) = 23.78987 42.42457 33.10722
# Shear Modulus (GPa) = 16.53588 32.53007 24.53297
#
# Velocity S-wave (km/s) = 2.61608 3.66927 3.18649
# Velocity P-wave (km/s) = 4.35561 5.95904 5.21927
#
# Compressibility (1/GPa) = 0.04203470
#
# Stress axis : x y z
#
# Youngs Moduli (GPa) = 106.85763 76.68068 29.36738
#
# Poissons Ratio (x) = 0.10914 0.08425
# Poissons Ratio (y) = 0.15209 0.08563
# Poissons Ratio (z) = 0.30656 0.22359
#
# Static dielectric constant tensor:
#      x y z
#    x 1.800520 -0.171720 0.092740 
#    y -0.171720 1.642830 0.101340 
#    z 0.092740 0.101340 1.965060 
# 
# From -- ./inp_files/548128.got.cif
#   From: 2010.05.17/outbox.cif.g08.bks.cpg/sg2_275_cif.got.tgz:548128.got - 2010.06.03 11:33:40.
