data_PCOD9025995
_publ_section_title
;
Structure prediction by ZEFSAII (Michael W. Deem and Ramdas Pophale) SiO2 
 PCOD9025995
Probable space group: P -1
;
_chemical_formula_sum "Si O2"
_cell_formula_units_Z 16
_cell_length_a 11.352319
_cell_length_b 22.571007
_cell_length_c 7.911253
_cell_angle_alpha 49.602744
_cell_angle_beta 135.629269
_cell_angle_gamma 150.729644
_cell_volume 691.307386
_symmetry_space_group_name_H-M "P -1"
_symmetry_group_IT_number 2
_symmetry_cell_setting 'triclinic'
loop_
_space_group_symop_operation_xyz
x,y,z
-x,-y,-z
loop_
_atom_site_type_symbol
_atom_site_label
_atom_site_fract_x
_atom_site_fract_y
_atom_site_fract_z
Si Si1 0.346989 0.633705 0.931901
Si Si2 0.812147 0.883137 0.404306
Si Si3 0.139528 0.454364 0.328663
Si Si4 0.017979 0.204340 0.098767
Si Si5 0.365377 0.031670 0.063400
Si Si6 0.058442 0.757272 0.687568
Si Si7 0.592462 0.574225 0.126224
Si Si8 0.094215 0.144875 0.809625
O O1 0.277605 0.575442 0.154619
O O2 0.402727 0.576552 0.984741
O O3 0.623588 0.776933 0.965419
O O4 0.093758 0.595883 0.697770
O O5 0.943913 0.907771 0.314929
O O6 0.776759 0.790297 0.640021
O O7 0.000000 0.000000 0.500000
O O8 0.589891 0.866095 0.158447
O O9 0.354493 0.475340 0.595647
O O10 0.997728 0.348095 0.243148
O O11 0.985809 0.246670 0.151028
O O12 0.753505 0.067149 0.019554
O O13 0.132464 0.289043 0.899426
O O14 0.138890 0.954183 0.116528
O O15 0.643195 0.108002 0.283753
O O16 0.887020 0.757384 0.403078
O O17 0.500000 0.500000 0.000000
#
# Coordination Sequence:
#
# PCOD9025995 Si02
#       8
#     2   2   2   2   2   2   2   2
#     4  11  24  45  70  97 134 170 229 282 329 402
#     4   9  21  36  57  88 131 173 216 268 327 393
#     4  11  25  44  68 102 128 175 231 273 340 400
#     4  10  22  41  60  95 134 177 218 269 345 397
#     4  11  20  39  61  99 130 173 231 269 335 398
#     4  11  22  39  64  95 134 178 220 280 334 400
#     4  12  25  44  71  98 135 176 221 281 341 399
#     4  11  21  38  67  90 131 180 218 278 334 393
#
# _framework density 23.144553999999999
#
# number of rings (size 3 to 8) (size 9 to 14) (size 15 to 20)
#    0.000    1.250    2.500    3.000    3.500    0.500 
#    2.250    1.250    0.000    0.000    0.000    0.000 
#    0.000    0.000    0.000    0.000    0.000    0.000 
#
# Total GULP energy -89403.275900 kJ/mol
# GULP energy per Si atom -5587.704744 kJ/mol
# Density = 2.309188 g / cm^3
# Si number density = 23.144554 Si / 1000 Ang^3
#
#
#
# Elastic Constant Matrix: (Units=GPa)
#
#
# Indices 1 2 3 4 5 6 
#
# 1 121.4628 18.2167 13.1055 13.4624 1.2800 -16.9256
# 2 18.2167 54.5854 2.5378 5.3812 5.0470 1.7438
# 3 13.1055 2.5378 37.2570 -0.4621 2.1308 -11.6279
# 4 13.4624 5.3812 -0.4621 33.3986 -2.0433 -2.3010
# 5 1.2800 5.0470 2.1308 -2.0433 34.8737 2.4389
# 6 -16.9256 1.7438 -11.6279 -2.3010 2.4389 39.0792
#
#
#
# Elastic Compliance Matrix: (Units=1/GPa)
#
#
# Indices 1 2 3 4 5 6 
#
# 1 0.009762 -0.002927 -0.002156 -0.003264 -0.000242 0.003540
# 2 -0.002927 0.019900 -0.000955 -0.002370 -0.002684 -0.002412
# 3 -0.002156 -0.000955 0.030433 0.001894 -0.002119 0.008408
# 4 -0.003264 -0.002370 0.001894 0.031865 0.002144 0.000998
# 5 -0.000242 -0.002684 -0.002119 0.002144 0.029490 -0.002330
# 6 0.003540 -0.002412 0.008408 0.000998 -0.002330 0.029936
#
#
# Mechanical properties :
#
#
# Convention : Reuss Voigt Hill
#
# Bulk Modulus (GPa) = 20.82476 31.22502 26.02489
# Shear Modulus (GPa) = 27.86018 33.43334 30.64676
#
# Velocity S-wave (km/s) = 3.47327 3.80484 3.64283
# Velocity P-wave (km/s) = 5.01019 5.72914 5.38168
#
# Compressibility (1/GPa) = 0.04801976
#
# Stress axis : x y z
#
# Youngs Moduli (GPa) = 102.43611 50.25157 32.85925
#
# Poissons Ratio (x) = 0.14707 0.07086
# Poissons Ratio (y) = 0.29979 0.03137
# Poissons Ratio (z) = 0.22090 0.04797
#
# Static dielectric constant tensor:
#      x y z
#    x 1.885490 -0.013540 0.041510 
#    y -0.013540 1.909120 -0.032230 
#    z 0.041510 -0.032230 1.903090 
# 
# From -- ./inp_files/284767.got.cif
#   From: 2010.05.17/outbox.cif.g08.bks.cpg/sg2_143_cif.got.tgz:284767.got - 2010.06.03 11:33:40.
