data_PCOD9025248
_publ_section_title
;
Structure prediction by ZEFSAII (Michael W. Deem and Ramdas Pophale) SiO2 
 PCOD9025248
Probable space group: P -1
;
_chemical_formula_sum "Si O2"
_cell_formula_units_Z 14
_cell_length_a 14.248983
_cell_length_b 10.564829
_cell_length_c 11.379048
_cell_angle_alpha 29.460207
_cell_angle_beta 51.681702
_cell_angle_gamma 41.591536
_cell_volume 556.695518
_symmetry_space_group_name_H-M "P -1"
_symmetry_group_IT_number 2
_symmetry_cell_setting 'triclinic'
loop_
_space_group_symop_operation_xyz
x,y,z
-x,-y,-z
loop_
_atom_site_type_symbol
_atom_site_label
_atom_site_fract_x
_atom_site_fract_y
_atom_site_fract_z
Si Si1 0.111775 0.939771 0.626516
Si Si2 0.882845 0.841748 0.789817
Si Si3 0.587551 0.659681 0.833543
Si Si4 0.869012 0.029884 0.148421
Si Si5 0.643586 0.357414 0.656095
Si Si6 0.683421 0.783916 0.418765
Si Si7 0.387781 0.365296 0.803292
O O1 0.092799 0.073155 0.662841
O O2 0.232693 0.574344 0.814846
O O3 0.962004 0.008378 0.639041
O O4 0.155430 0.096773 0.367097
O O5 0.743170 0.993027 0.854818
O O6 0.000000 0.500000 0.000000
O O7 0.636411 0.789874 0.584357
O O8 0.458440 0.966168 0.745828
O O9 0.500000 0.500000 0.000000
O O10 0.737862 0.379870 0.985034
O O11 0.804118 0.859481 0.267387
O O12 0.000000 0.000000 0.000000
O O13 0.714304 0.465935 0.604942
O O14 0.483881 0.461170 0.723825
O O15 0.637712 0.500024 0.417802
O O16 0.500000 0.000000 0.000000
#
# Coordination Sequence:
#
# PCOD9025248 Si02
#       7
#     2   2   2   2   2   2   2
#     4  10  24  43  67 102 137 179 245 284 350 436
#     4  10  22  47  70  95 137 187 229 296 363 416
#     4   9  22  42  66 100 134 187 233 279 361 413
#     4  11  26  46  67 106 145 193 240 288 354 427
#     4  10  23  40  68 104 131 174 237 288 356 433
#     4  10  23  44  71  98 142 186 235 299 349 424
#     4  10  22  40  68 102 134 174 230 296 354 418
#
# _framework density 25.148396999999999
#
# number of rings (size 3 to 8) (size 9 to 14) (size 15 to 20)
#    0.000    2.000    0.000    0.857   10.000    2.857 
#    7.714    0.000    0.000    0.000    0.000    0.000 
#    0.000    0.000    0.000    0.000    0.000    0.000 
#
# Total GULP energy -78103.900914 kJ/mol
# GULP energy per Si atom -5578.850065 kJ/mol
# Density = 2.509116 g / cm^3
# Si number density = 25.148397 Si / 1000 Ang^3
#
#
#
# Elastic Constant Matrix: (Units=GPa)
#
#
# Indices 1 2 3 4 5 6 
#
# 1 115.1740 55.3272 15.4324 21.0789 -5.3942 -15.9807
# 2 55.3272 116.2599 14.0435 3.3477 -2.3378 -24.2727
# 3 15.4324 14.0435 49.9690 -7.6983 2.6737 -10.8755
# 4 21.0789 3.3477 -7.6983 38.0360 -9.9708 -6.3442
# 5 -5.3942 -2.3378 2.6737 -9.9708 34.1597 5.5412
# 6 -15.9807 -24.2727 -10.8755 -6.3442 5.5412 40.4757
#
#
#
# Elastic Compliance Matrix: (Units=1/GPa)
#
#
# Indices 1 2 3 4 5 6 
#
# 1 0.013295 -0.005734 -0.003760 -0.007740 -0.000195 -0.000387
# 2 -0.005734 0.012428 -0.000021 0.003000 -0.000097 0.005666
# 3 -0.003760 -0.000021 0.023782 0.007615 -0.001249 0.006257
# 4 -0.007740 0.003000 0.007615 0.034736 0.007686 0.005182
# 5 -0.000195 -0.000097 -0.001249 0.007686 0.032173 -0.003671
# 6 -0.000387 0.005666 0.006257 0.005182 -0.003671 0.030948
#
#
# Mechanical properties :
#
#
# Convention : Reuss Voigt Hill
#
# Bulk Modulus (GPa) = 32.81691 50.11211 41.46451
# Shear Modulus (GPa) = 28.32046 35.64095 31.98071
#
# Velocity S-wave (km/s) = 3.35943 3.76869 3.56993
# Velocity P-wave (km/s) = 5.30333 6.23756 5.78932
#
# Compressibility (1/GPa) = 0.03047210
#
# Stress axis : x y z
#
# Youngs Moduli (GPa) = 75.21725 80.46579 42.04924
#
# Poissons Ratio (x) = 0.46143 0.15812
# Poissons Ratio (y) = 0.43133 0.00089
# Poissons Ratio (z) = 0.28285 0.00170
#
# Static dielectric constant tensor:
#      x y z
#    x 2.054890 -0.002320 -0.025430 
#    y -0.002320 2.015750 -0.045000 
#    z -0.025430 -0.045000 2.102950 
# 
# From -- ./inp_files/450902.got.cif
#   From: 2010.05.17/outbox.cif.g08.bks.cpg/sg2_226_cif.got.tgz:450902.got - 2010.06.03 11:33:40.
