data_PCOD9025688
_publ_section_title
;
Structure prediction by ZEFSAII (Michael W. Deem and Ramdas Pophale) SiO2 
 PCOD9025688
Probable space group: P -1
;
_chemical_formula_sum "Si O2"
_cell_formula_units_Z 13
_cell_length_a 7.955897
_cell_length_b 8.938937
_cell_length_c 8.977932
_cell_angle_alpha 108.587882
_cell_angle_beta 95.168416
_cell_angle_gamma 105.744468
_cell_volume 571.459118
_symmetry_space_group_name_H-M "P -1"
_symmetry_group_IT_number 2
_symmetry_cell_setting 'triclinic'
loop_
_space_group_symop_operation_xyz
x,y,z
-x,-y,-z
loop_
_atom_site_type_symbol
_atom_site_label
_atom_site_fract_x
_atom_site_fract_y
_atom_site_fract_z
Si Si1 0.265203 0.370144 0.472968
Si Si2 0.105374 0.891169 0.654639
Si Si3 0.882411 0.602699 0.839110
Si Si4 0.604152 0.873826 0.426121
Si Si5 0.000000 0.000000 0.000000
Si Si6 0.266712 0.666403 0.765302
Si Si7 0.404311 0.636531 0.070441
O O1 0.255912 0.418980 0.316352
O O2 0.377749 0.248163 0.479831
O O3 0.320181 0.529023 0.633849
O O4 0.060173 0.263483 0.459354
O O5 0.255067 0.816461 0.708949
O O6 0.198541 0.018480 0.575535
O O7 0.037624 0.969356 0.816173
O O8 0.787410 0.467134 0.910295
O O9 0.063454 0.584717 0.781219
O O10 0.932199 0.794354 0.954603
O O11 0.510907 0.764904 0.242634
O O12 0.500000 0.000000 0.500000
O O13 0.383408 0.721574 0.939995
O O14 0.500000 0.500000 0.000000
#
# Coordination Sequence:
#
# PCOD9025688 Si02
#       7
#     2   2   2   2   1   2   2
#     4  10  22  44  69  93 123 176 227 272 324 384
#     4  10  22  43  69  96 129 168 228 281 317 390
#     4  10  22  40  70  97 126 168 225 279 318 388
#     4  12  28  41  63 102 141 176 213 268 344 398
#     4   8  18  38  66  94 122 158 220 270 328 354
#     4  10  22  42  70  94 121 173 229 273 323 380
#     4  12  25  42  63  97 140 176 211 266 336 402
#
# _framework density 22.748784000000001
#
# number of rings (size 3 to 8) (size 9 to 14) (size 15 to 20)
#    0.000    1.846    1.538    3.692    4.308    7.385 
#    0.000    0.000    0.000    0.000    0.000    0.000 
#    0.000    0.000    0.000    0.000    0.000    0.000 
#
# Total GULP energy -72463.829279 kJ/mol
# GULP energy per Si atom -5574.140714 kJ/mol
# Density = 2.269701 g / cm^3
# Si number density = 22.748784 Si / 1000 Ang^3
#
#
#
# Elastic Constant Matrix: (Units=GPa)
#
#
# Indices 1 2 3 4 5 6 
#
# 1 50.5613 4.7464 8.6647 2.6998 4.8701 -1.0892
# 2 4.7464 58.6594 25.3861 -6.7508 4.0103 -2.0254
# 3 8.6647 25.3861 93.6810 10.5201 6.0026 -22.1256
# 4 2.6998 -6.7508 10.5201 42.8746 -8.8755 6.1985
# 5 4.8701 4.0103 6.0026 -8.8755 30.3257 -9.4719
# 6 -1.0892 -2.0254 -22.1256 6.1985 -9.4719 50.6697
#
#
#
# Elastic Compliance Matrix: (Units=1/GPa)
#
#
# Indices 1 2 3 4 5 6 
#
# 1 0.020536 -0.001068 -0.001328 -0.001792 -0.003618 -0.000638
# 2 -0.001068 0.020584 -0.006712 0.005251 -0.000586 -0.002883
# 3 -0.001328 -0.006712 0.014954 -0.005919 -0.001507 0.006676
# 4 -0.001792 0.005251 -0.005919 0.027919 0.007557 -0.004416
# 5 -0.003618 -0.000586 -0.001507 0.007557 0.037826 0.005388
# 6 -0.000638 -0.002883 0.006676 -0.004416 0.005388 0.024069
#
#
# Mechanical properties :
#
#
# Convention : Reuss Voigt Hill
#
# Bulk Modulus (GPa) = 26.41426 31.16624 28.79025
# Shear Modulus (GPa) = 28.29291 35.71431 32.00361
#
# Velocity S-wave (km/s) = 3.53045 3.96655 3.75484
# Velocity P-wave (km/s) = 5.31557 5.89134 5.61085
#
# Compressibility (1/GPa) = 0.03785834
#
# Stress axis : x y z
#
# Youngs Moduli (GPa) = 48.69461 48.58252 66.87139
#
# Poissons Ratio (x) = 0.05189 0.08878
# Poissons Ratio (y) = 0.05201 0.44884
# Poissons Ratio (z) = 0.06465 0.32609
#
# Static dielectric constant tensor:
#      x y z
#    x 1.886000 0.005660 0.045170 
#    y 0.005660 1.792600 -0.051760 
#    z 0.045170 -0.051760 1.762060 
# 
# From -- ./inp_files/151919.got.cif
#   From: 2010.05.17/outbox.cif.g08.bks.cpg/sg2_76_cif.got.tgz:151919.got - 2010.06.03 11:33:40.
