data_PCOD9025084
_publ_section_title
;
Structure prediction by ZEFSAII (Michael W. Deem and Ramdas Pophale) SiO2 
 PCOD9025084
Probable space group: P -1
;
_chemical_formula_sum "Si O2"
_cell_formula_units_Z 16
_cell_length_a 10.122869
_cell_length_b 15.611194
_cell_length_c 12.556389
_cell_angle_alpha 27.849346
_cell_angle_beta 76.326379
_cell_angle_gamma 60.906747
_cell_volume 713.189160
_symmetry_space_group_name_H-M "P -1"
_symmetry_group_IT_number 2
_symmetry_cell_setting 'triclinic'
loop_
_space_group_symop_operation_xyz
x,y,z
-x,-y,-z
loop_
_atom_site_type_symbol
_atom_site_label
_atom_site_fract_x
_atom_site_fract_y
_atom_site_fract_z
Si Si1 0.374678 0.968790 0.905900
Si Si2 0.843296 0.360935 0.103472
Si Si3 0.840284 0.403848 0.295210
Si Si4 0.663811 0.996760 0.887398
Si Si5 0.368182 0.776398 0.743831
Si Si6 0.541671 0.475512 0.394788
Si Si7 0.242602 0.179734 0.480799
Si Si8 0.784445 0.865998 0.791881
O O1 0.555543 0.903421 0.985073
O O2 0.296453 0.150352 0.626145
O O3 0.277413 0.039691 0.960853
O O4 0.410114 0.742190 0.093850
O O5 0.755105 0.622504 0.793927
O O6 0.807346 0.344270 0.251603
O O7 0.796625 0.216891 0.207435
O O8 0.042614 0.238997 0.188908
O O9 0.732869 0.384035 0.426246
O O10 0.043326 0.272268 0.417089
O O11 0.755191 0.674411 0.003068
O O12 0.534419 0.271762 0.585202
O O13 0.804916 0.894842 0.880648
O O14 0.361715 0.938342 0.657689
O O15 0.355240 0.901750 0.498999
O O16 0.500000 0.500000 0.000000
O O17 0.500000 0.500000 0.500000
#
# Coordination Sequence:
#
# PCOD9025084 Si02
#       8
#     2   2   2   2   2   2   2   2
#     4  10  23  43  63  92 131 167 221 272 315 383
#     4  11  24  43  65  95 136 175 211 257 331 407
#     4  11  21  44  68  92 135 179 209 265 325 399
#     4  10  22  40  68  89 124 175 219 261 324 381
#     4  12  27  38  64 102 132 169 218 269 325 384
#     4  10  22  40  67  92 122 172 221 260 318 382
#     4  11  25  43  63  98 138 167 215 271 326 382
#     4  11  21  42  69  94 128 176 217 258 329 395
#
# _framework density 22.434439000000001
#
# number of rings (size 3 to 8) (size 9 to 14) (size 15 to 20)
#    0.000    1.250    3.750    1.875    7.000    0.500 
#    0.000    5.000    0.000    0.000    0.000    0.000 
#    0.000    0.000    0.000    0.000    0.000    0.000 
#
# Total GULP energy -89214.683000 kJ/mol
# GULP energy per Si atom -5575.917687 kJ/mol
# Density = 2.238338 g / cm^3
# Si number density = 22.434439 Si / 1000 Ang^3
#
#
#
# Elastic Constant Matrix: (Units=GPa)
#
#
# Indices 1 2 3 4 5 6 
#
# 1 43.4698 20.2106 12.3278 9.5965 -10.9408 -1.2801
# 2 20.2106 140.3305 38.3900 15.2703 -0.4325 -3.0055
# 3 12.3278 38.3900 102.7752 -2.3992 -5.1646 6.5364
# 4 9.5965 15.2703 -2.3992 35.7389 7.2227 -7.2110
# 5 -10.9408 -0.4325 -5.1646 7.2227 30.1508 0.8584
# 6 -1.2801 -3.0055 6.5364 -7.2110 0.8584 35.3992
#
#
#
# Elastic Compliance Matrix: (Units=1/GPa)
#
#
# Indices 1 2 3 4 5 6 
#
# 1 0.030305 -0.002674 -0.002147 -0.009988 0.013014 -0.001085
# 2 -0.002674 0.008680 -0.003064 -0.002932 -0.000686 0.000626
# 3 -0.002147 -0.003064 0.011343 0.002103 0.000674 -0.002020
# 4 -0.009988 -0.002932 0.002103 0.035827 -0.012076 0.006593
# 5 0.013014 -0.000686 0.000674 -0.012076 0.040978 -0.003166
# 6 -0.001085 0.000626 -0.002020 0.006593 -0.003166 0.030056
#
#
# Mechanical properties :
#
#
# Convention : Reuss Voigt Hill
#
# Bulk Modulus (GPa) = 28.93566 47.60358 38.26962
# Shear Modulus (GPa) = 27.10364 34.63424 30.86894
#
# Velocity S-wave (km/s) = 3.47958 3.93338 3.71342
# Velocity P-wave (km/s) = 5.39159 6.47253 5.95663
#
# Compressibility (1/GPa) = 0.03455944
#
# Stress axis : x y z
#
# Youngs Moduli (GPa) = 32.99800 115.21251 88.15664
#
# Poissons Ratio (x) = 0.30803 0.18923
# Poissons Ratio (y) = 0.08822 0.27012
# Poissons Ratio (z) = 0.07083 0.35303
#
# Static dielectric constant tensor:
#      x y z
#    x 1.886660 -0.046250 0.010280 
#    y -0.046250 1.874960 -0.024130 
#    z 0.010280 -0.024130 1.904150 
# 
# From -- ./inp_files/397447.got.cif
#   From: 2010.05.17/outbox.cif.g08.bks.cpg/sg2_199_cif.got.tgz:397447.got - 2010.06.03 11:33:40.
