data_PCOD9025325
_publ_section_title
;
Structure prediction by ZEFSAII (Michael W. Deem and Ramdas Pophale) SiO2 
 PCOD9025325
Probable space group: P -1
;
_chemical_formula_sum "Si O2"
_cell_formula_units_Z 16
_cell_length_a 8.458603
_cell_length_b 11.478536
_cell_length_c 11.802427
_cell_angle_alpha 132.682268
_cell_angle_beta 125.840632
_cell_angle_gamma 57.285025
_cell_volume 662.792077
_symmetry_space_group_name_H-M "P -1"
_symmetry_group_IT_number 2
_symmetry_cell_setting 'triclinic'
loop_
_space_group_symop_operation_xyz
x,y,z
-x,-y,-z
loop_
_atom_site_type_symbol
_atom_site_label
_atom_site_fract_x
_atom_site_fract_y
_atom_site_fract_z
Si Si1 0.785284 0.721687 0.460377
Si Si2 0.350370 0.694318 0.698497
Si Si3 0.072856 0.329673 0.855809
Si Si4 0.075703 0.843685 0.504324
Si Si5 0.783260 0.098330 0.016156
Si Si6 0.528594 0.683007 0.133077
Si Si7 0.143641 0.410724 0.370613
Si Si8 0.752503 0.793587 0.934171
O O1 0.906297 0.834438 0.520540
O O2 0.580849 0.730161 0.313151
O O3 0.779620 0.732348 0.599612
O O4 0.930717 0.539365 0.385136
O O5 0.218076 0.761797 0.798055
O O6 0.303481 0.524495 0.527614
O O7 0.571025 0.709351 0.831373
O O8 0.278168 0.813548 0.640088
O O9 0.914107 0.299861 0.677715
O O10 0.274117 0.317766 0.859821
O O11 0.123936 0.200879 0.895696
O O12 0.000000 0.500000 0.000000
O O13 0.000000 0.000000 0.500000
O O14 0.652536 0.187759 0.916087
O O15 0.690848 0.968120 0.961890
O O16 0.000000 0.000000 0.000000
O O17 0.500000 0.500000 0.000000
O O18 0.127224 0.328295 0.189955
#
# Coordination Sequence:
#
# PCOD9025325 Si02
#       8
#     2   2   2   2   2   2   2   2
#     4   9  21  39  68  95 138 177 232 284 346 418
#     4  11  23  45  69  98 138 187 231 289 347 427
#     4  11  24  44  72 106 137 181 234 293 349 422
#     4  10  22  40  68  93 140 182 222 279 361 409
#     4  12  29  44  71 103 144 192 238 296 359 413
#     4  11  24  45  69 100 140 187 234 291 350 423
#     4  10  22  42  72 102 137 184 235 283 361 425
#     4  12  25  43  72 105 142 178 240 294 353 418
#
# _framework density 24.140298999999999
#
# number of rings (size 3 to 8) (size 9 to 14) (size 15 to 20)
#    0.000    1.250    1.250    4.500   12.250    0.000 
#    0.000    0.625    0.000    0.000    0.000    0.000 
#    0.000    0.000    0.000    0.000    0.000    0.000 
#
# Total GULP energy -89519.910778 kJ/mol
# GULP energy per Si atom -5594.994424 kJ/mol
# Density = 2.408535 g / cm^3
# Si number density = 24.140299 Si / 1000 Ang^3
#
#
#
# Elastic Constant Matrix: (Units=GPa)
#
#
# Indices 1 2 3 4 5 6 
#
# 1 52.5058 16.2772 13.2904 -9.6714 -11.2301 5.4859
# 2 16.2772 126.3173 11.6148 -27.1282 2.2741 23.7271
# 3 13.2904 11.6148 73.7190 -32.3883 -3.8180 4.7350
# 4 -9.6714 -27.1282 -32.3883 55.8074 7.8961 -0.8475
# 5 -11.2301 2.2741 -3.8180 7.8961 31.0812 -1.3126
# 6 5.4859 23.7271 4.7350 -0.8475 -1.3126 42.6151
#
#
#
# Elastic Compliance Matrix: (Units=1/GPa)
#
#
# Indices 1 2 3 4 5 6 
#
# 1 0.022429 -0.002690 -0.003389 -0.000529 0.007986 -0.000778
# 2 -0.002690 0.010524 0.001652 0.005989 -0.003300 -0.005679
# 3 -0.003389 0.001652 0.019022 0.011506 -0.002034 -0.002431
# 4 -0.000529 0.005989 0.011506 0.028283 -0.006578 -0.004185
# 5 0.007986 -0.003300 -0.002034 -0.006578 0.036808 0.002038
# 6 -0.000778 -0.005679 -0.002431 -0.004185 0.002038 0.026978
#
#
# Mechanical properties :
#
#
# Convention : Reuss Voigt Hill
#
# Bulk Modulus (GPa) = 23.19057 37.21188 30.20123
# Shear Modulus (GPa) = 29.89179 39.99138 34.94159
#
# Velocity S-wave (km/s) = 3.52270 4.07458 3.80865
# Velocity P-wave (km/s) = 5.11599 6.13063 5.64614
#
# Compressibility (1/GPa) = 0.04312097
#
# Stress axis : x y z
#
# Youngs Moduli (GPa) = 44.58508 95.02413 52.57178
#
# Poissons Ratio (x) = 0.25561 0.17815
# Poissons Ratio (y) = 0.11993 -0.08685
# Poissons Ratio (z) = 0.15108 -0.15697
#
# Static dielectric constant tensor:
#      x y z
#    x 1.986450 0.033280 0.003990 
#    y 0.033280 1.959770 0.023390 
#    z 0.003990 0.023390 1.929220 
# 
# From -- ./inp_files/393219.got.cif
#   From: 2010.05.17/outbox.cif.g08.bks.cpg/sg2_197_cif.got.tgz:393219.got - 2010.06.03 11:33:40.
