data_PCOD9025284
_publ_section_title
;
Structure prediction by ZEFSAII (Michael W. Deem and Ramdas Pophale) SiO2 
 PCOD9025284
Probable space group: P -1
;
_chemical_formula_sum "Si O2"
_cell_formula_units_Z 16
_cell_length_a 10.791970
_cell_length_b 13.319865
_cell_length_c 8.648446
_cell_angle_alpha 66.878265
_cell_angle_beta 113.233132
_cell_angle_gamma 146.476436
_cell_volume 625.903003
_symmetry_space_group_name_H-M "P -1"
_symmetry_group_IT_number 2
_symmetry_cell_setting 'triclinic'
loop_
_space_group_symop_operation_xyz
x,y,z
-x,-y,-z
loop_
_atom_site_type_symbol
_atom_site_label
_atom_site_fract_x
_atom_site_fract_y
_atom_site_fract_z
Si Si1 0.047945 0.337929 0.783270
Si Si2 0.714140 0.657664 0.902544
Si Si3 0.033903 0.982851 0.700218
Si Si4 0.754892 0.503495 0.521426
Si Si5 0.813872 0.140071 0.292480
Si Si6 0.645872 0.203507 0.539829
Si Si7 0.487844 0.333897 0.791631
Si Si8 0.699013 0.303162 0.149713
O O1 0.241158 0.450052 0.678163
O O2 0.119845 0.485640 0.840409
O O3 0.812845 0.212048 0.659804
O O4 0.071345 0.246814 0.952836
O O5 0.647541 0.534561 0.805426
O O6 0.797617 0.824314 0.770889
O O7 0.500000 0.500000 0.000000
O O8 0.135803 0.926555 0.758031
O O9 0.220198 0.174794 0.763499
O O10 0.000000 0.000000 0.500000
O O11 0.783098 0.394074 0.564947
O O12 0.546413 0.367770 0.617875
O O13 0.965036 0.696671 0.592254
O O14 0.774227 0.237389 0.149367
O O15 0.592782 0.964350 0.390164
O O16 0.618464 0.211622 0.338373
O O17 0.548477 0.270370 0.969970
#
# Coordination Sequence:
#
# PCOD9025284 Si02
#       8
#     2   2   2   2   2   2   2   2
#     4  10  22  42  70 104 146 179 233 286 352 418
#     4  11  28  50  75 102 136 189 243 295 350 416
#     4  12  30  49  71 105 141 187 246 290 349 421
#     4  11  21  41  67 103 139 186 221 281 355 419
#     4  12  23  40  71 104 136 189 229 279 357 420
#     4  11  21  40  67 106 147 180 222 287 349 426
#     4  11  26  47  72 103 143 179 234 303 351 415
#     4  10  22  40  68 106 144 176 228 284 356 416
#
# _framework density 25.563064000000001
#
# number of rings (size 3 to 8) (size 9 to 14) (size 15 to 20)
#    0.000    1.000    5.000    1.125    3.500    5.000 
#    0.000    0.000    0.000    0.000    0.000    0.000 
#    0.000    0.000    0.000    0.000    0.000    0.000 
#
# Total GULP energy -89375.472873 kJ/mol
# GULP energy per Si atom -5585.967055 kJ/mol
# Density = 2.550488 g / cm^3
# Si number density = 25.563064 Si / 1000 Ang^3
#
#
#
# Elastic Constant Matrix: (Units=GPa)
#
#
# Indices 1 2 3 4 5 6 
#
# 1 54.9540 14.0585 22.8635 -6.8617 -11.9482 3.9302
# 2 14.0585 113.4897 44.8867 -2.4835 -2.3310 19.9717
# 3 22.8635 44.8867 128.3064 -16.8098 2.0533 29.7235
# 4 -6.8617 -2.4835 -16.8098 32.4048 9.0033 -15.6499
# 5 -11.9482 -2.3310 2.0533 9.0033 31.9340 -3.7549
# 6 3.9302 19.9717 29.7235 -15.6499 -3.7549 37.2012
#
#
#
# Elastic Compliance Matrix: (Units=1/GPa)
#
#
# Indices 1 2 3 4 5 6 
#
# 1 0.022062 -0.001490 -0.004080 0.001722 0.008310 0.003292
# 2 -0.001490 0.010936 -0.002933 -0.003546 0.000868 -0.004775
# 3 -0.004080 -0.002933 0.011461 0.002924 -0.004046 -0.006330
# 4 0.001722 -0.003546 0.002924 0.043266 -0.010052 0.016572
# 5 0.008310 0.000868 -0.004046 -0.010052 0.037754 0.001471
# 6 0.003292 -0.004775 -0.006330 0.016572 0.001471 0.041274
#
#
# Mechanical properties :
#
#
# Convention : Reuss Voigt Hill
#
# Bulk Modulus (GPa) = 36.42526 51.15194 43.78860
# Shear Modulus (GPa) = 25.91869 34.63742 30.27805
#
# Velocity S-wave (km/s) = 3.18765 3.68500 3.44531
# Velocity P-wave (km/s) = 5.27525 6.17731 5.74402
#
# Compressibility (1/GPa) = 0.02745348
#
# Stress axis : x y z
#
# Youngs Moduli (GPa) = 45.32666 91.43801 87.25117
#
# Poissons Ratio (x) = 0.13627 0.35599
# Poissons Ratio (y) = 0.06755 0.25589
# Poissons Ratio (z) = 0.18494 0.26816
#
# Static dielectric constant tensor:
#      x y z
#    x 2.188930 0.046780 -0.060340 
#    y 0.046780 1.995110 -0.047800 
#    z -0.060340 -0.047800 2.051010 
# 
# From -- ./inp_files/272655.got.cif
#   From: 2010.05.17/outbox.cif.g08.bks.cpg/sg2_137_cif.got.tgz:272655.got - 2010.06.03 11:33:40.
