data_PCOD9025506
_publ_section_title
;
Structure prediction by ZEFSAII (Michael W. Deem and Ramdas Pophale) SiO2 
 PCOD9025506
Probable space group: P -1
;
_chemical_formula_sum "Si O2"
_cell_formula_units_Z 14
_cell_length_a 20.428677
_cell_length_b 7.808517
_cell_length_c 5.076071
_cell_angle_alpha 114.697018
_cell_angle_beta 72.604423
_cell_angle_gamma 132.910874
_cell_volume 538.677932
_symmetry_space_group_name_H-M "P -1"
_symmetry_group_IT_number 2
_symmetry_cell_setting 'triclinic'
loop_
_space_group_symop_operation_xyz
x,y,z
-x,-y,-z
loop_
_atom_site_type_symbol
_atom_site_label
_atom_site_fract_x
_atom_site_fract_y
_atom_site_fract_z
Si Si1 0.583831 0.646082 0.683485
Si Si2 0.871622 0.908375 0.440728
Si Si3 0.039827 0.433547 0.641156
Si Si4 0.314651 0.516389 0.310709
Si Si5 0.261662 0.143351 0.752542
Si Si6 0.317691 0.902270 0.856770
Si Si7 0.137618 0.500053 0.068417
O O1 0.500000 0.500000 0.500000
O O2 0.606283 0.484519 0.685678
O O3 0.671641 0.825058 0.516913
O O4 0.589950 0.839647 0.989072
O O5 0.783075 0.713168 0.596708
O O6 0.835578 0.998888 0.334077
O O7 0.892587 0.757729 0.159494
O O8 0.959347 0.146726 0.615812
O O9 0.085736 0.546080 0.947068
O O10 0.000000 0.500000 0.500000
O O11 0.116176 0.476403 0.388027
O O12 0.332160 0.759746 0.538311
O O13 0.300888 0.415855 0.966205
O O14 0.267651 0.001934 0.879891
O O15 0.243791 0.697502 0.019330
#
# Coordination Sequence:
#
# PCOD9025506 Si02
#       7
#     2   2   2   2   2   2   2
#     4  10  23  43  65  96 132 170 216 275 342 412
#     4  10  23  40  62  89 131 173 224 275 331 393
#     4  12  26  40  63  96 134 178 230 283 329 396
#     4   9  22  40  64  96 129 174 223 271 340 397
#     4  10  22  40  69  90 131 171 222 273 337 402
#     4  10  23  41  66  95 132 172 225 275 338 405
#     4  11  26  41  64  94 132 181 229 276 342 391
#
# _framework density 25.989554999999999
#
# number of rings (size 3 to 8) (size 9 to 14) (size 15 to 20)
#    0.000    1.714    0.000    2.143   14.000    5.143 
#    0.000    1.429    0.000    0.000    0.000    0.000 
#    0.000    0.000    0.000    0.000    0.000    0.000 
#
# Total GULP energy -78199.775645 kJ/mol
# GULP energy per Si atom -5585.698260 kJ/mol
# Density = 2.593040 g / cm^3
# Si number density = 25.989555 Si / 1000 Ang^3
#
#
#
# Elastic Constant Matrix: (Units=GPa)
#
#
# Indices 1 2 3 4 5 6 
#
# 1 117.6875 52.7333 33.8447 27.7001 16.0261 3.7650
# 2 52.7333 43.7329 32.1509 25.7021 -2.1265 -5.9163
# 3 33.8447 32.1509 139.1207 26.9485 -6.1310 -3.1176
# 4 27.7001 25.7021 26.9485 54.0444 -7.0079 3.2585
# 5 16.0261 -2.1265 -6.1310 -7.0079 42.9595 15.8550
# 6 3.7650 -5.9163 -3.1176 3.2585 15.8550 22.4655
#
#
#
# Elastic Compliance Matrix: (Units=1/GPa)
#
#
# Indices 1 2 3 4 5 6 
#
# 1 0.022426 -0.029934 0.000623 0.001965 -0.006854 -0.007003
# 2 -0.029934 0.079861 -0.006453 -0.021036 0.000485 0.027862
# 3 0.000623 -0.006453 0.008832 -0.001493 0.000810 -0.000933
# 4 0.001965 -0.021036 -0.001493 0.030475 0.009273 -0.017041
# 5 -0.006854 0.000485 0.000810 0.009273 0.037146 -0.026172
# 6 -0.007003 0.027862 -0.000933 -0.017041 -0.026172 0.073837
#
#
# Mechanical properties :
#
#
# Convention : Reuss Voigt Hill
#
# Bulk Modulus (GPa) = 25.25944 59.77765 42.51854
# Shear Modulus (GPa) = 14.82349 36.01468 25.41908
#
# Velocity S-wave (km/s) = 2.39082 3.72659 3.13077
# Velocity P-wave (km/s) = 4.16672 6.44726 5.42811
#
# Compressibility (1/GPa) = 0.03958916
#
# Stress axis : x y z
#
# Youngs Moduli (GPa) = 44.59145 12.52176 113.22729
#
# Poissons Ratio (x) = 0.37483 -0.07050
# Poissons Ratio (y) = 1.33481 0.73067
# Poissons Ratio (z) = -0.02776 0.08080
#
# Static dielectric constant tensor:
#      x y z
#    x 2.140140 -0.038850 0.027620 
#    y -0.038850 2.016380 -0.021210 
#    z 0.027620 -0.021210 2.117010 
# 
# From -- ./inp_files/44847.got.cif
#   From: 2010.05.17/outbox.cif.g08.bks.cpg/sg2_23_cif.got.tgz:44847.got - 2010.06.03 11:33:40.
