data_PCOD9025557
_publ_section_title
;
Structure prediction by ZEFSAII (Michael W. Deem and Ramdas Pophale) SiO2 
 PCOD9025557
Probable space group: P -1
;
_chemical_formula_sum "Si O2"
_cell_formula_units_Z 14
_cell_length_a 11.252287
_cell_length_b 8.586651
_cell_length_c 8.676000
_cell_angle_alpha 102.681132
_cell_angle_beta 121.060078
_cell_angle_gamma 108.792173
_cell_volume 597.984476
_symmetry_space_group_name_H-M "P -1"
_symmetry_group_IT_number 2
_symmetry_cell_setting 'triclinic'
loop_
_space_group_symop_operation_xyz
x,y,z
-x,-y,-z
loop_
_atom_site_type_symbol
_atom_site_label
_atom_site_fract_x
_atom_site_fract_y
_atom_site_fract_z
Si Si1 0.038288 0.372283 0.893350
Si Si2 0.174278 0.139708 0.069265
Si Si3 0.903948 0.595148 0.397828
Si Si4 0.320117 0.872155 0.528773
Si Si5 0.206894 0.994208 0.730994
Si Si6 0.385710 0.387263 0.758101
Si Si7 0.472027 0.242988 0.515600
O O1 0.143343 0.302333 0.032429
O O2 0.130440 0.463023 0.816233
O O3 0.859789 0.208453 0.680223
O O4 0.000000 0.500000 0.000000
O O5 0.212238 0.056770 0.923856
O O6 0.316744 0.191099 0.295971
O O7 0.000000 0.000000 0.000000
O O8 0.736142 0.543234 0.351395
O O9 0.000000 0.500000 0.500000
O O10 0.024792 0.818979 0.546095
O O11 0.310818 0.907464 0.711965
O O12 0.384856 0.738567 0.491549
O O13 0.432294 0.071629 0.566605
O O14 0.270140 0.176566 0.704513
O O15 0.487485 0.396186 0.679364
O O16 0.500000 0.500000 0.000000
#
# Coordination Sequence:
#
# PCOD9025557 Si02
#       7
#     2   2   2   2   2   2   2
#     4  11  25  41  65  96 138 175 230 287 342 399
#     4  12  23  41  72 103 130 187 235 282 344 418
#     4  11  25  45  70 100 135 186 232 288 343 410
#     4   9  21  43  63  96 132 181 218 287 339 403
#     4  10  23  46  71  96 139 180 236 283 345 418
#     4  11  24  46  72 100 137 184 229 289 351 415
#     4  10  22  40  69  97 136 173 228 276 349 410
#
# _framework density 23.41198
#
# number of rings (size 3 to 8) (size 9 to 14) (size 15 to 20)
#    0.000    1.429    2.857    1.286    8.000    0.571 
#   10.286    1.429    0.000    0.000    0.000    0.000 
#    0.000    0.000    0.000    0.000    0.000    0.000 
#
# Total GULP energy -78200.800652 kJ/mol
# GULP energy per Si atom -5585.771475 kJ/mol
# Density = 2.335869 g / cm^3
# Si number density = 23.411980 Si / 1000 Ang^3
#
#
#
# Elastic Constant Matrix: (Units=GPa)
#
#
# Indices 1 2 3 4 5 6 
#
# 1 184.0158 43.0304 70.8491 -4.4625 -25.8933 -34.0495
# 2 43.0304 73.4214 26.2260 -7.0408 -4.2366 -11.3639
# 3 70.8491 26.2260 106.4147 -0.2019 -27.6727 -26.4213
# 4 -4.4625 -7.0408 -0.2019 31.1480 -3.6012 -1.8557
# 5 -25.8933 -4.2366 -27.6727 -3.6012 57.1958 2.3460
# 6 -34.0495 -11.3639 -26.4213 -1.8557 2.3460 36.9182
#
#
#
# Elastic Compliance Matrix: (Units=1/GPa)
#
#
# Indices 1 2 3 4 5 6 
#
# 1 0.008528 -0.002895 -0.003346 0.001035 0.001907 0.004510
# 2 -0.002895 0.016499 -0.002097 0.003259 -0.000944 0.001131
# 3 -0.003346 -0.002097 0.015259 0.000183 0.005443 0.006852
# 4 0.001035 0.003259 0.000183 0.033525 0.002762 0.003598
# 5 0.001907 -0.000944 0.005443 0.002762 0.020913 0.004174
# 6 0.004510 0.001131 0.006852 0.003598 0.004174 0.036414
#
#
# Mechanical properties :
#
#
# Convention : Reuss Voigt Hill
#
# Bulk Modulus (GPa) = 42.35816 71.56253 56.96035
# Shear Modulus (GPa) = 32.11622 39.96883 36.04253
#
# Velocity S-wave (km/s) = 3.70778 4.13630 3.92789
# Velocity P-wave (km/s) = 6.03838 7.31061 6.70474
#
# Compressibility (1/GPa) = 0.02360820
#
# Stress axis : x y z
#
# Youngs Moduli (GPa) = 117.26491 60.60939 65.53528
#
# Poissons Ratio (x) = 0.17548 0.21931
# Poissons Ratio (y) = 0.33951 0.13744
# Poissons Ratio (z) = 0.39242 0.12711
#
# Static dielectric constant tensor:
#      x y z
#    x 1.906950 0.015770 -0.043410 
#    y 0.015770 1.939340 0.052410 
#    z -0.043410 0.052410 1.831430 
# 
# From -- ./inp_files/240701.got.cif
#   From: 2010.05.17/outbox.cif.g08.bks.cpg/sg2_121_cif.got.tgz:240701.got - 2010.06.03 11:33:40.
