data_PCOD9025620
_publ_section_title
;
Structure prediction by ZEFSAII (Michael W. Deem and Ramdas Pophale) SiO2 
 PCOD9025620
Probable space group: P -1
;
_chemical_formula_sum "Si O2"
_cell_formula_units_Z 16
_cell_length_a 8.304832
_cell_length_b 14.071171
_cell_length_c 9.184283
_cell_angle_alpha 43.956353
_cell_angle_beta 66.721455
_cell_angle_gamma 66.537278
_cell_volume 673.358622
_symmetry_space_group_name_H-M "P -1"
_symmetry_group_IT_number 2
_symmetry_cell_setting 'triclinic'
loop_
_space_group_symop_operation_xyz
x,y,z
-x,-y,-z
loop_
_atom_site_type_symbol
_atom_site_label
_atom_site_fract_x
_atom_site_fract_y
_atom_site_fract_z
Si Si1 0.921237 0.445606 0.442530
Si Si2 0.247142 0.381990 0.188324
Si Si3 0.216055 0.114285 0.338783
Si Si4 0.445268 0.015181 0.835154
Si Si5 0.860999 0.178026 0.232940
Si Si6 0.520923 0.304554 0.407772
Si Si7 0.256757 0.772479 0.105581
Si Si8 0.618628 0.549900 0.240775
O O1 0.866912 0.297299 0.665097
O O2 0.749867 0.549309 0.328926
O O3 0.000000 0.500000 0.500000
O O4 0.061887 0.431072 0.278558
O O5 0.268687 0.218995 0.322185
O O6 0.396169 0.399662 0.232674
O O7 0.274802 0.448631 0.950564
O O8 0.387593 0.055766 0.245308
O O9 0.053764 0.191337 0.211824
O O10 0.147859 0.986008 0.581024
O O11 0.422414 0.178339 0.626816
O O12 0.288078 0.928046 0.958593
O O13 0.500000 0.000000 0.000000
O O14 0.705397 0.244169 0.326593
O O15 0.817133 0.233299 0.025668
O O16 0.558249 0.400204 0.421750
O O17 0.450667 0.673161 0.155466
#
# Coordination Sequence:
#
# PCOD9025620 Si02
#       8
#     2   2   2   2   2   2   2   2
#     4  12  30  45  67 108 150 182 235 303 358 414
#     4  12  24  45  74 100 140 192 240 286 351 424
#     4  10  22  43  69 104 139 184 238 289 344 424
#     4  11  24  44  70 101 142 188 232 295 359 415
#     4  10  22  40  70 102 141 181 236 291 348 419
#     4  11  23  43  73 106 139 185 244 288 349 427
#     4  12  25  45  72 101 142 185 237 290 360 416
#     4  12  25  47  74 101 142 192 240 286 356 428
#
# _framework density 23.761483999999999
#
# number of rings (size 3 to 8) (size 9 to 14) (size 15 to 20)
#    0.000    0.750    2.500    4.125    3.500    6.000 
#    0.000    1.875    0.000    0.000    0.000    0.000 
#    0.000    0.000    0.000    0.000    0.000    0.000 
#
# Total GULP energy -89663.633672 kJ/mol
# GULP energy per Si atom -5603.977104 kJ/mol
# Density = 2.370740 g / cm^3
# Si number density = 23.761484 Si / 1000 Ang^3
#
#
#
# Elastic Constant Matrix: (Units=GPa)
#
#
# Indices 1 2 3 4 5 6 
#
# 1 94.4389 4.8621 38.5431 3.2386 15.1671 8.1244
# 2 4.8621 56.0528 12.4951 1.6440 -5.7375 1.5205
# 3 38.5431 12.4951 118.9091 4.5121 -1.9771 -0.1406
# 4 3.2386 1.6440 4.5121 41.1775 7.5522 -6.6434
# 5 15.1671 -5.7375 -1.9771 7.5522 52.7012 4.4689
# 6 8.1244 1.5205 -0.1406 -6.6434 4.4689 33.6362
#
#
#
# Elastic Compliance Matrix: (Units=1/GPa)
#
#
# Indices 1 2 3 4 5 6 
#
# 1 0.013210 -0.000490 -0.004284 -0.000308 -0.003738 -0.002751
# 2 -0.000490 0.018576 -0.001711 -0.001156 0.002373 -0.001272
# 3 -0.004284 -0.001711 0.010036 -0.000837 0.001476 0.000793
# 4 -0.000308 -0.001156 -0.000837 0.026186 -0.004319 0.005869
# 5 -0.003738 0.002373 0.001476 -0.004319 0.021227 -0.002871
# 6 -0.002751 -0.001272 0.000793 0.005869 -0.002871 0.031996
#
#
# Mechanical properties :
#
#
# Convention : Reuss Voigt Hill
#
# Bulk Modulus (GPa) = 34.66150 42.35572 38.50861
# Shear Modulus (GPa) = 34.76625 39.73634 37.25130
#
# Velocity S-wave (km/s) = 3.82924 4.09381 3.96374
# Velocity P-wave (km/s) = 5.84549 6.34112 6.09834
#
# Compressibility (1/GPa) = 0.02885046
#
# Stress axis : x y z
#
# Youngs Moduli (GPa) = 75.69926 53.83420 99.64603
#
# Poissons Ratio (x) = 0.02637 0.42690
# Poissons Ratio (y) = 0.03708 0.17053
# Poissons Ratio (z) = 0.32431 0.09213
#
# Static dielectric constant tensor:
#      x y z
#    x 1.927590 0.000460 -0.049620 
#    y 0.000460 1.863020 -0.038350 
#    z -0.049620 -0.038350 1.948360 
# 
# From -- ./inp_files/205013.got.cif
#   From: 2010.05.17/outbox.cif.g08.bks.cpg/sg2_103_cif.got.tgz:205013.got - 2010.06.03 11:33:40.
