data_PCOD9025818
_publ_section_title
;
Structure prediction by ZEFSAII (Michael W. Deem and Ramdas Pophale) SiO2 
 PCOD9025818
Probable space group: P -1
;
_chemical_formula_sum "Si O2"
_cell_formula_units_Z 13
_cell_length_a 8.525071
_cell_length_b 12.759982
_cell_length_c 15.050731
_cell_angle_alpha 28.393012
_cell_angle_beta 96.824267
_cell_angle_gamma 116.467364
_cell_volume 534.383148
_symmetry_space_group_name_H-M "P -1"
_symmetry_group_IT_number 2
_symmetry_cell_setting 'triclinic'
loop_
_space_group_symop_operation_xyz
x,y,z
-x,-y,-z
loop_
_atom_site_type_symbol
_atom_site_label
_atom_site_fract_x
_atom_site_fract_y
_atom_site_fract_z
Si Si1 0.788774 0.221261 0.808059
Si Si2 0.820102 0.388166 0.147343
Si Si3 0.982544 0.800067 0.012866
Si Si4 0.675226 0.590273 0.518946
Si Si5 0.507154 0.744321 0.533867
Si Si6 0.702850 0.071527 0.717465
Si Si7 0.500000 0.500000 0.000000
O O1 0.658093 0.317753 0.744263
O O2 0.693223 0.029501 0.853235
O O3 0.832080 0.084550 0.987745
O O4 0.049009 0.574260 0.549379
O O5 0.949203 0.567796 0.113769
O O6 0.680545 0.470380 0.054172
O O7 0.647722 0.005669 0.426935
O O8 0.000000 0.500000 0.000000
O O9 0.737502 0.581294 0.205143
O O10 0.083866 0.108146 0.736884
O O11 0.500000 0.500000 0.500000
O O12 0.646158 0.699721 0.524991
O O13 0.464720 0.897302 0.346033
O O14 0.635347 0.794640 0.860796
#
# Coordination Sequence:
#
# PCOD9025818 Si02
#       7
#     2   2   2   2   2   2   1
#     4  10  22  43  69 104 144 183 245 294 363 442
#     4  11  22  45  74 105 148 193 244 311 368 440
#     4  11  25  46  72 102 147 193 236 304 372 437
#     4  12  24  44  68 105 145 188 240 306 359 436
#     4  10  22  44  69 103 142 185 244 301 364 437
#     4   9  19  41  67  98 144 182 231 307 347 428
#     4  10  22  40  72 104 140 200 236 290 388 414
#
# _framework density 24.327114999999999
#
# number of rings (size 3 to 8) (size 9 to 14) (size 15 to 20)
#    0.000    1.538    3.077    1.385    0.000    1.231 
#    5.538    2.308    0.000    0.000    0.000    0.000 
#    0.000    0.000    0.000    0.000    0.000    0.000 
#
# Total GULP energy -72547.559528 kJ/mol
# GULP energy per Si atom -5580.581502 kJ/mol
# Density = 2.427175 g / cm^3
# Si number density = 24.327115 Si / 1000 Ang^3
#
#
#
# Elastic Constant Matrix: (Units=GPa)
#
#
# Indices 1 2 3 4 5 6 
#
# 1 91.1808 11.1973 46.5344 1.8273 13.8094 -25.9287
# 2 11.1973 132.0982 39.5148 -15.3122 12.5436 -12.9938
# 3 46.5344 39.5148 135.5697 2.1079 12.8138 -14.4855
# 4 1.8273 -15.3122 2.1079 39.6958 -6.0261 1.3923
# 5 13.8094 12.5436 12.8138 -6.0261 36.2560 -16.0173
# 6 -25.9287 -12.9938 -14.4855 1.3923 -16.0173 41.3281
#
#
#
# Elastic Compliance Matrix: (Units=1/GPa)
#
#
# Indices 1 2 3 4 5 6 
#
# 1 0.015732 0.000905 -0.004680 -0.000589 -0.001181 0.008076
# 2 0.000905 0.008970 -0.002668 0.003325 -0.001108 0.001911
# 3 -0.004680 -0.002668 0.009827 -0.001516 -0.001379 -0.000814
# 4 -0.000589 0.003325 -0.001516 0.027242 0.004580 0.001002
# 5 -0.001181 -0.001108 -0.001379 0.004580 0.034871 0.011788
# 6 0.008076 0.001911 -0.000814 0.001002 0.011788 0.034114
#
#
# Mechanical properties :
#
#
# Convention : Reuss Voigt Hill
#
# Bulk Modulus (GPa) = 46.20424 61.48240 53.84332
# Shear Modulus (GPa) = 33.14400 40.89612 37.02006
#
# Velocity S-wave (km/s) = 3.69512 4.10456 3.90521
# Velocity P-wave (km/s) = 6.10240 6.91312 6.52038
#
# Compressibility (1/GPa) = 0.02164303
#
# Stress axis : x y z
#
# Youngs Moduli (GPa) = 63.56541 111.48149 101.75795
#
# Poissons Ratio (x) = -0.10085 0.47622
# Poissons Ratio (y) = -0.05751 0.27147
# Poissons Ratio (z) = 0.29748 0.29741
#
# Static dielectric constant tensor:
#      x y z
#    x 1.970780 0.021430 -0.049910 
#    y 0.021430 1.914620 0.027720 
#    z -0.049910 0.027720 1.975180 
# 
# From -- ./inp_files/498706.got.cif
#   From: 2010.05.17/outbox.cif.g08.bks.cpg/sg2_250_cif.got.tgz:498706.got - 2010.06.03 11:33:40.
