data_PCOD9025469
_publ_section_title
;
Structure prediction by ZEFSAII (Michael W. Deem and Ramdas Pophale) SiO2 
 PCOD9025469
Probable space group: P -1
;
_chemical_formula_sum "Si O2"
_cell_formula_units_Z 16
_cell_length_a 10.492220
_cell_length_b 11.322481
_cell_length_c 5.390903
_cell_angle_alpha 98.716967
_cell_angle_beta 91.255872
_cell_angle_gamma 72.743578
_cell_volume 604.355816
_symmetry_space_group_name_H-M "P -1"
_symmetry_group_IT_number 2
_symmetry_cell_setting 'triclinic'
loop_
_space_group_symop_operation_xyz
x,y,z
-x,-y,-z
loop_
_atom_site_type_symbol
_atom_site_label
_atom_site_fract_x
_atom_site_fract_y
_atom_site_fract_z
Si Si1 0.656053 0.647652 0.957361
Si Si2 0.782014 0.887609 0.642995
Si Si3 0.822094 0.637930 0.372568
Si Si4 0.608812 0.492694 0.292894
Si Si5 0.848523 0.272165 0.238954
Si Si6 0.898509 0.395562 0.791226
Si Si7 0.494672 0.104508 0.241581
Si Si8 0.801976 0.018346 0.207258
O O1 0.969115 0.568017 0.264876
O O2 0.735580 0.715501 0.165406
O O3 0.773565 0.518964 0.865944
O O4 0.572203 0.752384 0.806118
O O5 0.833018 0.736917 0.607994
O O6 0.622265 0.915010 0.594815
O O7 0.849465 0.932764 0.424526
O O8 0.801668 0.947964 0.923849
O O9 0.557410 0.590198 0.096238
O O10 0.729216 0.551141 0.400933
O O11 0.500000 0.500000 0.500000
O O12 0.693453 0.350416 0.202739
O O13 0.918645 0.315245 0.019433
O O14 0.872127 0.125049 0.198978
O O15 0.875128 0.315250 0.529872
O O16 0.647584 0.090596 0.298258
O O17 0.500000 0.000000 0.000000
#
# Coordination Sequence:
#
# PCOD9025469 Si02
#       8
#     2   2   2   2   2   2   2   2
#     4   9  22  41  72 106 149 185 244 297 363 435
#     4  11  24  44  70 106 139 196 245 298 360 427
#     4  10  23  45  75 106 151 186 251 302 357 432
#     4   9  23  42  71 110 150 188 234 302 380 434
#     4  11  26  45  72 103 150 195 245 298 364 428
#     4  11  25  48  70 110 141 200 247 295 361 424
#     4  10  22  40  69 103 142 190 238 301 361 431
#     4  11  25  45  70 102 150 191 243 298 368 434
#
# _framework density 26.474473
#
# number of rings (size 3 to 8) (size 9 to 14) (size 15 to 20)
#    0.750    1.000    0.000    3.000    3.500    6.500 
#    0.000    6.250    0.000    0.000    0.000    0.000 
#    0.000    0.000    0.000    0.000    0.000    0.000 
#
# Total GULP energy -89412.924245 kJ/mol
# GULP energy per Si atom -5588.307765 kJ/mol
# Density = 2.641422 g / cm^3
# Si number density = 26.474473 Si / 1000 Ang^3
#
#
#
# Elastic Constant Matrix: (Units=GPa)
#
#
# Indices 1 2 3 4 5 6 
#
# 1 131.1087 45.4971 37.9149 -6.6881 -27.5250 4.5479
# 2 45.4971 150.2618 60.4430 6.5526 -16.3153 30.5767
# 3 37.9149 60.4430 138.0596 4.8086 -9.1230 13.0639
# 4 -6.6881 6.5526 4.8086 50.1068 4.2390 -8.3336
# 5 -27.5250 -16.3153 -9.1230 4.2390 38.0972 -0.9205
# 6 4.5479 30.5767 13.0639 -8.3336 -0.9205 39.5927
#
#
#
# Elastic Compliance Matrix: (Units=1/GPa)
#
#
# Indices 1 2 3 4 5 6 
#
# 1 0.010099 -0.002128 -0.001649 0.001537 0.005855 0.001487
# 2 -0.002128 0.010368 -0.003016 -0.002759 0.002311 -0.007295
# 3 -0.001649 -0.003016 0.009090 -0.000787 -0.000234 -0.000652
# 4 0.001537 -0.002759 -0.000787 0.021940 -0.002537 0.006773
# 5 0.005855 0.002311 -0.000234 -0.002537 0.031642 -0.002179
# 6 0.001487 -0.007295 -0.000652 0.006773 -0.002179 0.032310
#
#
# Mechanical properties :
#
#
# Convention : Reuss Voigt Hill
#
# Bulk Modulus (GPa) = 62.61380 78.57114 70.59247
# Shear Modulus (GPa) = 37.21391 43.93102 40.57247
#
# Velocity S-wave (km/s) = 3.75327 4.07796 3.91898
# Velocity P-wave (km/s) = 6.51803 7.20524 6.87023
#
# Compressibility (1/GPa) = 0.01597092
#
# Stress axis : x y z
#
# Youngs Moduli (GPa) = 99.02313 96.44865 110.01156
#
# Poissons Ratio (x) = 0.20528 0.18140
# Poissons Ratio (y) = 0.21076 0.33176
# Poissons Ratio (z) = 0.16328 0.29085
#
# Static dielectric constant tensor:
#      x y z
#    x 2.151400 0.021370 0.039290 
#    y 0.021370 2.068170 0.007040 
#    z 0.039290 0.007040 2.367030 
# 
# From -- ./inp_files/66844.got.cif
#   From: 2010.05.17/outbox.cif.g08.bks.cpg/sg2_34_cif.got.tgz:66844.got - 2010.06.03 11:33:40.
