data_PCOD9025439
_publ_section_title
;
Structure prediction by ZEFSAII (Michael W. Deem and Ramdas Pophale) SiO2 
 PCOD9025439
Probable space group: P -1
;
_chemical_formula_sum "Si O2"
_cell_formula_units_Z 14
_cell_length_a 4.998073
_cell_length_b 7.330426
_cell_length_c 19.422921
_cell_angle_alpha 55.423768
_cell_angle_beta 88.317365
_cell_angle_gamma 71.205439
_cell_volume 543.825866
_symmetry_space_group_name_H-M "P -1"
_symmetry_group_IT_number 2
_symmetry_cell_setting 'triclinic'
loop_
_space_group_symop_operation_xyz
x,y,z
-x,-y,-z
loop_
_atom_site_type_symbol
_atom_site_label
_atom_site_fract_x
_atom_site_fract_y
_atom_site_fract_z
Si Si1 0.838183 0.546933 0.252406
Si Si2 0.703683 0.161453 0.407754
Si Si3 0.193429 0.890004 0.157945
Si Si4 0.699576 0.280994 0.139961
Si Si5 0.669380 0.838881 0.717004
Si Si6 0.297249 0.772474 0.452252
Si Si7 0.710201 0.706820 0.987067
O O1 0.833893 0.373499 0.353912
O O2 0.512787 0.720497 0.209683
O O3 0.012367 0.720649 0.201403
O O4 0.000218 0.337339 0.241701
O O5 0.448896 0.228362 0.340042
O O6 0.616140 0.161418 0.487326
O O7 0.948429 0.908416 0.435645
O O8 0.222124 0.053282 0.058032
O O9 0.028094 0.099810 0.168334
O O10 0.530560 0.199266 0.215950
O O11 0.544816 0.248156 0.076131
O O12 0.641962 0.563121 0.081232
O O13 0.646316 0.102294 0.643603
O O14 0.500000 0.500000 0.500000
O O15 0.000000 0.500000 0.000000
#
# Coordination Sequence:
#
# PCOD9025439 Si02
#       7
#     2   2   2   2   2   2   2
#     4  11  23  41  68  98 140 180 224 284 353 410
#     4  10  23  45  66 100 148 182 228 297 347 417
#     4  11  21  41  68  99 133 184 234 281 346 417
#     4  10  22  40  69 100 135 182 239 288 345 419
#     4  11  24  44  69 101 143 182 228 295 355 411
#     4  10  24  42  69 103 139 186 236 285 355 422
#     4   9  20  39  66  98 139 175 237 292 343 407
#
# _framework density 25.743531999999998
#
# number of rings (size 3 to 8) (size 9 to 14) (size 15 to 20)
#    0.000    1.714    2.857    0.429    2.000    6.286 
#    0.000    1.429    0.000    0.000    0.000    0.000 
#    0.000    0.000    0.000    0.000    0.000    0.000 
#
# Total GULP energy -78143.342416 kJ/mol
# GULP energy per Si atom -5581.667315 kJ/mol
# Density = 2.568494 g / cm^3
# Si number density = 25.743532 Si / 1000 Ang^3
#
#
#
# Elastic Constant Matrix: (Units=GPa)
#
#
# Indices 1 2 3 4 5 6 
#
# 1 130.4110 35.4345 41.2655 -15.2623 -8.4758 -36.1738
# 2 35.4345 123.1863 60.7591 -37.6712 -3.5457 -35.9561
# 3 41.2655 60.7591 174.3548 -23.1161 -24.6277 -27.7236
# 4 -15.2623 -37.6712 -23.1161 48.9805 2.3456 7.3139
# 5 -8.4758 -3.5457 -24.6277 2.3456 46.3992 -5.5244
# 6 -36.1738 -35.9561 -27.7236 7.3139 -5.5244 39.9332
#
#
#
# Elastic Compliance Matrix: (Units=1/GPa)
#
#
# Indices 1 2 3 4 5 6 
#
# 1 0.010894 0.000877 -0.000561 0.002132 0.002875 0.010276
# 2 0.000877 0.015099 -0.002349 0.009055 0.000947 0.011231
# 3 -0.000561 -0.002349 0.007958 0.001077 0.004280 0.003296
# 4 0.002132 0.009055 0.001077 0.027625 0.000960 0.005905
# 5 0.002875 0.000947 0.004280 0.000960 0.025538 0.009785
# 6 0.010276 0.011231 0.003296 0.005905 0.009785 0.047024
#
#
# Mechanical properties :
#
#
# Convention : Reuss Voigt Hill
#
# Bulk Modulus (GPa) = 33.46185 78.09669 55.77927
# Shear Modulus (GPa) = 33.74602 46.42878 40.08740
#
# Velocity S-wave (km/s) = 3.62450 4.25139 3.95040
# Velocity P-wave (km/s) = 5.52652 7.38250 6.52088
#
# Compressibility (1/GPa) = 0.02988478
#
# Stress axis : x y z
#
# Youngs Moduli (GPa) = 91.79326 66.23158 125.65302
#
# Poissons Ratio (x) = -0.05811 0.07054
# Poissons Ratio (y) = -0.08054 0.29518
# Poissons Ratio (z) = 0.05153 0.15559
#
# Static dielectric constant tensor:
#      x y z
#    x 2.172210 0.086600 -0.015140 
#    y 0.086600 2.054070 0.034000 
#    z -0.015140 0.034000 2.111310 
# 
# From -- ./inp_files/582255.got.cif
#   From: 2010.05.17/outbox.cif.g08.bks.cpg/sg2_292_cif.got.tgz:582255.got - 2010.06.03 11:33:40.
