data_PCOD9025976
_publ_section_title
;
Structure prediction by ZEFSAII (Michael W. Deem and Ramdas Pophale) SiO2 
 PCOD9025976
Probable space group: P -1
;
_chemical_formula_sum "Si O2"
_cell_formula_units_Z 14
_cell_length_a 6.869673
_cell_length_b 10.258563
_cell_length_c 12.070885
_cell_angle_alpha 127.127855
_cell_angle_beta 68.633642
_cell_angle_gamma 84.336847
_cell_volume 570.518971
_symmetry_space_group_name_H-M "P -1"
_symmetry_group_IT_number 2
_symmetry_cell_setting 'triclinic'
loop_
_space_group_symop_operation_xyz
x,y,z
-x,-y,-z
loop_
_atom_site_type_symbol
_atom_site_label
_atom_site_fract_x
_atom_site_fract_y
_atom_site_fract_z
Si Si1 0.070978 0.373359 0.585212
Si Si2 0.574904 0.662276 0.044660
Si Si3 0.428731 0.809037 0.673139
Si Si4 0.026528 0.243344 0.286899
Si Si5 0.117688 0.820139 0.313781
Si Si6 0.652049 0.172111 0.052228
Si Si7 0.923459 0.789148 0.096854
O O1 0.348684 0.287502 0.499990
O O2 0.059976 0.270019 0.422657
O O3 0.977603 0.584578 0.688136
O O4 0.919476 0.332419 0.686656
O O5 0.373145 0.805891 0.236097
O O6 0.820890 0.643551 0.026095
O O7 0.500000 0.500000 0.000000
O O8 0.509802 0.736751 0.972032
O O9 0.479419 0.779935 0.779480
O O10 0.231720 0.741943 0.658934
O O11 0.292945 0.023743 0.794222
O O12 0.208061 0.045799 0.105132
O O13 0.006883 0.817557 0.215630
O O14 0.000000 0.000000 0.500000
O O15 0.858125 0.238363 0.039805
#
# Coordination Sequence:
#
# PCOD9025976 Si02
#       7
#     2   2   2   2   2   2   2
#     4  11  24  38  61  93 127 162 200 256 309 361
#     4  11  26  43  64  94 124 163 213 256 305 370
#     4  11  22  39  66  93 120 161 209 252 308 371
#     4  10  22  41  60  90 126 159 205 254 308 367
#     4  11  24  43  64  92 129 167 210 252 305 376
#     4  10  23  42  65  91 122 159 208 258 308 371
#     4  10  22  41  66  90 124 167 204 257 315 360
#
# _framework density 24.539064
#
# number of rings (size 3 to 8) (size 9 to 14) (size 15 to 20)
#    0.000    1.429    0.000    6.429    0.000   14.857 
#    0.000    0.000    0.000    0.000    0.000    0.000 
#    0.000    0.000    0.000    0.000    0.000    0.000 
#
# Total GULP energy -78412.861360 kJ/mol
# GULP energy per Si atom -5600.918669 kJ/mol
# Density = 2.448321 g / cm^3
# Si number density = 24.539064 Si / 1000 Ang^3
#
#
#
# Elastic Constant Matrix: (Units=GPa)
#
#
# Indices 1 2 3 4 5 6 
#
# 1 131.7716 30.4511 31.7869 -6.7426 -10.4483 24.7445
# 2 30.4511 97.8348 9.3595 -20.2809 -1.9348 7.2944
# 3 31.7869 9.3595 67.2079 -13.8411 -13.0835 9.7443
# 4 -6.7426 -20.2809 -13.8411 35.7210 9.6708 -5.7059
# 5 -10.4483 -1.9348 -13.0835 9.6708 37.9309 4.1558
# 6 24.7445 7.2944 9.7443 -5.7059 4.1558 38.4809
#
#
#
# Elastic Compliance Matrix: (Units=1/GPa)
#
#
# Indices 1 2 3 4 5 6 
#
# 1 0.010340 -0.002964 -0.003666 -0.002851 0.002804 -0.005884
# 2 -0.002964 0.012534 0.000727 0.007458 -0.001900 0.000657
# 3 -0.003666 0.000727 0.018807 0.005476 0.004360 -0.002202
# 4 -0.002851 0.007458 0.005476 0.036995 -0.008544 0.005441
# 5 0.002804 -0.001900 0.004360 -0.008544 0.031512 -0.007217
# 6 -0.005884 0.000657 -0.002202 0.005441 -0.007217 0.031790
#
#
# Mechanical properties :
#
#
# Convention : Reuss Voigt Hill
#
# Bulk Modulus (GPa) = 33.47198 48.88992 41.18095
# Shear Modulus (GPa) = 30.53596 37.44102 33.98849
#
# Velocity S-wave (km/s) = 3.53141 3.91035 3.72570
# Velocity P-wave (km/s) = 5.50433 6.35251 5.94357
#
# Compressibility (1/GPa) = 0.02987574
#
# Stress axis : x y z
#
# Youngs Moduli (GPa) = 96.71625 79.78447 53.17058
#
# Poissons Ratio (x) = 0.23650 0.19490
# Poissons Ratio (y) = 0.28670 -0.03867
# Poissons Ratio (z) = 0.35451 -0.05803
#
# Static dielectric constant tensor:
#      x y z
#    x 2.016350 0.016700 -0.031980 
#    y 0.016700 2.018670 0.078720 
#    z -0.031980 0.078720 1.977990 
# 
# From -- ./inp_files/83454.got.cif
#   From: 2010.05.17/outbox.cif.g08.bks.cpg/sg2_42_cif.got.tgz:83454.got - 2010.06.03 11:33:40.
