data_PCOD9025157
_publ_section_title
;
Structure prediction by ZEFSAII (Michael W. Deem and Ramdas Pophale) SiO2 
 PCOD9025157
Probable space group: P -1
;
_chemical_formula_sum "Si O2"
_cell_formula_units_Z 16
_cell_length_a 10.161322
_cell_length_b 8.535868
_cell_length_c 8.891105
_cell_angle_alpha 107.603785
_cell_angle_beta 105.211638
_cell_angle_gamma 69.250550
_cell_volume 676.880122
_symmetry_space_group_name_H-M "P -1"
_symmetry_group_IT_number 2
_symmetry_cell_setting 'triclinic'
loop_
_space_group_symop_operation_xyz
x,y,z
-x,-y,-z
loop_
_atom_site_type_symbol
_atom_site_label
_atom_site_fract_x
_atom_site_fract_y
_atom_site_fract_z
Si Si1 0.842879 0.807880 0.774029
Si Si2 0.106505 0.129373 0.885350
Si Si3 0.043840 0.859929 0.602779
Si Si4 0.977180 0.409078 0.695241
Si Si5 0.442474 0.147618 0.410456
Si Si6 0.407162 0.199235 0.988864
Si Si7 0.695531 0.607391 0.291876
Si Si8 0.547596 0.371423 0.328292
O O1 0.905799 0.854265 0.652659
O O2 0.884875 0.602948 0.748530
O O3 0.673365 0.890165 0.745532
O O4 0.923226 0.872343 0.949291
O O5 0.992143 0.279570 0.802754
O O6 0.247326 0.188664 0.942540
O O7 0.133516 0.943975 0.763619
O O8 0.092132 0.676548 0.482210
O O9 0.000000 0.000000 0.500000
O O10 0.138424 0.412903 0.702032
O O11 0.346191 0.293958 0.534165
O O12 0.570865 0.194104 0.377331
O O13 0.500000 0.000000 0.500000
O O14 0.437608 0.334149 0.159097
O O15 0.404070 0.283143 0.842663
O O16 0.500000 0.000000 0.000000
O O17 0.654754 0.434130 0.272023
O O18 0.500000 0.500000 0.500000
#
# Coordination Sequence:
#
# PCOD9025157 Si02
#       8
#     2   2   2   2   2   2   2   2
#     4  12  22  42  69  93 134 170 217 270 333 385
#     4  10  23  42  65  97 134 170 218 267 330 390
#     4  10  22  42  63  97 131 172 218 266 323 387
#     4  10  22  42  69  98 130 171 217 274 325 386
#     4  11  23  42  67  95 132 176 217 269 334 392
#     4  11  22  41  66  94 133 175 216 270 325 387
#     4  10  22  40  67  96 132 171 224 270 325 389
#     4  10  22  43  64  94 130 172 221 269 326 393
#
# _framework density 23.637862999999999
#
# number of rings (size 3 to 8) (size 9 to 14) (size 15 to 20)
#    0.000    1.500    2.500    2.250    0.000    1.000 
#    4.500    3.750    0.000    0.000    0.000    0.000 
#    0.000    0.000    0.000    0.000    0.000    0.000 
#
# Total GULP energy -89144.311344 kJ/mol
# GULP energy per Si atom -5571.519459 kJ/mol
# Density = 2.358406 g / cm^3
# Si number density = 23.637863 Si / 1000 Ang^3
#
#
#
# Elastic Constant Matrix: (Units=GPa)
#
#
# Indices 1 2 3 4 5 6 
#
# 1 44.7436 44.8665 20.9420 -0.2459 3.1146 -5.2708
# 2 44.8665 145.3406 62.5064 -9.8697 15.6600 10.4630
# 3 20.9420 62.5064 162.9471 13.7037 8.9058 0.3595
# 4 -0.2459 -9.8697 13.7037 56.4880 7.6380 2.5769
# 5 3.1146 15.6600 8.9058 7.6380 28.2658 -1.7190
# 6 -5.2708 10.4630 0.3595 2.5769 -1.7190 31.3645
#
#
#
# Elastic Compliance Matrix: (Units=1/GPa)
#
#
# Indices 1 2 3 4 5 6 
#
# 1 0.035858 -0.012653 0.000245 -0.003214 0.004504 0.010755
# 2 -0.012653 0.013979 -0.003728 0.004562 -0.006865 -0.007498
# 3 0.000245 -0.003728 0.007733 -0.002646 0.000404 0.001436
# 4 -0.003214 0.004562 -0.002646 0.020270 -0.007065 -0.004084
# 5 0.004504 -0.006865 0.000404 -0.007065 0.040823 0.005860
# 6 0.010755 -0.007498 0.001436 -0.004084 0.005860 0.036832
#
#
# Mechanical properties :
#
#
# Convention : Reuss Voigt Hill
#
# Bulk Modulus (GPa) = 39.52732 67.74012 53.63372
# Shear Modulus (GPa) = 25.48452 38.20474 31.84463
#
# Velocity S-wave (km/s) = 3.28704 4.02462 3.67439
# Velocity P-wave (km/s) = 5.58252 7.09341 6.38283
#
# Compressibility (1/GPa) = 0.02529896
#
# Stress axis : x y z
#
# Youngs Moduli (GPa) = 27.88796 71.53727 129.31947
#
# Poissons Ratio (x) = 0.90513 -0.03174
# Poissons Ratio (y) = 0.35285 0.48211
# Poissons Ratio (z) = -0.00685 0.26670
#
# Static dielectric constant tensor:
#      x y z
#    x 1.958320 -0.032420 -0.063350 
#    y -0.032420 1.956270 0.041690 
#    z -0.063350 0.041690 2.056560 
# 
# From -- ./inp_files/292799.got.cif
#   From: 2010.05.17/outbox.cif.g08.bks.cpg/sg2_147_cif.got.tgz:292799.got - 2010.06.03 11:33:40.
