data_PCOD9025561
_publ_section_title
;
Structure prediction by ZEFSAII (Michael W. Deem and Ramdas Pophale) SiO2 
 PCOD9025561
Probable space group: P -1
;
_chemical_formula_sum "Si O2"
_cell_formula_units_Z 16
_cell_length_a 10.854284
_cell_length_b 12.094254
_cell_length_c 14.019817
_cell_angle_alpha 33.188298
_cell_angle_beta 129.393502
_cell_angle_gamma 106.396215
_cell_volume 629.613437
_symmetry_space_group_name_H-M "P -1"
_symmetry_group_IT_number 2
_symmetry_cell_setting 'triclinic'
loop_
_space_group_symop_operation_xyz
x,y,z
-x,-y,-z
loop_
_atom_site_type_symbol
_atom_site_label
_atom_site_fract_x
_atom_site_fract_y
_atom_site_fract_z
Si Si1 0.473826 0.323034 0.045798
Si Si2 0.791506 0.698596 0.302465
Si Si3 0.561215 0.051996 0.761784
Si Si4 0.304855 0.916775 0.376403
Si Si5 0.282557 0.604314 0.023139
Si Si6 0.241966 0.518911 0.374768
Si Si7 0.123333 0.461780 0.890271
Si Si8 0.087185 0.955632 0.851611
O O1 0.597808 0.299935 0.032632
O O2 0.243897 0.449899 0.865693
O O3 0.500000 0.500000 0.000000
O O4 0.546641 0.034179 0.297316
O O5 0.732032 0.563744 0.442566
O O6 0.000000 0.500000 0.500000
O O7 0.822181 0.892045 0.228886
O O8 0.642743 0.858035 0.028850
O O9 0.724989 0.028864 0.790950
O O10 0.433803 0.321315 0.551242
O O11 0.530705 0.684289 0.663582
O O12 0.150076 0.876445 0.375146
O O13 0.243754 0.180565 0.195707
O O14 0.131959 0.625837 0.856013
O O15 0.165678 0.754725 0.950743
O O16 0.080853 0.478005 0.286185
O O17 0.165484 0.792922 0.105128
#
# Coordination Sequence:
#
# PCOD9025561 Si02
#       8
#     2   2   2   2   2   2   2   2
#     4   9  20  40  65  97 134 174 226 273 338 410
#     4  12  27  46  72  96 136 185 233 290 346 408
#     4  11  23  46  67 100 135 184 229 283 349 405
#     4  10  22  40  69  97 142 177 223 285 339 413
#     4  11  21  42  68 100 141 178 225 286 341 414
#     4  11  24  46  69 102 142 175 234 290 338 418
#     4   9  21  41  66 101 138 182 225 274 352 408
#     4  11  26  46  68 107 136 181 240 277 353 411
#
# _framework density 25.412417000000001
#
# number of rings (size 3 to 8) (size 9 to 14) (size 15 to 20)
#    0.000    1.500    1.250    3.750    3.500    4.500 
#    6.750    1.875    0.000    0.000    0.000    0.000 
#    0.000    0.000    0.000    0.000    0.000    0.000 
#
# Total GULP energy -89343.777210 kJ/mol
# GULP energy per Si atom -5583.986076 kJ/mol
# Density = 2.535458 g / cm^3
# Si number density = 25.412417 Si / 1000 Ang^3
#
#
#
# Elastic Constant Matrix: (Units=GPa)
#
#
# Indices 1 2 3 4 5 6 
#
# 1 112.4037 8.7656 -0.2383 0.3817 -4.9628 -11.8003
# 2 8.7656 69.7568 4.5874 3.4305 13.2383 -1.9793
# 3 -0.2383 4.5874 46.6495 -1.1717 1.3609 -2.7590
# 4 0.3817 3.4305 -1.1717 28.0900 0.9800 3.1934
# 5 -4.9628 13.2383 1.3609 0.9800 46.9964 -7.6852
# 6 -11.8003 -1.9793 -2.7590 3.1934 -7.6852 35.9882
#
#
#
# Elastic Compliance Matrix: (Units=1/GPa)
#
#
# Indices 1 2 3 4 5 6 
#
# 1 0.009469 -0.001469 0.000332 -0.000404 0.001987 0.003510
# 2 -0.001469 0.015549 -0.001480 -0.001719 -0.004548 -0.000559
# 3 0.000332 -0.001480 0.021700 0.000894 0.000071 0.001627
# 4 -0.000404 -0.001719 0.000894 0.036291 -0.000926 -0.003576
# 5 0.001987 -0.004548 0.000071 -0.000926 0.023694 0.005549
# 6 0.003510 -0.000559 0.001627 -0.003576 0.005549 0.030534
#
#
# Mechanical properties :
#
#
# Convention : Reuss Voigt Hill
#
# Bulk Modulus (GPa) = 24.10531 28.33772 26.22152
# Shear Modulus (GPa) = 31.98972 36.59461 34.29217
#
# Velocity S-wave (km/s) = 3.55184 3.79889 3.67744
# Velocity P-wave (km/s) = 5.13098 5.51520 5.32655
#
# Compressibility (1/GPa) = 0.04148463
#
# Stress axis : x y z
#
# Youngs Moduli (GPa) = 105.60420 64.31180 46.08233
#
# Poissons Ratio (x) = 0.09450 -0.01531
# Poissons Ratio (y) = 0.15517 0.06821
# Poissons Ratio (z) = -0.03510 0.09519
#
# Static dielectric constant tensor:
#      x y z
#    x 2.001730 -0.005650 -0.067640 
#    y -0.005650 2.073590 0.019110 
#    z -0.067640 0.019110 2.120180 
# 
# From -- ./inp_files/517614.got.cif
#   From: 2010.05.17/outbox.cif.g08.bks.cpg/sg2_259_cif.got.tgz:517614.got - 2010.06.03 11:33:40.
