data_PCOD9025072
_publ_section_title
;
Structure prediction by ZEFSAII (Michael W. Deem and Ramdas Pophale) SiO2 
 PCOD9025072
Probable space group: P -1
;
_chemical_formula_sum "Si O2"
_cell_formula_units_Z 12
_cell_length_a 18.476409
_cell_length_b 15.532634
_cell_length_c 9.076051
_cell_angle_alpha 140.179636
_cell_angle_beta 52.212155
_cell_angle_gamma 157.790793
_cell_volume 576.120814
_symmetry_space_group_name_H-M "P -1"
_symmetry_group_IT_number 2
_symmetry_cell_setting 'triclinic'
loop_
_space_group_symop_operation_xyz
x,y,z
-x,-y,-z
loop_
_atom_site_type_symbol
_atom_site_label
_atom_site_fract_x
_atom_site_fract_y
_atom_site_fract_z
Si Si1 0.443131 0.556917 0.056030
Si Si2 0.930425 0.769363 0.361656
Si Si3 0.434532 0.880429 0.185672
Si Si4 0.370694 0.284024 0.520162
Si Si5 0.754604 0.189851 0.413202
Si Si6 0.354416 0.579723 0.479405
O O1 0.314948 0.480433 0.229333
O O2 0.652192 0.915785 0.233088
O O3 0.500000 0.500000 0.000000
O O4 0.352086 0.384820 0.789841
O O5 0.856292 0.692541 0.521144
O O6 0.725688 0.433005 0.101622
O O7 0.000000 0.000000 0.500000
O O8 0.131234 0.936829 0.321276
O O9 0.309984 0.785512 0.351625
O O10 0.634791 0.071316 0.257383
O O11 0.523505 0.117864 0.285753
O O12 0.500000 0.500000 0.500000
O O13 0.494419 0.328490 0.506831
O O14 0.000000 0.500000 0.500000
#
# Coordination Sequence:
#
# PCOD9025072 Si02
#       6
#     2   2   2   2   2   2
#     4   9  21  41  63  92 128 162 216 263 308 383
#     4  12  24  39  66  93 127 174 210 266 326 370
#     4  10  24  41  59  99 129 160 221 261 314 391
#     4  11  23  40  65  96 129 168 217 261 317 380
#     4  10  22  40  67  90 128 171 205 264 325 374
#     4  10  23  43  62  92 133 168 214 269 316 377
#
# _framework density 20.828966000000001
#
# number of rings (size 3 to 8) (size 9 to 14) (size 15 to 20)
#    0.000    1.667    1.667    1.500    2.333    5.333 
#    0.000    0.000    0.000    0.000    0.000    0.000 
#    0.000    0.000    0.000    0.000    0.000    0.000 
#
# Total GULP energy -67035.949784 kJ/mol
# GULP energy per Si atom -5586.329149 kJ/mol
# Density = 2.078156 g / cm^3
# Si number density = 20.828966 Si / 1000 Ang^3
#
#
#
# Elastic Constant Matrix: (Units=GPa)
#
#
# Indices 1 2 3 4 5 6 
#
# 1 102.6110 65.4460 32.7458 8.0625 -3.4159 -11.3859
# 2 65.4460 162.1166 43.5257 15.2787 8.8678 -5.1782
# 3 32.7458 43.5257 104.9347 7.2079 1.0274 -19.4990
# 4 8.0625 15.2787 7.2079 18.3127 -4.3217 3.4111
# 5 -3.4159 8.8678 1.0274 -4.3217 30.0545 7.0679
# 6 -11.3859 -5.1782 -19.4990 3.4111 7.0679 42.3341
#
#
#
# Elastic Compliance Matrix: (Units=1/GPa)
#
#
# Indices 1 2 3 4 5 6 
#
# 1 0.013985 -0.005150 -0.001835 -0.000885 0.002592 0.001925
# 2 -0.005150 0.009550 -0.001884 -0.005975 -0.004222 0.000102
# 3 -0.001835 -0.001884 0.012199 -0.003909 -0.001933 0.005533
# 4 -0.000885 -0.005975 -0.003909 0.066737 0.013852 -0.010459
# 5 0.002592 -0.004222 -0.001933 0.013852 0.038825 -0.008308
# 6 0.001925 0.000102 0.005533 -0.010459 -0.008308 0.028930
#
#
# Mechanical properties :
#
#
# Convention : Reuss Voigt Hill
#
# Bulk Modulus (GPa) = 55.56289 72.56635 64.06462
# Shear Modulus (GPa) = 25.77805 33.33658 29.55731
#
# Velocity S-wave (km/s) = 3.52178 4.00495 3.77111
# Velocity P-wave (km/s) = 6.57806 7.50340 7.05592
#
# Compressibility (1/GPa) = 0.01799762
#
# Stress axis : x y z
#
# Youngs Moduli (GPa) = 71.50378 104.70704 81.97266
#
# Poissons Ratio (x) = 0.53924 0.15042
# Poissons Ratio (y) = 0.36825 0.15441
# Poissons Ratio (z) = 0.13121 0.19723
#
# Static dielectric constant tensor:
#      x y z
#    x 1.760260 -0.004430 0.029400 
#    y -0.004430 1.719970 -0.049740 
#    z 0.029400 -0.049740 1.803220 
# 
# From -- ./inp_files/60845.got.cif
#   From: 2010.05.17/outbox.cif.g08.bks.cpg/sg2_31_cif.got.tgz:60845.got - 2010.06.03 11:33:40.
