data_PCOD9025317
_publ_section_title
;
Structure prediction by ZEFSAII (Michael W. Deem and Ramdas Pophale) SiO2 
 PCOD9025317
Probable space group: P -1
;
_chemical_formula_sum "Si O2"
_cell_formula_units_Z 14
_cell_length_a 10.658747
_cell_length_b 19.793118
_cell_length_c 7.262249
_cell_angle_alpha 43.933376
_cell_angle_beta 54.379027
_cell_angle_gamma 31.939494
_cell_volume 560.637680
_symmetry_space_group_name_H-M "P -1"
_symmetry_group_IT_number 2
_symmetry_cell_setting 'triclinic'
loop_
_space_group_symop_operation_xyz
x,y,z
-x,-y,-z
loop_
_atom_site_type_symbol
_atom_site_label
_atom_site_fract_x
_atom_site_fract_y
_atom_site_fract_z
Si Si1 0.524201 0.340093 0.155426
Si Si2 0.809401 0.865026 0.895044
Si Si3 0.870584 0.158572 0.556922
Si Si4 0.573531 0.037644 0.208649
Si Si5 0.974262 0.126203 0.012841
Si Si6 0.445098 0.318025 0.862423
Si Si7 0.884839 0.453863 0.621143
O O1 0.689990 0.221380 0.415469
O O2 0.308661 0.483572 0.178887
O O3 0.420304 0.334763 0.073222
O O4 0.734496 0.294690 0.952453
O O5 0.558362 0.951047 0.868874
O O6 0.985657 0.814388 0.677246
O O7 0.838958 0.945112 0.839239
O O8 0.917514 0.723489 0.194643
O O9 0.693762 0.245790 0.713457
O O10 0.044560 0.981491 0.775126
O O11 0.500000 0.000000 0.500000
O O12 0.857576 0.913293 0.210194
O O13 0.464667 0.196701 0.020841
O O14 0.240419 0.467557 0.622718
O O15 0.000000 0.500000 0.500000
#
# Coordination Sequence:
#
# PCOD9025317 Si02
#       7
#     2   2   2   2   2   2   2
#     4  10  22  40  68  93 123 174 222 254 320 383
#     4  11  22  43  67  92 134 172 214 271 317 385
#     4   9  22  41  67  96 132 170 213 266 329 385
#     4  11  25  38  65 104 130 164 218 268 332 381
#     4  10  23  43  66  97 129 175 210 266 334 384
#     4  10  23  43  67  94 134 175 208 274 321 380
#     4  11  24  46  63  95 135 173 219 260 327 383
#
# _framework density 24.971564000000001
#
# number of rings (size 3 to 8) (size 9 to 14) (size 15 to 20)
#    0.000    1.714    1.429    2.143    6.000    8.000 
#    2.571    3.571    0.000    0.000    0.000    0.000 
#    0.000    0.000    0.000    0.000    0.000    0.000 
#
# Total GULP energy -78063.351400 kJ/mol
# GULP energy per Si atom -5575.953671 kJ/mol
# Density = 2.491473 g / cm^3
# Si number density = 24.971564 Si / 1000 Ang^3
#
#
#
# Elastic Constant Matrix: (Units=GPa)
#
#
# Indices 1 2 3 4 5 6 
#
# 1 94.8464 9.3372 12.8071 -4.9792 13.3381 1.7879
# 2 9.3372 72.2327 28.4732 0.8236 2.2762 -11.2855
# 3 12.8071 28.4732 104.1798 5.5792 3.9867 -1.8811
# 4 -4.9792 0.8236 5.5792 21.3288 3.9315 9.3818
# 5 13.3381 2.2762 3.9867 3.9315 49.2827 17.0906
# 6 1.7879 -11.2855 -1.8811 9.3818 17.0906 43.0285
#
#
#
# Elastic Compliance Matrix: (Units=1/GPa)
#
#
# Indices 1 2 3 4 5 6 
#
# 1 0.011452 -0.001001 -0.001223 0.003772 -0.003126 -0.000373
# 2 -0.001001 0.016510 -0.004126 -0.001789 -0.001860 0.005320
# 3 -0.001223 -0.004126 0.011052 -0.003069 -0.000197 0.000199
# 4 0.003772 -0.001789 -0.003069 0.054175 -0.000756 -0.012272
# 5 -0.003126 -0.001860 -0.000197 -0.000756 0.024783 -0.010045
# 6 -0.000373 0.005320 0.000199 -0.012272 -0.010045 0.031326
#
#
# Mechanical properties :
#
#
# Convention : Reuss Voigt Hill
#
# Bulk Modulus (GPa) = 38.00343 41.38822 39.69582
# Shear Modulus (GPa) = 29.27920 37.43743 33.35831
#
# Velocity S-wave (km/s) = 3.42790 3.87615 3.65890
# Velocity P-wave (km/s) = 5.56049 6.05334 5.81214
#
# Compressibility (1/GPa) = 0.02631342
#
# Stress axis : x y z
#
# Youngs Moduli (GPa) = 87.32312 60.56816 90.47824
#
# Poissons Ratio (x) = 0.06062 0.11069
# Poissons Ratio (y) = 0.08739 0.37334
# Poissons Ratio (z) = 0.10683 0.24992
#
# Static dielectric constant tensor:
#      x y z
#    x 2.319160 0.178290 0.197430 
#    y 0.178290 2.184400 0.169390 
#    z 0.197430 0.169390 2.020480 
# 
# From -- ./inp_files/284030.got.cif
#   From: 2010.05.17/outbox.cif.g08.bks.cpg/sg2_143_cif.got.tgz:284030.got - 2010.06.03 11:33:40.
