data_PCOD9025799
_publ_section_title
;
Structure prediction by ZEFSAII (Michael W. Deem and Ramdas Pophale) SiO2 
 PCOD9025799
Probable space group: P -1
;
_chemical_formula_sum "Si O2"
_cell_formula_units_Z 16
_cell_length_a 8.598383
_cell_length_b 20.585769
_cell_length_c 9.604083
_cell_angle_alpha 122.204236
_cell_angle_beta 101.233830
_cell_angle_gamma 127.129526
_cell_volume 737.730032
_symmetry_space_group_name_H-M "P -1"
_symmetry_group_IT_number 2
_symmetry_cell_setting 'triclinic'
loop_
_space_group_symop_operation_xyz
x,y,z
-x,-y,-z
loop_
_atom_site_type_symbol
_atom_site_label
_atom_site_fract_x
_atom_site_fract_y
_atom_site_fract_z
Si Si1 0.402652 0.670656 0.634818
Si Si2 0.181773 0.829979 0.363548
Si Si3 0.753603 0.153426 0.907360
Si Si4 0.122759 0.125936 0.585712
Si Si5 0.684382 0.946747 0.063578
Si Si6 0.789498 0.605512 0.267069
Si Si7 0.088783 0.219370 0.280166
Si Si8 0.718773 0.410163 0.159164
O O1 0.635643 0.721879 0.638827
O O2 0.416531 0.652551 0.780043
O O3 0.057163 0.515965 0.349228
O O4 0.519567 0.806426 0.808457
O O5 0.138429 0.773855 0.141062
O O6 0.011128 0.844094 0.358100
O O7 0.064740 0.727397 0.347323
O O8 0.532935 0.992515 0.640432
O O9 0.544453 0.119613 0.930652
O O10 0.020396 0.236097 0.145731
O O11 0.478416 0.275810 0.855096
O O12 0.000000 0.000000 0.500000
O O13 0.999548 0.063156 0.335691
O O14 0.783745 0.049596 0.083465
O O15 0.826548 0.688177 0.477987
O O16 0.762879 0.515748 0.241162
O O17 0.500000 0.500000 0.000000
#
# Coordination Sequence:
#
# PCOD9025799 Si02
#       8
#     2   2   2   2   2   2   2   2
#     4  11  26  44  66 103 142 178 233 279 346 418
#     4  10  22  43  66 107 131 176 230 285 339 406
#     4  10  22  40  72 101 133 173 234 281 341 400
#     4  11  20  41  72  93 136 183 222 281 349 409
#     4  11  22  43  69 102 135 176 230 288 340 406
#     4  12  24  45  71  95 144 178 231 287 343 409
#     4  12  24  43  71 102 133 184 231 283 343 410
#     4  11  24  45  67  97 140 186 223 283 347 410
#
# _framework density 21.688151000000001
#
# number of rings (size 3 to 8) (size 9 to 14) (size 15 to 20)
#    0.000    1.000    5.000    2.250    1.750    0.500 
#    4.500    2.500    0.000    0.000    0.000    0.000 
#    0.000    0.000    0.000    0.000    0.000    0.000 
#
# Total GULP energy -89394.426804 kJ/mol
# GULP energy per Si atom -5587.151675 kJ/mol
# Density = 2.163879 g / cm^3
# Si number density = 21.688151 Si / 1000 Ang^3
#
#
#
# Elastic Constant Matrix: (Units=GPa)
#
#
# Indices 1 2 3 4 5 6 
#
# 1 44.5621 32.2936 20.8115 3.9866 -4.2241 9.4832
# 2 32.2936 11.0480 16.1971 10.8690 -35.9268 5.0493
# 3 20.8115 16.1971 97.4874 4.7301 3.7689 11.8578
# 4 3.9866 10.8690 4.7301 29.7461 -5.7903 -4.3417
# 5 -4.2241 -35.9268 3.7689 -5.7903 20.7132 0.3920
# 6 9.4832 5.0493 11.8578 -4.3417 0.3920 32.0145
#
#
#
# Elastic Compliance Matrix: (Units=1/GPa)
#
#
# Indices 1 2 3 4 5 6 
#
# 1 0.022957 0.007760 -0.006038 -0.002227 0.018738 -0.006319
# 2 0.007760 -0.014954 0.001882 -0.000788 -0.024909 -0.000439
# 3 -0.006038 0.001882 0.011761 -0.002349 -0.000703 -0.003175
# 4 -0.002227 -0.000788 -0.002349 0.037274 0.008901 0.006600
# 5 0.018738 -0.024909 -0.000703 0.008901 0.011517 -0.000295
# 6 -0.006319 -0.000439 -0.003175 0.006600 -0.000295 0.035252
#
#
# Mechanical properties :
#
#
# Convention : Reuss Voigt Hill
#
# Bulk Modulus (GPa) = 37.07221 32.41133 34.74177
# Shear Modulus (GPa) = 47.35370 22.08110 34.71740
#
# Velocity S-wave (km/s) = 4.67775 3.19426 4.00528
# Velocity P-wave (km/s) = 6.80481 5.34613 6.11909
#
# Compressibility (1/GPa) = 0.02697438
#
# Stress axis : x y z
#
# Youngs Moduli (GPa) = 43.56038 -66.87371 85.02531
#
# Poissons Ratio (x) = 0.51897 0.51337
# Poissons Ratio (y) = -0.33805 -0.16006
# Poissons Ratio (z) = 0.26301 0.12589
#
# Static dielectric constant tensor:
#      x y z
#    x 1.829100 0.010230 0.021180 
#    y 0.010230 1.808630 -0.004290 
#    z 0.021180 -0.004290 1.776800 
# 
# From -- ./inp_files/223858.got.cif
#   From: 2010.05.17/outbox.cif.g08.bks.cpg/sg2_112_cif.got.tgz:223858.got - 2010.06.03 11:33:40.
