data_PCOD9025522
_publ_section_title
;
Structure prediction by ZEFSAII (Michael W. Deem and Ramdas Pophale) SiO2 
 PCOD9025522
Probable space group: P -1
;
_chemical_formula_sum "Si O2"
_cell_formula_units_Z 14
_cell_length_a 6.808645
_cell_length_b 14.985425
_cell_length_c 9.339978
_cell_angle_alpha 98.583467
_cell_angle_beta 73.097530
_cell_angle_gamma 139.117394
_cell_volume 592.979213
_symmetry_space_group_name_H-M "P -1"
_symmetry_group_IT_number 2
_symmetry_cell_setting 'triclinic'
loop_
_space_group_symop_operation_xyz
x,y,z
-x,-y,-z
loop_
_atom_site_type_symbol
_atom_site_label
_atom_site_fract_x
_atom_site_fract_y
_atom_site_fract_z
Si Si1 0.393969 0.158666 0.345684
Si Si2 0.973532 0.131387 0.594275
Si Si3 0.792531 0.266917 0.663929
Si Si4 0.720443 0.549003 0.599950
Si Si5 0.985218 0.246580 0.177561
Si Si6 0.116384 0.993831 0.828455
Si Si7 0.828242 0.692309 0.170251
O O1 0.305718 0.212207 0.479100
O O2 0.733741 0.244144 0.243035
O O3 0.570299 0.852012 0.253124
O O4 0.163699 0.093369 0.245391
O O5 0.735287 0.972866 0.576510
O O6 0.854536 0.185765 0.571269
O O7 0.964914 0.380031 0.530541
O O8 0.986922 0.326858 0.787507
O O9 0.500000 0.500000 0.500000
O O10 0.518583 0.419962 0.718119
O O11 0.827809 0.095559 0.184884
O O12 0.214130 0.344131 0.283576
O O13 0.148336 0.305418 0.002582
O O14 0.998348 0.162794 0.765191
O O15 0.000000 0.000000 0.000000
#
# Coordination Sequence:
#
# PCOD9025522 Si02
#       7
#     2   2   2   2   2   2   2
#     4  11  23  37  64 102 131 163 216 263 326 396
#     4   9  20  38  62  91 136 162 213 262 320 383
#     4   9  20  40  67  92 132 171 208 269 325 375
#     4  10  22  40  69  94 122 177 226 261 318 379
#     4  12  23  42  70  95 132 174 209 270 333 376
#     4  12  25  38  67 102 136 165 211 270 333 388
#     4   9  20  41  66  90 132 176 216 260 321 382
#
# _framework density 23.609594000000001
#
# number of rings (size 3 to 8) (size 9 to 14) (size 15 to 20)
#    0.857    0.857    1.429    3.000    4.000    2.857 
#    0.000    0.714    3.143    4.286    0.000    0.000 
#    0.000    0.000    0.000    0.000    0.000    0.000 
#
# Total GULP energy -78107.837689 kJ/mol
# GULP energy per Si atom -5579.131264 kJ/mol
# Density = 2.355586 g / cm^3
# Si number density = 23.609594 Si / 1000 Ang^3
#
#
#
# Elastic Constant Matrix: (Units=GPa)
#
#
# Indices 1 2 3 4 5 6 
#
# 1 89.8081 9.3516 62.2822 11.7448 -6.0358 7.7552
# 2 9.3516 38.9898 31.4141 10.6237 -5.5409 10.5075
# 3 62.2822 31.4141 178.3151 12.8434 3.3002 23.0835
# 4 11.7448 10.6237 12.8434 45.5242 5.7083 2.0822
# 5 -6.0358 -5.5409 3.3002 5.7083 42.3745 7.0843
# 6 7.7552 10.5075 23.0835 2.0822 7.0843 30.1380
#
#
#
# Elastic Compliance Matrix: (Units=1/GPa)
#
#
# Indices 1 2 3 4 5 6 
#
# 1 0.015499 0.002516 -0.005514 -0.003429 0.003639 -0.001261
# 2 0.002516 0.035486 -0.005378 -0.007973 0.008210 -0.010280
# 3 -0.005514 -0.005378 0.008881 0.000532 -0.001727 -0.003140
# 4 -0.003429 -0.007973 0.000532 0.025114 -0.005422 0.002794
# 5 0.003639 0.008210 -0.001727 -0.005422 0.027487 -0.008563
# 6 -0.001261 -0.010280 -0.003140 0.002794 -0.008563 0.041314
#
#
# Mechanical properties :
#
#
# Convention : Reuss Voigt Hill
#
# Bulk Modulus (GPa) = 23.19322 57.02320 40.10821
# Shear Modulus (GPa) = 27.04123 37.21167 32.12645
#
# Velocity S-wave (km/s) = 3.38797 3.97435 3.69282
# Velocity P-wave (km/s) = 5.01492 6.72797 5.93359
#
# Compressibility (1/GPa) = 0.04311604
#
# Stress axis : x y z
#
# Youngs Moduli (GPa) = 64.52237 28.17989 112.59508
#
# Poissons Ratio (x) = -0.07091 0.62083
# Poissons Ratio (y) = -0.16236 0.60548
# Poissons Ratio (z) = 0.35577 0.15154
#
# Static dielectric constant tensor:
#      x y z
#    x 1.953950 -0.000530 -0.004700 
#    y -0.000530 1.952390 -0.051810 
#    z -0.004700 -0.051810 1.890960 
# 
# From -- ./inp_files/497921.got.cif
#   From: 2010.05.17/outbox.cif.g08.bks.cpg/sg2_249_cif.got.tgz:497921.got - 2010.06.03 11:33:40.
