data_PCOD9025007
_publ_section_title
;
Structure prediction by ZEFSAII (Michael W. Deem and Ramdas Pophale) SiO2 
 PCOD9025007
Probable space group: P -1
;
_chemical_formula_sum "Si O2"
_cell_formula_units_Z 14
_cell_length_a 9.210572
_cell_length_b 14.111296
_cell_length_c 8.559153
_cell_angle_alpha 114.606488
_cell_angle_beta 132.521515
_cell_angle_gamma 97.550772
_cell_volume 587.186260
_symmetry_space_group_name_H-M "P -1"
_symmetry_group_IT_number 2
_symmetry_cell_setting 'triclinic'
loop_
_space_group_symop_operation_xyz
x,y,z
-x,-y,-z
loop_
_atom_site_type_symbol
_atom_site_label
_atom_site_fract_x
_atom_site_fract_y
_atom_site_fract_z
Si Si1 0.701476 0.419798 0.745448
Si Si2 0.312359 0.164563 0.417385
Si Si3 0.192029 0.916998 0.993799
Si Si4 0.382036 0.701803 0.720741
Si Si5 0.452547 0.428668 0.081361
Si Si6 0.902308 0.186192 0.485347
Si Si7 0.633372 0.930240 0.305194
O O1 0.580878 0.304984 0.709437
O O2 0.561938 0.336389 0.428723
O O3 0.615244 0.506214 0.794224
O O4 0.000000 0.500000 0.000000
O O5 0.237164 0.091948 0.479790
O O6 0.095972 0.177343 0.228289
O O7 0.296865 0.062889 0.219037
O O8 0.197489 0.901868 0.802801
O O9 0.372972 0.885215 0.162006
O O10 0.340752 0.588640 0.726872
O O11 0.171307 0.716720 0.526903
O O12 0.572286 0.838939 0.048027
O O13 0.500000 0.500000 0.000000
O O14 0.197751 0.280938 0.776538
O O15 0.779597 0.081794 0.464925
#
# Coordination Sequence:
#
# PCOD9025007 Si02
#       7
#     2   2   2   2   2   2   2
#     4  12  25  49  71 100 145 189 236 279 342 423
#     4  11  24  44  68 103 141 178 233 292 345 404
#     4  10  22  40  67 100 136 175 226 291 347 412
#     4  11  24  46  71  97 137 185 230 289 345 404
#     4  12  27  47  71 104 140 185 239 284 338 420
#     4  11  23  43  69 103 138 180 232 284 356 415
#     4  11  23  42  72 103 137 178 233 290 356 406
#
# _framework density 23.842521000000001
#
# number of rings (size 3 to 8) (size 9 to 14) (size 15 to 20)
#    0.000    0.857    1.429    6.857    0.000    6.286 
#   10.286    0.000    0.000    0.000    0.000    0.000 
#    0.000    0.000    0.000    0.000    0.000    0.000 
#
# Total GULP energy -78197.861011 kJ/mol
# GULP energy per Si atom -5585.561501 kJ/mol
# Density = 2.378825 g / cm^3
# Si number density = 23.842521 Si / 1000 Ang^3
#
#
#
# Elastic Constant Matrix: (Units=GPa)
#
#
# Indices 1 2 3 4 5 6 
#
# 1 96.0422 62.1176 32.5300 7.2765 -3.5361 -24.5071
# 2 62.1176 130.7447 28.9745 -7.5344 14.1647 -18.8908
# 3 32.5300 28.9745 66.4984 13.2779 -6.2943 -7.3478
# 4 7.2765 -7.5344 13.2779 24.8409 -2.7912 3.0863
# 5 -3.5361 14.1647 -6.2943 -2.7912 51.3261 5.9251
# 6 -24.5071 -18.8908 -7.3478 3.0863 5.9251 37.2942
#
#
#
# Elastic Compliance Matrix: (Units=1/GPa)
#
#
# Indices 1 2 3 4 5 6 
#
# 1 0.019413 -0.007791 -0.003621 -0.006968 0.001694 0.008404
# 2 -0.007791 0.013240 -0.003816 0.007740 -0.004340 0.000884
# 3 -0.003621 -0.003816 0.020967 -0.011033 0.002741 0.000296
# 4 -0.006968 0.007740 -0.011033 0.051374 -0.000364 -0.007025
# 5 0.001694 -0.004340 0.002741 -0.000364 0.021569 -0.003941
# 6 0.008404 0.000884 0.000296 -0.007025 -0.003941 0.034050
#
#
# Mechanical properties :
#
#
# Convention : Reuss Voigt Hill
#
# Bulk Modulus (GPa) = 43.17375 60.05886 51.61631
# Shear Modulus (GPa) = 25.15212 34.00313 29.57763
#
# Velocity S-wave (km/s) = 3.25149 3.78054 3.52595
# Velocity P-wave (km/s) = 5.67833 6.65591 6.18646
#
# Compressibility (1/GPa) = 0.02316222
#
# Stress axis : x y z
#
# Youngs Moduli (GPa) = 51.51286 75.53000 47.69346
#
# Poissons Ratio (x) = 0.58848 0.17271
# Poissons Ratio (y) = 0.40136 0.18200
# Poissons Ratio (z) = 0.18654 0.28823
#
# Static dielectric constant tensor:
#      x y z
#    x 1.933060 -0.012270 -0.007760 
#    y -0.012270 1.938370 -0.026870 
#    z -0.007760 -0.026870 1.910530 
# 
# From -- ./inp_files/203887.got.cif
#   From: 2010.05.17/outbox.cif.g08.bks.cpg/sg2_102_cif.got.tgz:203887.got - 2010.06.03 11:33:40.
