data_PCOD9025419
_publ_section_title
;
Structure prediction by ZEFSAII (Michael W. Deem and Ramdas Pophale) SiO2 
 PCOD9025419
Probable space group: P -1
;
_chemical_formula_sum "Si O2"
_cell_formula_units_Z 16
_cell_length_a 8.006465
_cell_length_b 20.083178
_cell_length_c 8.271492
_cell_angle_alpha 36.825796
_cell_angle_beta 110.627050
_cell_angle_gamma 112.181466
_cell_volume 735.182235
_symmetry_space_group_name_H-M "P -1"
_symmetry_group_IT_number 2
_symmetry_cell_setting 'triclinic'
loop_
_space_group_symop_operation_xyz
x,y,z
-x,-y,-z
loop_
_atom_site_type_symbol
_atom_site_label
_atom_site_fract_x
_atom_site_fract_y
_atom_site_fract_z
Si Si1 0.130382 0.570142 0.039290
Si Si2 0.995919 0.800234 0.620658
Si Si3 0.898690 0.801783 0.973599
Si Si4 0.719146 0.096803 0.027705
Si Si5 0.285904 0.981834 0.466122
Si Si6 0.367414 0.159283 0.643376
Si Si7 0.298302 0.442703 0.600126
Si Si8 0.478393 0.403260 0.046506
O O1 0.058359 0.684074 0.830083
O O2 0.331053 0.590487 0.991890
O O3 0.156416 0.508531 0.337851
O O4 0.000000 0.500000 0.000000
O O5 0.929688 0.799492 0.790439
O O6 0.830563 0.820333 0.410616
O O7 0.167480 0.899733 0.459212
O O8 0.793718 0.904482 0.770885
O O9 0.086661 0.826906 0.092093
O O10 0.771711 0.688049 0.209840
O O11 0.747923 0.082600 0.252883
O O12 0.679818 0.967535 0.201287
O O13 0.541792 0.151156 0.827845
O O14 0.500000 0.000000 0.500000
O O15 0.428758 0.273468 0.338408
O O16 0.500000 0.500000 0.500000
O O17 0.323914 0.437574 0.810587
O O18 0.500000 0.500000 0.000000
#
# Coordination Sequence:
#
# PCOD9025419 Si02
#       8
#     2   2   2   2   2   2   2   2
#     4  11  27  45  64 104 137 177 240 289 338 406
#     4  11  22  42  71  93 135 179 222 287 338 415
#     4  11  21  45  70  98 136 178 230 281 350 419
#     4  10  22  40  68  99 130 174 224 278 336 423
#     4  11  23  40  67 102 134 174 224 282 349 413
#     4  11  21  42  67  95 132 175 227 274 346 404
#     4  10  24  44  72  97 136 183 233 284 348 411
#     4  11  24  45  72  96 138 185 229 291 345 409
#
# _framework density 21.763311999999999
#
# number of rings (size 3 to 8) (size 9 to 14) (size 15 to 20)
#    0.000    1.250    3.750    1.500    7.000    2.500 
#    4.500    0.625    0.000    0.000    0.000    0.000 
#    0.000    0.000    0.000    0.000    0.000    0.000 
#
# Total GULP energy -89180.568301 kJ/mol
# GULP energy per Si atom -5573.785519 kJ/mol
# Density = 2.171378 g / cm^3
# Si number density = 21.763312 Si / 1000 Ang^3
#
#
#
# Elastic Constant Matrix: (Units=GPa)
#
#
# Indices 1 2 3 4 5 6 
#
# 1 147.0929 70.4832 47.4656 49.2297 6.0805 29.9102
# 2 70.4832 130.9171 73.3354 -2.2092 17.3617 33.0004
# 3 47.4656 73.3354 129.6707 -18.6135 40.4451 15.7434
# 4 49.2297 -2.2092 -18.6135 111.8088 -23.1657 1.7730
# 5 6.0805 17.3617 40.4451 -23.1657 64.1349 -2.9589
# 6 29.9102 33.0004 15.7434 1.7730 -2.9589 46.0322
#
#
#
# Elastic Compliance Matrix: (Units=1/GPa)
#
#
# Indices 1 2 3 4 5 6 
#
# 1 0.012558 -0.004539 -0.002097 -0.006119 -0.001035 -0.004019
# 2 -0.004539 0.014810 -0.005955 0.001483 0.000451 -0.005659
# 3 -0.002097 -0.005955 0.014057 0.001818 -0.006381 0.000344
# 4 -0.006119 0.001483 0.001818 0.012708 0.003716 0.002040
# 5 -0.001035 0.000451 -0.006381 0.003716 0.021107 0.003745
# 6 -0.004019 -0.005659 0.000344 0.002040 0.003745 0.028437
#
#
# Mechanical properties :
#
#
# Convention : Reuss Voigt Hill
#
# Bulk Modulus (GPa) = 61.56826 87.80546 74.68686
# Shear Modulus (GPa) = 37.23752 58.82162 48.02957
#
# Velocity S-wave (km/s) = 4.14094 5.20447 4.70287
# Velocity P-wave (km/s) = 7.15643 8.74921 7.99259
#
# Compressibility (1/GPa) = 0.01624214
#
# Stress axis : x y z
#
# Youngs Moduli (GPa) = 79.62893 67.52412 71.13949
#
# Poissons Ratio (x) = 0.30650 0.14921
# Poissons Ratio (y) = 0.36144 0.42362
# Poissons Ratio (z) = 0.16702 0.40209
#
# Static dielectric constant tensor:
#      x y z
#    x 1.862950 0.079170 -0.135930 
#    y 0.079170 1.846620 -0.017920 
#    z -0.135930 -0.017920 1.798840 
# 
# From -- ./inp_files/222891.got.cif
#   From: 2010.05.17/outbox.cif.g08.bks.cpg/sg2_112_cif.got.tgz:222891.got - 2010.06.03 11:33:40.
