data_PCOD9025327
_publ_section_title
;
Structure prediction by ZEFSAII (Michael W. Deem and Ramdas Pophale) SiO2 
 PCOD9025327
Probable space group: P -1
;
_chemical_formula_sum "Si O2"
_cell_formula_units_Z 14
_cell_length_a 9.460139
_cell_length_b 8.145902
_cell_length_c 11.459227
_cell_angle_alpha 65.013999
_cell_angle_beta 111.998288
_cell_angle_gamma 126.661798
_cell_volume 632.916454
_symmetry_space_group_name_H-M "P -1"
_symmetry_group_IT_number 2
_symmetry_cell_setting 'triclinic'
loop_
_space_group_symop_operation_xyz
x,y,z
-x,-y,-z
loop_
_atom_site_type_symbol
_atom_site_label
_atom_site_fract_x
_atom_site_fract_y
_atom_site_fract_z
Si Si1 0.982469 0.565138 0.105113
Si Si2 0.231851 0.903912 0.249587
Si Si3 0.079863 0.193195 0.639990
Si Si4 0.917695 0.189410 0.361010
Si Si5 0.669692 0.631661 0.930774
Si Si6 0.532981 0.826846 0.435392
Si Si7 0.509051 0.529435 0.307774
O O1 0.914494 0.364079 0.229356
O O2 0.164289 0.749659 0.163202
O O3 0.842348 0.642623 0.033647
O O4 0.000000 0.500000 0.000000
O O5 0.062807 0.827640 0.305199
O O6 0.383867 0.888035 0.369496
O O7 0.297575 0.137866 0.154137
O O8 0.058920 0.285310 0.482108
O O9 0.282073 0.337369 0.702844
O O10 0.041382 0.960584 0.661675
O O11 0.727149 0.030746 0.409347
O O12 0.618956 0.511483 0.827041
O O13 0.500000 0.500000 0.000000
O O14 0.490980 0.665864 0.362688
O O15 0.533703 0.694699 0.585724
#
# Coordination Sequence:
#
# PCOD9025327 Si02
#       7
#     2   2   2   2   2   2   2
#     4  12  26  43  64  90 128 171 209 250 307 380
#     4  12  25  42  65  95 123 161 213 264 311 359
#     4  10  22  41  70  97 125 157 208 269 311 361
#     4  10  22  43  66  94 126 167 207 252 316 370
#     4  12  26  42  62  90 129 167 206 254 307 374
#     4  10  22  40  68  94 123 160 208 264 312 363
#     4  10  22  43  64  92 126 165 206 253 315 370
#
# _framework density 22.119820000000001
#
# number of rings (size 3 to 8) (size 9 to 14) (size 15 to 20)
#    0.000    1.143    0.000    5.571    0.000   12.571 
#    0.000    5.000    0.000    0.000    0.000    0.000 
#    0.000    0.000    0.000    0.000    0.000    0.000 
#
# Total GULP energy -78465.035008 kJ/mol
# GULP energy per Si atom -5604.645358 kJ/mol
# Density = 2.206947 g / cm^3
# Si number density = 22.119820 Si / 1000 Ang^3
#
#
#
# Elastic Constant Matrix: (Units=GPa)
#
#
# Indices 1 2 3 4 5 6 
#
# 1 89.9324 3.8117 2.0007 -11.8124 11.4070 -0.5742
# 2 3.8117 66.4573 23.3774 -5.3103 -5.2312 -1.2693
# 3 2.0007 23.3774 98.5902 -9.2702 16.1496 -6.1614
# 4 -11.8124 -5.3103 -9.2702 45.9268 -3.6798 1.1390
# 5 11.4070 -5.2312 16.1496 -3.6798 38.9406 7.0355
# 6 -0.5742 -1.2693 -6.1614 1.1390 7.0355 19.9862
#
#
#
# Elastic Compliance Matrix: (Units=1/GPa)
#
#
# Indices 1 2 3 4 5 6 
#
# 1 0.012062 -0.001153 0.001108 0.002805 -0.004234 0.001945
# 2 -0.001153 0.017333 -0.004990 0.001183 0.005281 -0.002397
# 3 0.001108 -0.004990 0.013054 0.001596 -0.007387 0.006249
# 4 0.002805 0.001183 0.001596 0.023063 0.001041 -0.001033
# 5 -0.004234 0.005281 -0.007387 0.001041 0.033293 -0.013842
# 6 0.001945 -0.002397 0.006249 -0.001033 -0.013842 0.056796
#
#
# Mechanical properties :
#
#
# Convention : Reuss Voigt Hill
#
# Bulk Modulus (GPa) = 30.88599 34.81772 32.85185
# Shear Modulus (GPa) = 28.33411 36.02338 32.17875
#
# Velocity S-wave (km/s) = 3.58290 4.03992 3.81825
# Velocity P-wave (km/s) = 5.57760 6.12666 5.85856
#
# Compressibility (1/GPa) = 0.03237714
#
# Stress axis : x y z
#
# Youngs Moduli (GPa) = 82.90788 57.69271 76.60253
#
# Poissons Ratio (x) = 0.06654 -0.08484
# Poissons Ratio (y) = 0.09563 0.38226
# Poissons Ratio (z) = -0.09183 0.28790
#
# Static dielectric constant tensor:
#      x y z
#    x 1.802950 -0.021590 -0.010520 
#    y -0.021590 1.796020 0.017960 
#    z -0.010520 0.017960 1.763500 
# 
# From -- ./inp_files/186234.got.cif
#   From: 2010.05.17/outbox.cif.g08.bks.cpg/sg2_94_cif.got.tgz:186234.got - 2010.06.03 11:33:40.
