data_PCOD9025249
_publ_section_title
;
Structure prediction by ZEFSAII (Michael W. Deem and Ramdas Pophale) SiO2 
 PCOD9025249
Probable space group: P -1
;
_chemical_formula_sum "Si O2"
_cell_formula_units_Z 16
_cell_length_a 12.299240
_cell_length_b 9.088302
_cell_length_c 9.480424
_cell_angle_alpha 132.272936
_cell_angle_beta 96.574768
_cell_angle_gamma 110.113591
_cell_volume 638.637350
_symmetry_space_group_name_H-M "P -1"
_symmetry_group_IT_number 2
_symmetry_cell_setting 'triclinic'
loop_
_space_group_symop_operation_xyz
x,y,z
-x,-y,-z
loop_
_atom_site_type_symbol
_atom_site_label
_atom_site_fract_x
_atom_site_fract_y
_atom_site_fract_z
Si Si1 0.303772 0.836838 0.783545
Si Si2 0.871301 0.739216 0.858611
Si Si3 0.844353 0.958216 0.260146
Si Si4 0.381272 0.456780 0.856908
Si Si5 0.260656 0.353894 0.489276
Si Si6 0.573203 0.040081 0.819577
Si Si7 0.186434 0.862426 0.214714
Si Si8 0.024719 0.572490 0.276561
O O1 0.223800 0.939694 0.778989
O O2 0.229735 0.555614 0.632645
O O3 0.414217 0.888451 0.715660
O O4 0.379161 0.977043 0.028654
O O5 0.745328 0.669257 0.697226
O O6 0.907713 0.546734 0.715076
O O7 0.854637 0.778777 0.044690
O O8 0.000000 0.000000 0.000000
O O9 0.969802 0.211535 0.503297
O O10 0.749093 0.791268 0.265360
O O11 0.381608 0.448146 0.679884
O O12 0.500000 0.500000 0.000000
O O13 0.378655 0.688068 0.032227
O O14 0.161098 0.071017 0.331809
O O15 0.654840 0.996950 0.691561
O O16 0.121695 0.712191 0.248377
O O17 0.113976 0.660366 0.950537
#
# Coordination Sequence:
#
# PCOD9025249 Si02
#       8
#     2   2   2   2   2   2   2   2
#     4  10  22  40  68 102 136 183 235 284 356 424
#     4  12  26  45  69 108 144 183 240 294 351 429
#     4  12  24  45  73 101 142 190 232 295 358 415
#     4  11  23  45  70  99 139 187 237 290 350 425
#     4  11  23  44  68 102 148 179 240 294 347 422
#     4  10  22  42  67 100 139 183 234 289 354 418
#     4  11  23  45  68 101 146 188 235 299 347 423
#     4  11  25  46  70 106 143 189 243 284 357 428
#
# _framework density 25.053342000000001
#
# number of rings (size 3 to 8) (size 9 to 14) (size 15 to 20)
#    0.000    1.000    5.000    1.500    0.000    3.000 
#    2.250    3.750    0.000    0.000    0.000    0.000 
#    0.000    0.000    0.000    0.000    0.000    0.000 
#
# Total GULP energy -89298.030064 kJ/mol
# GULP energy per Si atom -5581.126879 kJ/mol
# Density = 2.499632 g / cm^3
# Si number density = 25.053342 Si / 1000 Ang^3
#
#
#
# Elastic Constant Matrix: (Units=GPa)
#
#
# Indices 1 2 3 4 5 6 
#
# 1 59.6916 10.7756 4.7531 1.0057 -2.7845 5.0326
# 2 10.7756 90.7615 8.3198 33.5513 4.2234 -16.7793
# 3 4.7531 8.3198 97.8581 9.6666 -5.7745 -9.7383
# 4 1.0057 33.5513 9.6666 52.1876 -11.1810 3.0815
# 5 -2.7845 4.2234 -5.7745 -11.1810 30.6581 3.4872
# 6 5.0326 -16.7793 -9.7383 3.0815 3.4872 36.3611
#
#
#
# Elastic Compliance Matrix: (Units=1/GPa)
#
#
# Indices 1 2 3 4 5 6 
#
# 1 0.018390 -0.005003 -0.001236 0.004388 0.004407 -0.005979
# 2 -0.005003 0.020300 0.000746 -0.016067 -0.010405 0.012619
# 3 -0.001236 0.000746 0.010856 -0.002576 0.000481 0.003595
# 4 0.004388 -0.016067 -0.002576 0.034100 0.016058 -0.013141
# 5 0.004407 -0.010405 0.000481 0.016058 0.041608 -0.010634
# 6 -0.005979 0.012619 0.003595 -0.013141 -0.010634 0.037249
#
#
# Mechanical properties :
#
#
# Convention : Reuss Voigt Hill
#
# Bulk Modulus (GPa) = 25.93340 32.88981 29.41160
# Shear Modulus (GPa) = 26.83224 38.80555 32.81889
#
# Velocity S-wave (km/s) = 3.27617 3.93990 3.62326
# Velocity P-wave (km/s) = 4.96838 5.81837 5.41010
#
# Compressibility (1/GPa) = 0.03856032
#
# Stress axis : x y z
#
# Youngs Moduli (GPa) = 54.37714 49.26093 92.11410
#
# Poissons Ratio (x) = 0.24643 0.11389
# Poissons Ratio (y) = 0.27203 -0.06872
# Poissons Ratio (z) = 0.06723 -0.03675
#
# Static dielectric constant tensor:
#      x y z
#    x 2.091130 0.006230 0.022650 
#    y 0.006230 1.931090 -0.037900 
#    z 0.022650 -0.037900 2.077570 
# 
# From -- ./inp_files/299751.got.cif
#   From: 2010.05.17/outbox.cif.g08.bks.cpg/sg2_150_cif.got.tgz:299751.got - 2010.06.03 11:33:40.
