data_PCOD9025713
_publ_section_title
;
Structure prediction by ZEFSAII (Michael W. Deem and Ramdas Pophale) SiO2 
 PCOD9025713
Probable space group: P -1
;
_chemical_formula_sum "Si O2"
_cell_formula_units_Z 16
_cell_length_a 15.826860
_cell_length_b 8.545048
_cell_length_c 14.831776
_cell_angle_alpha 139.729482
_cell_angle_beta 137.285403
_cell_angle_gamma 36.469655
_cell_volume 731.367037
_symmetry_space_group_name_H-M "P -1"
_symmetry_group_IT_number 2
_symmetry_cell_setting 'triclinic'
loop_
_space_group_symop_operation_xyz
x,y,z
-x,-y,-z
loop_
_atom_site_type_symbol
_atom_site_label
_atom_site_fract_x
_atom_site_fract_y
_atom_site_fract_z
Si Si1 0.961325 0.708018 0.476266
Si Si2 0.015761 0.791580 0.214243
Si Si3 0.348209 0.775420 0.607137
Si Si4 0.549200 0.227101 0.126927
Si Si5 0.013101 0.396459 0.194677
Si Si6 0.243640 0.710701 0.045610
Si Si7 0.340927 0.371158 0.291512
Si Si8 0.283983 0.908286 0.990517
O O1 0.026355 0.521767 0.354661
O O2 0.000000 0.500000 0.500000
O O3 0.783720 0.934162 0.417339
O O4 0.017051 0.916925 0.635816
O O5 0.017396 0.583919 0.200064
O O6 0.184252 0.617336 0.229694
O O7 0.889862 0.879149 0.080344
O O8 0.340722 0.815340 0.725380
O O9 0.335726 0.514901 0.446228
O O10 0.510959 0.697325 0.671868
O O11 0.393515 0.540345 0.146196
O O12 0.626580 0.192906 0.077001
O O13 0.500000 0.000000 0.000000
O O14 0.856959 0.418213 0.077702
O O15 0.140401 0.053960 0.135386
O O16 0.293207 0.676028 0.964186
O O17 0.340438 0.083800 0.164974
#
# Coordination Sequence:
#
# PCOD9025713 Si02
#       8
#     2   2   2   2   2   2   2   2
#     4  11  24  45  70 100 139 179 226 285 341 408
#     4  11  23  42  72 101 136 183 230 276 344 407
#     4  10  23  43  69 101 133 185 223 274 346 411
#     4  12  24  43  70  97 136 179 229 279 343 409
#     4  11  24  43  67 100 137 182 233 282 340 403
#     4  11  26  42  66 100 139 178 232 289 336 398
#     4  10  22  40  70  98 138 172 227 277 335 407
#     4  12  23  43  69 103 135 179 226 285 337 408
#
# _framework density 21.876840999999999
#
# number of rings (size 3 to 8) (size 9 to 14) (size 15 to 20)
#    0.000    1.000    2.500    4.125    0.000    5.000 
#    2.250    0.625    0.000    0.000    0.000    0.000 
#    0.000    0.000    0.000    0.000    0.000    0.000 
#
# Total GULP energy -89540.523032 kJ/mol
# GULP energy per Si atom -5596.282690 kJ/mol
# Density = 2.182705 g / cm^3
# Si number density = 21.876841 Si / 1000 Ang^3
#
#
#
# Elastic Constant Matrix: (Units=GPa)
#
#
# Indices 1 2 3 4 5 6 
#
# 1 96.5737 45.7247 44.4722 -2.6849 3.1019 -2.3405
# 2 45.7247 113.3052 44.3367 -15.3793 1.6072 10.9889
# 3 44.4722 44.3367 121.0259 2.3974 2.0233 5.0263
# 4 -2.6849 -15.3793 2.3974 38.9279 -0.7557 1.3548
# 5 3.1019 1.6072 2.0233 -0.7557 36.3093 -2.5166
# 6 -2.3405 10.9889 5.0263 1.3548 -2.5166 29.0911
#
#
#
# Elastic Compliance Matrix: (Units=1/GPa)
#
#
# Indices 1 2 3 4 5 6 
#
# 1 0.014409 -0.004843 -0.003644 -0.000832 -0.000581 0.003607
# 2 -0.004843 0.013127 -0.002916 0.005204 -0.000251 -0.005108
# 3 -0.003644 -0.002916 0.010755 -0.002037 -0.000269 -0.000978
# 4 -0.000832 0.005204 -0.002037 0.027922 0.000331 -0.002953
# 5 -0.000581 -0.000251 -0.000269 0.000331 0.027796 0.002484
# 6 0.003607 -0.005108 -0.000978 -0.002953 0.002484 0.037116
#
#
# Mechanical properties :
#
#
# Convention : Reuss Voigt Hill
#
# Bulk Modulus (GPa) = 64.58031 66.66354 65.62193
# Shear Modulus (GPa) = 31.42816 33.95705 32.69261
#
# Velocity S-wave (km/s) = 3.79436 3.94406 3.86993
# Velocity P-wave (km/s) = 6.98428 7.16095 7.07317
#
# Compressibility (1/GPa) = 0.01548460
#
# Stress axis : x y z
#
# Youngs Moduli (GPa) = 69.40106 76.18074 92.97664
#
# Poissons Ratio (x) = 0.36897 0.33881
# Poissons Ratio (y) = 0.33614 0.27110
# Poissons Ratio (z) = 0.25290 0.22213
#
# Static dielectric constant tensor:
#      x y z
#    x 1.811680 -0.047110 -0.010230 
#    y -0.047110 1.798780 0.016120 
#    z -0.010230 0.016120 1.790940 
# 
# From -- ./inp_files/537687.got.cif
#   From: 2010.05.17/outbox.cif.g08.bks.cpg/sg2_269_cif.got.tgz:537687.got - 2010.06.03 11:33:40.
