data_PCOD9025135
_publ_section_title
;
Structure prediction by ZEFSAII (Michael W. Deem and Ramdas Pophale) SiO2 
 PCOD9025135
Probable space group: P -1
;
_chemical_formula_sum "Si O2"
_cell_formula_units_Z 14
_cell_length_a 17.608300
_cell_length_b 9.064631
_cell_length_c 11.855215
_cell_angle_alpha 133.795563
_cell_angle_beta 30.329492
_cell_angle_gamma 138.391868
_cell_volume 628.314456
_symmetry_space_group_name_H-M "P -1"
_symmetry_group_IT_number 2
_symmetry_cell_setting 'triclinic'
loop_
_space_group_symop_operation_xyz
x,y,z
-x,-y,-z
loop_
_atom_site_type_symbol
_atom_site_label
_atom_site_fract_x
_atom_site_fract_y
_atom_site_fract_z
Si Si1 0.744161 0.185127 0.694117
Si Si2 0.513420 0.375409 0.530577
Si Si3 0.420473 0.245985 0.165863
Si Si4 0.141618 0.113617 0.286636
Si Si5 0.074138 0.311235 0.263616
Si Si6 0.176108 0.018263 0.832846
Si Si7 0.165775 0.723316 0.892684
O O1 0.853727 0.433972 0.733873
O O2 0.875930 0.183327 0.429985
O O3 0.691814 0.974316 0.732598
O O4 0.572849 0.202022 0.896496
O O5 0.500000 0.500000 0.500000
O O6 0.525382 0.544836 0.707885
O O7 0.350525 0.142396 0.613911
O O8 0.675862 0.325602 0.305893
O O9 0.308355 0.259284 0.215303
O O10 0.094117 0.271049 0.348420
O O11 0.000000 0.000000 0.500000
O O12 0.158304 0.914008 0.087249
O O13 0.188325 0.205038 0.008581
O O14 0.167933 0.808239 0.805843
O O15 0.000000 0.000000 0.000000
O O16 0.000000 0.500000 0.000000
#
# Coordination Sequence:
#
# PCOD9025135 Si02
#       7
#     2   2   2   2   2   2   2
#     4  10  22  40  67  95 131 172 217 280 326 398
#     4  12  27  46  68  99 140 182 227 283 341 409
#     4  11  24  42  67 100 134 170 229 271 335 395
#     4  11  23  42  69  96 133 171 217 277 328 397
#     4  10  22  43  64  99 132 165 226 272 337 390
#     4  11  25  46  69  96 135 181 228 279 341 413
#     4  11  26  46  70 102 139 180 225 278 346 404
#
# _framework density 22.281838
#
# number of rings (size 3 to 8) (size 9 to 14) (size 15 to 20)
#    0.000    1.143    2.857    2.143    8.000    1.714 
#    5.143    0.000    0.000    0.000    0.000    0.000 
#    0.000    0.000    0.000    0.000    0.000    0.000 
#
# Total GULP energy -78086.713571 kJ/mol
# GULP energy per Si atom -5577.622398 kJ/mol
# Density = 2.223112 g / cm^3
# Si number density = 22.281838 Si / 1000 Ang^3
#
#
#
# Elastic Constant Matrix: (Units=GPa)
#
#
# Indices 1 2 3 4 5 6 
#
# 1 136.1737 56.7392 32.1805 -12.9531 -39.0753 0.0705
# 2 56.7392 128.1194 36.4920 -30.2009 -17.4077 -7.2398
# 3 32.1805 36.4920 110.8023 -23.1356 -40.4817 -5.3260
# 4 -12.9531 -30.2009 -23.1356 49.4389 4.6573 -6.4386
# 5 -39.0753 -17.4077 -40.4817 4.6573 37.5409 5.4904
# 6 0.0705 -7.2398 -5.3260 -6.4386 5.4904 32.0758
#
#
#
# Elastic Compliance Matrix: (Units=1/GPa)
#
#
# Indices 1 2 3 4 5 6 
#
# 1 0.012919 -0.004713 0.003236 0.000184 0.015184 -0.003117
# 2 -0.004713 0.011654 -0.002290 0.005633 -0.003246 0.003947
# 3 0.003236 -0.002290 0.017519 0.005721 0.020485 0.000027
# 4 0.000184 0.005633 0.005721 0.026843 0.004646 0.006814
# 5 0.015184 -0.003246 0.020485 0.004646 0.063518 -0.007304
# 6 -0.003117 0.003947 0.000027 0.006814 -0.007304 0.034696
#
#
# Mechanical properties :
#
#
# Convention : Reuss Voigt Hill
#
# Bulk Modulus (GPa) = 28.93517 69.54655 49.24086
# Shear Modulus (GPa) = 26.85248 40.45668 33.65458
#
# Velocity S-wave (km/s) = 3.47526 4.26570 3.89061
# Velocity P-wave (km/s) = 5.39606 7.45262 6.50611
#
# Compressibility (1/GPa) = 0.03456002
#
# Stress axis : x y z
#
# Youngs Moduli (GPa) = 77.40771 85.80609 57.07974
#
# Poissons Ratio (x) = 0.40437 -0.18472
# Poissons Ratio (y) = 0.36479 0.13070
# Poissons Ratio (z) = -0.25051 0.19647
#
# Static dielectric constant tensor:
#      x y z
#    x 1.745190 0.081130 -0.042990 
#    y 0.081130 1.843090 0.050830 
#    z -0.042990 0.050830 1.779090 
# 
# From -- ./inp_files/190965.got.cif
#   From: 2010.05.17/outbox.cif.g08.bks.cpg/sg2_96_cif.got.tgz:190965.got - 2010.06.03 11:33:40.
