data_PCOD9025545
_publ_section_title
;
Structure prediction by ZEFSAII (Michael W. Deem and Ramdas Pophale) SiO2 
 PCOD9025545
Probable space group: P -1
;
_chemical_formula_sum "Si O2"
_cell_formula_units_Z 16
_cell_length_a 7.631910
_cell_length_b 8.253140
_cell_length_c 16.589324
_cell_angle_alpha 45.372782
_cell_angle_beta 117.695145
_cell_angle_gamma 98.472081
_cell_volume 631.284265
_symmetry_space_group_name_H-M "P -1"
_symmetry_group_IT_number 2
_symmetry_cell_setting 'triclinic'
loop_
_space_group_symop_operation_xyz
x,y,z
-x,-y,-z
loop_
_atom_site_type_symbol
_atom_site_label
_atom_site_fract_x
_atom_site_fract_y
_atom_site_fract_z
Si Si1 0.690453 0.286802 0.579316
Si Si2 0.272440 0.467269 0.956223
Si Si3 0.975481 0.337139 0.323600
Si Si4 0.202258 0.980071 0.142113
Si Si5 0.870729 0.709341 0.296743
Si Si6 0.308791 0.881720 0.543210
Si Si7 0.772336 0.202194 0.035989
Si Si8 0.465076 0.589764 0.228682
O O1 0.500000 0.500000 0.500000
O O2 0.667808 0.171580 0.528743
O O3 0.907828 0.353887 0.590648
O O4 0.732019 0.087844 0.727581
O O5 0.137162 0.617791 0.802229
O O6 0.500000 0.500000 0.000000
O O7 0.285724 0.191024 0.051968
O O8 0.181502 0.584479 0.980380
O O9 0.945068 0.593553 0.266044
O O10 0.852414 0.217211 0.403301
O O11 0.207427 0.162624 0.433370
O O12 0.287545 0.737066 0.196687
O O13 0.958056 0.090449 0.054115
O O14 0.672393 0.619900 0.305001
O O15 0.779954 0.991492 0.173107
O O16 0.516581 0.686270 0.685569
O O17 0.567645 0.287759 0.908629
#
# Coordination Sequence:
#
# PCOD9025545 Si02
#       8
#     2   2   2   2   2   2   2   2
#     4  11  23  47  66 100 140 178 227 277 347 410
#     4  12  24  44  70 101 134 177 235 286 339 402
#     4  10  22  42  67 100 134 176 232 280 338 393
#     4  11  24  42  70  99 135 181 222 288 350 404
#     4  10  22  40  69  96 130 182 230 281 330 402
#     4  10  22  42  66  94 142 179 225 278 335 409
#     4  11  23  41  67  97 142 174 225 289 344 401
#     4  11  21  40  64 101 133 179 232 272 340 407
#
# _framework density 25.345161000000001
#
# number of rings (size 3 to 8) (size 9 to 14) (size 15 to 20)
#    0.000    1.250    1.250    5.625    0.000    3.000 
#    9.000    0.625    0.000    0.000    0.000    0.000 
#    0.000    0.000    0.000    0.000    0.000    0.000 
#
# Total GULP energy -89296.639771 kJ/mol
# GULP energy per Si atom -5581.039986 kJ/mol
# Density = 2.528747 g / cm^3
# Si number density = 25.345161 Si / 1000 Ang^3
#
#
#
# Elastic Constant Matrix: (Units=GPa)
#
#
# Indices 1 2 3 4 5 6 
#
# 1 98.6024 -3.7988 25.4730 -19.5493 2.6136 -2.6592
# 2 -3.7988 57.5627 27.3421 -17.0032 9.1466 -27.0986
# 3 25.4730 27.3421 137.7496 -1.2579 13.1373 -9.6377
# 4 -19.5493 -17.0032 -1.2579 41.1371 -12.4725 5.6235
# 5 2.6136 9.1466 13.1373 -12.4725 31.3499 -2.1067
# 6 -2.6592 -27.0986 -9.6377 5.6235 -2.1067 37.6333
#
#
#
# Elastic Compliance Matrix: (Units=1/GPa)
#
#
# Indices 1 2 3 4 5 6 
#
# 1 0.013166 0.006546 -0.003633 0.009092 0.002367 0.003487
# 2 0.006546 0.035863 -0.006529 0.014350 -0.001058 0.022411
# 3 -0.003633 -0.006529 0.009410 -0.005037 -0.003875 -0.002012
# 4 0.009092 0.014350 -0.005037 0.037518 0.012413 0.004774
# 5 0.002367 -0.001058 -0.003875 0.012413 0.038485 -0.001287
# 6 0.003487 0.022411 -0.002012 0.004774 -0.001287 0.041655
#
#
# Mechanical properties :
#
#
# Convention : Reuss Voigt Hill
#
# Bulk Modulus (GPa) = 19.52845 43.54967 31.53906
# Shear Modulus (GPa) = 24.95031 38.35062 31.65046
#
# Velocity S-wave (km/s) = 3.14095 3.89412 3.53764
# Velocity P-wave (km/s) = 4.56901 6.11873 5.39975
#
# Compressibility (1/GPa) = 0.05120734
#
# Stress axis : x y z
#
# Youngs Moduli (GPa) = 75.95085 27.88415 106.26976
#
# Poissons Ratio (x) = -0.18253 0.38605
# Poissons Ratio (y) = -0.49716 0.69384
# Poissons Ratio (z) = 0.27591 0.18206
#
# Static dielectric constant tensor:
#      x y z
#    x 2.074760 -0.006850 0.012430 
#    y -0.006850 2.010160 -0.027730 
#    z 0.012430 -0.027730 2.035180 
# 
# From -- ./inp_files/556910.got.cif
#   From: 2010.05.17/outbox.cif.g08.bks.cpg/sg2_279_cif.got.tgz:556910.got - 2010.06.03 11:33:40.
