data_PCOD9025113
_publ_section_title
;
Structure prediction by ZEFSAII (Michael W. Deem and Ramdas Pophale) SiO2 
 PCOD9025113
Probable space group: P -1
;
_chemical_formula_sum "Si O2"
_cell_formula_units_Z 14
_cell_length_a 12.085288
_cell_length_b 17.042897
_cell_length_c 5.513687
_cell_angle_alpha 70.698961
_cell_angle_beta 91.795053
_cell_angle_gamma 145.138617
_cell_volume 548.737957
_symmetry_space_group_name_H-M "P -1"
_symmetry_group_IT_number 2
_symmetry_cell_setting 'triclinic'
loop_
_space_group_symop_operation_xyz
x,y,z
-x,-y,-z
loop_
_atom_site_type_symbol
_atom_site_label
_atom_site_fract_x
_atom_site_fract_y
_atom_site_fract_z
Si Si1 0.498331 0.869095 0.807067
Si Si2 0.928787 0.116728 0.341393
Si Si3 0.459994 0.264721 0.762669
Si Si4 0.156150 0.377030 0.407596
Si Si5 0.169865 0.729711 0.208682
Si Si6 0.766235 0.389016 0.316464
Si Si7 0.897826 0.827776 0.207145
O O1 0.292406 0.691136 0.854725
O O2 0.688854 0.997867 0.493282
O O3 0.581704 0.853663 0.015391
O O4 0.392993 0.880429 0.919616
O O5 0.091717 0.298612 0.222014
O O6 0.989274 0.095995 0.596188
O O7 0.965908 0.098788 0.104666
O O8 0.657332 0.435265 0.750651
O O9 0.562273 0.313490 0.457390
O O10 0.259994 0.197146 0.814783
O O11 0.226517 0.340628 0.598809
O O12 0.932961 0.265653 0.632509
O O13 0.205468 0.670988 0.438202
O O14 0.973390 0.579647 0.169102
#
# Coordination Sequence:
#
# PCOD9025113 Si02
#       7
#     2   2   2   2   2   2   2
#     4  11  23  37  65  95 127 169 210 263 323 378
#     4  10  26  42  64  94 134 170 210 258 320 383
#     4  10  22  40  67  94 123 168 215 267 314 372
#     4   9  22  42  64  94 128 167 217 261 317 377
#     4   9  19  39  61  91 125 163 212 265 314 373
#     4   9  20  36  61  94 126 159 212 264 320 373
#     4  10  24  45  64  94 131 170 215 258 316 378
#
# _framework density 25.513086000000001
#
# number of rings (size 3 to 8) (size 9 to 14) (size 15 to 20)
#    0.857    1.429    0.000    1.714    6.000    5.714 
#    0.000    1.429    0.000    0.000    0.000    0.000 
#    0.000    0.000    0.000    0.000    0.000    0.000 
#
# Total GULP energy -78173.486873 kJ/mol
# GULP energy per Si atom -5583.820491 kJ/mol
# Density = 2.545502 g / cm^3
# Si number density = 25.513086 Si / 1000 Ang^3
#
#
#
# Elastic Constant Matrix: (Units=GPa)
#
#
# Indices 1 2 3 4 5 6 
#
# 1 143.5555 23.9097 59.9958 5.4753 -15.1210 12.2140
# 2 23.9097 81.6291 27.5326 29.7879 -11.9877 -2.9078
# 3 59.9958 27.5326 101.8724 17.4714 -17.1949 13.7865
# 4 5.4753 29.7879 17.4714 30.6615 -7.3752 -4.1938
# 5 -15.1210 -11.9877 -17.1949 -7.3752 41.3167 -0.4651
# 6 12.2140 -2.9078 13.7865 -4.1938 -0.4651 34.1629
#
#
#
# Elastic Compliance Matrix: (Units=1/GPa)
#
#
# Indices 1 2 3 4 5 6 
#
# 1 0.009656 -0.002191 -0.005361 0.003634 0.001305 -0.001011
# 2 -0.002191 0.020040 -0.000855 -0.018163 0.001421 0.000624
# 3 -0.005361 -0.000855 0.015648 -0.007140 0.002968 -0.005307
# 4 0.003634 -0.018163 -0.007140 0.055352 0.003046 0.006873
# 5 0.001305 0.001421 0.002968 0.003046 0.026863 -0.000803
# 6 -0.001011 0.000624 -0.005307 0.006873 -0.000803 0.032661
#
#
# Mechanical properties :
#
#
# Convention : Reuss Voigt Hill
#
# Bulk Modulus (GPa) = 35.05065 61.10367 48.07716
# Shear Modulus (GPa) = 26.80326 35.60280 31.20303
#
# Velocity S-wave (km/s) = 3.24476 3.73965 3.50096
# Velocity P-wave (km/s) = 5.27315 6.53059 5.93526
#
# Compressibility (1/GPa) = 0.02853014
#
# Stress axis : x y z
#
# Youngs Moduli (GPa) = 103.56070 49.90098 63.90439
#
# Poissons Ratio (x) = 0.10932 0.34259
# Poissons Ratio (y) = 0.22688 0.05466
# Poissons Ratio (z) = 0.55518 0.04268
#
# Static dielectric constant tensor:
#      x y z
#    x 1.959520 0.010980 0.004060 
#    y 0.010980 2.016520 -0.048700 
#    z 0.004060 -0.048700 2.037940 
# 
# From -- ./inp_files/64580.got.cif
#   From: 2010.05.17/outbox.cif.g08.bks.cpg/sg2_33_cif.got.tgz:64580.got - 2010.06.03 11:33:40.
