data_PCOD9025750
_publ_section_title
;
Structure prediction by ZEFSAII (Michael W. Deem and Ramdas Pophale) SiO2 
 PCOD9025750
Probable space group: P -1
;
_chemical_formula_sum "Si O2"
_cell_formula_units_Z 16
_cell_length_a 17.772640
_cell_length_b 11.899133
_cell_length_c 10.979081
_cell_angle_alpha 132.074019
_cell_angle_beta 146.278400
_cell_angle_gamma 29.786917
_cell_volume 628.959212
_symmetry_space_group_name_H-M "P -1"
_symmetry_group_IT_number 2
_symmetry_cell_setting 'triclinic'
loop_
_space_group_symop_operation_xyz
x,y,z
-x,-y,-z
loop_
_atom_site_type_symbol
_atom_site_label
_atom_site_fract_x
_atom_site_fract_y
_atom_site_fract_z
Si Si1 0.780026 0.658739 0.881147
Si Si2 0.439475 0.178117 0.768399
Si Si3 0.118143 0.653913 0.579192
Si Si4 0.704524 0.149675 0.441891
Si Si5 0.315461 0.797571 0.038301
Si Si6 0.704436 0.665769 0.039246
Si Si7 0.915725 0.185939 0.923227
Si Si8 0.308763 0.559037 0.528835
O O1 0.795350 0.687696 0.066576
O O2 0.725896 0.528572 0.690955
O O3 0.586097 0.912027 0.746356
O O4 0.000000 0.500000 0.000000
O O5 0.231484 0.400585 0.577513
O O6 0.592582 0.185680 0.938607
O O7 0.360444 0.230110 0.838275
O O8 0.125947 0.679370 0.465159
O O9 0.258004 0.674790 0.836336
O O10 0.899625 0.874090 0.503058
O O11 0.506161 0.215485 0.218136
O O12 0.730901 0.246819 0.657084
O O13 0.699788 0.263475 0.400924
O O14 0.482877 0.651960 0.267379
O O15 0.101785 0.051325 0.980342
O O16 0.848725 0.397225 0.047872
O O17 0.000000 0.000000 0.000000
#
# Coordination Sequence:
#
# PCOD9025750 Si02
#       8
#     2   2   2   2   2   2   2   2
#     4  12  29  46  68  94 134 188 232 271 329 400
#     4  11  24  46  66  94 135 182 231 267 331 398
#     4  10  22  40  71 108 135 173 212 285 347 396
#     4  11  22  38  69 107 134 164 223 281 350 394
#     4  10  22  42  71 103 138 175 216 283 348 399
#     4  12  24  44  70 100 134 177 226 287 333 396
#     4  11  22  37  65 105 142 170 207 276 355 402
#     4  11  22  42  71 102 137 170 228 277 334 402
#
# _framework density 25.438851
#
# number of rings (size 3 to 8) (size 9 to 14) (size 15 to 20)
#    0.000    1.000    1.250    7.125    5.250    2.000 
#    0.000    0.625    0.000    0.000    0.000    0.000 
#    0.000    0.000    0.000    0.000    0.000    0.000 
#
# Total GULP energy -89589.483882 kJ/mol
# GULP energy per Si atom -5599.342743 kJ/mol
# Density = 2.538095 g / cm^3
# Si number density = 25.438851 Si / 1000 Ang^3
#
#
#
# Elastic Constant Matrix: (Units=GPa)
#
#
# Indices 1 2 3 4 5 6 
#
# 1 136.8707 27.0475 16.8442 -8.7284 -0.1345 -8.7718
# 2 27.0475 164.6753 -4.4910 -11.8790 11.7251 -0.9499
# 3 16.8442 -4.4910 50.7222 -4.3499 -2.7548 1.8571
# 4 -8.7284 -11.8790 -4.3499 22.7616 -4.3254 -6.3783
# 5 -0.1345 11.7251 -2.7548 -4.3254 30.1302 -4.0674
# 6 -8.7718 -0.9499 1.8571 -6.3783 -4.0674 41.7815
#
#
#
# Elastic Compliance Matrix: (Units=1/GPa)
#
#
# Indices 1 2 3 4 5 6 
#
# 1 0.008213 -0.001275 -0.002628 0.002831 0.001015 0.002343
# 2 -0.001275 0.006666 0.001141 0.002830 -0.002081 0.000063
# 3 -0.002628 0.001141 0.021145 0.003800 0.001929 -0.000698
# 4 0.002831 0.002830 0.003800 0.051256 0.007842 0.009078
# 5 0.001015 -0.002081 0.001929 0.007842 0.035951 0.004777
# 6 0.002343 0.000063 -0.000698 0.009078 0.004777 0.026309
#
#
# Mechanical properties :
#
#
# Convention : Reuss Voigt Hill
#
# Bulk Modulus (GPa) = 32.78748 47.89664 40.34206
# Shear Modulus (GPa) = 30.26047 39.79251 35.02649
#
# Velocity S-wave (km/s) = 3.45271 3.95934 3.71467
# Velocity P-wave (km/s) = 5.36765 6.30641 5.85587
#
# Compressibility (1/GPa) = 0.03049945
#
# Stress axis : x y z
#
# Youngs Moduli (GPa) = 121.75287 150.01998 47.29201
#
# Poissons Ratio (x) = 0.19131 0.12430
# Poissons Ratio (y) = 0.15526 -0.05396
# Poissons Ratio (z) = 0.32000 -0.17119
#
# Static dielectric constant tensor:
#      x y z
#    x 2.036240 -0.021530 -0.004440 
#    y -0.021530 2.038650 -0.003610 
#    z -0.004440 -0.003610 2.040930 
# 
# From -- ./inp_files/464828.got.cif
#   From: 2010.05.17/outbox.cif.g08.bks.cpg/sg2_233_cif.got.tgz:464828.got - 2010.06.03 11:33:40.
