data_PCOD9025255
_publ_section_title
;
Structure prediction by ZEFSAII (Michael W. Deem and Ramdas Pophale) SiO2 
 PCOD9025255
Probable space group: P -1
;
_chemical_formula_sum "Si O2"
_cell_formula_units_Z 14
_cell_length_a 5.806960
_cell_length_b 11.384653
_cell_length_c 10.221815
_cell_angle_alpha 70.290513
_cell_angle_beta 89.041553
_cell_angle_gamma 71.824100
_cell_volume 601.469249
_symmetry_space_group_name_H-M "P -1"
_symmetry_group_IT_number 2
_symmetry_cell_setting 'triclinic'
loop_
_space_group_symop_operation_xyz
x,y,z
-x,-y,-z
loop_
_atom_site_type_symbol
_atom_site_label
_atom_site_fract_x
_atom_site_fract_y
_atom_site_fract_z
Si Si1 0.648636 0.074182 0.051034
Si Si2 0.417816 0.645917 0.653351
Si Si3 0.106614 0.521614 0.814121
Si Si4 0.869472 0.426475 0.628263
Si Si5 0.648239 0.665292 0.916466
Si Si6 0.877170 0.131331 0.767599
Si Si7 0.713023 0.055807 0.535252
O O1 0.764925 0.141382 0.910973
O O2 0.469299 0.185231 0.099706
O O3 0.500000 0.000000 0.000000
O O4 0.852774 0.970964 0.175020
O O5 0.166436 0.617423 0.673563
O O6 0.601646 0.530580 0.612122
O O7 0.506104 0.637639 0.805184
O O8 0.391660 0.790451 0.556175
O O9 0.992633 0.428631 0.768643
O O10 0.926211 0.618242 0.882069
O O11 0.336935 0.424581 0.923341
O O12 0.874053 0.276072 0.663325
O O13 0.000000 0.500000 0.500000
O O14 0.744858 0.062750 0.690219
O O15 0.500000 0.000000 0.500000
O O16 0.000000 0.000000 0.500000
#
# Coordination Sequence:
#
# PCOD9025255 Si02
#       7
#     2   2   2   2   2   2   2
#     4  11  25  44  74 108 148 194 243 317 382 451
#     4  11  25  44  72 102 143 196 244 311 373 451
#     4  10  22  41  69 104 141 188 241 309 375 452
#     4  11  25  45  71 106 145 190 249 309 382 449
#     4  10  22  40  68 102 144 183 246 301 378 447
#     4  11  27  47  73 111 147 196 253 313 383 454
#     4  12  31  51  78 108 153 206 260 313 377 461
#
# _framework density 23.276333000000001
#
# number of rings (size 3 to 8) (size 9 to 14) (size 15 to 20)
#    0.000    1.143    0.000    3.857   10.000    8.000 
#    0.000    0.000    0.000    0.000    0.000    0.000 
#    0.000    0.000    0.000    0.000    0.000    0.000 
#
# Total GULP energy -78172.095776 kJ/mol
# GULP energy per Si atom -5583.721127 kJ/mol
# Density = 2.322336 g / cm^3
# Si number density = 23.276333 Si / 1000 Ang^3
#
#
#
# Elastic Constant Matrix: (Units=GPa)
#
#
# Indices 1 2 3 4 5 6 
#
# 1 94.5834 80.8059 44.1940 -9.8379 14.2182 11.1521
# 2 80.8059 181.7476 66.0864 -6.6517 5.1463 1.9751
# 3 44.1940 66.0864 92.0312 -15.8691 12.2266 14.3131
# 4 -9.8379 -6.6517 -15.8691 42.8535 8.2526 3.5938
# 5 14.2182 5.1463 12.2266 8.2526 46.8610 7.6012
# 6 11.1521 1.9751 14.3131 3.5938 7.6012 36.7401
#
#
#
# Elastic Compliance Matrix: (Units=1/GPa)
#
#
# Indices 1 2 3 4 5 6 
#
# 1 0.019669 -0.007706 -0.001989 0.003820 -0.004593 -0.004205
# 2 -0.007706 0.010654 -0.005337 -0.002872 0.002480 0.003613
# 3 -0.001989 -0.005337 0.018260 0.006714 -0.003768 -0.006101
# 4 0.003820 -0.002872 0.006714 0.027962 -0.006714 -0.004967
# 5 -0.004593 0.002480 -0.003768 -0.006714 0.024913 -0.001769
# 6 -0.004205 0.003613 -0.006101 -0.004967 -0.001769 0.031529
#
#
# Mechanical properties :
#
#
# Convention : Reuss Voigt Hill
#
# Bulk Modulus (GPa) = 53.99492 83.39276 68.69384
# Shear Modulus (GPa) = 29.54633 37.10931 33.32782
#
# Velocity S-wave (km/s) = 3.56669 3.99719 3.78806
# Velocity P-wave (km/s) = 6.34109 7.56363 6.97918
#
# Compressibility (1/GPa) = 0.01852026
#
# Stress axis : x y z
#
# Youngs Moduli (GPa) = 50.84051 93.85771 54.76378
#
# Poissons Ratio (x) = 0.72331 0.10890
# Poissons Ratio (y) = 0.39180 0.29227
# Poissons Ratio (z) = 0.10110 0.50091
#
# Static dielectric constant tensor:
#      x y z
#    x 1.927740 -0.005680 -0.013430 
#    y -0.005680 1.801740 0.044600 
#    z -0.013430 0.044600 1.995420 
# 
# From -- ./inp_files/362647.got.cif
#   From: 2010.05.17/outbox.cif.g08.bks.cpg/sg2_182_cif.got.tgz:362647.got - 2010.06.03 11:33:40.
