data_PCOD9025452
_publ_section_title
;
Structure prediction by ZEFSAII (Michael W. Deem and Ramdas Pophale) SiO2 
 PCOD9025452
Probable space group: P -1
;
_chemical_formula_sum "Si O2"
_cell_formula_units_Z 16
_cell_length_a 10.025644
_cell_length_b 11.069720
_cell_length_c 16.135558
_cell_angle_alpha 36.625316
_cell_angle_beta 59.548510
_cell_angle_gamma 45.568026
_cell_volume 756.476727
_symmetry_space_group_name_H-M "P -1"
_symmetry_group_IT_number 2
_symmetry_cell_setting 'triclinic'
loop_
_space_group_symop_operation_xyz
x,y,z
-x,-y,-z
loop_
_atom_site_type_symbol
_atom_site_label
_atom_site_fract_x
_atom_site_fract_y
_atom_site_fract_z
Si Si1 0.574219 0.337068 0.376393
Si Si2 0.903999 0.932356 0.387074
Si Si3 0.846027 0.048585 0.587406
Si Si4 0.623076 0.085144 0.873673
Si Si5 0.831784 0.689246 0.889062
Si Si6 0.246461 0.399997 0.337564
Si Si7 0.313076 0.524596 0.071699
Si Si8 0.988276 0.041294 0.846517
O O1 0.650323 0.206004 0.513661
O O2 0.500160 0.619829 0.254211
O O3 0.410252 0.323468 0.395135
O O4 0.746297 0.192555 0.336204
O O5 0.841810 0.753428 0.531878
O O6 0.919616 0.966494 0.266628
O O7 0.108818 0.837803 0.412449
O O8 0.899544 0.783725 0.742750
O O9 0.000000 0.000000 0.500000
O O10 0.814124 0.015868 0.898672
O O11 0.689350 0.938049 0.847488
O O12 0.500000 0.000000 0.000000
O O13 0.741164 0.567410 0.940361
O O14 0.000000 0.500000 0.000000
O O15 0.325592 0.378883 0.231204
O O16 0.093634 0.690416 0.239348
O O17 0.500000 0.500000 0.000000
O O18 0.146346 0.812594 0.976277
#
# Coordination Sequence:
#
# PCOD9025452 Si02
#       8
#     2   2   2   2   2   2   2   2
#     4  10  24  43  69  97 144 173 233 276 345 407
#     4  11  21  43  71  97 133 181 225 278 348 405
#     4  10  22  40  69 102 128 176 227 286 333 406
#     4  11  26  41  71 104 137 183 225 289 345 401
#     4  12  25  47  73 101 138 182 232 281 349 408
#     4  11  25  44  66 100 139 183 223 282 344 405
#     4  12  26  44  71 102 136 183 232 279 343 417
#     4  11  24  45  69  99 140 178 231 287 340 409
#
# _framework density 21.150686
#
# number of rings (size 3 to 8) (size 9 to 14) (size 15 to 20)
#    0.000    1.000    2.500    3.375    8.750    2.500 
#    2.250    0.000    0.000    0.000    0.000    0.000 
#    0.000    0.000    0.000    0.000    0.000    0.000 
#
# Total GULP energy -89410.765166 kJ/mol
# GULP energy per Si atom -5588.172823 kJ/mol
# Density = 2.110255 g / cm^3
# Si number density = 21.150686 Si / 1000 Ang^3
#
#
#
# Elastic Constant Matrix: (Units=GPa)
#
#
# Indices 1 2 3 4 5 6 
#
# 1 139.8605 23.7988 77.2720 -10.5712 -4.2560 -8.9769
# 2 23.7988 86.6799 28.1691 -10.3813 -8.7309 0.6777
# 3 77.2720 28.1691 131.4910 9.8755 0.7496 -17.9693
# 4 -10.5712 -10.3813 9.8755 38.1770 -1.6240 -2.4856
# 5 -4.2560 -8.7309 0.7496 -1.6240 39.3791 2.5431
# 6 -8.9769 0.6777 -17.9693 -2.4856 2.5431 29.0237
#
#
#
# Elastic Compliance Matrix: (Units=1/GPa)
#
#
# Indices 1 2 3 4 5 6 
#
# 1 0.011566 -0.000033 -0.007268 0.005102 0.001632 -0.000628
# 2 -0.000033 0.013636 -0.003605 0.004617 0.003438 -0.002467
# 3 -0.007268 -0.003605 0.013981 -0.006314 -0.002510 0.006171
# 4 0.005102 0.004617 -0.006314 0.030616 0.002963 -0.000077
# 5 0.001632 0.003438 -0.002510 0.002963 0.026710 -0.003216
# 6 -0.000628 -0.002467 0.006171 -0.000077 -0.003216 0.038414
#
#
# Mechanical properties :
#
#
# Convention : Reuss Voigt Hill
#
# Bulk Modulus (GPa) = 57.57181 68.50124 63.03653
# Shear Modulus (GPa) = 30.76418 36.56874 33.66646
#
# Velocity S-wave (km/s) = 3.81796 4.16259 3.99399
# Velocity P-wave (km/s) = 6.83481 7.45389 7.15105
#
# Compressibility (1/GPa) = 0.01736961
#
# Stress axis : x y z
#
# Youngs Moduli (GPa) = 86.45790 73.33556 71.52813
#
# Poissons Ratio (x) = 0.00244 0.51988
# Poissons Ratio (y) = 0.00287 0.25787
# Poissons Ratio (z) = 0.62840 0.26438
#
# Static dielectric constant tensor:
#      x y z
#    x 1.810530 0.011860 0.022300 
#    y 0.011860 1.788180 0.022860 
#    z 0.022300 0.022860 1.781430 
# 
# From -- ./inp_files/559535.got.cif
#   From: 2010.05.17/outbox.cif.g08.bks.cpg/sg2_280_cif.got.tgz:559535.got - 2010.06.03 11:33:40.
