data_PCOD9025275
_publ_section_title
;
Structure prediction by ZEFSAII (Michael W. Deem and Ramdas Pophale) SiO2 
 PCOD9025275
Probable space group: P -1
;
_chemical_formula_sum "Si O2"
_cell_formula_units_Z 14
_cell_length_a 9.056849
_cell_length_b 11.898858
_cell_length_c 8.685860
_cell_angle_alpha 52.968126
_cell_angle_beta 99.803913
_cell_angle_gamma 129.516096
_cell_volume 540.902126
_symmetry_space_group_name_H-M "P -1"
_symmetry_group_IT_number 2
_symmetry_cell_setting 'triclinic'
loop_
_space_group_symop_operation_xyz
x,y,z
-x,-y,-z
loop_
_atom_site_type_symbol
_atom_site_label
_atom_site_fract_x
_atom_site_fract_y
_atom_site_fract_z
Si Si1 0.730347 0.864007 0.644337
Si Si2 0.722758 0.355894 0.139333
Si Si3 0.322065 0.490216 0.528379
Si Si4 0.204803 0.176793 0.971282
Si Si5 0.807247 0.329532 0.506906
Si Si6 0.103916 0.294779 0.337411
Si Si7 0.537296 0.928453 0.917804
O O1 0.498273 0.748108 0.740942
O O2 0.758753 0.759158 0.613162
O O3 0.875157 0.088382 0.448639
O O4 0.816554 0.851998 0.827534
O O5 0.839966 0.374961 0.293878
O O6 0.170891 0.447333 0.091826
O O7 0.659677 0.207979 0.114346
O O8 0.500000 0.500000 0.500000
O O9 0.237381 0.355617 0.774536
O O10 0.362492 0.671941 0.447900
O O11 0.164795 0.389559 0.439406
O O12 0.385179 0.182456 0.949139
O O13 0.000000 0.000000 0.000000
O O14 0.720237 0.120511 0.699074
O O15 0.000000 0.500000 0.500000
O O16 0.500000 0.000000 0.000000
#
# Coordination Sequence:
#
# PCOD9025275 Si02
#       7
#     2   2   2   2   2   2   2
#     4  10  22  40  68 104 149 184 241 297 374 430
#     4  11  24  47  72  98 148 198 242 298 373 435
#     4  12  23  41  72 104 140 187 245 297 358 429
#     4  11  21  41  68 100 143 181 232 295 355 422
#     4  12  27  48  72 105 145 192 244 303 373 438
#     4  11  22  40  68 109 142 184 244 305 358 440
#     4  11  25  48  71 107 148 192 241 297 366 441
#
# _framework density 25.882686
#
# number of rings (size 3 to 8) (size 9 to 14) (size 15 to 20)
#    0.000    0.857    1.429    6.857    2.000    0.000 
#    2.571    1.429    0.000    0.000    0.000    0.000 
#    0.000    0.000    0.000    0.000    0.000    0.000 
#
# Total GULP energy -78464.179004 kJ/mol
# GULP energy per Si atom -5604.584215 kJ/mol
# Density = 2.582378 g / cm^3
# Si number density = 25.882686 Si / 1000 Ang^3
#
#
#
# Elastic Constant Matrix: (Units=GPa)
#
#
# Indices 1 2 3 4 5 6 
#
# 1 86.1330 21.8726 26.7820 10.9731 -11.3591 -12.4496
# 2 21.8726 142.8448 92.4546 19.0549 -1.0608 -8.6283
# 3 26.7820 92.4546 176.6728 -14.5282 9.2811 12.2342
# 4 10.9731 19.0549 -14.5282 59.7539 5.6808 -5.5115
# 5 -11.3591 -1.0608 9.2811 5.6808 42.2272 5.7655
# 6 -12.4496 -8.6283 12.2342 -5.5115 5.7655 57.7653
#
#
#
# Elastic Compliance Matrix: (Units=1/GPa)
#
#
# Indices 1 2 3 4 5 6 
#
# 1 0.013945 0.000644 -0.003201 -0.003704 0.004564 0.002971
# 2 0.000644 0.012861 -0.007661 -0.006068 0.002608 0.002843
# 3 -0.003201 -0.007661 0.011055 0.005782 -0.003818 -0.003243
# 4 -0.003704 -0.006068 0.005782 0.021217 -0.005222 -0.000384
# 5 0.004564 0.002608 -0.003818 -0.005222 0.026650 -0.000976
# 6 0.002971 0.002843 -0.003243 -0.000384 -0.000976 0.019124
#
#
# Mechanical properties :
#
#
# Convention : Reuss Voigt Hill
#
# Bulk Modulus (GPa) = 57.38769 76.42989 66.90879
# Shear Modulus (GPa) = 38.14025 49.58538 43.86282
#
# Velocity S-wave (km/s) = 3.84289 4.38170 4.12111
# Velocity P-wave (km/s) = 6.47385 7.42917 6.96790
#
# Compressibility (1/GPa) = 0.01742534
#
# Stress axis : x y z
#
# Youngs Moduli (GPa) = 71.71095 77.75610 90.45727
#
# Poissons Ratio (x) = -0.05008 0.28955
# Poissons Ratio (y) = -0.04618 0.69296
# Poissons Ratio (z) = 0.22955 0.59566
#
# Static dielectric constant tensor:
#      x y z
#    x 2.219610 0.017330 -0.009990 
#    y 0.017330 1.957520 0.012350 
#    z -0.009990 0.012350 2.033070 
# 
# From -- ./inp_files/185301.got.cif
#   From: 2010.05.17/outbox.cif.g08.bks.cpg/sg2_93_cif.got.tgz:185301.got - 2010.06.03 11:33:40.
