data_PCOD9025597
_publ_section_title
;
Structure prediction by ZEFSAII (Michael W. Deem and Ramdas Pophale) SiO2 
 PCOD9025597
Probable space group: P -1
;
_chemical_formula_sum "Si O2"
_cell_formula_units_Z 14
_cell_length_a 12.890703
_cell_length_b 12.659476
_cell_length_c 11.842896
_cell_angle_alpha 33.051698
_cell_angle_beta 135.947892
_cell_angle_gamma 112.223651
_cell_volume 591.115603
_symmetry_space_group_name_H-M "P -1"
_symmetry_group_IT_number 2
_symmetry_cell_setting 'triclinic'
loop_
_space_group_symop_operation_xyz
x,y,z
-x,-y,-z
loop_
_atom_site_type_symbol
_atom_site_label
_atom_site_fract_x
_atom_site_fract_y
_atom_site_fract_z
Si Si1 0.386166 0.114886 0.492598
Si Si2 0.421252 0.266326 0.613626
Si Si3 0.066906 0.073372 0.090197
Si Si4 0.027057 0.520805 0.197446
Si Si5 0.514564 0.266053 0.258692
Si Si6 0.688725 0.247209 0.998590
Si Si7 0.057811 0.868959 0.500935
O O1 0.464926 0.098139 0.692077
O O2 0.393121 0.282427 0.253481
O O3 0.498974 0.855751 0.754270
O O4 0.164383 0.253389 0.211059
O O5 0.214653 0.397905 0.383010
O O6 0.567725 0.168935 0.917786
O O7 0.422787 0.473646 0.366296
O O8 0.280962 0.948605 0.347313
O O9 0.065365 0.934855 0.321190
O O10 0.000000 0.000000 0.000000
O O11 0.963345 0.350184 0.798829
O O12 0.989438 0.322200 0.360401
O O13 0.500000 0.500000 0.000000
O O14 0.760004 0.206273 0.219181
O O15 0.880941 0.105629 0.207810
#
# Coordination Sequence:
#
# PCOD9025597 Si02
#       7
#     2   2   2   2   2   2   2
#     4  10  22  40  70 100 138 179 228 279 348 409
#     4  11  22  43  71 105 143 179 224 290 351 401
#     4  11  26  46  71  98 139 185 229 285 350 403
#     4  11  23  44  71 102 140 181 222 291 349 409
#     4  10  23  44  67  98 133 184 233 279 336 409
#     4  10  24  40  70 101 145 180 225 283 344 414
#     4  11  23  45  69 102 138 182 232 276 348 416
#
# _framework density 23.68403
#
# number of rings (size 3 to 8) (size 9 to 14) (size 15 to 20)
#    0.000    1.429    2.857    1.286    2.000    2.286 
#    2.571    0.000    0.000    0.000    0.000    0.000 
#    0.000    0.000    0.000    0.000    0.000    0.000 
#
# Total GULP energy -78235.488796 kJ/mol
# GULP energy per Si atom -5588.249200 kJ/mol
# Density = 2.363012 g / cm^3
# Si number density = 23.684030 Si / 1000 Ang^3
#
#
#
# Elastic Constant Matrix: (Units=GPa)
#
#
# Indices 1 2 3 4 5 6 
#
# 1 106.2994 61.5496 39.0523 19.6477 0.2086 -5.6166
# 2 61.5496 219.3755 56.3535 21.5035 -21.0920 -22.4725
# 3 39.0523 56.3535 53.4734 2.3590 -18.2785 -10.9645
# 4 19.6477 21.5035 2.3590 44.4154 -1.2179 -7.1049
# 5 0.2086 -21.0920 -18.2785 -1.2179 39.2231 -6.0559
# 6 -5.6166 -22.4725 -10.9645 -7.1049 -6.0559 34.4396
#
#
#
# Elastic Compliance Matrix: (Units=1/GPa)
#
#
# Indices 1 2 3 4 5 6 
#
# 1 0.016644 -0.001805 -0.014176 -0.006930 -0.008800 -0.005953
# 2 -0.001805 0.006901 -0.004676 -0.001814 0.001899 0.002680
# 3 -0.014176 -0.004676 0.043311 0.008999 0.020158 0.013827
# 4 -0.006930 -0.001814 0.008999 0.027256 0.005196 0.007088
# 5 -0.008800 0.001899 0.020158 0.005196 0.038284 0.014026
# 6 -0.005953 0.002680 0.013827 0.007088 0.014026 0.038144
#
#
# Mechanical properties :
#
#
# Convention : Reuss Voigt Hill
#
# Bulk Modulus (GPa) = 39.15219 77.00658 58.07939
# Shear Modulus (GPa) = 22.68932 38.42848 30.55890
#
# Velocity S-wave (km/s) = 3.09852 4.03246 3.59594
# Velocity P-wave (km/s) = 5.41923 7.36652 6.46659
#
# Compressibility (1/GPa) = 0.02554135
#
# Stress axis : x y z
#
# Youngs Moduli (GPa) = 60.08154 144.91234 23.08908
#
# Poissons Ratio (x) = 0.26154 0.32732
# Poissons Ratio (y) = 0.10844 0.10796
# Poissons Ratio (z) = 0.85174 0.67758
#
# Static dielectric constant tensor:
#      x y z
#    x 1.907460 0.031510 -0.008670 
#    y 0.031510 2.021600 0.001270 
#    z -0.008670 0.001270 1.902460 
# 
# From -- ./inp_files/451008.got.cif
#   From: 2010.05.17/outbox.cif.g08.bks.cpg/sg2_226_cif.got.tgz:451008.got - 2010.06.03 11:33:40.
