data_PCOD9025251
_publ_section_title
;
Structure prediction by ZEFSAII (Michael W. Deem and Ramdas Pophale) SiO2 
 PCOD9025251
Probable space group: P -1
;
_chemical_formula_sum "Si O2"
_cell_formula_units_Z 15
_cell_length_a 9.175893
_cell_length_b 13.414537
_cell_length_c 6.621182
_cell_angle_alpha 126.726995
_cell_angle_beta 92.228434
_cell_angle_gamma 94.629057
_cell_volume 647.204395
_symmetry_space_group_name_H-M "P -1"
_symmetry_group_IT_number 2
_symmetry_cell_setting 'triclinic'
loop_
_space_group_symop_operation_xyz
x,y,z
-x,-y,-z
loop_
_atom_site_type_symbol
_atom_site_label
_atom_site_fract_x
_atom_site_fract_y
_atom_site_fract_z
Si Si1 0.221077 0.951338 0.601869
Si Si2 0.583217 0.380075 0.876840
Si Si3 0.632011 0.780464 0.023682
Si Si4 0.000000 0.000000 0.000000
Si Si5 0.163628 0.871166 0.060230
Si Si6 0.602541 0.206305 0.304401
Si Si7 0.903803 0.479428 0.169671
Si Si8 0.093776 0.314642 0.255107
O O1 0.183375 0.874163 0.301084
O O2 0.353281 0.896094 0.659283
O O3 0.279233 0.094568 0.729560
O O4 0.078763 0.947293 0.728667
O O5 0.482665 0.282905 0.896058
O O6 0.741476 0.418041 0.030782
O O7 0.500000 0.500000 0.000000
O O8 0.603569 0.327501 0.590222
O O9 0.543446 0.814408 0.861034
O O10 0.751165 0.691934 0.849744
O O11 0.831928 0.991388 0.865808
O O12 0.267570 0.789478 0.848798
O O13 0.993882 0.828267 0.915163
O O14 0.895126 0.609992 0.444960
O O15 0.986983 0.387627 0.201688
O O16 0.000000 0.500000 0.000000
#
# Coordination Sequence:
#
# PCOD9025251 Si02
#       8
#     2   2   2   1   2   2   2   2
#     4  11  24  45  71 107 144 189 232 291 354 426
#     4  12  27  48  71 104 139 192 239 298 355 424
#     4  12  26  44  68 105 146 185 235 293 356 426
#     4  10  22  40  68 102 138 176 228 284 340 420
#     4  11  23  45  70 102 142 183 234 286 349 419
#     4  11  25  44  71 101 142 191 234 292 353 426
#     4  11  24  45  69  99 132 178 239 291 350 411
#     4  11  24  42  69 101 133 181 228 296 348 410
#
# _framework density 23.176606
#
# number of rings (size 3 to 8) (size 9 to 14) (size 15 to 20)
#    0.000    0.800    1.333    5.600    0.000    9.600 
#    2.400    0.000    0.000    0.000    0.000    0.000 
#    0.000    0.000    0.000    0.000    0.000    0.000 
#
# Total GULP energy -83765.911523 kJ/mol
# GULP energy per Si atom -5584.394102 kJ/mol
# Density = 2.312385 g / cm^3
# Si number density = 23.176606 Si / 1000 Ang^3
#
#
#
# Elastic Constant Matrix: (Units=GPa)
#
#
# Indices 1 2 3 4 5 6 
#
# 1 147.4618 32.8193 75.5852 -5.0865 -22.8595 4.6685
# 2 32.8193 74.7000 49.4596 -7.8881 -12.7906 6.2046
# 3 75.5852 49.4596 213.6679 -8.0429 -19.6408 5.1565
# 4 -5.0865 -7.8881 -8.0429 35.9333 -6.4674 -7.4366
# 5 -22.8595 -12.7906 -19.6408 -6.4674 35.2589 8.7155
# 6 4.6685 6.2046 5.1565 -7.4366 8.7155 39.1120
#
#
#
# Elastic Compliance Matrix: (Units=1/GPa)
#
#
# Indices 1 2 3 4 5 6 
#
# 1 0.009117 -0.001409 -0.002408 0.000981 0.004580 -0.001381
# 2 -0.001409 0.017341 -0.002860 0.003319 0.005061 -0.002702
# 3 -0.002408 -0.002860 0.006322 0.000596 0.001087 -0.000221
# 4 0.000981 0.003319 0.000596 0.030822 0.006937 0.003592
# 5 0.004580 0.005061 0.001087 0.006937 0.037133 -0.008448
# 6 -0.001381 -0.002702 -0.000221 0.003592 -0.008448 0.028756
#
#
# Mechanical properties :
#
#
# Convention : Reuss Voigt Hill
#
# Bulk Modulus (GPa) = 51.47819 83.50644 67.49231
# Shear Modulus (GPa) = 33.48530 40.59189 37.03859
#
# Velocity S-wave (km/s) = 3.80516 4.18953 4.00196
# Velocity P-wave (km/s) = 6.44710 7.71438 7.10904
#
# Compressibility (1/GPa) = 0.01942570
#
# Stress axis : x y z
#
# Youngs Moduli (GPa) = 109.69050 57.66625 158.18569
#
# Poissons Ratio (x) = 0.08124 0.38086
# Poissons Ratio (y) = 0.15453 0.45248
# Poissons Ratio (z) = 0.26410 0.16495
#
# Static dielectric constant tensor:
#      x y z
#    x 1.855480 0.024420 0.022360 
#    y 0.024420 3.668040 0.363180 
#    z 0.022360 0.363180 1.913680 
# 
# From -- ./inp_files/40438.got.cif
#   From: 2010.05.17/outbox.cif.g08.bks.cpg/sg2_21_cif.got.tgz:40438.got - 2010.06.03 11:33:40.
