data_PCOD9025160
_publ_section_title
;
Structure prediction by ZEFSAII (Michael W. Deem and Ramdas Pophale) SiO2 
 PCOD9025160
Probable space group: P -1
;
_chemical_formula_sum "Si O2"
_cell_formula_units_Z 16
_cell_length_a 11.629598
_cell_length_b 11.630103
_cell_length_c 11.388601
_cell_angle_alpha 33.933796
_cell_angle_beta 74.608705
_cell_angle_gamma 61.909039
_cell_volume 733.632946
_symmetry_space_group_name_H-M "P -1"
_symmetry_group_IT_number 2
_symmetry_cell_setting 'triclinic'
loop_
_space_group_symop_operation_xyz
x,y,z
-x,-y,-z
loop_
_atom_site_type_symbol
_atom_site_label
_atom_site_fract_x
_atom_site_fract_y
_atom_site_fract_z
Si Si1 0.262799 0.212580 0.380963
Si Si2 0.448097 0.260243 0.757859
Si Si3 0.898105 0.920096 0.653212
Si Si4 0.159237 0.361581 0.672366
Si Si5 0.970122 0.301351 0.964321
Si Si6 0.953986 0.890469 0.212929
Si Si7 0.525885 0.260741 0.252694
Si Si8 0.392529 0.686322 0.550100
O O1 0.169679 0.175946 0.341590
O O2 0.160888 0.467347 0.240389
O O3 0.393921 0.231692 0.285438
O O4 0.339843 0.965546 0.636226
O O5 0.300678 0.347328 0.672040
O O6 0.434007 0.417772 0.741735
O O7 0.544665 0.261760 0.626991
O O8 0.500000 0.000000 0.000000
O O9 0.768268 0.146902 0.547997
O O10 0.000000 0.000000 0.500000
O O11 0.977480 0.726932 0.893338
O O12 0.165568 0.167468 0.742337
O O13 0.089310 0.301339 0.852368
O O14 0.066358 0.629290 0.433478
O O15 0.938188 0.081793 0.150103
O O16 0.000000 0.000000 0.000000
O O17 0.548786 0.275990 0.374476
O O18 0.500000 0.500000 0.000000
#
# Coordination Sequence:
#
# PCOD9025160 Si02
#       8
#     2   2   2   2   2   2   2   2
#     4  10  25  42  63 101 129 173 235 269 342 407
#     4  11  24  43  69  97 131 177 221 277 343 396
#     4  11  25  45  68  97 138 179 226 288 344 402
#     4  10  22  40  67  96 133 174 225 271 339 407
#     4  11  23  39  66 100 135 169 222 284 337 410
#     4   9  21  40  61  96 135 169 215 277 334 403
#     4  10  24  46  69  93 141 182 225 282 335 412
#     4  10  25  45  66 100 134 172 231 276 332 414
#
# _framework density 21.809270999999999
#
# number of rings (size 3 to 8) (size 9 to 14) (size 15 to 20)
#    0.000    1.750    0.000    1.875    7.000   11.000 
#    0.000    0.000    0.000    0.000    0.000    0.000 
#    0.000    0.000    0.000    0.000    0.000    0.000 
#
# Total GULP energy -89242.635153 kJ/mol
# GULP energy per Si atom -5577.664697 kJ/mol
# Density = 2.175963 g / cm^3
# Si number density = 21.809271 Si / 1000 Ang^3
#
#
#
# Elastic Constant Matrix: (Units=GPa)
#
#
# Indices 1 2 3 4 5 6 
#
# 1 115.8416 44.1801 24.4219 -2.0203 -11.6931 -2.5361
# 2 44.1801 84.6810 32.8228 -15.1092 -11.8492 -10.1354
# 3 24.4219 32.8228 126.5115 -20.8172 -8.6631 -2.8146
# 4 -2.0203 -15.1092 -20.8172 35.1791 6.0049 -5.5341
# 5 -11.6931 -11.8492 -8.6631 6.0049 28.8786 -7.8594
# 6 -2.5361 -10.1354 -2.8146 -5.5341 -7.8594 33.5496
#
#
#
# Elastic Compliance Matrix: (Units=1/GPa)
#
#
# Indices 1 2 3 4 5 6 
#
# 1 0.011205 -0.005786 -0.001021 -0.002974 0.002214 -0.000958
# 2 -0.005786 0.018397 -0.002052 0.006610 0.005190 0.007254
# 3 -0.001021 -0.002052 0.009493 0.004693 0.000913 0.001087
# 4 -0.002974 0.006610 0.004693 0.035457 -0.002431 0.007445
# 5 0.002214 0.005190 0.000913 -0.002431 0.041460 0.011123
# 6 -0.000958 0.007254 0.001087 0.007445 0.011123 0.035851
#
#
# Mechanical properties :
#
#
# Convention : Reuss Voigt Hill
#
# Bulk Modulus (GPa) = 46.77774 58.87595 52.82684
# Shear Modulus (GPa) = 28.29568 34.56207 31.42888
#
# Velocity S-wave (km/s) = 3.60587 3.98520 3.80027
# Velocity P-wave (km/s) = 6.23150 6.94480 6.59779
#
# Compressibility (1/GPa) = 0.02137769
#
# Stress axis : x y z
#
# Youngs Moduli (GPa) = 89.24611 54.35765 105.34457
#
# Poissons Ratio (x) = 0.31450 0.10756
# Poissons Ratio (y) = 0.51635 0.21612
# Poissons Ratio (z) = 0.09113 0.11152
#
# Static dielectric constant tensor:
#      x y z
#    x 1.797120 0.044400 -0.003210 
#    y 0.044400 1.900560 -0.020110 
#    z -0.003210 -0.020110 1.788290 
# 
# From -- ./inp_files/427224.got.cif
#   From: 2010.05.17/outbox.cif.g08.bks.cpg/sg2_214_cif.got.tgz:427224.got - 2010.06.03 11:33:40.
