data_PCOD9025333
_publ_section_title
;
Structure prediction by ZEFSAII (Michael W. Deem and Ramdas Pophale) SiO2 
 PCOD9025333
Probable space group: P -1
;
_chemical_formula_sum "Si O2"
_cell_formula_units_Z 15
_cell_length_a 20.629080
_cell_length_b 10.307000
_cell_length_c 5.047209
_cell_angle_alpha 110.175801
_cell_angle_beta 66.563937
_cell_angle_gamma 144.414586
_cell_volume 572.507323
_symmetry_space_group_name_H-M "P -1"
_symmetry_group_IT_number 2
_symmetry_cell_setting 'triclinic'
loop_
_space_group_symop_operation_xyz
x,y,z
-x,-y,-z
loop_
_atom_site_type_symbol
_atom_site_label
_atom_site_fract_x
_atom_site_fract_y
_atom_site_fract_z
Si Si1 0.164061 0.663407 0.905378
Si Si2 0.328217 0.539406 0.957163
Si Si3 0.726582 0.986446 0.656443
Si Si4 0.500000 0.500000 0.500000
Si Si5 0.654183 0.150110 0.568836
Si Si6 0.943441 0.270686 0.199638
Si Si7 0.071679 0.056145 0.173834
Si Si8 0.539713 0.322654 0.673975
O O1 0.238379 0.655650 0.660665
O O2 0.087284 0.624680 0.789724
O O3 0.251127 0.918224 0.023605
O O4 0.080543 0.487413 0.151801
O O5 0.360446 0.743504 0.139257
O O6 0.201264 0.307392 0.092867
O O7 0.418385 0.590810 0.031404
O O8 0.357823 0.555288 0.615016
O O9 0.692276 0.076031 0.625503
O O10 0.849334 0.111907 0.466910
O O11 0.627680 0.728796 0.581521
O O12 0.477196 0.357253 0.679354
O O13 0.547492 0.937829 0.416845
O O14 0.925549 0.106673 0.937350
O O15 0.000000 0.000000 0.500000
O O16 0.000000 0.000000 0.000000
#
# Coordination Sequence:
#
# PCOD9025333 Si02
#       8
#     2   2   2   1   2   2   2   2
#     4  10  22  40  70  92 132 174 223 288 335 399
#     4  12  26  45  71  98 140 181 225 279 345 404
#     4  10  22  40  68  94 133 176 220 287 336 402
#     4  10  24  44  64 102 136 174 234 272 342 400
#     4  10  24  41  64 102 129 176 226 275 339 405
#     4  10  23  42  62 101 127 174 234 275 343 401
#     4  12  28  45  70 100 137 183 227 284 341 403
#     4  11  26  44  70 101 135 183 222 284 336 408
#
# _framework density 26.200538999999999
#
# number of rings (size 3 to 8) (size 9 to 14) (size 15 to 20)
#    0.000    1.333    0.000    3.600   11.200    0.533 
#    0.000    0.000    0.000    0.000    0.000    0.000 
#    0.000    0.000    0.000    0.000    0.000    0.000 
#
# Total GULP energy -83667.790762 kJ/mol
# GULP energy per Si atom -5577.852717 kJ/mol
# Density = 2.614091 g / cm^3
# Si number density = 26.200539 Si / 1000 Ang^3
#
#
#
# Elastic Constant Matrix: (Units=GPa)
#
#
# Indices 1 2 3 4 5 6 
#
# 1 73.0421 -3.7511 -3.3129 -6.6739 -4.0671 -8.0749
# 2 -3.7511 158.7732 12.0334 -12.4543 -10.7255 12.3870
# 3 -3.3129 12.0334 87.9630 -24.6926 -10.2003 0.2926
# 4 -6.6739 -12.4543 -24.6926 38.4958 1.6457 -9.9495
# 5 -4.0671 -10.7255 -10.2003 1.6457 39.1946 13.0973
# 6 -8.0749 12.3870 0.2926 -9.9495 13.0973 22.8298
#
#
#
# Elastic Compliance Matrix: (Units=1/GPa)
#
#
# Indices 1 2 3 4 5 6 
#
# 1 0.015284 -0.000066 0.002221 0.006373 -0.001062 0.008800
# 2 -0.000066 0.007067 -0.000421 0.000327 0.003765 -0.005870
# 3 0.002221 -0.000421 0.014748 0.010739 0.002057 0.004325
# 4 0.006373 0.000327 0.010739 0.040203 -0.005747 0.022757
# 5 -0.001062 0.003765 0.002057 -0.005747 0.035710 -0.025436
# 6 0.008800 -0.005870 0.004325 0.022757 -0.025436 0.074555
#
#
# Mechanical properties :
#
#
# Convention : Reuss Voigt Hill
#
# Bulk Modulus (GPa) = 24.65032 36.63524 30.64278
# Shear Modulus (GPa) = 25.30089 41.09130 33.19610
#
# Velocity S-wave (km/s) = 3.11088 3.96452 3.56336
# Velocity P-wave (km/s) = 4.72570 5.91351 5.35265
#
# Compressibility (1/GPa) = 0.04056743
#
# Stress axis : x y z
#
# Youngs Moduli (GPa) = 65.42746 141.51165 67.80373
#
# Poissons Ratio (x) = 0.00929 -0.15061
# Poissons Ratio (y) = 0.00429 0.02857
# Poissons Ratio (z) = -0.14533 0.05963
#
# Static dielectric constant tensor:
#      x y z
#    x 2.232090 -0.040250 -0.113730 
#    y -0.040250 2.081390 0.087330 
#    z -0.113730 0.087330 2.702060 
# 
# From -- ./inp_files/123770.got.cif
#   From: 2010.05.17/outbox.cif.g08.bks.cpg/sg2_62_cif.got.tgz:123770.got - 2010.06.03 11:33:40.
