data_PCOD9025751
_publ_section_title
;
Structure prediction by ZEFSAII (Michael W. Deem and Ramdas Pophale) SiO2 
 PCOD9025751
Probable space group: P -1
;
_chemical_formula_sum "Si O2"
_cell_formula_units_Z 14
_cell_length_a 8.813444
_cell_length_b 9.456825
_cell_length_c 11.885940
_cell_angle_alpha 50.265092
_cell_angle_beta 94.928705
_cell_angle_gamma 61.221477
_cell_volume 542.013665
_symmetry_space_group_name_H-M "P -1"
_symmetry_group_IT_number 2
_symmetry_cell_setting 'triclinic'
loop_
_space_group_symop_operation_xyz
x,y,z
-x,-y,-z
loop_
_atom_site_type_symbol
_atom_site_label
_atom_site_fract_x
_atom_site_fract_y
_atom_site_fract_z
Si Si1 0.535611 0.631395 0.526367
Si Si2 0.085707 0.010286 0.749346
Si Si3 0.905538 0.922290 0.614236
Si Si4 0.821756 0.645117 0.121362
Si Si5 0.787213 0.587256 0.397750
Si Si6 0.459936 0.312656 0.107803
Si Si7 0.849885 0.325982 0.902702
O O1 0.500000 0.500000 0.500000
O O2 0.595150 0.752264 0.389261
O O3 0.735461 0.421547 0.726163
O O4 0.337479 0.843684 0.486381
O O5 0.288406 0.947735 0.745083
O O6 0.040324 0.850384 0.771627
O O7 0.129439 0.900903 0.933581
O O8 0.879004 0.300606 0.553630
O O9 0.974096 0.666580 0.705146
O O10 0.000000 0.000000 0.500000
O O11 0.730535 0.706605 0.210457
O O12 0.926335 0.752990 0.045305
O O13 0.658816 0.693340 0.997538
O O14 0.000000 0.500000 0.500000
O O15 0.318893 0.421543 0.155725
O O16 0.500000 0.500000 0.000000
#
# Coordination Sequence:
#
# PCOD9025751 Si02
#       7
#     2   2   2   2   2   2   2
#     4  12  26  45  73 103 145 190 236 283 358 423
#     4  11  24  43  71 100 141 183 235 283 358 412
#     4  12  23  42  76 107 135 190 236 291 346 418
#     4  12  24  46  74 103 147 178 241 294 345 420
#     4  12  27  51  67 104 146 190 233 292 349 430
#     4  10  22  40  71 108 137 182 231 296 349 406
#     4  11  25  43  70 108 142 180 235 303 348 412
#
# _framework density 25.829604
#
# number of rings (size 3 to 8) (size 9 to 14) (size 15 to 20)
#    0.000    0.571    7.143    1.286    6.000    2.286 
#    0.000    0.714    0.000    0.000    0.000    0.000 
#    0.000    0.000    0.000    0.000    0.000    0.000 
#
# Total GULP energy -78280.342244 kJ/mol
# GULP energy per Si atom -5591.453017 kJ/mol
# Density = 2.577081 g / cm^3
# Si number density = 25.829604 Si / 1000 Ang^3
#
#
#
# Elastic Constant Matrix: (Units=GPa)
#
#
# Indices 1 2 3 4 5 6 
#
# 1 120.7682 35.1494 24.0979 10.7161 8.2727 -21.9149
# 2 35.1494 105.5760 34.8744 10.7716 -2.9313 -34.6693
# 3 24.0979 34.8744 80.7173 20.0908 10.9189 -7.1577
# 4 10.7161 10.7716 20.0908 52.6922 2.4956 3.0592
# 5 8.2727 -2.9313 10.9189 2.4956 54.9149 4.8429
# 6 -21.9149 -34.6693 -7.1577 3.0592 4.8429 53.0998
#
#
#
# Elastic Compliance Matrix: (Units=1/GPa)
#
#
# Indices 1 2 3 4 5 6 
#
# 1 0.009812 -0.001764 -0.001409 -0.001196 -0.001495 0.002913
# 2 -0.001764 0.014470 -0.004883 -0.001267 0.001360 0.008010
# 3 -0.001409 -0.004883 0.016426 -0.004777 -0.003009 -0.001006
# 4 -0.001196 -0.001267 -0.004777 0.021472 0.000372 -0.003236
# 5 -0.001495 0.001360 -0.003009 0.000372 0.019258 -0.001912
# 6 0.002913 0.008010 -0.001006 -0.003236 -0.001912 0.025490
#
#
# Mechanical properties :
#
#
# Convention : Reuss Voigt Hill
#
# Bulk Modulus (GPa) = 40.65895 55.03388 47.84641
# Shear Modulus (GPa) = 38.09844 46.33736 42.21790
#
# Velocity S-wave (km/s) = 3.84473 4.24012 4.04725
# Velocity P-wave (km/s) = 5.95690 6.73233 6.35645
#
# Compressibility (1/GPa) = 0.02459483
#
# Stress axis : x y z
#
# Youngs Moduli (GPa) = 101.91563 69.11017 60.87774
#
# Poissons Ratio (x) = 0.12193 0.08577
# Poissons Ratio (y) = 0.17980 0.29729
# Poissons Ratio (z) = 0.14359 0.33750
#
# Static dielectric constant tensor:
#      x y z
#    x 1.866440 -0.349990 0.111800 
#    y -0.349990 1.408770 0.311800 
#    z 0.111800 0.311800 1.961060 
# 
# From -- ./inp_files/201504.got.cif
#   From: 2010.05.17/outbox.cif.g08.bks.cpg/sg2_101_cif.got.tgz:201504.got - 2010.06.03 11:33:40.
