data_PCOD9025384
_publ_section_title
;
Structure prediction by ZEFSAII (Michael W. Deem and Ramdas Pophale) SiO2 
 PCOD9025384
Probable space group: P -1
;
_chemical_formula_sum "Si O2"
_cell_formula_units_Z 16
_cell_length_a 12.356777
_cell_length_b 19.335240
_cell_length_c 15.773485
_cell_angle_alpha 19.838883
_cell_angle_beta 49.545536
_cell_angle_gamma 39.481208
_cell_volume 759.409307
_symmetry_space_group_name_H-M "P -1"
_symmetry_group_IT_number 2
_symmetry_cell_setting 'triclinic'
loop_
_space_group_symop_operation_xyz
x,y,z
-x,-y,-z
loop_
_atom_site_type_symbol
_atom_site_label
_atom_site_fract_x
_atom_site_fract_y
_atom_site_fract_z
Si Si1 0.199006 0.725762 0.195551
Si Si2 0.169051 0.639134 0.121737
Si Si3 0.878814 0.920287 0.625353
Si Si4 0.466018 0.705381 0.210013
Si Si5 0.533577 0.252115 0.311142
Si Si6 0.184238 0.360695 0.879157
Si Si7 0.876962 0.886222 0.480348
Si Si8 0.205624 0.257785 0.797632
O O1 0.229300 0.686689 0.124662
O O2 0.353770 0.712193 0.181611
O O3 0.206788 0.487640 0.500156
O O4 0.000000 0.000000 0.000000
O O5 0.335992 0.362758 0.315258
O O6 0.995247 0.657077 0.207085
O O7 0.115796 0.878903 0.812926
O O8 0.956300 0.774979 0.662666
O O9 0.671124 0.158410 0.428478
O O10 0.866454 0.769911 0.879521
O O11 0.000000 0.000000 0.500000
O O12 0.500000 0.500000 0.500000
O O13 0.659582 0.630934 0.174544
O O14 0.342777 0.992841 0.982050
O O15 0.664327 0.016290 0.450271
O O16 0.500000 0.500000 0.000000
O O17 0.251520 0.215134 0.923206
O O18 0.000192 0.655978 0.617679
#
# Coordination Sequence:
#
# PCOD9025384 Si02
#       8
#     2   2   2   2   2   2   2   2
#     4  12  26  45  69 103 141 184 234 286 345 413
#     4  11  21  42  73  94 139 185 225 282 354 404
#     4  10  22  40  68  97 133 172 232 279 340 409
#     4  12  27  48  68 101 146 179 239 292 334 422
#     4   8  20  38  65  91 130 169 219 276 330 405
#     4  12  24  41  72  98 138 187 223 280 361 399
#     4   9  21  44  62  96 140 167 227 287 332 416
#     4  12  26  43  70 103 144 179 234 291 343 416
#
# _framework density 21.069006000000002
#
# number of rings (size 3 to 8) (size 9 to 14) (size 15 to 20)
#    0.750    0.500    2.500    3.375    1.750    1.000 
#    0.000    0.625    0.000    0.000    0.000    0.000 
#    0.000    0.000    0.000    0.000    0.000    0.000 
#
# Total GULP energy -89315.254842 kJ/mol
# GULP energy per Si atom -5582.203428 kJ/mol
# Density = 2.102105 g / cm^3
# Si number density = 21.069006 Si / 1000 Ang^3
#
#
#
# Elastic Constant Matrix: (Units=GPa)
#
#
# Indices 1 2 3 4 5 6 
#
# 1 83.5325 18.2224 27.8582 1.0466 1.8611 -14.0780
# 2 18.2224 104.5350 38.2714 -12.6947 -9.7923 -21.1788
# 3 27.8582 38.2714 99.2348 1.3629 -11.2732 -12.8405
# 4 1.0466 -12.6947 1.3629 39.2289 -2.2610 7.5136
# 5 1.8611 -9.7923 -11.2732 -2.2610 18.1524 -0.3745
# 6 -14.0780 -21.1788 -12.8405 7.5136 -0.3745 29.7130
#
#
#
# Elastic Compliance Matrix: (Units=1/GPa)
#
#
# Indices 1 2 3 4 5 6 
#
# 1 0.014280 -0.000778 -0.003501 -0.001725 -0.004168 0.005082
# 2 -0.000778 0.013292 -0.003426 0.003463 0.005695 0.006821
# 3 -0.003501 -0.003426 0.013447 -0.001512 0.006718 0.002178
# 4 -0.001725 0.003463 -0.001512 0.028130 0.004484 -0.006059
# 5 -0.004168 0.005695 0.006718 0.004484 0.063415 0.004653
# 6 0.005082 0.006821 0.002178 -0.006059 0.004653 0.043457
#
#
# Mechanical properties :
#
#
# Convention : Reuss Voigt Hill
#
# Bulk Modulus (GPa) = 39.04830 50.66737 44.85784
# Shear Modulus (GPa) = 25.00426 30.94886 27.97656
#
# Velocity S-wave (km/s) = 3.44870 3.83682 3.64793
# Velocity P-wave (km/s) = 5.86786 6.61277 6.25142
#
# Compressibility (1/GPa) = 0.02560931
#
# Stress axis : x y z
#
# Youngs Moduli (GPa) = 70.03020 75.23327 74.36633
#
# Poissons Ratio (x) = 0.05851 0.26035
# Poissons Ratio (y) = 0.05446 0.25477
# Poissons Ratio (z) = 0.24517 0.25774
#
# Static dielectric constant tensor:
#      x y z
#    x 1.754150 0.022180 0.022820 
#    y 0.022180 1.815130 -0.054190 
#    z 0.022820 -0.054190 1.715740 
# 
# From -- ./inp_files/570534.got.cif
#   From: 2010.05.17/outbox.cif.g08.bks.cpg/sg2_286_cif.got.tgz:570534.got - 2010.06.03 11:33:40.
