data_PCOD9025839
_publ_section_title
;
Structure prediction by ZEFSAII (Michael W. Deem and Ramdas Pophale) SiO2 
 PCOD9025839
Probable space group: P -1
;
_chemical_formula_sum "Si O2"
_cell_formula_units_Z 15
_cell_length_a 12.439657
_cell_length_b 17.895794
_cell_length_c 8.881290
_cell_angle_alpha 39.866594
_cell_angle_beta 100.786610
_cell_angle_gamma 132.119257
_cell_volume 681.270205
_symmetry_space_group_name_H-M "P -1"
_symmetry_group_IT_number 2
_symmetry_cell_setting 'triclinic'
loop_
_space_group_symop_operation_xyz
x,y,z
-x,-y,-z
loop_
_atom_site_type_symbol
_atom_site_label
_atom_site_fract_x
_atom_site_fract_y
_atom_site_fract_z
Si Si1 0.697969 0.333971 0.424248
Si Si2 0.000000 0.000000 0.500000
Si Si3 0.114760 0.734418 0.543647
Si Si4 0.144878 0.159776 0.647402
Si Si5 0.346713 0.968624 0.526291
Si Si6 0.707418 0.947373 0.114280
Si Si7 0.691523 0.435041 0.933940
Si Si8 0.947389 0.215796 0.037397
O O1 0.774427 0.274094 0.492435
O O2 0.486627 0.156125 0.725712
O O3 0.682077 0.392744 0.173608
O O4 0.859684 0.536995 0.260933
O O5 0.969012 0.111433 0.289030
O O6 0.046199 0.065727 0.599372
O O7 0.879622 0.530773 0.769948
O O8 0.160956 0.775195 0.669126
O O9 0.223541 0.950000 0.188329
O O10 0.313761 0.208819 0.624419
O O11 0.249998 0.378494 0.356675
O O12 0.000000 0.000000 0.000000
O O13 0.500000 0.000000 0.500000
O O14 0.247696 0.894389 0.776828
O O15 0.481570 0.203948 0.169427
O O16 0.897703 0.151037 0.951794
#
# Coordination Sequence:
#
# PCOD9025839 Si02
#       8
#     2   1   2   2   2   2   2   2
#     4  12  23  41  69  99 130 181 228 270 348 412
#     4  10  22  40  72  92 132 182 216 278 346 392
#     4  12  24  43  66  98 142 170 222 292 333 403
#     4  11  23  46  70 101 141 177 233 288 342 409
#     4  12  23  40  67 100 129 174 227 272 328 407
#     4  11  26  43  66  97 139 174 218 290 342 400
#     4  12  23  42  72  98 131 186 224 276 346 404
#     4  11  23  41  66  96 132 173 225 272 334 408
#
# _framework density 22.017696999999998
#
# number of rings (size 3 to 8) (size 9 to 14) (size 15 to 20)
#    0.000    0.533    6.667    1.600    0.000    3.200 
#    0.000    0.667    0.000    0.000    0.000    0.000 
#    0.000    0.000    0.000    0.000    0.000    0.000 
#
# Total GULP energy -83533.402979 kJ/mol
# GULP energy per Si atom -5568.893532 kJ/mol
# Density = 2.196758 g / cm^3
# Si number density = 22.017697 Si / 1000 Ang^3
#
#
#
# Elastic Constant Matrix: (Units=GPa)
#
#
# Indices 1 2 3 4 5 6 
#
# 1 47.7018 19.6375 2.7652 -10.1787 12.2838 -13.7645
# 2 19.6375 65.7141 14.3936 -15.9600 3.7693 -5.9207
# 3 2.7652 14.3936 70.2115 -6.8210 6.3279 0.3591
# 4 -10.1787 -15.9600 -6.8210 36.1782 -3.7682 -0.3341
# 5 12.2838 3.7693 6.3279 -3.7682 36.9320 -7.1250
# 6 -13.7645 -5.9207 0.3591 -0.3341 -7.1250 19.5638
#
#
#
# Elastic Compliance Matrix: (Units=1/GPa)
#
#
# Indices 1 2 3 4 5 6 
#
# 1 0.031495 -0.006240 0.001047 0.005859 -0.005909 0.018199
# 2 -0.006240 0.019469 -0.003292 0.006417 0.001753 0.002310
# 3 0.001047 -0.003292 0.015272 0.001418 -0.002779 -0.001528
# 4 0.005859 0.006417 0.001418 0.032651 0.001890 0.007284
# 5 -0.005909 0.001753 -0.002779 0.001890 0.031029 0.007757
# 6 0.018199 0.002310 -0.001528 0.007284 0.007757 0.067596
#
#
# Mechanical properties :
#
#
# Convention : Reuss Voigt Hill
#
# Bulk Modulus (GPa) = 20.29714 28.58002 24.43858
# Shear Modulus (GPa) = 21.65413 28.32354 24.98883
#
# Velocity S-wave (km/s) = 3.13946 3.59053 3.37255
# Velocity P-wave (km/s) = 4.73077 5.49526 5.12728
#
# Compressibility (1/GPa) = 0.04926803
#
# Stress axis : x y z
#
# Youngs Moduli (GPa) = 31.75134 51.36360 65.47780
#
# Poissons Ratio (x) = 0.32048 -0.06858
# Poissons Ratio (y) = 0.19811 0.21555
# Poissons Ratio (z) = -0.03326 0.16908
#
# Static dielectric constant tensor:
#      x y z
#    x 1.838580 0.003470 0.013790 
#    y 0.003470 1.803870 0.012730 
#    z 0.013790 0.012730 1.809750 
# 
# From -- ./inp_files/175826.got.cif
#   From: 2010.05.17/outbox.cif.g08.bks.cpg/sg2_88_cif.got.tgz:175826.got - 2010.06.03 11:33:40.
