data_PCOD9025613
_publ_section_title
;
Structure prediction by ZEFSAII (Michael W. Deem and Ramdas Pophale) SiO2 
 PCOD9025613
Probable space group: P -1
;
_chemical_formula_sum "Si O2"
_cell_formula_units_Z 15
_cell_length_a 13.896972
_cell_length_b 19.432634
_cell_length_c 6.337448
_cell_angle_alpha 98.461369
_cell_angle_beta 97.886552
_cell_angle_gamma 21.406714
_cell_volume 617.858703
_symmetry_space_group_name_H-M "P -1"
_symmetry_group_IT_number 2
_symmetry_cell_setting 'triclinic'
loop_
_space_group_symop_operation_xyz
x,y,z
-x,-y,-z
loop_
_atom_site_type_symbol
_atom_site_label
_atom_site_fract_x
_atom_site_fract_y
_atom_site_fract_z
Si Si1 0.049834 0.388074 0.029116
Si Si2 0.775804 0.825955 0.386789
Si Si3 0.634872 0.313643 0.353030
Si Si4 0.177815 0.998191 0.371511
Si Si5 0.500000 0.500000 0.000000
Si Si6 0.459928 0.887071 0.739354
Si Si7 0.541140 0.241797 0.025895
Si Si8 0.843088 0.352060 0.317588
O O1 0.269470 0.250919 0.213476
O O2 0.172284 0.267819 0.810058
O O3 0.000000 0.500000 0.000000
O O4 0.759871 0.549933 0.048177
O O5 0.000870 0.684299 0.567759
O O6 0.500000 0.000000 0.500000
O O7 0.758624 0.908462 0.277365
O O8 0.621587 0.373644 0.175031
O O9 0.608201 0.253957 0.227818
O O10 0.397237 0.490876 0.515506
O O11 0.917158 0.140946 0.471253
O O12 0.071221 0.141934 0.311870
O O13 0.425968 0.856203 0.521503
O O14 0.264710 0.885594 0.171418
O O15 0.699795 0.432778 0.091537
O O16 0.425438 0.858336 0.913013
#
# Coordination Sequence:
#
# PCOD9025613 Si02
#       8
#     2   2   2   2   1   2   2   2
#     4  10  23  45  67  96 135 171 217 280 332 388
#     4  11  24  45  70 100 130 174 229 274 326 403
#     4  11  23  44  66  99 138 173 224 277 325 393
#     4  10  23  41  66  99 130 177 224 270 321 406
#     4  10  22  40  70 102 128 180 216 268 336 384
#     4  10  25  43  69  95 133 180 217 273 338 385
#     4  11  24  44  67  96 141 172 220 278 330 395
#     4  10  23  43  67  98 139 170 223 277 324 396
#
# _framework density 24.277397000000001
#
# number of rings (size 3 to 8) (size 9 to 14) (size 15 to 20)
#    0.000    1.600    1.333    2.400    7.467    9.600 
#    2.400    0.000    0.000    0.000    0.000    0.000 
#    0.000    0.000    0.000    0.000    0.000    0.000 
#
# Total GULP energy -83515.445771 kJ/mol
# GULP energy per Si atom -5567.696385 kJ/mol
# Density = 2.422214 g / cm^3
# Si number density = 24.277397 Si / 1000 Ang^3
#
#
#
# Elastic Constant Matrix: (Units=GPa)
#
#
# Indices 1 2 3 4 5 6 
#
# 1 115.0254 30.1446 30.2624 -3.3164 23.4400 -1.7891
# 2 30.1446 82.9770 66.9967 8.9811 19.3444 -13.4112
# 3 30.2624 66.9967 65.2214 -19.3105 36.7271 -9.2375
# 4 -3.3164 8.9811 -19.3105 52.8455 -9.9857 13.5249
# 5 23.4400 19.3444 36.7271 -9.9857 49.0476 -6.8847
# 6 -1.7891 -13.4112 -9.2375 13.5249 -6.8847 44.7820
#
#
#
# Elastic Compliance Matrix: (Units=1/GPa)
#
#
# Indices 1 2 3 4 5 6 
#
# 1 0.010116 0.000143 -0.004016 -0.001176 -0.002174 -0.000360
# 2 0.000143 -0.051299 0.080872 0.035401 -0.035262 -0.014788
# 3 -0.004016 0.080872 -0.097442 -0.048948 0.036440 0.024344
# 4 -0.001176 0.035401 -0.048948 -0.001787 0.023536 0.004616
# 5 -0.002174 -0.035262 0.036440 0.023536 0.011654 -0.008447
# 6 -0.000360 -0.014788 0.024344 0.004616 -0.008447 0.020216
#
#
# Mechanical properties :
#
#
# Convention : Reuss Voigt Hill
#
# Bulk Modulus (GPa) = 65.04428 57.55902 61.30165
# Shear Modulus (GPa) = -19.42389 38.38970 9.48291
#
# Velocity S-wave (km/s) = -2.83164 3.98086 1.97852
# Velocity P-wave (km/s) = 4.01987 6.70000 5.52492
#
# Compressibility (1/GPa) = 0.01537414
#
# Stress axis : x y z
#
# Youngs Moduli (GPa) = 98.85074 -19.49363 -10.26254
#
# Poissons Ratio (x) = 0.00279 -0.04122
# Poissons Ratio (y) = -0.01417 0.82995
# Poissons Ratio (z) = 0.39701 1.57649
#
# Static dielectric constant tensor:
#      x y z
#    x 2.102400 -0.014960 0.015460 
#    y -0.014960 1.956740 -0.093450 
#    z 0.015460 -0.093450 2.095090 
# 
# From -- ./inp_files/100649.got.cif
#   From: 2010.05.17/outbox.cif.g08.bks.cpg/sg2_51_cif.got.tgz:100649.got - 2010.06.03 11:33:40.
