data_PCOD9025190
_publ_section_title
;
Structure prediction by ZEFSAII (Michael W. Deem and Ramdas Pophale) SiO2 
 PCOD9025190
Probable space group: P -1
;
_chemical_formula_sum "Si O2"
_cell_formula_units_Z 14
_cell_length_a 14.424289
_cell_length_b 16.230465
_cell_length_c 16.055061
_cell_angle_alpha 28.571098
_cell_angle_beta 155.058659
_cell_angle_gamma 154.725603
_cell_volume 640.284365
_symmetry_space_group_name_H-M "P -1"
_symmetry_group_IT_number 2
_symmetry_cell_setting 'triclinic'
loop_
_space_group_symop_operation_xyz
x,y,z
-x,-y,-z
loop_
_atom_site_type_symbol
_atom_site_label
_atom_site_fract_x
_atom_site_fract_y
_atom_site_fract_z
Si Si1 0.942871 0.648086 0.768169
Si Si2 0.612890 0.358471 0.010760
Si Si3 0.028383 0.161882 0.130092
Si Si4 0.420689 0.041429 0.619794
Si Si5 0.195801 0.037498 0.053726
Si Si6 0.524034 0.301166 0.634620
Si Si7 0.513641 0.851800 0.070670
O O1 0.786766 0.523043 0.668819
O O2 0.736210 0.693951 0.597536
O O3 0.240573 0.838344 0.841377
O O4 0.000000 0.500000 0.000000
O O5 0.698091 0.195518 0.242179
O O6 0.389011 0.275419 0.972747
O O7 0.495738 0.299815 0.873701
O O8 0.217675 0.091269 0.377288
O O9 0.782710 0.060318 0.083031
O O10 0.939584 0.068315 0.049363
O O11 0.178156 0.404897 0.029860
O O12 0.628465 0.061099 0.703046
O O13 0.548427 0.188814 0.673660
O O14 0.000000 0.000000 0.000000
O O15 0.485174 0.214109 0.775563
#
# Coordination Sequence:
#
# PCOD9025190 Si02
#       7
#     2   2   2   2   2   2   2
#     4   9  21  38  62 101 132 193 242 286 337 391
#     4   9  24  46  66 104 141 178 230 285 346 410
#     4  11  24  46  72 100 143 184 227 287 352 415
#     4  10  25  45  69 106 138 188 231 287 348 414
#     4   9  23  50  75 106 137 173 230 293 354 426
#     4  10  22  40  67  97 145 190 239 286 335 403
#     4  10  23  41  66  96 140 187 236 284 325 404
#
# _framework density 21.865283999999999
#
# number of rings (size 3 to 8) (size 9 to 14) (size 15 to 20)
#    0.857    1.429    0.000    0.000   10.000    3.429 
#    5.143    1.429    0.000    0.857    0.000    0.000 
#    0.000    0.000    0.000    0.000    0.000    0.000 
#
# Total GULP energy -77979.509318 kJ/mol
# GULP energy per Si atom -5569.964951 kJ/mol
# Density = 2.181552 g / cm^3
# Si number density = 21.865284 Si / 1000 Ang^3
#
#
#
# Elastic Constant Matrix: (Units=GPa)
#
#
# Indices 1 2 3 4 5 6 
#
# 1 139.3298 51.1700 37.1438 7.0090 35.4315 29.8028
# 2 51.1700 164.4827 31.8572 5.8820 17.1014 11.1087
# 3 37.1438 31.8572 139.8407 15.8336 24.4949 7.9211
# 4 7.0090 5.8820 15.8336 27.3639 1.0554 7.2212
# 5 35.4315 17.1014 24.4949 1.0554 30.4367 8.3264
# 6 29.8028 11.1087 7.9211 7.2212 8.3264 27.5909
#
#
#
# Elastic Compliance Matrix: (Units=1/GPa)
#
#
# Indices 1 2 3 4 5 6 
#
# 1 0.012915 -0.002150 -0.000565 0.000485 -0.010703 -0.009820
# 2 -0.002150 0.007001 -0.000843 -0.000462 -0.000763 0.000097
# 3 -0.000565 -0.000843 0.009115 -0.005128 -0.006472 0.001628
# 4 0.000485 -0.000462 -0.005128 0.042339 0.005532 -0.011616
# 5 -0.010703 -0.000763 -0.006472 0.005532 0.051666 -0.003314
# 6 -0.009820 0.000097 0.001628 -0.011616 -0.003314 0.050385
#
#
# Mechanical properties :
#
#
# Convention : Reuss Voigt Hill
#
# Bulk Modulus (GPa) = 45.62969 75.99947 60.81458
# Shear Modulus (GPa) = 26.61806 38.64378 32.63092
#
# Velocity S-wave (km/s) = 3.49286 4.20856 3.86730
# Velocity P-wave (km/s) = 6.09759 7.64522 6.91484
#
# Compressibility (1/GPa) = 0.02191556
#
# Stress axis : x y z
#
# Youngs Moduli (GPa) = 77.42911 142.83396 109.70633
#
# Poissons Ratio (x) = 0.30707 0.06195
# Poissons Ratio (y) = 0.16646 0.09253
# Poissons Ratio (z) = 0.04372 0.12047
#
# Static dielectric constant tensor:
#      x y z
#    x 1.805200 0.011300 0.030890 
#    y 0.011300 1.977080 -0.025670 
#    z 0.030890 -0.025670 1.914030 
# 
# From -- ./inp_files/522983.got.cif
#   From: 2010.05.17/outbox.cif.g08.bks.cpg/sg2_262_cif.got.tgz:522983.got - 2010.06.03 11:33:40.
