data_PCOD9025503
_publ_section_title
;
Structure prediction by ZEFSAII (Michael W. Deem and Ramdas Pophale) SiO2 
 PCOD9025503
Probable space group: P -1
;
_chemical_formula_sum "Si O2"
_cell_formula_units_Z 14
_cell_length_a 12.638612
_cell_length_b 8.475854
_cell_length_c 15.476386
_cell_angle_alpha 61.894099
_cell_angle_beta 42.472468
_cell_angle_gamma 34.127120
_cell_volume 583.930707
_symmetry_space_group_name_H-M "P -1"
_symmetry_group_IT_number 2
_symmetry_cell_setting 'triclinic'
loop_
_space_group_symop_operation_xyz
x,y,z
-x,-y,-z
loop_
_atom_site_type_symbol
_atom_site_label
_atom_site_fract_x
_atom_site_fract_y
_atom_site_fract_z
Si Si1 0.837971 0.445613 0.561709
Si Si2 0.866058 0.327507 0.256990
Si Si3 0.096417 0.254878 0.871213
Si Si4 0.689789 0.824739 0.058091
Si Si5 0.905365 0.713324 0.730555
Si Si6 0.667472 0.197952 0.291508
Si Si7 0.658502 0.007304 0.522336
O O1 0.626451 0.494064 0.646920
O O2 0.669008 0.784182 0.592032
O O3 0.017304 0.338101 0.400862
O O4 0.043406 0.209828 0.573504
O O5 0.809758 0.219396 0.254484
O O6 0.008014 0.181754 0.302352
O O7 0.568557 0.676078 0.369831
O O8 0.103474 0.225062 0.095273
O O9 0.071179 0.417472 0.763864
O O10 0.286617 0.148745 0.861894
O O11 0.818830 0.521205 0.022420
O O12 0.171625 0.009770 0.837056
O O13 0.391156 0.088334 0.139571
O O14 0.624654 0.086649 0.421341
#
# Coordination Sequence:
#
# PCOD9025503 Si02
#       7
#     2   2   2   2   2   2   2
#     4  11  24  38  70  96 122 167 215 266 307 371
#     4  11  24  44  64  91 138 169 200 263 319 379
#     4  10  22  40  69  89 124 167 212 266 302 369
#     4  10  24  42  65  94 120 168 223 256 305 368
#     4  11  22  42  65  94 124 165 219 259 307 370
#     4  12  24  43  63  97 134 165 204 258 329 378
#     4  11  24  42  65  98 126 165 217 258 314 374
#
# _framework density 23.975446999999999
#
# number of rings (size 3 to 8) (size 9 to 14) (size 15 to 20)
#    0.000    1.143    2.857    4.286   10.000    1.143 
#    0.000    2.857    0.000    0.000    0.000    0.000 
#    0.000    0.000    0.000    0.000    0.000    0.000 
#
# Total GULP energy -77996.807419 kJ/mol
# GULP energy per Si atom -5571.200530 kJ/mol
# Density = 2.392088 g / cm^3
# Si number density = 23.975447 Si / 1000 Ang^3
#
#
#
# Elastic Constant Matrix: (Units=GPa)
#
#
# Indices 1 2 3 4 5 6 
#
# 1 193.8069 42.1057 67.6342 37.8529 -1.5362 -4.5834
# 2 42.1057 41.1002 24.8706 18.4084 -4.1325 -14.6747
# 3 67.6342 24.8706 113.9423 25.9937 12.5831 14.3549
# 4 37.8529 18.4084 25.9937 24.5641 -7.1169 -5.1430
# 5 -1.5362 -4.1325 12.5831 -7.1169 64.6478 7.0180
# 6 -4.5834 -14.6747 14.3549 -5.1430 7.0180 37.4081
#
#
#
# Elastic Compliance Matrix: (Units=1/GPa)
#
#
# Indices 1 2 3 4 5 6 
#
# 1 0.008268 -0.004014 -0.002121 -0.007764 -0.000422 -0.000736
# 2 -0.004014 0.046599 -0.005581 -0.019216 -0.000023 0.017292
# 3 -0.002121 -0.005581 0.015625 -0.012144 -0.003764 -0.009408
# 4 -0.007764 -0.019216 -0.012144 0.083932 0.009548 0.005919
# 5 -0.000422 -0.000023 -0.003764 0.009548 0.017300 -0.000549
# 6 -0.000736 0.017292 -0.009408 0.005919 -0.000549 0.037953
#
#
# Mechanical properties :
#
#
# Convention : Reuss Voigt Hill
#
# Bulk Modulus (GPa) = 21.24956 68.67449 44.96203
# Shear Modulus (GPa) = 20.09692 39.60660 29.85176
#
# Velocity S-wave (km/s) = 2.89836 4.06885 3.53242
# Velocity P-wave (km/s) = 4.48140 7.12600 5.95243
#
# Compressibility (1/GPa) = 0.04705979
#
# Stress axis : x y z
#
# Youngs Moduli (GPa) = 120.95227 21.45971 64.00116
#
# Poissons Ratio (x) = 0.08615 0.13572
# Poissons Ratio (y) = 0.48556 0.35717
# Poissons Ratio (z) = 0.25649 0.11976
#
# Static dielectric constant tensor:
#      x y z
#    x 2.003530 0.100500 0.004250 
#    y 0.100500 2.062820 -0.024980 
#    z 0.004250 -0.024980 1.961810 
# 
# From -- ./inp_files/565913.got.cif
#   From: 2010.05.17/outbox.cif.g08.bks.cpg/sg2_283_cif.got.tgz:565913.got - 2010.06.03 11:33:40.
