data_PCOD9025431
_publ_section_title
;
Structure prediction by ZEFSAII (Michael W. Deem and Ramdas Pophale) SiO2 
 PCOD9025431
Probable space group: P -1
;
_chemical_formula_sum "Si O2"
_cell_formula_units_Z 15
_cell_length_a 14.560228
_cell_length_b 9.023462
_cell_length_c 15.275843
_cell_angle_alpha 149.405008
_cell_angle_beta 139.791793
_cell_angle_gamma 41.220959
_cell_volume 631.405729
_symmetry_space_group_name_H-M "P -1"
_symmetry_group_IT_number 2
_symmetry_cell_setting 'triclinic'
loop_
_space_group_symop_operation_xyz
x,y,z
-x,-y,-z
loop_
_atom_site_type_symbol
_atom_site_label
_atom_site_fract_x
_atom_site_fract_y
_atom_site_fract_z
Si Si1 0.500000 0.500000 0.000000
Si Si2 0.380816 0.989576 0.661638
Si Si3 0.928537 0.693213 0.462219
Si Si4 0.444566 0.737047 0.407146
Si Si5 0.061069 0.293741 0.189782
Si Si6 0.638686 0.093912 0.190628
Si Si7 0.357575 0.855403 0.229286
Si Si8 0.040704 0.279680 0.834359
O O1 0.482085 0.866585 0.162095
O O2 0.393987 0.572740 0.047827
O O3 0.247410 0.250375 0.649901
O O4 0.405221 0.712113 0.468142
O O5 0.336229 0.950150 0.708512
O O6 0.000000 0.500000 0.500000
O O7 0.005285 0.506898 0.339930
O O8 0.955801 0.022199 0.649303
O O9 0.579126 0.459703 0.329606
O O10 0.319729 0.777170 0.261527
O O11 0.493370 0.043707 0.601160
O O12 0.011848 0.500090 0.174489
O O13 0.235048 0.140810 0.247824
O O14 0.000000 0.000000 0.000000
O O15 0.786986 0.914757 0.155817
O O16 0.500000 0.000000 0.000000
O O17 0.000000 0.500000 0.000000
#
# Coordination Sequence:
#
# PCOD9025431 Si02
#       8
#     1   2   2   2   2   2   2   2
#     4  10  22  42  66 104 144 184 242 302 364 442
#     4  11  24  43  72 104 145 189 248 304 379 453
#     4  12  26  47  77 106 149 197 254 311 383 453
#     4  10  23  41  67 102 140 181 242 299 367 437
#     4  12  25  44  76 102 148 194 247 308 374 450
#     4  12  27  45  73 103 148 190 247 312 375 446
#     4  10  22  40  68  99 138 187 237 296 364 439
#     4  12  30  50  73 111 153 203 258 317 381 457
#
# _framework density 23.756515
#
# number of rings (size 3 to 8) (size 9 to 14) (size 15 to 20)
#    0.000    0.800    1.333    4.800    5.600    6.400 
#    0.000    0.000    0.000    0.000    0.000    0.000 
#    0.000    0.000    0.000    0.000    0.000    0.000 
#
# Total GULP energy -83558.576362 kJ/mol
# GULP energy per Si atom -5570.571757 kJ/mol
# Density = 2.370244 g / cm^3
# Si number density = 23.756515 Si / 1000 Ang^3
#
#
#
# Elastic Constant Matrix: (Units=GPa)
#
#
# Indices 1 2 3 4 5 6 
#
# 1 118.4134 56.1864 56.3768 0.9648 -48.7876 -4.8557
# 2 56.1864 150.7555 39.2395 2.5564 -26.2716 9.9204
# 3 56.3768 39.2395 132.1372 23.9839 -36.9143 6.4280
# 4 0.9648 2.5564 23.9839 41.7657 -1.2478 -3.1826
# 5 -48.7876 -26.2716 -36.9143 -1.2478 57.0425 10.7888
# 6 -4.8557 9.9204 6.4280 -3.1826 10.7888 51.8617
#
#
#
# Elastic Compliance Matrix: (Units=1/GPa)
#
#
# Indices 1 2 3 4 5 6 
#
# 1 0.015583 -0.003343 -0.003428 0.002149 0.009488 0.000682
# 2 -0.003343 0.008352 -0.000658 -0.000183 0.000942 -0.002036
# 3 -0.003428 -0.000658 0.012020 -0.006874 0.004987 -0.003144
# 4 0.002149 -0.000183 -0.006874 0.028028 -0.002720 0.003374
# 5 0.009488 0.000942 0.004987 -0.002720 0.030460 -0.006414
# 6 0.000682 -0.002036 -0.003144 0.003374 -0.006414 0.021666
#
#
# Mechanical properties :
#
#
# Convention : Reuss Voigt Hill
#
# Bulk Modulus (GPa) = 47.40470 78.32350 62.86410
# Shear Modulus (GPa) = 36.23151 46.76754 41.49952
#
# Velocity S-wave (km/s) = 3.90951 4.44173 4.18409
# Velocity P-wave (km/s) = 6.35427 7.70364 7.06126
#
# Compressibility (1/GPa) = 0.02109496
#
# Stress axis : x y z
#
# Youngs Moduli (GPa) = 64.17192 119.73241 83.19461
#
# Poissons Ratio (x) = 0.40031 0.28523
# Poissons Ratio (y) = 0.21455 0.05476
# Poissons Ratio (z) = 0.22001 0.07881
#
# Static dielectric constant tensor:
#      x y z
#    x 1.166120 -0.400240 -0.289110 
#    y -0.400240 1.690180 -0.276760 
#    z -0.289110 -0.276760 1.977400 
# 
# From -- ./inp_files/529319.got.cif
#   From: 2010.05.17/outbox.cif.g08.bks.cpg/sg2_265_cif.got.tgz:529319.got - 2010.06.03 11:33:40.
