data_PCOD9025656
_publ_section_title
;
Structure prediction by ZEFSAII (Michael W. Deem and Ramdas Pophale) SiO2 
 PCOD9025656
Probable space group: P -1
;
_chemical_formula_sum "Si O2"
_cell_formula_units_Z 16
_cell_length_a 15.691093
_cell_length_b 17.249729
_cell_length_c 5.157652
_cell_angle_alpha 99.253336
_cell_angle_beta 117.702311
_cell_angle_gamma 39.502087
_cell_volume 736.082626
_symmetry_space_group_name_H-M "P -1"
_symmetry_group_IT_number 2
_symmetry_cell_setting 'triclinic'
loop_
_space_group_symop_operation_xyz
x,y,z
-x,-y,-z
loop_
_atom_site_type_symbol
_atom_site_label
_atom_site_fract_x
_atom_site_fract_y
_atom_site_fract_z
Si Si1 0.801858 0.542297 0.693696
Si Si2 0.524845 0.815385 0.277609
Si Si3 0.312429 0.960870 0.537869
Si Si4 0.884398 0.622021 0.211894
Si Si5 0.898151 0.041789 0.630265
Si Si6 0.347723 0.114698 0.665723
Si Si7 0.611761 0.513005 0.460611
Si Si8 0.397468 0.655292 0.736904
O O1 0.674841 0.659815 0.371163
O O2 0.744856 0.492649 0.641400
O O3 0.988635 0.421923 0.828098
O O4 0.782018 0.621751 0.927267
O O5 0.410854 0.863523 0.378135
O O6 0.593307 0.859524 0.448143
O O7 0.424365 0.884460 0.909152
O O8 0.157686 0.011437 0.425050
O O9 0.282161 0.071726 0.478562
O O10 0.781889 0.753058 0.282188
O O11 0.000000 0.500000 0.500000
O O12 0.733144 0.196707 0.448153
O O13 0.000000 0.000000 0.500000
O O14 0.000000 0.000000 0.000000
O O15 0.500000 0.000000 0.000000
O O16 0.533895 0.563832 0.661596
O O17 0.673473 0.386757 0.398696
O O18 0.476065 0.619334 0.108787
#
# Coordination Sequence:
#
# PCOD9025656 Si02
#       8
#     2   2   2   2   2   2   2   2
#     4  11  23  38  65  91 128 175 207 258 336 376
#     4  11  21  40  67  94 125 162 218 270 315 382
#     4  11  24  41  66  96 121 170 222 262 319 386
#     4  11  24  42  56  94 134 165 212 263 314 385
#     4  12  25  43  64  92 134 173 210 268 328 388
#     4  10  22  42  66  91 129 170 214 264 313 380
#     4  10  22  40  70  94 123 167 214 276 319 384
#     4  10  22  43  64  99 127 157 224 272 322 379
#
# _framework density 21.736691
#
# number of rings (size 3 to 8) (size 9 to 14) (size 15 to 20)
#    0.000    1.250    1.250    4.875    1.750    2.000 
#    2.250    0.000    0.000    0.000    0.000    0.000 
#    0.000    0.000    0.000    0.000    0.000    0.000 
#
# Total GULP energy -89419.223805 kJ/mol
# GULP energy per Si atom -5588.701488 kJ/mol
# Density = 2.168722 g / cm^3
# Si number density = 21.736691 Si / 1000 Ang^3
#
#
#
# Elastic Constant Matrix: (Units=GPa)
#
#
# Indices 1 2 3 4 5 6 
#
# 1 155.4647 20.5075 30.1963 21.3328 26.0209 1.8722
# 2 20.5075 77.4864 -3.9467 0.9480 5.5468 -3.3258
# 3 30.1963 -3.9467 54.7026 12.1709 -2.7048 1.2192
# 4 21.3328 0.9480 12.1709 19.1557 2.8129 -7.7007
# 5 26.0209 5.5468 -2.7048 2.8129 43.9959 10.2545
# 6 1.8722 -3.3258 1.2192 -7.7007 10.2545 35.6801
#
#
#
# Elastic Compliance Matrix: (Units=1/GPa)
#
#
# Indices 1 2 3 4 5 6 
#
# 1 0.009314 -0.002261 -0.003876 -0.007407 -0.004805 -0.000785
# 2 -0.002261 0.013718 0.001801 0.001588 -0.000830 0.001917
# 3 -0.003876 0.001801 0.024034 -0.013902 0.005612 -0.005063
# 4 -0.007407 0.001588 -0.013902 0.078021 -0.006241 0.019644
# 5 -0.004805 -0.000830 0.005612 -0.006241 0.028658 -0.009600
# 6 -0.000785 0.001917 -0.005063 0.019644 -0.009600 0.035418
#
#
# Mechanical properties :
#
#
# Convention : Reuss Voigt Hill
#
# Bulk Modulus (GPa) = 26.04715 42.35198 34.19957
# Shear Modulus (GPa) = 23.73796 35.82613 29.78204
#
# Velocity S-wave (km/s) = 3.30823 4.06419 3.70554
# Velocity P-wave (km/s) = 5.15767 6.44592 5.83744
#
# Compressibility (1/GPa) = 0.03839191
#
# Stress axis : x y z
#
# Youngs Moduli (GPa) = 107.36855 72.89706 41.60793
#
# Poissons Ratio (x) = 0.16486 0.16129
# Poissons Ratio (y) = 0.24281 -0.07494
# Poissons Ratio (z) = 0.41621 -0.13130
#
# Static dielectric constant tensor:
#      x y z
#    x 1.858610 -0.016910 0.021880 
#    y -0.016910 1.772460 0.049340 
#    z 0.021880 0.049340 1.756270 
# 
# From -- ./inp_files/99405.got.cif
#   From: 2010.05.17/outbox.cif.g08.bks.cpg/sg2_50_cif.got.tgz:99405.got - 2010.06.03 11:33:40.
