data_PCOD9025334
_publ_section_title
;
Structure prediction by ZEFSAII (Michael W. Deem and Ramdas Pophale) SiO2 
 PCOD9025334
Probable space group: P -1
;
_chemical_formula_sum "Si O2"
_cell_formula_units_Z 16
_cell_length_a 10.054147
_cell_length_b 14.626841
_cell_length_c 12.644557
_cell_angle_alpha 32.197238
_cell_angle_beta 120.317459
_cell_angle_gamma 103.883063
_cell_volume 781.253366
_symmetry_space_group_name_H-M "P -1"
_symmetry_group_IT_number 2
_symmetry_cell_setting 'triclinic'
loop_
_space_group_symop_operation_xyz
x,y,z
-x,-y,-z
loop_
_atom_site_type_symbol
_atom_site_label
_atom_site_fract_x
_atom_site_fract_y
_atom_site_fract_z
Si Si1 0.918931 0.066310 0.517833
Si Si2 0.672563 0.863740 0.645319
Si Si3 0.237928 0.013606 0.838349
Si Si4 0.191311 0.596626 0.535785
Si Si5 0.696606 0.462615 0.118982
Si Si6 0.424675 0.660071 0.398502
Si Si7 0.817298 0.788295 0.170956
Si Si8 0.536611 0.917660 0.303140
O O1 0.793682 0.286218 0.254352
O O2 0.068568 0.047183 0.676339
O O3 0.815691 0.945060 0.633677
O O4 0.000000 0.000000 0.500000
O O5 0.628324 0.876079 0.491470
O O6 0.500000 0.000000 0.500000
O O7 0.718863 0.652177 0.911124
O O8 0.222421 0.180810 0.749451
O O9 0.383920 0.978548 0.845231
O O10 0.290106 0.836271 0.109292
O O11 0.232996 0.596342 0.676269
O O12 0.336924 0.608193 0.511583
O O13 0.184417 0.399487 0.695152
O O14 0.011084 0.761128 0.270827
O O15 0.500000 0.500000 0.000000
O O16 0.500000 0.500000 0.500000
O O17 0.558383 0.729211 0.435515
O O18 0.664288 0.958946 0.886629
#
# Coordination Sequence:
#
# PCOD9025334 Si02
#       8
#     2   2   2   2   2   2   2   2
#     4  12  27  49  73 106 150 190 243 307 356 427
#     4  12  26  45  75 107 139 198 242 290 369 428
#     4  11  23  45  66  96 141 180 230 294 356 422
#     4  11  23  42  66 103 138 172 234 296 349 422
#     4  12  26  48  75 107 148 192 244 300 356 439
#     4  11  24  40  68 102 132 183 233 287 362 423
#     4  10  22  40  68  94 133 179 218 289 356 407
#     4  11  23  43  67  95 139 178 231 284 352 431
#
# _framework density 20.479911999999999
#
# number of rings (size 3 to 8) (size 9 to 14) (size 15 to 20)
#    0.000    0.750    3.750    4.500    0.000    7.500 
#    2.250    0.000    0.000    0.000    0.000    0.000 
#    0.000    0.000    0.000    0.000    0.000    0.000 
#
# Total GULP energy -89408.726343 kJ/mol
# GULP energy per Si atom -5588.045396 kJ/mol
# Density = 2.043330 g / cm^3
# Si number density = 20.479912 Si / 1000 Ang^3
#
#
#
# Elastic Constant Matrix: (Units=GPa)
#
#
# Indices 1 2 3 4 5 6 
#
# 1 90.6012 35.7371 26.9503 -9.6933 0.8483 -0.7515
# 2 35.7371 109.3082 28.5511 -0.0471 10.5881 -6.4275
# 3 26.9503 28.5511 42.7296 -9.3583 -0.1729 -4.1897
# 4 -9.6933 -0.0471 -9.3583 41.1936 -0.2493 5.3060
# 5 0.8483 10.5881 -0.1729 -0.2493 33.1838 2.0922
# 6 -0.7515 -6.4275 -4.1897 5.3060 2.0922 43.3750
#
#
#
# Elastic Compliance Matrix: (Units=1/GPa)
#
#
# Indices 1 2 3 4 5 6 
#
# 1 0.014459 -0.003106 -0.006710 0.002025 0.000673 -0.001138
# 2 -0.003106 0.012408 -0.006731 -0.002481 -0.004036 0.001633
# 3 -0.006710 -0.006731 0.033558 0.005886 0.002457 0.001289
# 4 0.002025 -0.002481 0.005886 0.026488 0.001162 -0.003060
# 5 0.000673 -0.004036 0.002457 0.001162 0.031554 -0.002013
# 6 -0.001138 0.001633 0.001289 -0.003060 -0.002013 0.023873
#
#
# Mechanical properties :
#
#
# Convention : Reuss Voigt Hill
#
# Bulk Modulus (GPa) = 36.58798 47.23513 41.91156
# Shear Modulus (GPa) = 27.09367 33.64384 30.36876
#
# Velocity S-wave (km/s) = 3.64117 4.05751 3.85496
# Velocity P-wave (km/s) = 5.96503 6.71308 6.35008
#
# Compressibility (1/GPa) = 0.02733138
#
# Stress axis : x y z
#
# Youngs Moduli (GPa) = 69.15939 80.59275 29.79915
#
# Poissons Ratio (x) = 0.25033 0.19994
# Poissons Ratio (y) = 0.21481 0.20059
# Poissons Ratio (z) = 0.46404 0.54249
#
# Static dielectric constant tensor:
#      x y z
#    x 1.725720 -0.024340 0.002290 
#    y -0.024340 1.717090 -0.044840 
#    z 0.002290 -0.044840 1.727820 
# 
# From -- ./inp_files/398249.got.cif
#   From: 2010.05.17/outbox.cif.g08.bks.cpg/sg2_200_cif.got.tgz:398249.got - 2010.06.03 11:33:40.
