data_PCOD9025860
_publ_section_title
;
Structure prediction by ZEFSAII (Michael W. Deem and Ramdas Pophale) SiO2 
 PCOD9025860
Probable space group: P -1
;
_chemical_formula_sum "Si O2"
_cell_formula_units_Z 15
_cell_length_a 11.163370
_cell_length_b 5.268649
_cell_length_c 11.266031
_cell_angle_alpha 118.825554
_cell_angle_beta 80.980360
_cell_angle_gamma 84.929992
_cell_volume 562.951254
_symmetry_space_group_name_H-M "P -1"
_symmetry_group_IT_number 2
_symmetry_cell_setting 'triclinic'
loop_
_space_group_symop_operation_xyz
x,y,z
-x,-y,-z
loop_
_atom_site_type_symbol
_atom_site_label
_atom_site_fract_x
_atom_site_fract_y
_atom_site_fract_z
Si Si1 0.226754 0.785168 0.614975
Si Si2 0.384626 0.269238 0.077515
Si Si3 0.754975 0.886137 0.554635
Si Si4 0.500000 0.500000 0.500000
Si Si5 0.248686 0.444863 0.905328
Si Si6 0.509093 0.262356 0.709283
Si Si7 0.056159 0.751775 0.842168
Si Si8 0.190560 0.064372 0.193031
O O1 0.197963 0.460225 0.521986
O O2 0.370414 0.720908 0.608826
O O3 0.150028 0.871366 0.766141
O O4 0.208657 0.982054 0.544303
O O5 0.435765 0.570585 0.153804
O O6 0.300473 0.240073 0.196951
O O7 0.295885 0.265199 0.977043
O O8 0.500000 0.000000 0.000000
O O9 0.809290 0.028545 0.691157
O O10 0.601928 0.942537 0.605074
O O11 0.528834 0.409837 0.615664
O O12 0.364284 0.335793 0.775891
O O13 0.128113 0.480606 0.847744
O O14 0.227178 0.777174 0.038760
O O15 0.936788 0.727530 0.777854
O O16 0.000000 0.000000 0.000000
#
# Coordination Sequence:
#
# PCOD9025860 Si02
#       8
#     2   2   2   1   2   2   2   2
#     4  11  25  50  70 111 144 194 242 302 366 439
#     4  12  23  39  71 102 141 187 240 306 366 425
#     4  11  25  44  76 106 144 189 244 305 373 432
#     4  10  22  40  72  98 150 182 234 298 370 432
#     4  11  22  43  66 101 144 186 241 301 360 438
#     4  11  21  42  67 103 141 183 239 303 372 423
#     4  10  25  50  71 101 145 194 246 293 365 430
#     4  11  23  44  68 102 140 190 243 298 360 436
#
# _framework density 26.645288999999998
#
# number of rings (size 3 to 8) (size 9 to 14) (size 15 to 20)
#    0.000    1.067    4.000    2.800    0.000    3.733 
#   14.400    0.000    0.000    0.000    0.000    0.000 
#    0.000    0.000    0.000    0.000    0.000    0.000 
#
# Total GULP energy -83766.067604 kJ/mol
# GULP energy per Si atom -5584.404507 kJ/mol
# Density = 2.658464 g / cm^3
# Si number density = 26.645289 Si / 1000 Ang^3
#
#
#
# Elastic Constant Matrix: (Units=GPa)
#
#
# Indices 1 2 3 4 5 6 
#
# 1 98.7703 38.1577 51.4217 -4.4862 -10.8023 -45.3073
# 2 38.1577 139.7350 62.7908 -16.2302 3.1451 -27.5988
# 3 51.4217 62.7908 169.1225 -7.7085 -29.3039 -11.4659
# 4 -4.4862 -16.2302 -7.7085 50.5680 4.0588 7.8249
# 5 -10.8023 3.1451 -29.3039 4.0588 39.9921 -6.7612
# 6 -45.3073 -27.5988 -11.4659 7.8249 -6.7612 38.4442
#
#
#
# Elastic Compliance Matrix: (Units=1/GPa)
#
#
# Indices 1 2 3 4 5 6 
#
# 1 0.031868 0.000735 -0.005477 -0.004822 0.011702 0.039491
# 2 0.000735 0.010259 -0.003990 0.002013 -0.002695 0.006158
# 3 -0.005477 -0.003990 0.009522 0.000173 0.004836 -0.005665
# 4 -0.004822 0.002013 0.000173 0.021914 -0.005173 -0.009556
# 5 0.011702 -0.002695 0.004836 -0.005173 0.035941 0.020673
# 6 0.039491 0.006158 -0.005665 -0.009556 0.020673 0.080864
#
#
# Mechanical properties :
#
#
# Convention : Reuss Voigt Hill
#
# Bulk Modulus (GPa) = 29.25336 79.15203 54.20269
# Shear Modulus (GPa) = 22.80735 42.81803 32.81269
#
# Velocity S-wave (km/s) = 2.92886 4.01304 3.51303
# Velocity P-wave (km/s) = 4.73711 7.15842 6.06973
#
# Compressibility (1/GPa) = 0.03418411
#
# Stress axis : x y z
#
# Youngs Moduli (GPa) = 31.37979 97.47085 105.02531
#
# Poissons Ratio (x) = -0.07167 0.57523
# Poissons Ratio (y) = -0.02307 0.41910
# Poissons Ratio (z) = 0.17187 0.38895
#
# Static dielectric constant tensor:
#      x y z
#    x 6.047360 3.536100 0.333420 
#    y 3.536100 5.122930 0.297290 
#    z 0.333420 0.297290 2.135560 
# 
# From -- ./inp_files/409574.got.cif
#   From: 2010.05.17/outbox.cif.g08.bks.cpg/sg2_205_cif.got.tgz:409574.got - 2010.06.03 11:33:40.
