data_PCOD9025201
_publ_section_title
;
Structure prediction by ZEFSAII (Michael W. Deem and Ramdas Pophale) SiO2 
 PCOD9025201
Probable space group: P -1
;
_chemical_formula_sum "Si O2"
_cell_formula_units_Z 14
_cell_length_a 5.711429
_cell_length_b 19.041156
_cell_length_c 12.441880
_cell_angle_alpha 142.921532
_cell_angle_beta 45.601465
_cell_angle_gamma 128.861546
_cell_volume 575.287849
_symmetry_space_group_name_H-M "P -1"
_symmetry_group_IT_number 2
_symmetry_cell_setting 'triclinic'
loop_
_space_group_symop_operation_xyz
x,y,z
-x,-y,-z
loop_
_atom_site_type_symbol
_atom_site_label
_atom_site_fract_x
_atom_site_fract_y
_atom_site_fract_z
Si Si1 0.150543 0.735498 0.717370
Si Si2 0.057247 0.736678 0.525358
Si Si3 0.719708 0.653934 0.143705
Si Si4 0.357459 0.633134 0.024575
Si Si5 0.114471 0.169116 0.862693
Si Si6 0.258669 0.065760 0.232968
Si Si7 0.508716 0.529058 0.406001
O O1 0.915409 0.732431 0.687077
O O2 0.468584 0.826858 0.683430
O O3 0.236312 0.607441 0.554664
O O4 0.046423 0.783686 0.921825
O O5 0.423433 0.706862 0.358749
O O6 0.001147 0.863264 0.655292
O O7 0.842075 0.624892 0.399708
O O8 0.957801 0.760124 0.133561
O O9 0.542327 0.583968 0.009068
O O10 0.965385 0.612651 0.101805
O O11 0.490768 0.578498 0.807224
O O12 0.497283 0.773599 0.171589
O O13 0.958230 0.032251 0.742968
O O14 0.500000 0.000000 0.000000
O O15 0.500000 0.500000 0.500000
#
# Coordination Sequence:
#
# PCOD9025201 Si02
#       7
#     2   2   2   2   2   2   2
#     4  10  22  40  67  98 132 171 226 281 337 393
#     4  11  25  40  67 100 134 173 224 281 331 403
#     4  10  25  44  66  99 138 181 222 271 337 402
#     4  10  24  43  67  95 137 180 224 268 336 397
#     4   9  21  41  67  94 138 174 227 269 341 393
#     4   9  21  42  66  99 132 172 224 276 341 391
#     4  11  24  41  70  98 135 173 228 277 337 398
#
# _framework density 24.335643999999998
#
# number of rings (size 3 to 8) (size 9 to 14) (size 15 to 20)
#    0.857    1.143    0.000    1.714    6.000    8.571 
#    0.000    1.429    0.000    0.000    0.000    0.000 
#    0.000    0.000    0.000    0.000    0.000    0.000 
#
# Total GULP energy -77992.228060 kJ/mol
# GULP energy per Si atom -5570.873433 kJ/mol
# Density = 2.428026 g / cm^3
# Si number density = 24.335644 Si / 1000 Ang^3
#
#
#
# Elastic Constant Matrix: (Units=GPa)
#
#
# Indices 1 2 3 4 5 6 
#
# 1 104.7657 59.4673 26.1107 6.5909 -5.8313 -10.1786
# 2 59.4673 110.5941 13.4304 15.9573 18.4866 0.4082
# 3 26.1107 13.4304 85.5649 -6.3947 5.8227 -12.2084
# 4 6.5909 15.9573 -6.3947 33.0379 -1.1768 10.3682
# 5 -5.8313 18.4866 5.8227 -1.1768 35.6016 -7.8281
# 6 -10.1786 0.4082 -12.2084 10.3682 -7.8281 45.0531
#
#
#
# Elastic Compliance Matrix: (Units=1/GPa)
#
#
# Indices 1 2 3 4 5 6 
#
# 1 0.017573 -0.010670 -0.003697 -0.000237 0.010087 0.004872
# 2 -0.010670 0.017532 0.000427 -0.005673 -0.011813 -0.003201
# 3 -0.003697 0.000427 0.013358 0.002470 -0.002541 0.001771
# 4 -0.000237 -0.005673 0.002470 0.035876 0.002100 -0.007224
# 5 0.010087 -0.011813 -0.002541 0.002100 0.038081 0.007831
# 6 0.004872 -0.003201 0.001771 -0.007224 0.007831 0.026829
#
#
# Mechanical properties :
#
#
# Convention : Reuss Voigt Hill
#
# Bulk Modulus (GPa) = 48.57934 55.43794 52.00864
# Shear Modulus (GPa) = 27.17553 36.19961 31.68757
#
# Velocity S-wave (km/s) = 3.34533 3.86101 3.61238
# Velocity P-wave (km/s) = 5.90992 6.53503 6.23032
#
# Compressibility (1/GPa) = 0.02058488
#
# Stress axis : x y z
#
# Youngs Moduli (GPa) = 56.90700 57.03743 74.86026
#
# Poissons Ratio (x) = 0.60858 0.27673
# Poissons Ratio (y) = 0.60718 -0.03198
# Poissons Ratio (z) = 0.21036 -0.02437
#
# Static dielectric constant tensor:
#      x y z
#    x 2.047000 0.027040 -0.010180 
#    y 0.027040 2.045960 -0.014220 
#    z -0.010180 -0.014220 1.926210 
# 
# From -- ./inp_files/369560.got.cif
#   From: 2010.05.17/outbox.cif.g08.bks.cpg/sg2_185_cif.got.tgz:369560.got - 2010.06.03 11:33:40.
