data_PCOD9025300
_publ_section_title
;
Structure prediction by ZEFSAII (Michael W. Deem and Ramdas Pophale) SiO2 
 PCOD9025300
Probable space group: P -1
;
_chemical_formula_sum "Si O2"
_cell_formula_units_Z 12
_cell_length_a 12.499554
_cell_length_b 9.524898
_cell_length_c 15.260796
_cell_angle_alpha 32.076964
_cell_angle_beta 39.682134
_cell_angle_gamma 52.678003
_cell_volume 610.454545
_symmetry_space_group_name_H-M "P -1"
_symmetry_group_IT_number 2
_symmetry_cell_setting 'triclinic'
loop_
_space_group_symop_operation_xyz
x,y,z
-x,-y,-z
loop_
_atom_site_type_symbol
_atom_site_label
_atom_site_fract_x
_atom_site_fract_y
_atom_site_fract_z
Si Si1 0.662063 0.292248 0.679816
Si Si2 0.687305 0.992829 0.996875
Si Si3 0.007849 0.855546 0.974116
Si Si4 0.339949 0.155603 0.511768
Si Si5 0.997432 0.685477 0.652044
Si Si6 0.671223 0.544753 0.813029
O O1 0.493885 0.187396 0.787247
O O2 0.629421 0.559311 0.609281
O O3 0.827586 0.350951 0.486102
O O4 0.702266 0.069344 0.843650
O O5 0.843140 0.884738 0.003541
O O6 0.677420 0.272106 0.902045
O O7 0.173077 0.997879 0.744504
O O8 0.019909 0.540804 0.142680
O O9 0.000000 0.000000 0.000000
O O10 0.319340 0.221440 0.387881
O O11 0.500000 0.000000 0.500000
O O12 0.835144 0.599231 0.740279
O O13 0.000000 0.000000 0.500000
O O14 0.500000 0.500000 0.000000
#
# Coordination Sequence:
#
# PCOD9025300 Si02
#       6
#     2   2   2   2   2   2
#     4  10  22  43  63  97 129 173 219 272 328 388
#     4  10  22  40  68  90 129 173 218 270 330 387
#     4  12  23  43  66  95 131 176 219 269 326 391
#     4  11  24  41  67  96 131 176 223 269 327 392
#     4  12  25  41  65  96 133 171 225 270 331 389
#     4  11  22  40  65  95 134 176 219 269 330 391
#
# _framework density 19.657482999999999
#
# number of rings (size 3 to 8) (size 9 to 14) (size 15 to 20)
#    0.000    1.000    3.333    3.000    0.000    7.333 
#    0.000    2.500    0.000    0.000    0.000    0.000 
#    0.000    0.000    0.000    0.000    0.000    0.000 
#
# Total GULP energy -67010.004379 kJ/mol
# GULP energy per Si atom -5584.167032 kJ/mol
# Density = 1.961274 g / cm^3
# Si number density = 19.657483 Si / 1000 Ang^3
#
#
#
# Elastic Constant Matrix: (Units=GPa)
#
#
# Indices 1 2 3 4 5 6 
#
# 1 165.5323 52.1750 82.0923 8.5522 -13.0515 -41.3835
# 2 52.1750 73.6143 47.9457 -2.6116 2.7960 -23.9789
# 3 82.0923 47.9457 148.4964 14.7295 -4.5268 -21.7968
# 4 8.5522 -2.6116 14.7295 42.9268 -6.6168 -0.0337
# 5 -13.0515 2.7960 -4.5268 -6.6168 43.2337 -3.6826
# 6 -41.3835 -23.9789 -21.7968 -0.0337 -3.6826 31.4169
#
#
#
# Elastic Compliance Matrix: (Units=1/GPa)
#
#
# Indices 1 2 3 4 5 6 
#
# 1 0.012095 -0.002242 -0.004031 -0.000488 0.004316 0.011929
# 2 -0.002242 0.021670 -0.004603 0.003167 -0.001202 0.010255
# 3 -0.004031 -0.004603 0.010516 -0.003154 -0.000436 -0.001582
# 4 -0.000488 0.003167 -0.003154 0.025156 0.003166 -0.000016
# 5 0.004316 -0.001202 -0.000436 0.003166 0.025586 0.007467
# 6 0.011929 0.010255 -0.001582 -0.000016 0.007467 0.055148
#
#
# Mechanical properties :
#
#
# Convention : Reuss Voigt Hill
#
# Bulk Modulus (GPa) = 44.38859 83.56323 63.97591
# Shear Modulus (GPa) = 27.86570 37.21081 32.53826
#
# Velocity S-wave (km/s) = 3.76914 4.35554 4.07290
# Velocity P-wave (km/s) = 6.44763 8.23991 7.39824
#
# Compressibility (1/GPa) = 0.02252831
#
# Stress axis : x y z
#
# Youngs Moduli (GPa) = 82.67963 46.14746 95.09068
#
# Poissons Ratio (x) = 0.10348 0.38335
# Poissons Ratio (y) = 0.18539 0.43766
# Poissons Ratio (z) = 0.33332 0.21240
#
# Static dielectric constant tensor:
#      x y z
#    x 1.698630 0.025750 0.084320 
#    y 0.025750 1.672360 -0.012750 
#    z 0.084320 -0.012750 1.731170 
# 
# From -- ./inp_files/147860.got.cif
#   From: 2010.05.17/outbox.cif.g08.bks.cpg/sg2_74_cif.got.tgz:147860.got - 2010.06.03 11:33:40.
