data_PCOD9025230
_publ_section_title
;
Structure prediction by ZEFSAII (Michael W. Deem and Ramdas Pophale) SiO2 
 PCOD9025230
Probable space group: P -1
;
_chemical_formula_sum "Si O2"
_cell_formula_units_Z 16
_cell_length_a 12.160047
_cell_length_b 9.851623
_cell_length_c 15.780901
_cell_angle_alpha 71.014508
_cell_angle_beta 139.538566
_cell_angle_gamma 139.432766
_cell_volume 639.090437
_symmetry_space_group_name_H-M "P -1"
_symmetry_group_IT_number 2
_symmetry_cell_setting 'triclinic'
loop_
_space_group_symop_operation_xyz
x,y,z
-x,-y,-z
loop_
_atom_site_type_symbol
_atom_site_label
_atom_site_fract_x
_atom_site_fract_y
_atom_site_fract_z
Si Si1 0.010691 0.651052 0.530147
Si Si2 0.448690 0.803093 0.536068
Si Si3 0.674948 0.758209 0.011644
Si Si4 0.691344 0.707154 0.343058
Si Si5 0.579442 0.978152 0.878867
Si Si6 0.695300 0.709102 0.646625
Si Si7 0.780109 0.384082 0.976910
Si Si8 0.065860 0.837071 0.110900
O O1 0.868313 0.499891 0.567606
O O2 0.831310 0.663261 0.388274
O O3 0.000000 0.500000 0.500000
O O4 0.367018 0.926979 0.704595
O O5 0.619945 0.823377 0.567082
O O6 0.500000 0.000000 0.500000
O O7 0.630809 0.915467 0.708935
O O8 0.831239 0.792393 0.014006
O O9 0.500000 0.500000 0.000000
O O10 0.442214 0.725506 0.869220
O O11 0.939766 0.018959 0.174120
O O12 0.467256 0.479106 0.328761
O O13 0.489716 0.689611 0.184701
O O14 0.000000 0.000000 0.500000
O O15 0.659346 0.138127 0.970718
O O16 0.856326 0.118117 0.951704
O O17 0.500000 0.500000 0.500000
O O18 0.000000 0.500000 0.000000
O O19 0.960941 0.597490 0.112582
#
# Coordination Sequence:
#
# PCOD9025230 Si02
#       8
#     2   2   2   2   2   2   2   2
#     4  11  23  39  64 101 131 173 225 282 339 404
#     4  10  23  40  63  91 133 173 218 273 335 407
#     4  11  26  45  67  99 137 183 233 285 349 414
#     4  11  23  43  67 102 139 170 229 287 345 406
#     4  11  22  41  68  95 134 171 227 285 341 411
#     4  10  24  44  64  93 133 179 224 278 346 407
#     4  10  22  40  68 100 132 173 222 284 343 406
#     4  10  22  42  65  97 128 177 222 280 349 396
#
# _framework density 25.035578999999998
#
# number of rings (size 3 to 8) (size 9 to 14) (size 15 to 20)
#    0.000    1.500    2.500    1.875    5.250    5.000 
#    0.000    0.625    0.000    0.000    0.000    0.000 
#    0.000    0.000    0.000    0.000    0.000    0.000 
#
# Total GULP energy -89116.657282 kJ/mol
# GULP energy per Si atom -5569.791080 kJ/mol
# Density = 2.497860 g / cm^3
# Si number density = 25.035579 Si / 1000 Ang^3
#
#
#
# Elastic Constant Matrix: (Units=GPa)
#
#
# Indices 1 2 3 4 5 6 
#
# 1 81.2276 42.2227 37.3143 -8.1511 5.6799 -40.9264
# 2 42.2227 136.3691 22.9070 -3.8852 6.6076 -46.0835
# 3 37.3143 22.9070 103.8476 15.5646 15.4271 -15.9097
# 4 -8.1511 -3.8852 15.5646 38.8131 -18.8058 3.4721
# 5 5.6799 6.6076 15.4271 -18.8058 36.8661 7.0182
# 6 -40.9264 -46.0835 -15.9097 3.4721 7.0182 60.0513
#
#
#
# Elastic Compliance Matrix: (Units=1/GPa)
#
#
# Indices 1 2 3 4 5 6 
#
# 1 0.023330 -0.001770 -0.007411 0.007206 0.001212 0.012020
# 2 -0.001770 0.010543 0.000522 -0.002408 -0.004528 0.007691
# 3 -0.007411 0.000522 0.017046 -0.015588 -0.014505 0.002462
# 4 0.007206 -0.002408 -0.015588 0.049855 0.032756 -0.007777
# 5 0.001212 -0.004528 -0.014505 0.032756 0.053312 -0.014616
# 6 0.012020 0.007691 0.002462 -0.007777 -0.014616 0.033557
#
#
# Mechanical properties :
#
#
# Convention : Reuss Voigt Hill
#
# Bulk Modulus (GPa) = 29.76085 58.48138 44.12112
# Shear Modulus (GPa) = 23.13088 41.74611 32.43850
#
# Velocity S-wave (km/s) = 3.04290 4.08790 3.60348
# Velocity P-wave (km/s) = 4.92533 6.75953 5.91397
#
# Compressibility (1/GPa) = 0.03360119
#
# Stress axis : x y z
#
# Youngs Moduli (GPa) = 42.86237 94.84667 58.66595
#
# Poissons Ratio (x) = 0.16789 0.43479
# Poissons Ratio (y) = 0.07587 -0.03063
# Poissons Ratio (z) = 0.31766 -0.04953
#
# Static dielectric constant tensor:
#      x y z
#    x 2.078710 0.101790 0.055270 
#    y 0.101790 2.247850 0.057780 
#    z 0.055270 0.057780 2.121530 
# 
# From -- ./inp_files/566747.got.cif
#   From: 2010.05.17/outbox.cif.g08.bks.cpg/sg2_284_cif.got.tgz:566747.got - 2010.06.03 11:33:40.
