data_PCOD9025881
_publ_section_title
;
Structure prediction by ZEFSAII (Michael W. Deem and Ramdas Pophale) SiO2 
 PCOD9025881
Probable space group: P -1
;
_chemical_formula_sum "Si O2"
_cell_formula_units_Z 16
_cell_length_a 14.261961
_cell_length_b 13.786927
_cell_length_c 7.878032
_cell_angle_alpha 69.241822
_cell_angle_beta 93.732861
_cell_angle_gamma 149.258991
_cell_volume 640.736527
_symmetry_space_group_name_H-M "P -1"
_symmetry_group_IT_number 2
_symmetry_cell_setting 'triclinic'
loop_
_space_group_symop_operation_xyz
x,y,z
-x,-y,-z
loop_
_atom_site_type_symbol
_atom_site_label
_atom_site_fract_x
_atom_site_fract_y
_atom_site_fract_z
Si Si1 0.414774 0.788549 0.933356
Si Si2 0.814641 0.275355 0.830995
Si Si3 0.706743 0.271459 0.399151
Si Si4 0.505714 0.349896 0.102982
Si Si5 0.388678 0.610575 0.524167
Si Si6 0.913640 0.849097 0.741808
Si Si7 0.169090 0.931697 0.875471
Si Si8 0.961997 0.089665 0.775498
O O1 0.274864 0.660291 0.828266
O O2 0.648658 0.074424 0.790707
O O3 0.286362 0.722031 0.101960
O O4 0.462587 0.715330 0.981533
O O5 0.058965 0.537203 0.655185
O O6 0.813811 0.175495 0.023588
O O7 0.647457 0.303066 0.502879
O O8 0.500000 0.000000 0.500000
O O9 0.659981 0.587627 0.890592
O O10 0.584698 0.409000 0.268942
O O11 0.253169 0.108881 0.233272
O O12 0.599990 0.803374 0.322950
O O13 0.179960 0.356143 0.573901
O O14 0.991274 0.995186 0.820467
O O15 0.000000 0.000000 0.500000
O O16 0.010787 0.829633 0.784770
O O17 0.090198 0.902102 0.061823
#
# Coordination Sequence:
#
# PCOD9025881 Si02
#       8
#     2   2   2   2   2   2   2   2
#     4  10  22  40  73  99 137 193 232 289 362 420
#     4  11  22  44  69 105 141 188 237 291 359 425
#     4  11  22  40  63 101 144 185 235 294 349 421
#     4  11  23  48  70 104 150 182 238 307 350 426
#     4  11  25  44  71 102 140 189 239 287 365 421
#     4  12  28  47  74 110 141 192 244 295 367 426
#     4  12  24  47  75 103 144 190 237 300 355 426
#     4  12  25  48  73 100 144 187 237 298 351 423
#
# _framework density 24.971260999999998
#
# number of rings (size 3 to 8) (size 9 to 14) (size 15 to 20)
#    0.000    0.750    3.750    3.375    1.750    2.000 
#    0.000    5.000    0.000    0.000    0.000    0.000 
#    0.000    0.000    0.000    0.000    0.000    0.000 
#
# Total GULP energy -89394.055362 kJ/mol
# GULP energy per Si atom -5587.128460 kJ/mol
# Density = 2.491443 g / cm^3
# Si number density = 24.971261 Si / 1000 Ang^3
#
#
#
# Elastic Constant Matrix: (Units=GPa)
#
#
# Indices 1 2 3 4 5 6 
#
# 1 71.8223 24.3409 19.6719 -14.8118 -2.7277 5.7113
# 2 24.3409 105.6123 34.1258 -37.4925 4.3705 32.8065
# 3 19.6719 34.1258 118.6009 -29.1600 -7.0392 29.1732
# 4 -14.8118 -37.4925 -29.1600 64.3724 12.7244 -3.7144
# 5 -2.7277 4.3705 -7.0392 12.7244 32.5259 -9.9196
# 6 5.7113 32.8065 29.1732 -3.7144 -9.9196 46.1062
#
#
#
# Elastic Compliance Matrix: (Units=1/GPa)
#
#
# Indices 1 2 3 4 5 6 
#
# 1 0.015652 -0.003679 -0.001914 0.000337 0.001975 0.002341
# 2 -0.003679 0.020188 0.001304 0.013099 -0.012880 -0.016450
# 3 -0.001914 0.001304 0.011598 0.005597 -0.002490 -0.008114
# 4 0.000337 0.013099 0.005597 0.028088 -0.015790 -0.014038
# 5 0.001975 -0.012880 -0.002490 -0.015790 0.043978 0.018685
# 6 0.002341 -0.016450 -0.008114 -0.014038 0.018685 0.041127
#
#
# Mechanical properties :
#
#
# Convention : Reuss Voigt Hill
#
# Bulk Modulus (GPa) = 25.73223 50.25699 37.99461
# Shear Modulus (GPa) = 27.44798 43.12735 35.28767
#
# Velocity S-wave (km/s) = 3.31899 4.16032 3.76324
# Velocity P-wave (km/s) = 5.00147 6.57627 5.84218
#
# Compressibility (1/GPa) = 0.03886177
#
# Stress axis : x y z
#
# Youngs Moduli (GPa) = 63.88810 49.53361 86.22143
#
# Poissons Ratio (x) = 0.18222 0.16500
# Poissons Ratio (y) = 0.23502 -0.11241
# Poissons Ratio (z) = 0.12226 -0.06458
#
# Static dielectric constant tensor:
#      x y z
#    x 2.072430 0.051320 0.102160 
#    y 0.051320 1.948070 0.027870 
#    z 0.102160 0.027870 2.025520 
# 
# From -- ./inp_files/314963.got.cif
#   From: 2010.05.17/outbox.cif.g08.bks.cpg/sg2_158_cif.got.tgz:314963.got - 2010.06.03 11:33:40.
