data_PCOD9025107
_publ_section_title
;
Structure prediction by ZEFSAII (Michael W. Deem and Ramdas Pophale) SiO2 
 PCOD9025107
Probable space group: P -1
;
_chemical_formula_sum "Si O2"
_cell_formula_units_Z 16
_cell_length_a 14.707162
_cell_length_b 10.142945
_cell_length_c 11.086992
_cell_angle_alpha 107.613234
_cell_angle_beta 148.603416
_cell_angle_gamma 55.819483
_cell_volume 649.930892
_symmetry_space_group_name_H-M "P -1"
_symmetry_group_IT_number 2
_symmetry_cell_setting 'triclinic'
loop_
_space_group_symop_operation_xyz
x,y,z
-x,-y,-z
loop_
_atom_site_type_symbol
_atom_site_label
_atom_site_fract_x
_atom_site_fract_y
_atom_site_fract_z
Si Si1 0.375160 0.254203 0.799085
Si Si2 0.916757 0.832353 0.655146
Si Si3 0.686696 0.024799 0.695943
Si Si4 0.359235 0.447401 0.069870
Si Si5 0.353511 0.373382 0.312244
Si Si6 0.157010 0.874563 0.748444
Si Si7 0.983776 0.721609 0.113665
Si Si8 0.751952 0.419437 0.392620
O O1 0.257055 0.166047 0.624602
O O2 0.256341 0.421155 0.620822
O O3 0.363312 0.323677 0.939405
O O4 0.627567 0.134803 0.007103
O O5 0.800851 0.935768 0.673887
O O6 0.016904 0.910315 0.716535
O O7 0.117294 0.630807 0.855069
O O8 0.500000 0.000000 0.500000
O O9 0.556449 0.231734 0.589289
O O10 0.866894 0.907004 0.969030
O O11 0.426920 0.365052 0.256511
O O12 0.531325 0.478471 0.226936
O O13 0.204758 0.568619 0.250378
O O14 0.187443 0.322757 0.103869
O O15 0.235044 0.685505 0.737465
O O16 0.000000 0.000000 0.500000
O O17 0.052500 0.702049 0.325147
#
# Coordination Sequence:
#
# PCOD9025107 Si02
#       8
#     2   2   2   2   2   2   2   2
#     4  11  24  42  70 101 133 173 230 279 338 414
#     4  12  23  43  74  95 133 189 222 277 358 397
#     4  10  24  43  65  99 136 171 238 289 326 407
#     4  11  21  42  66  99 130 172 226 282 338 411
#     4  10  22  40  67  93 131 175 232 281 334 405
#     4  11  26  45  63 103 146 171 224 286 337 414
#     4  10  22  42  66  92 131 181 225 282 341 395
#     4  11  23  42  67  96 136 174 223 284 340 403
#
# _framework density 24.618001
#
# number of rings (size 3 to 8) (size 9 to 14) (size 15 to 20)
#    0.000    1.250    3.750    1.875    8.750    3.000 
#    0.000    0.625    0.000    0.000    0.000    0.000 
#    0.000    0.000    0.000    0.000    0.000    0.000 
#
# Total GULP energy -89695.581605 kJ/mol
# GULP energy per Si atom -5605.973850 kJ/mol
# Density = 2.456197 g / cm^3
# Si number density = 24.618001 Si / 1000 Ang^3
#
#
#
# Elastic Constant Matrix: (Units=GPa)
#
#
# Indices 1 2 3 4 5 6 
#
# 1 150.4303 47.5248 36.9704 -13.4560 -3.0249 -6.1934
# 2 47.5248 75.1776 57.0393 6.2376 4.5965 -0.1170
# 3 36.9704 57.0393 127.3705 -14.8289 -11.8031 9.0819
# 4 -13.4560 6.2376 -14.8289 39.8121 4.7338 -9.8269
# 5 -3.0249 4.5965 -11.8031 4.7338 48.3682 -11.6562
# 6 -6.1934 -0.1170 9.0819 -9.8269 -11.6562 24.8788
#
#
#
# Elastic Compliance Matrix: (Units=1/GPa)
#
#
# Indices 1 2 3 4 5 6 
#
# 1 0.009524 -0.007462 0.001089 0.005833 0.002279 0.005310
# 2 -0.007462 0.028766 -0.012351 -0.012101 -0.006212 -0.004904
# 3 0.001089 -0.012351 0.014280 0.007064 0.003949 -0.000360
# 4 0.005833 -0.012101 0.007064 0.034697 0.003224 0.014032
# 5 0.002279 -0.006212 0.003949 0.003224 0.024963 0.012066
# 6 0.005310 -0.004904 -0.000360 0.014032 0.012066 0.052821
#
#
# Mechanical properties :
#
#
# Convention : Reuss Voigt Hill
#
# Bulk Modulus (GPa) = 66.12890 70.67192 68.40041
# Shear Modulus (GPa) = 24.09171 36.70807 30.39989
#
# Velocity S-wave (km/s) = 3.13169 3.86567 3.51788
# Velocity P-wave (km/s) = 6.32431 6.97813 6.65925
#
# Compressibility (1/GPa) = 0.01512198
#
# Stress axis : x y z
#
# Youngs Moduli (GPa) = 105.00234 34.76275 70.02736
#
# Poissons Ratio (x) = 0.25939 -0.07626
# Poissons Ratio (y) = 0.78351 0.86492
# Poissons Ratio (z) = -0.11434 0.42936
#
# Static dielectric constant tensor:
#      x y z
#    x 1.908330 -0.000420 -0.017440 
#    y -0.000420 1.947840 -0.035290 
#    z -0.017440 -0.035290 1.941340 
# 
# From -- ./inp_files/315354.got.cif
#   From: 2010.05.17/outbox.cif.g08.bks.cpg/sg2_158_cif.got.tgz:315354.got - 2010.06.03 11:33:40.
