data_PCOD9025983
_publ_section_title
;
Structure prediction by ZEFSAII (Michael W. Deem and Ramdas Pophale) SiO2 
 PCOD9025983
Probable space group: P -1
;
_chemical_formula_sum "Si O2"
_cell_formula_units_Z 16
_cell_length_a 24.916897
_cell_length_b 12.243204
_cell_length_c 13.323984
_cell_angle_alpha 146.033993
_cell_angle_beta 147.588459
_cell_angle_gamma 18.986631
_cell_volume 697.466990
_symmetry_space_group_name_H-M "P -1"
_symmetry_group_IT_number 2
_symmetry_cell_setting 'triclinic'
loop_
_space_group_symop_operation_xyz
x,y,z
-x,-y,-z
loop_
_atom_site_type_symbol
_atom_site_label
_atom_site_fract_x
_atom_site_fract_y
_atom_site_fract_z
Si Si1 0.435056 0.384910 0.867677
Si Si2 0.361034 0.673805 0.174122
Si Si3 0.585341 0.194397 0.334661
Si Si4 0.985684 0.670966 0.953313
Si Si5 0.803749 0.247740 0.403180
Si Si6 0.110642 0.191806 0.626893
Si Si7 0.231913 0.293837 0.234372
Si Si8 0.302833 0.179691 0.579886
O O1 0.282534 0.702031 0.794118
O O2 0.377662 0.261710 0.719927
O O3 0.610575 0.074804 0.846369
O O4 0.456338 0.486783 0.076363
O O5 0.447059 0.393173 0.177495
O O6 0.159253 0.959104 0.043084
O O7 0.362748 0.891954 0.389441
O O8 0.500000 0.500000 0.500000
O O9 0.763401 0.979822 0.398862
O O10 0.631285 0.955982 0.305828
O O11 0.878151 0.661501 0.827191
O O12 0.104123 0.394355 0.841379
O O13 0.102949 0.563014 0.145378
O O14 0.703402 0.609867 0.541460
O O15 0.815099 0.094562 0.401367
O O16 0.000000 0.000000 0.500000
O O17 0.908475 0.477989 0.497521
#
# Coordination Sequence:
#
# PCOD9025983 Si02
#       8
#     2   2   2   2   2   2   2   2
#     4  12  25  41  66 100 134 171 211 268 320 382
#     4  10  23  42  64  95 129 166 217 265 317 380
#     4  10  23  42  69  95 122 171 220 270 323 375
#     4  10  22  41  60  91 134 173 211 255 320 390
#     4  12  22  39  62 100 131 169 210 259 324 390
#     4  11  22  40  68  93 130 172 211 264 325 385
#     4  11  24  38  60  94 136 174 210 258 315 387
#     4  10  23  45  68  94 129 172 220 268 320 378
#
# _framework density 22.940152999999999
#
# number of rings (size 3 to 8) (size 9 to 14) (size 15 to 20)
#    0.000    1.250    2.500    3.000    7.000    1.000 
#    0.000    0.000    0.000    5.250    0.000    0.000 
#    0.000    0.000    0.000    0.000    0.000    0.000 
#
# Total GULP energy -89545.629031 kJ/mol
# GULP energy per Si atom -5596.601814 kJ/mol
# Density = 2.288794 g / cm^3
# Si number density = 22.940153 Si / 1000 Ang^3
#
#
#
# Elastic Constant Matrix: (Units=GPa)
#
#
# Indices 1 2 3 4 5 6 
#
# 1 120.4686 51.4712 47.6007 3.4315 -16.5595 13.3468
# 2 51.4712 120.5137 51.1329 -8.8659 -15.0993 4.8484
# 3 47.6007 51.1329 92.9448 -4.1557 -18.2068 7.1931
# 4 3.4315 -8.8659 -4.1557 38.5788 1.4504 -27.1541
# 5 -16.5595 -15.0993 -18.2068 1.4504 34.1217 0.2726
# 6 13.3468 4.8484 7.1931 -27.1541 0.2726 50.6077
#
#
#
# Elastic Compliance Matrix: (Units=1/GPa)
#
#
# Indices 1 2 3 4 5 6 
#
# 1 0.012602 -0.003716 -0.003684 -0.006764 0.002842 -0.006089
# 2 -0.003716 0.012196 -0.004654 0.004705 0.000886 0.002993
# 3 -0.003684 -0.004654 0.016218 0.000292 0.004800 -0.000757
# 4 -0.006764 0.004705 0.000292 0.046080 -0.003211 0.026034
# 5 0.002842 0.000886 0.004800 -0.003211 0.033803 -0.003422
# 6 -0.006089 0.002993 -0.000757 0.026034 -0.003422 0.035174
#
#
# Mechanical properties :
#
#
# Convention : Reuss Voigt Hill
#
# Bulk Modulus (GPa) = 59.14388 70.48185 64.81287
# Shear Modulus (GPa) = 26.90786 36.90980 31.90883
#
# Velocity S-wave (km/s) = 3.42856 4.01554 3.73360
# Velocity P-wave (km/s) = 6.44292 7.23120 6.84841
#
# Compressibility (1/GPa) = 0.01690792
#
# Stress axis : x y z
#
# Youngs Moduli (GPa) = 79.35133 81.99136 61.65810
#
# Poissons Ratio (x) = 0.30465 0.22718
# Poissons Ratio (y) = 0.29484 0.28698
# Poissons Ratio (z) = 0.29237 0.38162
#
# Static dielectric constant tensor:
#      x y z
#    x 1.822170 0.012940 -0.004590 
#    y 0.012940 1.899590 0.022080 
#    z -0.004590 0.022080 1.892820 
# 
# From -- ./inp_files/474878.got.cif
#   From: 2010.05.17/outbox.cif.g08.bks.cpg/sg2_238_cif.got.tgz:474878.got - 2010.06.03 11:33:40.
