data_PCOD9025947
_publ_section_title
;
Structure prediction by ZEFSAII (Michael W. Deem and Ramdas Pophale) SiO2 
 PCOD9025947
Probable space group: P -1
;
_chemical_formula_sum "Si O2"
_cell_formula_units_Z 14
_cell_length_a 12.028533
_cell_length_b 11.050391
_cell_length_c 10.755308
_cell_angle_alpha 82.816914
_cell_angle_beta 36.272711
_cell_angle_gamma 58.851688
_cell_volume 591.384341
_symmetry_space_group_name_H-M "P -1"
_symmetry_group_IT_number 2
_symmetry_cell_setting 'triclinic'
loop_
_space_group_symop_operation_xyz
x,y,z
-x,-y,-z
loop_
_atom_site_type_symbol
_atom_site_label
_atom_site_fract_x
_atom_site_fract_y
_atom_site_fract_z
Si Si1 0.838083 0.344320 0.851446
Si Si2 0.638286 0.773005 0.206322
Si Si3 0.865642 0.618036 0.281813
Si Si4 0.423716 0.966763 0.945205
Si Si5 0.524384 0.537191 0.614320
Si Si6 0.817745 0.167553 0.474747
Si Si7 0.422617 0.728272 0.063371
O O1 0.735539 0.353690 0.080249
O O2 0.643803 0.529835 0.934625
O O3 0.805935 0.240617 0.809514
O O4 0.103036 0.296492 0.650107
O O5 0.779901 0.722345 0.217693
O O6 0.357499 0.830527 0.463825
O O7 0.585482 0.923811 0.164229
O O8 0.850258 0.584949 0.967998
O O9 0.649932 0.612355 0.497783
O O10 0.128901 0.042042 0.197953
O O11 0.570602 0.768107 0.850862
O O12 0.500000 0.000000 0.000000
O O13 0.500000 0.500000 0.500000
O O14 0.719370 0.352188 0.529008
O O15 0.713809 0.164353 0.699999
#
# Coordination Sequence:
#
# PCOD9025947 Si02
#       7
#     2   2   2   2   2   2   2
#     4  10  22  41  59  84 125 154 193 241 297 350
#     4  11  21  34  60  91 119 147 196 251 290 336
#     4  11  19  36  59  90 118 150 198 240 290 350
#     4  12  23  37  61  89 115 155 203 240 292 350
#     4  11  19  34  63  92 114 148 199 246 288 337
#     4  11  21  37  58  90 117 150 193 248 292 339
#     4  10  22  42  56  85 124 158 189 243 296 346
#
# _framework density 23.673269999999999
#
# number of rings (size 3 to 8) (size 9 to 14) (size 15 to 20)
#    0.000    1.143    7.143    1.286    0.000    0.000 
#    2.571    2.857    0.000    1.714    0.000    0.000 
#    0.000    0.000    0.000    0.000    0.000    0.000 
#
# Total GULP energy -78151.952294 kJ/mol
# GULP energy per Si atom -5582.282307 kJ/mol
# Density = 2.361939 g / cm^3
# Si number density = 23.673270 Si / 1000 Ang^3
#
#
#
# Elastic Constant Matrix: (Units=GPa)
#
#
# Indices 1 2 3 4 5 6 
#
# 1 154.2201 39.0403 33.2373 -24.7175 -29.5782 8.7989
# 2 39.0403 115.1649 30.4010 -46.9847 -9.1756 -7.0661
# 3 33.2373 30.4010 77.9592 -25.5812 -16.8695 -3.4944
# 4 -24.7175 -46.9847 -25.5812 44.8332 2.4750 -4.2007
# 5 -29.5782 -9.1756 -16.8695 2.4750 36.4732 -10.8733
# 6 8.7989 -7.0661 -3.4944 -4.2007 -10.8733 28.6212
#
#
#
# Elastic Compliance Matrix: (Units=1/GPa)
#
#
# Indices 1 2 3 4 5 6 
#
# 1 0.008565 -0.001148 -0.001148 0.002498 0.005813 -0.000481
# 2 -0.001148 0.017650 0.001743 0.019471 0.005993 0.010058
# 3 -0.001148 0.001743 0.019358 0.012505 0.010260 0.008880
# 4 0.002498 0.019471 0.012505 0.052172 0.014784 0.018840
# 5 0.005813 0.005993 0.010260 0.014784 0.043203 0.019528
# 6 -0.000481 0.010058 0.008880 0.018840 0.019528 0.048838
#
#
# Mechanical properties :
#
#
# Convention : Reuss Voigt Hill
#
# Bulk Modulus (GPa) = 22.48775 61.41129 41.94952
# Shear Modulus (GPa) = 24.30554 38.29658 31.30106
#
# Velocity S-wave (km/s) = 3.20771 4.02644 3.64017
# Velocity P-wave (km/s) = 4.82068 6.90028 5.95201
#
# Compressibility (1/GPa) = 0.04446866
#
# Stress axis : x y z
#
# Youngs Moduli (GPa) = 116.75487 56.65623 51.65708
#
# Poissons Ratio (x) = 0.06501 0.05930
# Poissons Ratio (y) = 0.13398 -0.09004
# Poissons Ratio (z) = 0.13403 -0.09875
#
# Static dielectric constant tensor:
#      x y z
#    x 1.885070 -0.009700 0.015730 
#    y -0.009700 2.022880 0.048090 
#    z 0.015730 0.048090 1.983420 
# 
# From -- ./inp_files/421026.got.cif
#   From: 2010.05.17/outbox.cif.g08.bks.cpg/sg2_211_cif.got.tgz:421026.got - 2010.06.03 11:33:40.
