data_PCOD9025014
_publ_section_title
;
Structure prediction by ZEFSAII (Michael W. Deem and Ramdas Pophale) SiO2 
 PCOD9025014
Probable space group: P -1
;
_chemical_formula_sum "Si O2"
_cell_formula_units_Z 14
_cell_length_a 5.417835
_cell_length_b 22.237260
_cell_length_c 12.272398
_cell_angle_alpha 26.660030
_cell_angle_beta 64.558567
_cell_angle_gamma 74.085593
_cell_volume 576.703506
_symmetry_space_group_name_H-M "P -1"
_symmetry_group_IT_number 2
_symmetry_cell_setting 'triclinic'
loop_
_space_group_symop_operation_xyz
x,y,z
-x,-y,-z
loop_
_atom_site_type_symbol
_atom_site_label
_atom_site_fract_x
_atom_site_fract_y
_atom_site_fract_z
Si Si1 0.565720 0.374198 0.559974
Si Si2 0.489047 0.160353 0.740102
Si Si3 0.881636 0.309637 0.810366
Si Si4 0.467514 0.355617 0.988976
Si Si5 0.040240 0.910461 0.536024
Si Si6 0.939760 0.051641 0.121473
Si Si7 0.505555 0.225276 0.395503
O O1 0.621836 0.253456 0.667371
O O2 0.751629 0.382783 0.619261
O O3 0.630596 0.516898 0.248908
O O4 0.223505 0.338325 0.705860
O O5 0.603595 0.238708 0.479672
O O6 0.152993 0.144917 0.844111
O O7 0.500000 0.000000 0.000000
O O8 0.751779 0.350842 0.878469
O O9 0.768650 0.146358 0.061488
O O10 0.244146 0.209854 0.238048
O O11 0.477824 0.355223 0.119281
O O12 0.282625 0.833555 0.623550
O O13 0.114213 0.007817 0.258212
O O14 0.000000 0.000000 0.500000
O O15 0.769969 0.906971 0.336160
#
# Coordination Sequence:
#
# PCOD9025014 Si02
#       7
#     2   2   2   2   2   2   2
#     4  11  27  45  70 103 132 188 225 282 342 403
#     4  11  22  43  71  96 135 174 236 284 332 406
#     4  11  24  44  72 100 136 177 230 282 342 406
#     4  11  26  42  66  98 141 179 225 278 342 415
#     4  11  23  39  67  98 136 174 219 280 342 400
#     4  10  22  40  67 101 126 175 228 281 341 397
#     4  11  23  40  65  97 136 179 223 283 341 395
#
# _framework density 24.275904000000001
#
# number of rings (size 3 to 8) (size 9 to 14) (size 15 to 20)
#    0.000    1.143    1.429    3.857   10.000    4.000 
#    0.000    0.714    0.000    0.000    0.000    0.000 
#    0.000    0.000    0.000    0.000    0.000    0.000 
#
# Total GULP energy -78281.133898 kJ/mol
# GULP energy per Si atom -5591.509564 kJ/mol
# Density = 2.422065 g / cm^3
# Si number density = 24.275904 Si / 1000 Ang^3
#
#
#
# Elastic Constant Matrix: (Units=GPa)
#
#
# Indices 1 2 3 4 5 6 
#
# 1 70.4797 5.6579 24.2536 10.1954 13.1424 2.6685
# 2 5.6579 94.3897 27.7240 4.3027 -0.4439 9.2834
# 3 24.2536 27.7240 101.7693 4.4862 25.1189 8.6056
# 4 10.1954 4.3027 4.4862 27.8682 0.5457 7.4320
# 5 13.1424 -0.4439 25.1189 0.5457 34.5678 -0.7851
# 6 2.6685 9.2834 8.6056 7.4320 -0.7851 27.8250
#
#
#
# Elastic Compliance Matrix: (Units=1/GPa)
#
#
# Indices 1 2 3 4 5 6 
#
# 1 0.016737 -0.000024 -0.002729 -0.005775 -0.004274 0.000669
# 2 -0.000024 0.011981 -0.003703 -0.000604 0.002804 -0.002609
# 3 -0.002729 -0.003703 0.014032 0.000346 -0.009284 -0.003197
# 4 -0.005775 -0.000604 0.000346 0.040733 0.001062 -0.010201
# 5 -0.004274 0.002804 -0.009284 0.001062 0.037390 0.003117
# 6 0.000669 -0.002609 -0.003197 -0.010201 0.003117 0.040547
#
#
# Mechanical properties :
#
#
# Convention : Reuss Voigt Hill
#
# Bulk Modulus (GPa) = 33.51575 42.43444 37.97510
# Shear Modulus (GPa) = 27.13301 31.98576 29.55939
#
# Velocity S-wave (km/s) = 3.34682 3.63380 3.49326
# Velocity P-wave (km/s) = 5.36387 5.92656 5.65222
#
# Compressibility (1/GPa) = 0.02983672
#
# Stress axis : x y z
#
# Youngs Moduli (GPa) = 59.74951 83.46709 71.26576
#
# Poissons Ratio (x) = 0.00203 0.19449
# Poissons Ratio (y) = 0.00145 0.26389
# Poissons Ratio (z) = 0.16307 0.30907
#
# Static dielectric constant tensor:
#      x y z
#    x 1.970890 -0.008490 -0.005580 
#    y -0.008490 1.976490 0.023340 
#    z -0.005580 0.023340 1.997940 
# 
# From -- ./inp_files/72447.got.cif
#   From: 2010.05.17/outbox.cif.g08.bks.cpg/sg2_37_cif.got.tgz:72447.got - 2010.06.03 11:33:40.
