data_PCOD9025982
_publ_section_title
;
Structure prediction by ZEFSAII (Michael W. Deem and Ramdas Pophale) SiO2 
 PCOD9025982
Probable space group: P -1
;
_chemical_formula_sum "Si O2"
_cell_formula_units_Z 14
_cell_length_a 9.052355
_cell_length_b 22.838058
_cell_length_c 5.241972
_cell_angle_alpha 88.173165
_cell_angle_beta 75.389134
_cell_angle_gamma 141.891834
_cell_volume 597.095975
_symmetry_space_group_name_H-M "P -1"
_symmetry_group_IT_number 2
_symmetry_cell_setting 'triclinic'
loop_
_space_group_symop_operation_xyz
x,y,z
-x,-y,-z
loop_
_atom_site_type_symbol
_atom_site_label
_atom_site_fract_x
_atom_site_fract_y
_atom_site_fract_z
Si Si1 0.188978 0.881704 0.605636
Si Si2 0.314134 0.301143 0.767751
Si Si3 0.607884 0.804642 0.262093
Si Si4 0.017851 0.723023 0.390500
Si Si5 0.625798 0.510837 0.699646
Si Si6 0.903656 0.030947 0.666733
Si Si7 0.584270 0.191398 0.152855
O O1 0.209169 0.825478 0.457090
O O2 0.061636 0.896390 0.500853
O O3 0.500000 0.000000 0.500000
O O4 0.961217 0.797922 0.935216
O O5 0.444230 0.279807 0.664459
O O6 0.537672 0.415665 0.765725
O O7 0.218708 0.305313 0.556119
O O8 0.515192 0.795733 0.027508
O O9 0.928855 0.913508 0.153368
O O10 0.476905 0.800795 0.548386
O O11 0.122137 0.735342 0.066161
O O12 0.924500 0.631865 0.559431
O O13 0.500000 0.500000 0.500000
O O14 0.500000 0.500000 0.000000
O O15 0.000000 0.000000 0.500000
O O16 0.589215 0.921012 0.820443
#
# Coordination Sequence:
#
# PCOD9025982 Si02
#       7
#     2   2   2   2   2   2   2
#     4  12  25  38  68 102 137 172 219 281 334 389
#     4  11  23  43  71  95 133 174 233 271 325 398
#     4  11  24  43  65  94 132 183 220 268 322 404
#     4  11  25  43  66  99 136 171 224 279 335 387
#     4  10  22  42  69  98 127 175 220 275 330 388
#     4  10  22  41  60  91 132 180 218 255 326 398
#     4  11  26  41  64  94 140 175 218 269 337 389
#
# _framework density 23.446814
#
# number of rings (size 3 to 8) (size 9 to 14) (size 15 to 20)
#    0.000    1.143    2.857    3.000    8.000    1.143 
#    0.000    1.429    0.000    0.000    0.000    0.000 
#    0.000    0.000    0.000    0.000    0.000    0.000 
#
# Total GULP energy -78056.329223 kJ/mol
# GULP energy per Si atom -5575.452087 kJ/mol
# Density = 2.339345 g / cm^3
# Si number density = 23.446814 Si / 1000 Ang^3
#
#
#
# Elastic Constant Matrix: (Units=GPa)
#
#
# Indices 1 2 3 4 5 6 
#
# 1 110.5184 36.0731 8.8257 -1.8879 19.3065 -19.7247
# 2 36.0731 168.6128 22.8392 -12.7752 -3.5069 -36.9651
# 3 8.8257 22.8392 88.8949 -5.0909 -8.4776 -10.0891
# 4 -1.8879 -12.7752 -5.0909 37.9841 -4.5288 6.1108
# 5 19.3065 -3.5069 -8.4776 -4.5288 26.0609 5.8665
# 6 -19.7247 -36.9651 -10.0891 6.1108 5.8665 41.2974
#
#
#
# Elastic Compliance Matrix: (Units=1/GPa)
#
#
# Indices 1 2 3 4 5 6 
#
# 1 0.012928 -0.001592 -0.001445 -0.002586 -0.012176 0.006509
# 2 -0.001592 0.007775 -0.001027 0.001610 0.000916 0.005579
# 3 -0.001445 -0.001027 0.012295 0.001781 0.005151 0.000399
# 4 -0.002586 0.001610 0.001781 0.028814 0.008816 -0.004875
# 5 -0.012176 0.000916 0.005151 0.008816 0.053571 -0.012652
# 6 0.006509 0.005579 0.000399 -0.004875 -0.012652 0.034934
#
#
# Mechanical properties :
#
#
# Convention : Reuss Voigt Hill
#
# Bulk Modulus (GPa) = 40.20958 55.94466 48.07712
# Shear Modulus (GPa) = 29.98794 41.08769 35.53781
#
# Velocity S-wave (km/s) = 3.58016 4.19068 3.89739
# Velocity P-wave (km/s) = 5.85462 6.87952 6.38766
#
# Compressibility (1/GPa) = 0.02486969
#
# Stress axis : x y z
#
# Youngs Moduli (GPa) = 77.35222 128.62291 81.33358
#
# Poissons Ratio (x) = 0.20481 0.11752
# Poissons Ratio (y) = 0.12317 0.08350
# Poissons Ratio (z) = 0.11177 0.13205
#
# Static dielectric constant tensor:
#      x y z
#    x 1.942030 0.059900 0.024390 
#    y 0.059900 2.030690 -0.080070 
#    z 0.024390 -0.080070 1.981020 
# 
# From -- ./inp_files/43136.got.cif
#   From: 2010.05.17/outbox.cif.g08.bks.cpg/sg2_22_cif.got.tgz:43136.got - 2010.06.03 11:33:40.
