data_PCOD9025568
_publ_section_title
;
Structure prediction by ZEFSAII (Michael W. Deem and Ramdas Pophale) SiO2 
 PCOD9025568
Probable space group: P -1
;
_chemical_formula_sum "Si O2"
_cell_formula_units_Z 12
_cell_length_a 18.473768
_cell_length_b 12.191181
_cell_length_c 14.295468
_cell_angle_alpha 29.253302
_cell_angle_beta 21.302880
_cell_angle_gamma 25.407183
_cell_volume 491.881365
_symmetry_space_group_name_H-M "P -1"
_symmetry_group_IT_number 2
_symmetry_cell_setting 'triclinic'
loop_
_space_group_symop_operation_xyz
x,y,z
-x,-y,-z
loop_
_atom_site_type_symbol
_atom_site_label
_atom_site_fract_x
_atom_site_fract_y
_atom_site_fract_z
Si Si1 0.999106 0.745004 0.728036
Si Si2 0.130288 0.421020 0.172499
Si Si3 0.789658 0.009903 0.130249
Si Si4 0.369574 0.932719 0.928511
Si Si5 0.511506 0.518845 0.731871
Si Si6 0.129912 0.204556 0.522529
O O1 0.857894 0.681504 0.869362
O O2 0.268331 0.529522 0.556352
O O3 0.000000 0.000000 0.500000
O O4 0.864941 0.824958 0.927448
O O5 0.110411 0.235432 0.410813
O O6 0.902043 0.706231 0.241935
O O7 0.345830 0.450988 0.921775
O O8 0.369637 0.802300 0.736671
O O9 0.656729 0.086642 0.135040
O O10 0.999565 0.064938 0.822599
O O11 0.601366 0.935449 0.671812
O O12 0.406157 0.678979 0.130950
O O13 0.000000 0.500000 0.500000
#
# Coordination Sequence:
#
# PCOD9025568 Si02
#       6
#     2   2   2   2   2   2
#     4  10  23  43  66  95 135 178 220 266 329 397
#     4  11  25  42  68 101 132 175 220 272 333 387
#     4  12  24  42  70 102 133 169 223 277 327 390
#     4  10  23  41  66  96 134 177 220 267 330 391
#     4  10  22  40  69  98 133 172 222 271 332 388
#     4  11  23  41  68  98 133 169 218 271 331 385
#
# _framework density 24.396127
#
# number of rings (size 3 to 8) (size 9 to 14) (size 15 to 20)
#    0.000    1.333    3.333    3.000    2.333   10.000 
#    0.000    1.667    0.000    0.000    0.000    0.000 
#    0.000    0.000    0.000    0.000    0.000    0.000 
#
# Total GULP energy -67322.711949 kJ/mol
# GULP energy per Si atom -5610.225996 kJ/mol
# Density = 2.434060 g / cm^3
# Si number density = 24.396127 Si / 1000 Ang^3
#
#
#
# Elastic Constant Matrix: (Units=GPa)
#
#
# Indices 1 2 3 4 5 6 
#
# 1 85.9116 36.3657 20.5444 -9.7982 -23.5551 1.0183
# 2 36.3657 81.1405 47.5917 7.1360 -0.8667 2.1039
# 3 20.5444 47.5917 112.8424 14.8325 4.2167 0.1448
# 4 -9.7982 7.1360 14.8325 30.0929 -7.8838 2.0185
# 5 -23.5551 -0.8667 4.2167 -7.8838 34.8629 -2.9116
# 6 1.0183 2.1039 0.1448 2.0185 -2.9116 44.2211
#
#
#
# Elastic Compliance Matrix: (Units=1/GPa)
#
#
# Indices 1 2 3 4 5 6 
#
# 1 0.024394 -0.010442 -0.003078 0.017284 0.020546 0.000509
# 2 -0.010442 0.020919 -0.005648 -0.007514 -0.007626 -0.000895
# 3 -0.003078 -0.005648 0.012997 -0.007520 -0.005469 0.000280
# 4 0.017284 -0.007514 -0.007520 0.050629 0.023787 -0.000761
# 5 0.020546 -0.007626 -0.005469 0.023787 0.048585 0.002021
# 6 0.000509 -0.000895 0.000280 -0.000761 0.002021 0.022811
#
#
# Mechanical properties :
#
#
# Convention : Reuss Voigt Hill
#
# Bulk Modulus (GPa) = 50.06101 54.32202 52.19152
# Shear Modulus (GPa) = 22.18973 33.52824 27.85899
#
# Velocity S-wave (km/s) = 3.01916 3.71121 3.38293
# Velocity P-wave (km/s) = 5.72000 6.37802 6.05795
#
# Compressibility (1/GPa) = 0.01997563
#
# Stress axis : x y z
#
# Youngs Moduli (GPa) = 40.99352 47.80259 76.94173
#
# Poissons Ratio (x) = 0.49913 0.23681
# Poissons Ratio (y) = 0.42804 0.43456
# Poissons Ratio (z) = 0.12617 0.26999
#
# Static dielectric constant tensor:
#      x y z
#    x 1.893860 -0.025790 -0.003680 
#    y -0.025790 1.958290 -0.008200 
#    z -0.003680 -0.008200 1.921750 
# 
# From -- ./inp_files/488242.got.cif
#   From: 2010.05.17/outbox.cif.g08.bks.cpg/sg2_245_cif.got.tgz:488242.got - 2010.06.03 11:33:40.
