data_PCOD9025183
_publ_section_title
;
Structure prediction by ZEFSAII (Michael W. Deem and Ramdas Pophale) SiO2 
 PCOD9025183
Probable space group: P -1
;
_chemical_formula_sum "Si O2"
_cell_formula_units_Z 14
_cell_length_a 5.414125
_cell_length_b 20.877360
_cell_length_c 10.591093
_cell_angle_alpha 32.725284
_cell_angle_beta 123.238719
_cell_angle_gamma 122.944395
_cell_volume 532.173008
_symmetry_space_group_name_H-M "P -1"
_symmetry_group_IT_number 2
_symmetry_cell_setting 'triclinic'
loop_
_space_group_symop_operation_xyz
x,y,z
-x,-y,-z
loop_
_atom_site_type_symbol
_atom_site_label
_atom_site_fract_x
_atom_site_fract_y
_atom_site_fract_z
Si Si1 0.082832 0.490537 0.293152
Si Si2 0.109649 0.706108 0.119468
Si Si3 0.315720 0.950721 0.654990
Si Si4 0.700345 0.721515 0.388543
Si Si5 0.292571 0.870712 0.372266
Si Si6 0.547854 0.663639 0.699352
Si Si7 0.485628 0.693083 0.909291
O O1 0.762463 0.428387 0.250847
O O2 0.762889 0.627036 0.456356
O O3 0.269101 0.583884 0.092756
O O4 0.080272 0.569970 0.286075
O O5 0.239566 0.806562 0.883652
O O6 0.779484 0.733058 0.010406
O O7 0.354853 0.729458 0.259556
O O8 0.500000 0.000000 0.500000
O O9 0.530255 0.000552 0.750856
O O10 0.000000 0.000000 0.500000
O O11 0.487747 0.801659 0.448946
O O12 0.733632 0.653205 0.644137
O O13 0.957371 0.839952 0.274986
O O14 0.314655 0.793399 0.636744
O O15 0.638573 0.655415 0.883300
#
# Coordination Sequence:
#
# PCOD9025183 Si02
#       7
#     2   2   2   2   2   2   2
#     4  11  23  41  67 100 142 182 240 287 360 424
#     4  12  27  42  70 102 139 187 237 295 365 430
#     4  12  26  50  78 111 140 186 247 314 358 427
#     4  11  25  44  65 101 146 186 229 293 365 437
#     4   9  23  43  69  97 138 180 235 294 357 417
#     4   9  22  41  68  97 138 180 234 289 357 420
#     4  10  22  40  67  97 130 179 237 284 353 414
#
# _framework density 26.307233
#
# number of rings (size 3 to 8) (size 9 to 14) (size 15 to 20)
#    0.857    0.571    1.429    2.571    6.000    6.286 
#    0.000    0.714    0.000    0.000    0.000    0.000 
#    0.000    0.000    0.000    0.000    0.000    0.000 
#
# Total GULP energy -78203.521422 kJ/mol
# GULP energy per Si atom -5585.965816 kJ/mol
# Density = 2.624736 g / cm^3
# Si number density = 26.307233 Si / 1000 Ang^3
#
#
#
# Elastic Constant Matrix: (Units=GPa)
#
#
# Indices 1 2 3 4 5 6 
#
# 1 90.7753 31.2060 32.4447 -0.7699 -2.4309 13.4082
# 2 31.2060 163.3362 44.1601 -10.1834 13.9486 27.1273
# 3 32.4447 44.1601 67.1348 19.2965 1.4313 8.3495
# 4 -0.7699 -10.1834 19.2965 40.6278 14.3835 2.7668
# 5 -2.4309 13.9486 1.4313 14.3835 40.4522 14.9092
# 6 13.4082 27.1273 8.3495 2.7668 14.9092 45.6700
#
#
#
# Elastic Compliance Matrix: (Units=1/GPa)
#
#
# Indices 1 2 3 4 5 6 
#
# 1 0.014283 0.000038 -0.007609 0.003762 0.001025 -0.003387
# 2 0.000038 0.009881 -0.008437 0.008445 -0.004913 -0.003246
# 3 -0.007609 -0.008437 0.029390 -0.019097 0.008055 0.000400
# 4 0.003762 0.008445 -0.019097 0.041881 -0.017049 0.000399
# 5 0.001025 -0.004913 0.008055 -0.017049 0.035752 -0.009494
# 6 -0.003387 -0.003246 0.000400 0.000399 -0.009494 0.027821
#
#
# Mechanical properties :
#
#
# Convention : Reuss Voigt Hill
#
# Bulk Modulus (GPa) = 46.43122 59.65200 53.04161
# Shear Modulus (GPa) = 25.22658 39.57904 32.40281
#
# Velocity S-wave (km/s) = 3.10001 3.88299 3.51338
# Velocity P-wave (km/s) = 5.52280 6.54430 6.05513
#
# Compressibility (1/GPa) = 0.02153723
#
# Stress axis : x y z
#
# Youngs Moduli (GPa) = 70.01556 101.20150 34.02492
#
# Poissons Ratio (x) = -0.00386 0.25891
# Poissons Ratio (y) = -0.00267 0.28707
# Poissons Ratio (z) = 0.53278 0.85385
#
# Static dielectric constant tensor:
#      x y z
#    x 2.048710 -0.060240 0.023850 
#    y -0.060240 2.049710 -0.012190 
#    z 0.023850 -0.012190 2.151270 
# 
# From -- ./inp_files/370380.got.cif
#   From: 2010.05.17/outbox.cif.g08.bks.cpg/sg2_186_cif.got.tgz:370380.got - 2010.06.03 11:33:40.
