data_PCOD9025882
_publ_section_title
;
Structure prediction by ZEFSAII (Michael W. Deem and Ramdas Pophale) SiO2 
 PCOD9025882
Probable space group: P -1
;
_chemical_formula_sum "Si O2"
_cell_formula_units_Z 16
_cell_length_a 12.113199
_cell_length_b 8.982261
_cell_length_c 18.231489
_cell_angle_alpha 49.113802
_cell_angle_beta 32.786640
_cell_angle_gamma 60.052544
_cell_volume 805.742690
_symmetry_space_group_name_H-M "P -1"
_symmetry_group_IT_number 2
_symmetry_cell_setting 'triclinic'
loop_
_space_group_symop_operation_xyz
x,y,z
-x,-y,-z
loop_
_atom_site_type_symbol
_atom_site_label
_atom_site_fract_x
_atom_site_fract_y
_atom_site_fract_z
Si Si1 0.991463 0.679752 0.798391
Si Si2 0.549500 0.370680 0.670025
Si Si3 0.671301 0.444029 0.866225
Si Si4 0.552290 0.210282 0.443100
Si Si5 0.863867 0.243913 0.950849
Si Si6 0.032980 0.778127 0.572768
Si Si7 0.568822 0.790200 0.051690
Si Si8 0.312847 0.135681 0.751179
O O1 0.907933 0.447781 0.906554
O O2 0.203105 0.721058 0.711340
O O3 0.035191 0.758183 0.665982
O O4 0.808221 0.781578 0.903872
O O5 0.552278 0.608534 0.592542
O O6 0.763196 0.296934 0.549733
O O7 0.481629 0.271644 0.817001
O O8 0.387561 0.289451 0.723895
O O9 0.782124 0.286584 0.902067
O O10 0.562347 0.363785 0.879587
O O11 0.838906 0.631533 0.699830
O O12 0.500000 0.500000 0.000000
O O13 0.464023 0.177917 0.585090
O O14 0.500000 0.000000 0.500000
O O15 0.083165 0.164787 0.846079
O O16 0.705717 0.083964 0.133136
O O17 0.000000 0.000000 0.500000
O O18 0.500000 0.000000 0.000000
#
# Coordination Sequence:
#
# PCOD9025882 Si02
#       8
#     2   2   2   2   2   2   2   2
#     4  11  23  45  68  97 142 175 232 279 347 412
#     4  12  26  44  72 101 144 181 230 290 347 408
#     4  11  23  42  69  97 137 178 231 275 335 408
#     4  12  27  43  70 103 141 182 230 291 348 410
#     4  10  22  40  74 100 126 186 226 278 340 417
#     4  11  24  42  73 101 132 190 232 277 345 417
#     4  12  27  44  69 105 140 181 231 290 340 405
#     4  11  23  44  72  99 135 177 232 280 347 409
#
# _framework density 19.857454000000001
#
# number of rings (size 3 to 8) (size 9 to 14) (size 15 to 20)
#    0.000    0.750    5.000    3.375    3.500    6.000 
#    0.000    0.000    0.000    0.000    0.000    0.000 
#    0.000    0.000    0.000    0.000    0.000    0.000 
#
# Total GULP energy -89477.696964 kJ/mol
# GULP energy per Si atom -5592.356060 kJ/mol
# Density = 1.981226 g / cm^3
# Si number density = 19.857454 Si / 1000 Ang^3
#
#
#
# Elastic Constant Matrix: (Units=GPa)
#
#
# Indices 1 2 3 4 5 6 
#
# 1 87.2440 35.8376 38.1127 9.6623 5.3214 5.2790
# 2 35.8376 119.9650 60.9844 -3.7930 16.7271 -21.9114
# 3 38.1127 60.9844 117.0019 22.3611 11.8207 -13.3313
# 4 9.6623 -3.7930 22.3611 36.2520 -6.2422 4.5600
# 5 5.3214 16.7271 11.8207 -6.2422 37.5549 7.1753
# 6 5.2790 -21.9114 -13.3313 4.5600 7.1753 27.7278
#
#
#
# Elastic Compliance Matrix: (Units=1/GPa)
#
#
# Indices 1 2 3 4 5 6 
#
# 1 0.015540 -0.004825 -0.003731 -0.000719 0.002752 -0.009159
# 2 -0.004825 0.015584 -0.005281 0.003628 -0.006229 0.011710
# 3 -0.003731 -0.005281 0.016122 -0.011413 -0.005543 0.007600
# 4 -0.000719 0.003628 -0.011413 0.038493 0.010688 -0.011579
# 5 0.002752 -0.006229 -0.005543 0.010688 0.036209 -0.019239
# 6 -0.009159 0.011710 0.007600 -0.011579 -0.019239 0.057599
#
#
# Mechanical properties :
#
#
# Convention : Reuss Voigt Hill
#
# Bulk Modulus (GPa) = 51.09482 66.00891 58.55187
# Shear Modulus (GPa) = 23.39240 32.92535 28.15888
#
# Velocity S-wave (km/s) = 3.43595 4.07638 3.76979
# Velocity P-wave (km/s) = 6.44419 7.44777 6.96409
#
# Compressibility (1/GPa) = 0.01957145
#
# Stress axis : x y z
#
# Youngs Moduli (GPa) = 64.34946 64.16984 62.02732
#
# Poissons Ratio (x) = 0.30961 0.23145
# Poissons Ratio (y) = 0.31048 0.32755
# Poissons Ratio (z) = 0.24012 0.33887
#
# Static dielectric constant tensor:
#      x y z
#    x 1.744270 -0.123970 -0.021410 
#    y -0.123970 1.914210 -0.002440 
#    z -0.021410 -0.002440 1.682610 
# 
# From -- ./inp_files/208631.got.cif
#   From: 2010.05.17/outbox.cif.g08.bks.cpg/sg2_105_cif.got.tgz:208631.got - 2010.06.03 11:33:40.
