data_PCOD9025205
_publ_section_title
;
Structure prediction by ZEFSAII (Michael W. Deem and Ramdas Pophale) SiO2 
 PCOD9025205
Probable space group: P -1
;
_chemical_formula_sum "Si O2"
_cell_formula_units_Z 14
_cell_length_a 11.201851
_cell_length_b 14.386980
_cell_length_c 9.313163
_cell_angle_alpha 44.651380
_cell_angle_beta 55.187757
_cell_angle_gamma 88.470662
_cell_volume 652.453894
_symmetry_space_group_name_H-M "P -1"
_symmetry_group_IT_number 2
_symmetry_cell_setting 'triclinic'
loop_
_space_group_symop_operation_xyz
x,y,z
-x,-y,-z
loop_
_atom_site_type_symbol
_atom_site_label
_atom_site_fract_x
_atom_site_fract_y
_atom_site_fract_z
Si Si1 0.541235 0.589716 0.219100
Si Si2 0.171976 0.754334 0.233657
Si Si3 0.594196 0.448997 0.096827
Si Si4 0.807785 0.526657 0.591735
Si Si5 0.574823 0.875617 0.251102
Si Si6 0.850104 0.294685 0.365390
Si Si7 0.186921 0.022981 0.309731
O O1 0.500000 0.500000 0.500000
O O2 0.673098 0.575279 0.042460
O O3 0.338082 0.477191 0.399890
O O4 0.638390 0.791876 0.938107
O O5 0.187572 0.612270 0.333229
O O6 0.111792 0.715986 0.483382
O O7 0.014302 0.715969 0.272393
O O8 0.361102 0.956726 0.889343
O O9 0.451057 0.258505 0.473422
O O10 0.500000 0.500000 0.000000
O O11 0.733777 0.459404 0.879339
O O12 0.368815 0.781389 0.420564
O O13 0.733135 0.933679 0.957512
O O14 0.853943 0.156060 0.431006
O O15 0.000000 0.500000 0.000000
O O16 0.000000 0.000000 0.500000
#
# Coordination Sequence:
#
# PCOD9025205 Si02
#       7
#     2   2   2   2   2   2   2
#     4  11  22  42  69  94 136 184 230 283 345 413
#     4  10  22  40  67  98 135 176 227 289 350 417
#     4  10  23  41  64  96 132 185 222 283 350 410
#     4  10  22  42  64  95 137 176 229 280 352 418
#     4  11  22  43  71  99 140 185 236 295 344 417
#     4  11  24  43  72 105 142 184 237 294 351 416
#     4  11  25  40  68 111 141 178 238 292 349 415
#
# _framework density 21.457456000000001
#
# number of rings (size 3 to 8) (size 9 to 14) (size 15 to 20)
#    0.000    1.429    1.429    4.286    6.000    0.571 
#    0.000   11.429    0.000    0.000    0.000    0.000 
#    0.000    0.000    0.000    0.000    0.000    0.000 
#
# Total GULP energy -78047.817300 kJ/mol
# GULP energy per Si atom -5574.844093 kJ/mol
# Density = 2.140862 g / cm^3
# Si number density = 21.457456 Si / 1000 Ang^3
#
#
#
# Elastic Constant Matrix: (Units=GPa)
#
#
# Indices 1 2 3 4 5 6 
#
# 1 105.4379 22.3004 42.2875 -9.7183 -14.0338 14.6839
# 2 22.3004 129.1125 33.6633 -14.4689 -5.2587 3.9676
# 3 42.2875 33.6633 83.1591 -25.4927 -3.2239 2.4052
# 4 -9.7183 -14.4689 -25.4927 45.1796 -5.2106 -3.5202
# 5 -14.0338 -5.2587 -3.2239 -5.2106 34.5604 -4.8848
# 6 14.6839 3.9676 2.4052 -3.5202 -4.8848 36.9728
#
#
#
# Elastic Compliance Matrix: (Units=1/GPa)
#
#
# Indices 1 2 3 4 5 6 
#
# 1 0.013255 -0.000377 -0.006571 -0.000859 0.003967 -0.004354
# 2 -0.000377 0.008762 -0.002952 0.001150 0.001028 -0.000353
# 3 -0.006571 -0.002952 0.019166 0.008694 0.000342 0.002553
# 4 -0.000859 0.001150 0.008694 0.028070 0.005297 0.003025
# 5 0.003967 0.001028 0.000342 0.005297 0.031959 0.003019
# 6 -0.004354 -0.000353 0.002553 0.003025 0.003019 0.029335
#
#
# Mechanical properties :
#
#
# Convention : Reuss Voigt Hill
#
# Bulk Modulus (GPa) = 46.76942 57.13465 51.95203
# Shear Modulus (GPa) = 31.75112 37.97311 34.86212
#
# Velocity S-wave (km/s) = 3.85089 4.21134 4.03514
# Velocity P-wave (km/s) = 6.45106 7.09450 6.78041
#
# Compressibility (1/GPa) = 0.02138149
#
# Stress axis : x y z
#
# Youngs Moduli (GPa) = 75.44531 114.13322 52.17444
#
# Poissons Ratio (x) = 0.04302 0.34285
# Poissons Ratio (y) = 0.02844 0.15404
# Poissons Ratio (z) = 0.49577 0.33698
#
# Static dielectric constant tensor:
#      x y z
#    x 1.847420 -0.065040 -0.072850 
#    y -0.065040 1.837810 0.011040 
#    z -0.072850 0.011040 1.841000 
# 
# From -- ./inp_files/269560.got.cif
#   From: 2010.05.17/outbox.cif.g08.bks.cpg/sg2_135_cif.got.tgz:269560.got - 2010.06.03 11:33:40.
