data_PCOD9025088
_publ_section_title
;
Structure prediction by ZEFSAII (Michael W. Deem and Ramdas Pophale) SiO2 
 PCOD9025088
Probable space group: P -1
;
_chemical_formula_sum "Si O2"
_cell_formula_units_Z 16
_cell_length_a 9.708407
_cell_length_b 21.683016
_cell_length_c 19.130517
_cell_angle_alpha 161.294999
_cell_angle_beta 145.402347
_cell_angle_gamma 35.566054
_cell_volume 720.599242
_symmetry_space_group_name_H-M "P -1"
_symmetry_group_IT_number 2
_symmetry_cell_setting 'triclinic'
loop_
_space_group_symop_operation_xyz
x,y,z
-x,-y,-z
loop_
_atom_site_type_symbol
_atom_site_label
_atom_site_fract_x
_atom_site_fract_y
_atom_site_fract_z
Si Si1 0.706179 0.674206 0.101337
Si Si2 0.952242 0.494278 0.556664
Si Si3 0.450259 0.139654 0.195499
Si Si4 0.719464 0.973699 0.661002
Si Si5 0.127304 0.911355 0.887615
Si Si6 0.959526 0.123690 0.445972
Si Si7 0.785451 0.935147 0.294131
Si Si8 0.482946 0.304510 0.629825
O O1 0.724945 0.744476 0.103703
O O2 0.931348 0.731843 0.301412
O O3 0.464724 0.821078 0.187202
O O4 0.672683 0.452988 0.862748
O O5 0.785966 0.688864 0.725195
O O6 0.809594 0.319314 0.325092
O O7 0.000000 0.500000 0.500000
O O8 0.220523 0.432361 0.636177
O O9 0.696918 0.215791 0.400995
O O10 0.500000 0.000000 0.000000
O O11 0.365586 0.001797 0.070715
O O12 0.562090 0.804874 0.434230
O O13 0.934202 0.957846 0.792569
O O14 0.846200 0.942140 0.605030
O O15 0.000000 0.000000 0.000000
O O16 0.895366 0.942915 0.271078
O O17 0.564254 0.120868 0.414556
O O18 0.000000 0.000000 0.500000
#
# Coordination Sequence:
#
# PCOD9025088 Si02
#       8
#     2   2   2   2   2   2   2   2
#     4  10  22  41  68  89 125 174 219 259 324 384
#     4  11  23  40  67  98 125 170 229 265 318 405
#     4  12  25  43  65  97 137 170 212 282 342 377
#     4  10  22  43  62  96 130 163 218 266 320 403
#     4  11  23  42  72  95 125 174 221 269 331 397
#     4  11  23  41  62  94 134 166 211 269 327 398
#     4   9  21  40  63  92 128 162 213 269 318 383
#     4  10  22  40  67  92 126 168 220 269 313 396
#
# _framework density 22.203742999999999
#
# number of rings (size 3 to 8) (size 9 to 14) (size 15 to 20)
#    0.000    1.500    2.500    1.875    3.500    3.000 
#    0.000    5.000    0.000    0.000    0.000    0.000 
#    0.000    0.000    0.000    0.000    0.000    0.000 
#
# Total GULP energy -89414.385836 kJ/mol
# GULP energy per Si atom -5588.399115 kJ/mol
# Density = 2.215321 g / cm^3
# Si number density = 22.203743 Si / 1000 Ang^3
#
#
#
# Elastic Constant Matrix: (Units=GPa)
#
#
# Indices 1 2 3 4 5 6 
#
# 1 182.2833 31.5511 56.2308 12.7352 0.4508 5.9842
# 2 31.5511 75.9113 38.7572 5.7654 -8.5194 -10.5246
# 3 56.2308 38.7572 107.8018 14.2173 17.3632 3.6605
# 4 12.7352 5.7654 14.2173 29.3558 -0.8985 -3.2511
# 5 0.4508 -8.5194 17.3632 -0.8985 38.1477 -1.3862
# 6 5.9842 -10.5246 3.6605 -3.2511 -1.3862 29.5564
#
#
#
# Elastic Compliance Matrix: (Units=1/GPa)
#
#
# Indices 1 2 3 4 5 6 
#
# 1 0.006776 -0.001316 -0.002966 -0.001393 0.000886 -0.001585
# 2 -0.001316 0.020203 -0.008576 0.002041 0.008812 0.009161
# 3 -0.002966 -0.008576 0.016439 -0.005907 -0.009705 -0.005594
# 4 -0.001393 0.002041 -0.005907 0.037937 0.004277 0.006114
# 5 0.000886 0.008812 -0.009705 0.004277 0.032914 0.006174
# 6 -0.001585 0.009161 -0.005594 0.006114 0.006174 0.039071
#
#
# Mechanical properties :
#
#
# Convention : Reuss Voigt Hill
#
# Bulk Modulus (GPa) = 56.49704 68.78606 62.64155
# Shear Modulus (GPa) = 27.03308 35.37580 31.20444
#
# Velocity S-wave (km/s) = 3.49306 3.99587 3.75289
# Velocity P-wave (km/s) = 6.46287 7.23436 6.85947
#
# Compressibility (1/GPa) = 0.01770004
#
# Stress axis : x y z
#
# Youngs Moduli (GPa) = 147.57908 49.49730 60.83071
#
# Poissons Ratio (x) = 0.06516 0.18044
# Poissons Ratio (y) = 0.19428 0.52171
# Poissons Ratio (z) = 0.43777 0.42451
#
# Static dielectric constant tensor:
#      x y z
#    x 1.842660 0.016960 0.039810 
#    y 0.016960 1.883710 -0.009870 
#    z 0.039810 -0.009870 1.832600 
# 
# From -- ./inp_files/562991.got.cif
#   From: 2010.05.17/outbox.cif.g08.bks.cpg/sg2_282_cif.got.tgz:562991.got - 2010.06.03 11:33:40.
