data_PCOD9025756
_publ_section_title
;
Structure prediction by ZEFSAII (Michael W. Deem and Ramdas Pophale) SiO2 
 PCOD9025756
Probable space group: P -1
;
_chemical_formula_sum "Si O2"
_cell_formula_units_Z 16
_cell_length_a 12.158492
_cell_length_b 9.546622
_cell_length_c 21.640823
_cell_angle_alpha 152.500435
_cell_angle_beta 39.166829
_cell_angle_gamma 133.643937
_cell_volume 732.513665
_symmetry_space_group_name_H-M "P -1"
_symmetry_group_IT_number 2
_symmetry_cell_setting 'triclinic'
loop_
_space_group_symop_operation_xyz
x,y,z
-x,-y,-z
loop_
_atom_site_type_symbol
_atom_site_label
_atom_site_fract_x
_atom_site_fract_y
_atom_site_fract_z
Si Si1 0.565319 0.731300 0.152177
Si Si2 0.304024 0.604903 0.634892
Si Si3 0.243489 0.676178 0.190676
Si Si4 0.106773 0.676576 0.971329
Si Si5 0.484313 0.649108 0.848326
Si Si6 0.097980 0.274113 0.703395
Si Si7 0.165859 0.625709 0.440056
Si Si8 0.960913 0.620530 0.727919
O O1 0.385466 0.826188 0.233064
O O2 0.533378 0.569578 0.168958
O O3 0.684377 0.030601 0.221059
O O4 0.652984 0.487297 0.973159
O O5 0.500000 0.500000 0.500000
O O6 0.223709 0.427311 0.658588
O O7 0.163110 0.543374 0.618529
O O8 0.082080 0.846145 0.296288
O O9 0.142100 0.442168 0.188209
O O10 0.310814 0.625686 0.874242
O O11 0.054616 0.534772 0.873144
O O12 0.000000 0.500000 0.000000
O O13 0.064235 0.026852 0.135561
O O14 0.654819 0.551648 0.697924
O O15 0.500000 0.000000 0.000000
O O16 0.184503 0.983570 0.583454
O O17 0.000000 0.500000 0.500000
O O18 0.124487 0.570321 0.364130
#
# Coordination Sequence:
#
# PCOD9025756 Si02
#       8
#     2   2   2   2   2   2   2   2
#     4  11  22  41  67 105 130 171 232 280 342 402
#     4  11  25  40  68  98 138 176 220 287 351 404
#     4  10  22  40  71  93 135 171 223 283 338 406
#     4  12  24  43  72  99 137 184 229 285 340 408
#     4  12  25  45  72 100 141 184 240 278 335 418
#     4  11  26  43  67 101 137 173 227 280 351 401
#     4  12  27  45  69 101 141 187 232 283 342 409
#     4  11  23  45  65  97 138 180 230 279 341 410
#
# _framework density 21.842594999999999
#
# number of rings (size 3 to 8) (size 9 to 14) (size 15 to 20)
#    0.000    0.750    2.500    4.500    3.500    5.500 
#    0.000    0.000    0.000    0.000    0.000    0.000 
#    0.000    0.000    0.000    0.000    0.000    0.000 
#
# Total GULP energy -89476.970094 kJ/mol
# GULP energy per Si atom -5592.310631 kJ/mol
# Density = 2.179288 g / cm^3
# Si number density = 21.842595 Si / 1000 Ang^3
#
#
#
# Elastic Constant Matrix: (Units=GPa)
#
#
# Indices 1 2 3 4 5 6 
#
# 1 77.0551 -3.3147 -6.0652 -13.6771 -20.5611 17.8750
# 2 -3.3147 78.6091 18.6923 -15.2168 -10.9046 7.6178
# 3 -6.0652 18.6923 68.9383 -7.4254 -19.4734 -0.4947
# 4 -13.6771 -15.2168 -7.4254 39.2925 11.7305 2.6578
# 5 -20.5611 -10.9046 -19.4734 11.7305 35.9509 -7.2716
# 6 17.8750 7.6178 -0.4947 2.6578 -7.2716 30.4342
#
#
#
# Elastic Compliance Matrix: (Units=1/GPa)
#
#
# Indices 1 2 3 4 5 6 
#
# 1 0.019950 0.003588 0.004410 0.006738 0.010541 -0.010613
# 2 0.003588 0.015673 -0.002724 0.006655 0.001905 -0.006201
# 3 0.004410 -0.002724 0.019126 0.000367 0.012196 0.001285
# 4 0.006738 0.006655 0.000367 0.033157 -0.006799 -0.010137
# 5 0.010541 0.001905 0.012196 -0.006799 0.044194 0.004683
# 6 -0.010613 -0.006201 0.001285 -0.010137 0.004683 0.042668
#
#
# Mechanical properties :
#
#
# Convention : Reuss Voigt Hill
#
# Bulk Modulus (GPa) = 15.31463 27.02524 21.16994
# Shear Modulus (GPa) = 26.88350 35.48818 31.18584
#
# Velocity S-wave (km/s) = 3.51206 4.03516 3.78266
# Velocity P-wave (km/s) = 4.84486 5.84034 5.36574
#
# Compressibility (1/GPa) = 0.06529705
#
# Stress axis : x y z
#
# Youngs Moduli (GPa) = 50.12520 63.80211 52.28491
#
# Poissons Ratio (x) = -0.22891 -0.23056
# Poissons Ratio (y) = -0.17984 0.14241
# Poissons Ratio (z) = -0.22104 0.17378
#
# Static dielectric constant tensor:
#      x y z
#    x 1.828360 0.004940 -0.029040 
#    y 0.004940 1.752260 -0.001210 
#    z -0.029040 -0.001210 1.768080 
# 
# From -- ./inp_files/261823.got.cif
#   From: 2010.05.17/outbox.cif.g08.bks.cpg/sg2_131_cif.got.tgz:261823.got - 2010.06.03 11:33:40.
