data_PCOD9025486
_publ_section_title
;
Structure prediction by ZEFSAII (Michael W. Deem and Ramdas Pophale) SiO2 
 PCOD9025486
Probable space group: P -1
;
_chemical_formula_sum "Si O2"
_cell_formula_units_Z 16
_cell_length_a 15.907487
_cell_length_b 8.465900
_cell_length_c 11.491534
_cell_angle_alpha 138.122467
_cell_angle_beta 144.484159
_cell_angle_gamma 44.358698
_cell_volume 575.978358
_symmetry_space_group_name_H-M "P -1"
_symmetry_group_IT_number 2
_symmetry_cell_setting 'triclinic'
loop_
_space_group_symop_operation_xyz
x,y,z
-x,-y,-z
loop_
_atom_site_type_symbol
_atom_site_label
_atom_site_fract_x
_atom_site_fract_y
_atom_site_fract_z
Si Si1 0.998618 0.379609 0.805643
Si Si2 0.340865 0.321546 0.686132
Si Si3 0.884990 0.878693 0.572247
Si Si4 0.239072 0.810921 0.969877
Si Si5 0.741367 0.925338 0.183680
Si Si6 0.589618 0.835711 0.750955
Si Si7 0.863915 0.228257 0.926818
Si Si8 0.353056 0.534807 0.578421
O O1 0.828652 0.391070 0.597201
O O2 0.111019 0.113103 0.754532
O O3 0.064710 0.549895 0.888714
O O4 0.000000 0.500000 0.000000
O O5 0.171627 0.300128 0.502830
O O6 0.338928 0.574576 0.885295
O O7 0.443821 0.068300 0.715259
O O8 0.387391 0.344231 0.618968
O O9 0.064471 0.835593 0.753339
O O10 0.809503 0.858058 0.352003
O O11 0.820328 0.146455 0.707030
O O12 0.291979 0.049270 0.125456
O O13 0.254126 0.748640 0.090102
O O14 0.629524 0.201036 0.220068
O O15 0.650596 0.780443 0.920740
O O16 0.577261 0.603461 0.535674
O O17 0.000000 0.000000 0.000000
#
# Coordination Sequence:
#
# PCOD9025486 Si02
#       8
#     2   2   2   2   2   2   2   2
#     4  12  23  41  70 107 149 180 226 294 358 410
#     4  12  25  46  71 101 141 188 241 291 346 420
#     4  11  24  43  69 107 141 180 232 294 354 418
#     4  11  22  44  74 103 141 179 238 300 351 403
#     4  12  27  43  70 106 144 186 234 284 358 426
#     4  12  27  46  70 105 142 188 237 289 350 418
#     4  10  22  40  69 105 141 179 227 290 353 405
#     4  12  24  43  72 101 139 186 240 288 344 421
#
# _framework density 27.778821000000001
#
# number of rings (size 3 to 8) (size 9 to 14) (size 15 to 20)
#    0.000    0.500    2.500    7.500    1.750    0.500 
#    0.000    0.625    0.000    0.000    0.000    0.000 
#    0.000    0.000    0.000    0.000    0.000    0.000 
#
# Total GULP energy -89667.831974 kJ/mol
# GULP energy per Si atom -5604.239498 kJ/mol
# Density = 2.771560 g / cm^3
# Si number density = 27.778821 Si / 1000 Ang^3
#
#
#
# Elastic Constant Matrix: (Units=GPa)
#
#
# Indices 1 2 3 4 5 6 
#
# 1 150.1075 29.9607 55.5790 -2.5998 -20.1367 -3.9962
# 2 29.9607 86.8321 29.4643 1.3764 -23.2850 -13.6492
# 3 55.5790 29.4643 133.3283 6.3750 -49.2407 -5.8374
# 4 -2.5998 1.3764 6.3750 53.0666 -0.4585 -5.1415
# 5 -20.1367 -23.2850 -49.2407 -0.4585 61.5871 9.8695
# 6 -3.9962 -13.6492 -5.8374 -5.1415 9.8695 36.3582
#
#
#
# Elastic Compliance Matrix: (Units=1/GPa)
#
#
# Indices 1 2 3 4 5 6 
#
# 1 0.008179 -0.001907 -0.003269 0.000833 -0.000646 -0.000049
# 2 -0.001907 0.013997 -0.000907 0.000070 0.003301 0.004013
# 3 -0.003269 -0.000907 0.012256 -0.001660 0.008583 -0.001297
# 4 0.000833 0.000070 -0.001660 0.019357 -0.001359 0.002957
# 5 -0.000646 0.003301 0.008583 -0.001359 0.024829 -0.004386
# 6 -0.000049 0.004013 -0.001297 0.002957 -0.004386 0.030406
#
#
# Mechanical properties :
#
#
# Convention : Reuss Voigt Hill
#
# Bulk Modulus (GPa) = 44.91012 66.69731 55.80372
# Shear Modulus (GPa) = 38.87677 47.21998 43.04837
#
# Velocity S-wave (km/s) = 3.74506 4.12740 3.94087
# Velocity P-wave (km/s) = 5.90786 6.83931 6.39058
#
# Compressibility (1/GPa) = 0.02226669
#
# Stress axis : x y z
#
# Youngs Moduli (GPa) = 122.26035 71.44322 81.59552
#
# Poissons Ratio (x) = 0.13625 0.26671
# Poissons Ratio (y) = 0.23317 0.07399
# Poissons Ratio (z) = 0.39963 0.06478
#
# Static dielectric constant tensor:
#      x y z
#    x 2.197530 0.010780 0.023580 
#    y 0.010780 2.232430 -0.002660 
#    z 0.023580 -0.002660 2.201820 
# 
# From -- ./inp_files/462598.got.cif
#   From: 2010.05.17/outbox.cif.g08.bks.cpg/sg2_232_cif.got.tgz:462598.got - 2010.06.03 11:33:40.
