data_PCOD9025459
_publ_section_title
;
Structure prediction by ZEFSAII (Michael W. Deem and Ramdas Pophale) SiO2 
 PCOD9025459
Probable space group: P -1
;
_chemical_formula_sum "Si O2"
_cell_formula_units_Z 14
_cell_length_a 11.243455
_cell_length_b 9.100606
_cell_length_c 7.246766
_cell_angle_alpha 127.937593
_cell_angle_beta 96.838066
_cell_angle_gamma 70.988966
_cell_volume 549.624320
_symmetry_space_group_name_H-M "P -1"
_symmetry_group_IT_number 2
_symmetry_cell_setting 'triclinic'
loop_
_space_group_symop_operation_xyz
x,y,z
-x,-y,-z
loop_
_atom_site_type_symbol
_atom_site_label
_atom_site_fract_x
_atom_site_fract_y
_atom_site_fract_z
Si Si1 0.449033 0.278179 0.807623
Si Si2 0.301528 0.043358 0.756678
Si Si3 0.482103 0.297600 0.274102
Si Si4 0.290262 0.700750 0.094685
Si Si5 0.207711 0.353322 0.284787
Si Si6 0.878126 0.216720 0.545036
Si Si7 0.091505 0.062784 0.206255
O O1 0.376797 0.118458 0.668836
O O2 0.590570 0.257104 0.749446
O O3 0.534715 0.697084 0.947003
O O4 0.355822 0.481428 0.866288
O O5 0.407651 0.894294 0.789608
O O6 0.204924 0.925627 0.611497
O O7 0.222137 0.240934 0.003736
O O8 0.500000 0.500000 0.500000
O O9 0.351897 0.288359 0.329836
O O10 0.173303 0.696032 0.197794
O O11 0.223251 0.883663 0.093298
O O12 0.162080 0.587506 0.438396
O O13 0.120438 0.259722 0.311119
O O14 0.979462 0.896822 0.578641
O O15 0.000000 0.000000 0.000000
#
# Coordination Sequence:
#
# PCOD9025459 Si02
#       7
#     2   2   2   2   2   2   2
#     4  10  22  40  69 102 139 175 221 290 349 406
#     4  11  20  39  68 102 134 175 224 285 346 397
#     4  11  19  36  69 103 135 173 222 284 344 403
#     4  11  23  45  67 100 140 176 228 287 343 402
#     4  11  22  43  66  99 136 174 236 282 334 402
#     4  12  24  44  69  99 137 179 232 278 336 414
#     4  12  26  45  70  98 137 190 233 277 334 405
#
# _framework density 25.471944000000001
#
# number of rings (size 3 to 8) (size 9 to 14) (size 15 to 20)
#    0.000    0.857    5.714    4.286    0.000    0.571 
#    0.000    8.571    0.000    0.000    0.000    0.000 
#    0.000    0.000    0.000    0.000    0.000    0.000 
#
# Total GULP energy -78320.579349 kJ/mol
# GULP energy per Si atom -5594.327096 kJ/mol
# Density = 2.541397 g / cm^3
# Si number density = 25.471944 Si / 1000 Ang^3
#
#
#
# Elastic Constant Matrix: (Units=GPa)
#
#
# Indices 1 2 3 4 5 6 
#
# 1 154.0823 61.6465 14.3458 14.3421 4.0156 14.7664
# 2 61.6465 122.6027 34.3795 40.7872 10.8500 -4.2399
# 3 14.3458 34.3795 78.8858 31.8442 11.0818 1.9718
# 4 14.3421 40.7872 31.8442 44.0624 15.8788 1.9803
# 5 4.0156 10.8500 11.0818 15.8788 35.1385 7.9642
# 6 14.7664 -4.2399 1.9718 1.9803 7.9642 67.1556
#
#
#
# Elastic Compliance Matrix: (Units=1/GPa)
#
#
# Indices 1 2 3 4 5 6 
#
# 1 0.008535 -0.005010 -0.000145 0.001980 0.000238 -0.002275
# 2 -0.005010 0.014915 -0.000966 -0.012005 0.001179 0.002286
# 3 -0.000145 -0.000966 0.017996 -0.012114 0.000163 -0.000220
# 4 0.001980 -0.012005 -0.012114 0.046904 -0.013761 -0.000589
# 5 0.000238 0.001179 0.000163 -0.013761 0.035082 -0.003737
# 6 -0.002275 0.002286 -0.000220 -0.000589 -0.003737 0.016002
#
#
# Mechanical properties :
#
#
# Convention : Reuss Voigt Hill
#
# Bulk Modulus (GPa) = 34.23900 64.03493 49.13697
# Shear Modulus (GPa) = 30.97698 45.61787 38.29742
#
# Velocity S-wave (km/s) = 3.49108 4.23650 3.88172
# Velocity P-wave (km/s) = 5.45171 7.00889 6.27876
#
# Compressibility (1/GPa) = 0.02920646
#
# Stress axis : x y z
#
# Youngs Moduli (GPa) = 117.15977 67.04802 55.56654
#
# Poissons Ratio (x) = 0.33588 0.00805
# Poissons Ratio (y) = 0.58692 0.05365
# Poissons Ratio (z) = 0.01697 0.06474
#
# Static dielectric constant tensor:
#      x y z
#    x 2.017330 0.037570 -0.063910 
#    y 0.037570 2.039410 -0.035770 
#    z -0.063910 -0.035770 2.078910 
# 
# From -- ./inp_files/293561.got.cif
#   From: 2010.05.17/outbox.cif.g08.bks.cpg/sg2_147_cif.got.tgz:293561.got - 2010.06.03 11:33:40.
