data_PCOD9025641
_publ_section_title
;
Structure prediction by ZEFSAII (Michael W. Deem and Ramdas Pophale) SiO2 
 PCOD9025641
Probable space group: P -1
;
_chemical_formula_sum "Si O2"
_cell_formula_units_Z 14
_cell_length_a 10.647355
_cell_length_b 5.624801
_cell_length_c 11.453623
_cell_angle_alpha 81.207520
_cell_angle_beta 124.033135
_cell_angle_gamma 92.519820
_cell_volume 561.050622
_symmetry_space_group_name_H-M "P -1"
_symmetry_group_IT_number 2
_symmetry_cell_setting 'triclinic'
loop_
_space_group_symop_operation_xyz
x,y,z
-x,-y,-z
loop_
_atom_site_type_symbol
_atom_site_label
_atom_site_fract_x
_atom_site_fract_y
_atom_site_fract_z
Si Si1 0.355759 0.618701 0.529488
Si Si2 0.678765 0.028333 0.080422
Si Si3 0.195380 0.462484 0.940892
Si Si4 0.854443 0.892555 0.873707
Si Si5 0.550016 0.187126 0.672585
Si Si6 0.237605 0.968210 0.611219
Si Si7 0.897925 0.700467 0.663233
O O1 0.497281 0.456965 0.665443
O O2 0.423658 0.789048 0.454647
O O3 0.245143 0.714071 0.567788
O O4 0.249553 0.454665 0.408664
O O5 0.711174 0.295763 0.029506
O O6 0.757800 0.028143 0.248907
O O7 0.737011 0.785115 0.063015
O O8 0.500000 0.000000 0.000000
O O9 0.045088 0.536526 0.782845
O O10 0.160765 0.373063 0.060337
O O11 0.879598 0.880195 0.749503
O O12 0.702916 0.055610 0.806856
O O13 0.000000 0.000000 0.000000
O O14 0.405134 0.046017 0.649177
O O15 0.112242 0.146581 0.472435
#
# Coordination Sequence:
#
# PCOD9025641 Si02
#       7
#     2   2   2   2   2   2   2
#     4  10  22  41  72 112 150 184 248 326 385 457
#     4  12  30  55  77 111 153 212 262 314 370 468
#     4  12  29  52  78 110 157 208 259 308 392 452
#     4  12  25  48  76 113 160 201 251 323 389 465
#     4  10  22  40  70 108 147 188 248 308 395 437
#     4  11  25  46  76 106 152 193 257 320 376 451
#     4  11  26  45  75 112 145 192 255 321 390 456
#
# _framework density 24.953182999999999
#
# number of rings (size 3 to 8) (size 9 to 14) (size 15 to 20)
#    0.000    0.857    1.429    3.857   10.000    3.429 
#    5.143    0.000    0.000    0.000    0.000    0.000 
#    0.000    0.000    0.000    0.000    0.000    0.000 
#
# Total GULP energy -78352.436387 kJ/mol
# GULP energy per Si atom -5596.602599 kJ/mol
# Density = 2.489639 g / cm^3
# Si number density = 24.953183 Si / 1000 Ang^3
#
#
#
# Elastic Constant Matrix: (Units=GPa)
#
#
# Indices 1 2 3 4 5 6 
#
# 1 47.3690 34.6682 19.3980 -17.7354 15.6515 5.8752
# 2 34.6682 124.7612 40.1902 -14.5489 8.5601 5.1526
# 3 19.3980 40.1902 128.5144 -29.1304 12.4401 5.0558
# 4 -17.7354 -14.5489 -29.1304 52.0570 -10.5857 5.1274
# 5 15.6515 8.5601 12.4401 -10.5857 62.6467 -2.8556
# 6 5.8752 5.1526 5.0558 5.1274 -2.8556 59.1588
#
#
#
# Elastic Compliance Matrix: (Units=1/GPa)
#
#
# Indices 1 2 3 4 5 6 
#
# 1 0.031821 -0.007376 0.000001 0.007953 -0.005757 -0.003485
# 2 -0.007376 0.010722 -0.002491 -0.000770 0.000748 0.000114
# 3 0.000001 -0.002491 0.009748 0.004690 -0.000851 -0.001064
# 4 0.007953 -0.000770 0.004690 0.024900 0.001247 -0.003221
# 5 -0.005757 0.000748 -0.000851 0.001247 0.017739 0.001328
# 6 -0.003485 0.000114 -0.001064 -0.003221 0.001328 0.017674
#
#
# Mechanical properties :
#
#
# Convention : Reuss Voigt Hill
#
# Bulk Modulus (GPa) = 30.71494 54.35081 42.53288
# Shear Modulus (GPa) = 34.91898 48.53171 41.72534
#
# Velocity S-wave (km/s) = 3.74489 4.41490 4.09362
# Velocity P-wave (km/s) = 5.57088 6.91497 6.27899
#
# Compressibility (1/GPa) = 0.03255745
#
# Stress axis : x y z
#
# Youngs Moduli (GPa) = 31.42557 93.26926 102.59015
#
# Poissons Ratio (x) = 0.68798 -0.00007
# Poissons Ratio (y) = 0.23180 0.25555
# Poissons Ratio (z) = -0.00002 0.23233
#
# Static dielectric constant tensor:
#      x y z
#    x 2.014600 -0.035050 -0.031830 
#    y -0.035050 2.125840 0.015090 
#    z -0.031830 0.015090 1.942660 
# 
# From -- ./inp_files/410379.got.cif
#   From: 2010.05.17/outbox.cif.g08.bks.cpg/sg2_206_cif.got.tgz:410379.got - 2010.06.03 11:33:40.
