data_PCOD9025934
_publ_section_title
;
Structure prediction by ZEFSAII (Michael W. Deem and Ramdas Pophale) SiO2 
 PCOD9025934
Probable space group: P -1
;
_chemical_formula_sum "Si O2"
_cell_formula_units_Z 14
_cell_length_a 23.816806
_cell_length_b 5.458675
_cell_length_c 7.816352
_cell_angle_alpha 83.759413
_cell_angle_beta 37.839625
_cell_angle_gamma 99.907943
_cell_volume 561.539838
_symmetry_space_group_name_H-M "P -1"
_symmetry_group_IT_number 2
_symmetry_cell_setting 'triclinic'
loop_
_space_group_symop_operation_xyz
x,y,z
-x,-y,-z
loop_
_atom_site_type_symbol
_atom_site_label
_atom_site_fract_x
_atom_site_fract_y
_atom_site_fract_z
Si Si1 0.521859 0.747544 0.188990
Si Si2 0.716737 0.531869 0.547838
Si Si3 0.274133 0.132594 0.176347
Si Si4 0.886134 0.322684 0.229526
Si Si5 0.485355 0.203982 0.197870
Si Si6 0.213049 0.355530 0.991623
Si Si7 0.895420 0.250514 0.821613
O O1 0.475223 0.421971 0.330664
O O2 0.450141 0.900895 0.374305
O O3 0.616676 0.868518 0.079365
O O4 0.551170 0.788447 0.909022
O O5 0.812657 0.466395 0.349803
O O6 0.730199 0.762573 0.631214
O O7 0.606663 0.302408 0.875805
O O8 0.717870 0.608813 0.343215
O O9 0.263870 0.331978 0.046857
O O10 0.173344 0.855584 0.449813
O O11 0.895037 0.201728 0.031328
O O12 0.000000 0.500000 0.000000
O O13 0.181396 0.607993 0.045640
O O14 0.128436 0.041107 0.186709
O O15 0.000000 0.500000 0.500000
#
# Coordination Sequence:
#
# PCOD9025934 Si02
#       7
#     2   2   2   2   2   2   2
#     4   9  18  32  58  92 111 156 196 240 293 355
#     4  10  22  41  58  89 121 161 197 249 302 354
#     4  11  22  39  62  87 122 158 202 248 297 357
#     4  11  23  38  62  87 118 160 206 245 300 358
#     4   9  17  33  60  84 121 150 196 241 295 352
#     4  11  25  39  62  87 120 158 198 247 304 352
#     4  11  24  44  58  86 120 157 203 255 298 350
#
# _framework density 24.931446999999999
#
# number of rings (size 3 to 8) (size 9 to 14) (size 15 to 20)
#    0.000    1.714    2.857    1.286    4.000    1.714 
#    0.000    0.714    0.000    0.000    0.000   13.000 
#    0.000    0.000    0.000    0.000    0.000    0.000 
#
# Total GULP energy -78134.158850 kJ/mol
# GULP energy per Si atom -5581.011346 kJ/mol
# Density = 2.487470 g / cm^3
# Si number density = 24.931447 Si / 1000 Ang^3
#
#
#
# Elastic Constant Matrix: (Units=GPa)
#
#
# Indices 1 2 3 4 5 6 
#
# 1 122.9705 0.0502 46.4126 -2.6390 -8.5478 -24.7862
# 2 0.0502 74.1723 12.0482 -15.6949 0.7230 -1.0039
# 3 46.4126 12.0482 73.8280 -7.3967 4.3402 -7.7954
# 4 -2.6390 -15.6949 -7.3967 27.7374 -3.3385 -1.1346
# 5 -8.5478 0.7230 4.3402 -3.3385 43.1078 -9.4396
# 6 -24.7862 -1.0039 -7.7954 -1.1346 -9.4396 26.4271
#
#
#
# Elastic Compliance Matrix: (Units=1/GPa)
#
#
# Indices 1 2 3 4 5 6 
#
# 1 0.014504 0.001776 -0.008198 0.001580 0.006805 0.013751
# 2 0.001776 0.015764 -0.002658 0.008665 0.001554 0.002407
# 3 -0.008198 -0.002658 0.019226 0.002206 -0.004110 -0.003492
# 4 0.001580 0.008665 0.002206 0.042481 0.004529 0.005903
# 5 0.006805 0.001554 -0.004110 0.004529 0.028720 0.015682
# 6 0.013751 0.002407 -0.003492 0.005903 0.015682 0.055654
#
#
# Mechanical properties :
#
#
# Convention : Reuss Voigt Hill
#
# Bulk Modulus (GPa) = 31.91355 43.11032 37.51194
# Shear Modulus (GPa) = 24.39590 33.61845 29.00718
#
# Velocity S-wave (km/s) = 3.13152 3.67609 3.41468
# Velocity P-wave (km/s) = 5.08955 5.94536 5.53402
#
# Compressibility (1/GPa) = 0.03133465
#
# Stress axis : x y z
#
# Youngs Moduli (GPa) = 68.94615 63.43686 52.01235
#
# Poissons Ratio (x) = -0.11266 0.42638
# Poissons Ratio (y) = -0.12245 0.13825
# Poissons Ratio (z) = 0.56520 0.16861
#
# Static dielectric constant tensor:
#      x y z
#    x 2.008780 0.013700 -0.092110 
#    y 0.013700 2.149040 -0.098270 
#    z -0.092110 -0.098270 2.088490 
# 
# From -- ./inp_files/350682.got.cif
#   From: 2010.05.17/outbox.cif.g08.bks.cpg/sg2_176_cif.got.tgz:350682.got - 2010.06.03 11:33:40.
