data_PCOD9025152
_publ_section_title
;
Structure prediction by ZEFSAII (Michael W. Deem and Ramdas Pophale) SiO2 
 PCOD9025152
Probable space group: P -1
;
_chemical_formula_sum "Si O2"
_cell_formula_units_Z 16
_cell_length_a 11.773401
_cell_length_b 22.600384
_cell_length_c 9.977525
_cell_angle_alpha 76.938737
_cell_angle_beta 141.612106
_cell_angle_gamma 134.144452
_cell_volume 823.516345
_symmetry_space_group_name_H-M "P -1"
_symmetry_group_IT_number 2
_symmetry_cell_setting 'triclinic'
loop_
_space_group_symop_operation_xyz
x,y,z
-x,-y,-z
loop_
_atom_site_type_symbol
_atom_site_label
_atom_site_fract_x
_atom_site_fract_y
_atom_site_fract_z
Si Si1 0.546865 0.770108 0.253159
Si Si2 0.175410 0.791941 0.959182
Si Si3 0.272108 0.953484 0.684446
Si Si4 0.797686 0.396033 0.763948
Si Si5 0.697259 0.575514 0.778958
Si Si6 0.144978 0.567244 0.784410
Si Si7 0.798365 0.570825 0.348181
Si Si8 0.917861 0.733277 0.446491
O O1 0.544936 0.727748 0.408487
O O2 0.913467 0.879205 0.455032
O O3 0.393729 0.792183 0.132833
O O4 0.276813 0.657784 0.962966
O O5 0.894390 0.694038 0.863392
O O6 0.976648 0.749260 0.654945
O O7 0.464004 0.923964 0.203309
O O8 0.148706 0.856522 0.547472
O O9 0.500000 0.000000 0.000000
O O10 0.828287 0.439689 0.628963
O O11 0.000000 0.500000 0.000000
O O12 0.028587 0.400906 0.953145
O O13 0.500000 0.500000 0.500000
O O14 0.423657 0.500915 0.683862
O O15 0.020032 0.571594 0.539457
O O16 0.504891 0.629252 0.080628
O O17 0.021424 0.696696 0.506545
O O18 0.500000 0.500000 0.000000
#
# Coordination Sequence:
#
# PCOD9025152 Si02
#       8
#     2   2   2   2   2   2   2   2
#     4   9  16  27  49  78 110 139 172 219 270 316
#     4  10  17  31  54  79 108 138 180 219 268 315
#     4   9  19  28  46  77 112 141 172 223 265 314
#     4   9  16  26  48  78 103 137 176 209 267 320
#     4  11  18  33  55  78 110 140 172 227 266 321
#     4  10  18  32  51  72 105 146 173 216 268 319
#     4  12  24  36  54  82 110 143 180 221 272 323
#     4  10  19  36  51  77 111 139 181 219 266 320
#
# _framework density 19.428879999999999
#
# number of rings (size 3 to 8) (size 9 to 14) (size 15 to 20)
#    0.000    2.000    3.750    1.875    0.000    3.500 
#    0.000    0.000    0.000    0.750    0.000    3.500 
#    0.000    0.000    0.000    0.000    0.000    0.000 
#
# Total GULP energy -89156.600385 kJ/mol
# GULP energy per Si atom -5572.287524 kJ/mol
# Density = 1.938466 g / cm^3
# Si number density = 19.428880 Si / 1000 Ang^3
#
#
#
# Elastic Constant Matrix: (Units=GPa)
#
#
# Indices 1 2 3 4 5 6 
#
# 1 28.0230 13.5371 7.6392 -0.5026 9.8622 -7.7083
# 2 13.5371 121.1699 33.2989 13.1649 4.5664 -12.5776
# 3 7.6392 33.2989 69.9159 -9.1461 6.7567 2.3089
# 4 -0.5026 13.1649 -9.1461 34.8452 -2.5216 7.2804
# 5 9.8622 4.5664 6.7567 -2.5216 19.4253 -4.4671
# 6 -7.7083 -12.5776 2.3089 7.2804 -4.4671 27.2054
#
#
#
# Elastic Compliance Matrix: (Units=1/GPa)
#
#
# Indices 1 2 3 4 5 6 
#
# 1 0.047571 -0.002487 -0.002683 -0.002638 -0.020708 0.009862
# 2 -0.002487 0.012044 -0.006915 -0.007922 0.001610 0.007835
# 3 -0.002683 -0.006915 0.019862 0.009305 -0.004763 -0.008915
# 4 -0.002638 -0.007922 0.009305 0.037321 0.001369 -0.014962
# 5 -0.020708 0.001610 -0.004763 0.001369 0.064723 0.005542
# 6 0.009862 0.007835 -0.008915 -0.014962 0.005542 0.048845
#
#
# Mechanical properties :
#
#
# Convention : Reuss Voigt Hill
#
# Bulk Modulus (GPa) = 18.08079 36.45103 27.26591
# Shear Modulus (GPa) = 18.31693 27.27078 22.79385
#
# Velocity S-wave (km/s) = 3.07378 3.75056 3.42891
# Velocity P-wave (km/s) = 4.68229 6.12842 5.45350
#
# Compressibility (1/GPa) = 0.05530732
#
# Stress axis : x y z
#
# Youngs Moduli (GPa) = 21.02117 83.02590 50.34844
#
# Poissons Ratio (x) = 0.20645 0.13508
# Poissons Ratio (y) = 0.05227 0.34818
# Poissons Ratio (z) = 0.05640 0.57415
#
# Static dielectric constant tensor:
#      x y z
#    x 1.648890 -0.047140 0.024320 
#    y -0.047140 1.741130 -0.024310 
#    z 0.024320 -0.024310 1.730400 
# 
# From -- ./inp_files/283636.got.cif
#   From: 2010.05.17/outbox.cif.g08.bks.cpg/sg2_142_cif.got.tgz:283636.got - 2010.06.03 11:33:40.
