data_PCOD9025825
_publ_section_title
;
Structure prediction by ZEFSAII (Michael W. Deem and Ramdas Pophale) SiO2 
 PCOD9025825
Probable space group: P -1
;
_chemical_formula_sum "Si O2"
_cell_formula_units_Z 12
_cell_length_a 15.714050
_cell_length_b 12.765892
_cell_length_c 17.127006
_cell_angle_alpha 147.287697
_cell_angle_beta 32.714168
_cell_angle_gamma 162.738683
_cell_volume 535.362996
_symmetry_space_group_name_H-M "P -1"
_symmetry_group_IT_number 2
_symmetry_cell_setting 'triclinic'
loop_
_space_group_symop_operation_xyz
x,y,z
-x,-y,-z
loop_
_atom_site_type_symbol
_atom_site_label
_atom_site_fract_x
_atom_site_fract_y
_atom_site_fract_z
Si Si1 0.305956 0.118825 0.845367
Si Si2 0.789543 0.731168 0.213645
Si Si3 0.401665 0.866743 0.082751
Si Si4 0.630983 0.819493 0.983970
Si Si5 0.028084 0.339196 0.327226
Si Si6 0.687530 0.785540 0.605142
O O1 0.247154 0.049583 0.939053
O O2 0.635180 0.375699 0.746757
O O3 0.079965 0.765919 0.744697
O O4 0.350390 0.385099 0.945826
O O5 0.534749 0.476277 0.314406
O O6 0.816633 0.959657 0.291325
O O7 0.725668 0.480743 0.051327
O O8 0.129689 0.037427 0.167804
O O9 0.607729 0.012072 0.087445
O O10 0.265517 0.930574 0.253869
O O11 0.500000 0.000000 0.000000
O O12 0.000000 0.500000 0.500000
O O13 0.500000 0.500000 0.500000
O O14 0.000000 0.000000 0.500000
#
# Coordination Sequence:
#
# PCOD9025825 Si02
#       6
#     2   2   2   2   2   2
#     4  10  23  40  68 103 147 177 246 292 343 428
#     4  10  24  44  73  97 144 188 241 292 359 427
#     4  10  23  43  73  98 137 188 244 296 351 432
#     4  10  22  40  72 105 136 188 243 301 349 413
#     4  11  23  43  66 105 148 192 227 292 367 431
#     4  11  28  47  68 104 141 182 237 300 363 426
#
# _framework density 22.414698999999999
#
# number of rings (size 3 to 8) (size 9 to 14) (size 15 to 20)
#    0.000    1.667    1.667    0.500    9.333    4.667 
#    0.000    0.000    0.000    0.000    0.000    0.000 
#    0.000    0.000    0.000    0.000    0.000    0.000 
#
# Total GULP energy -66802.227043 kJ/mol
# GULP energy per Si atom -5566.852254 kJ/mol
# Density = 2.236368 g / cm^3
# Si number density = 22.414699 Si / 1000 Ang^3
#
#
#
# Elastic Constant Matrix: (Units=GPa)
#
#
# Indices 1 2 3 4 5 6 
#
# 1 132.5471 36.9023 76.7369 -0.9850 -15.9079 -0.8072
# 2 36.9023 59.4158 65.1262 -18.6507 -2.4101 -0.5243
# 3 76.7369 65.1262 196.1936 5.0622 4.8219 2.6100
# 4 -0.9850 -18.6507 5.0622 48.2777 5.5507 9.3776
# 5 -15.9079 -2.4101 4.8219 5.5507 28.9577 10.1193
# 6 -0.8072 -0.5243 2.6100 9.3776 10.1193 37.9150
#
#
#
# Elastic Compliance Matrix: (Units=1/GPa)
#
#
# Indices 1 2 3 4 5 6 
#
# 1 0.011318 -0.003422 -0.003417 -0.001332 0.007160 -0.001153
# 2 -0.003422 0.035733 -0.010904 0.015325 0.000979 -0.002880
# 3 -0.003417 -0.010904 0.010266 -0.005174 -0.003997 0.001416
# 4 -0.001332 0.015325 -0.005174 0.028540 -0.001971 -0.005993
# 5 0.007160 0.000979 -0.003997 -0.001971 0.043306 -0.010629
# 6 -0.001153 -0.002880 0.001416 -0.005993 -0.010629 0.030532
#
#
# Mechanical properties :
#
#
# Convention : Reuss Voigt Hill
#
# Bulk Modulus (GPa) = 45.80740 82.85416 64.33078
# Shear Modulus (GPa) = 24.69656 36.98950 30.84303
#
# Velocity S-wave (km/s) = 3.32294 4.06671 3.71350
# Velocity P-wave (km/s) = 5.93323 7.68735 6.86654
#
# Compressibility (1/GPa) = 0.02183053
#
# Stress axis : x y z
#
# Youngs Moduli (GPa) = 88.35625 27.98560 97.40728
#
# Poissons Ratio (x) = 0.09575 0.33286
# Poissons Ratio (y) = 0.30231 1.06216
# Poissons Ratio (z) = 0.30193 0.30516
#
# Static dielectric constant tensor:
#      x y z
#    x 1.312720 -0.247620 -0.081020 
#    y -0.247620 1.827670 -0.082750 
#    z -0.081020 -0.082750 1.844000 
# 
# From -- ./inp_files/35782.got.cif
#   From: 2010.05.17/outbox.cif.g08.bks.cpg/sg2_18_cif.got.tgz:35782.got - 2010.06.03 11:33:40.
