data_PCOD9025508
_publ_section_title
;
Structure prediction by ZEFSAII (Michael W. Deem and Ramdas Pophale) SiO2 
 PCOD9025508
Probable space group: P -1
;
_chemical_formula_sum "Si O2"
_cell_formula_units_Z 16
_cell_length_a 12.028823
_cell_length_b 16.420140
_cell_length_c 8.751218
_cell_angle_alpha 82.425452
_cell_angle_beta 94.181203
_cell_angle_gamma 26.703941
_cell_volume 695.877712
_symmetry_space_group_name_H-M "P -1"
_symmetry_group_IT_number 2
_symmetry_cell_setting 'triclinic'
loop_
_space_group_symop_operation_xyz
x,y,z
-x,-y,-z
loop_
_atom_site_type_symbol
_atom_site_label
_atom_site_fract_x
_atom_site_fract_y
_atom_site_fract_z
Si Si1 0.111472 0.076652 0.235350
Si Si2 0.603858 0.544813 0.543012
Si Si3 0.202634 0.589190 0.091274
Si Si4 0.872632 0.891912 0.417570
Si Si5 0.994318 0.028518 0.670164
Si Si6 0.365813 0.017351 0.888280
Si Si7 0.750405 0.612385 0.384427
Si Si8 0.779778 0.591882 0.045287
O O1 0.139096 0.085702 0.411125
O O2 0.984447 0.070213 0.211119
O O3 0.436066 0.858807 0.275682
O O4 0.895300 0.279624 0.076385
O O5 0.569155 0.551641 0.719830
O O6 0.313916 0.735399 0.384815
O O7 0.709528 0.566112 0.513246
O O8 0.821449 0.340839 0.534509
O O9 0.249314 0.471271 0.041260
O O10 0.940073 0.771196 0.131733
O O11 0.824403 0.011952 0.297443
O O12 0.671420 0.959885 0.305203
O O13 0.000000 0.000000 0.500000
O O14 0.532551 0.822568 0.982622
O O15 0.500000 0.000000 0.000000
O O16 0.842356 0.524478 0.243961
O O17 0.000000 0.500000 0.500000
O O18 0.000000 0.500000 0.000000
#
# Coordination Sequence:
#
# PCOD9025508 Si02
#       8
#     2   2   2   2   2   2   2   2
#     4  10  22  42  65  96 138 168 224 278 321 397
#     4  10  22  41  66  93 133 170 221 271 326 399
#     4  11  23  41  64  97 132 171 215 274 328 386
#     4  10  22  40  69  91 130 178 220 266 338 383
#     4   9  20  40  67  95 128 173 218 270 330 392
#     4  11  24  42  62  97 133 171 217 272 326 395
#     4  11  24  39  62  96 130 177 222 269 330 396
#     4  12  24  39  66  91 134 178 218 269 336 388
#
# _framework density 22.992546999999998
#
# number of rings (size 3 to 8) (size 9 to 14) (size 15 to 20)
#    0.000    1.500    2.500    1.875    8.750    0.000 
#    0.000    6.875    2.750    0.000    0.000    0.000 
#    0.000    0.000    0.000    0.000    0.000    0.000 
#
# Total GULP energy -89157.549015 kJ/mol
# GULP energy per Si atom -5572.346813 kJ/mol
# Density = 2.294021 g / cm^3
# Si number density = 22.992547 Si / 1000 Ang^3
#
#
#
# Elastic Constant Matrix: (Units=GPa)
#
#
# Indices 1 2 3 4 5 6 
#
# 1 67.1922 19.2146 40.2064 -2.1154 -6.0538 12.1172
# 2 19.2146 121.6865 42.6293 3.0216 -7.4104 23.4890
# 3 40.2064 42.6293 126.0575 9.9388 -11.5487 12.4441
# 4 -2.1154 3.0216 9.9388 42.5886 12.6317 -6.9981
# 5 -6.0538 -7.4104 -11.5487 12.6317 19.2455 1.2117
# 6 12.1172 23.4890 12.4441 -6.9981 1.2117 29.0505
#
#
#
# Elastic Compliance Matrix: (Units=1/GPa)
#
#
# Indices 1 2 3 4 5 6 
#
# 1 0.019438 0.000158 -0.005404 0.000313 0.003103 -0.005975
# 2 0.000158 0.011185 -0.002061 -0.003655 0.006108 -0.009362
# 3 -0.005404 -0.002061 0.011930 -0.006010 0.008799 -0.003005
# 4 0.000313 -0.003655 -0.006010 0.036560 -0.029884 0.015452
# 5 0.003103 0.006108 0.008799 -0.029884 0.081479 -0.020600
# 6 -0.005975 -0.009362 -0.003005 0.015452 -0.020600 0.050353
#
#
# Mechanical properties :
#
#
# Convention : Reuss Voigt Hill
#
# Bulk Modulus (GPa) = 35.79161 57.67075 46.73118
# Shear Modulus (GPa) = 21.28821 32.36932 26.82876
#
# Velocity S-wave (km/s) = 3.04612 3.75616 3.41962
# Velocity P-wave (km/s) = 5.28887 6.62936 5.99669
#
# Compressibility (1/GPa) = 0.02793951
#
# Stress axis : x y z
#
# Youngs Moduli (GPa) = 51.44586 89.40846 83.82230
#
# Poissons Ratio (x) = -0.01416 0.45296
# Poissons Ratio (y) = -0.00815 0.17276
# Poissons Ratio (z) = 0.27801 0.18427
#
# Static dielectric constant tensor:
#      x y z
#    x 1.929020 -0.020200 0.028140 
#    y -0.020200 1.882480 -0.078780 
#    z 0.028140 -0.078780 1.981230 
# 
# From -- ./inp_files/272894.got.cif
#   From: 2010.05.17/outbox.cif.g08.bks.cpg/sg2_137_cif.got.tgz:272894.got - 2010.06.03 11:33:40.
