data_PCOD9025166
_publ_section_title
;
Structure prediction by ZEFSAII (Michael W. Deem and Ramdas Pophale) SiO2 
 PCOD9025166
Probable space group: P -1
;
_chemical_formula_sum "Si O2"
_cell_formula_units_Z 12
_cell_length_a 9.380777
_cell_length_b 18.137409
_cell_length_c 5.339245
_cell_angle_alpha 123.726956
_cell_angle_beta 55.473301
_cell_angle_gamma 139.899627
_cell_volume 469.236425
_symmetry_space_group_name_H-M "P -1"
_symmetry_group_IT_number 2
_symmetry_cell_setting 'triclinic'
loop_
_space_group_symop_operation_xyz
x,y,z
-x,-y,-z
loop_
_atom_site_type_symbol
_atom_site_label
_atom_site_fract_x
_atom_site_fract_y
_atom_site_fract_z
Si Si1 0.875967 0.897326 0.139718
Si Si2 0.711960 0.012159 0.713130
Si Si3 0.133187 0.654070 0.428101
Si Si4 0.709056 0.374747 0.283518
Si Si5 0.994187 0.775033 0.537625
Si Si6 0.600318 0.578583 0.295297
O O1 0.073416 0.932588 0.206266
O O2 0.682260 0.898894 0.442493
O O3 0.816005 0.784021 0.856897
O O4 0.000000 0.000000 0.000000
O O5 0.809353 0.101884 0.554359
O O6 0.500000 0.000000 0.000000
O O7 0.228138 0.666524 0.628821
O O8 0.897662 0.517818 0.375365
O O9 0.086779 0.740545 0.588510
O O10 0.282496 0.668213 0.074055
O O11 0.473545 0.344674 0.513157
O O12 0.869752 0.672302 0.259163
O O13 0.500000 0.500000 0.500000
O O14 0.500000 0.500000 0.000000
#
# Coordination Sequence:
#
# PCOD9025166 Si02
#       6
#     2   2   2   2   2   2
#     4   9  22  47  72 106 146 181 246 316 379 449
#     4  10  23  48  77 106 146 188 241 321 384 449
#     4  10  22  40  67  96 138 186 244 299 350 433
#     4  10  22  42  62  96 142 187 242 300 353 413
#     4  11  25  43  72 105 142 198 248 299 378 454
#     4  12  26  44  70 102 149 199 244 302 367 435
#
# _framework density 25.573461999999999
#
# number of rings (size 3 to 8) (size 9 to 14) (size 15 to 20)
#    0.000    1.667    1.667    1.000    9.333    2.667 
#   12.000    0.000    0.000    0.000    0.000    0.000 
#    0.000    0.000    0.000    0.000    0.000    0.000 
#
# Total GULP energy -67159.371978 kJ/mol
# GULP energy per Si atom -5596.614332 kJ/mol
# Density = 2.551526 g / cm^3
# Si number density = 25.573462 Si / 1000 Ang^3
#
#
#
# Elastic Constant Matrix: (Units=GPa)
#
#
# Indices 1 2 3 4 5 6 
#
# 1 166.6332 45.4876 74.0961 -4.7523 -20.0300 -43.2369
# 2 45.4876 78.4577 41.0556 7.2220 -8.8406 -29.7553
# 3 74.0961 41.0556 163.5417 -1.8120 -25.6459 -9.1304
# 4 -4.7523 7.2220 -1.8120 24.4075 -2.3907 2.2244
# 5 -20.0300 -8.8406 -25.6459 -2.3907 54.2684 2.8688
# 6 -43.2369 -29.7553 -9.1304 2.2244 2.8688 47.2468
#
#
#
# Elastic Compliance Matrix: (Units=1/GPa)
#
#
# Indices 1 2 3 4 5 6 
#
# 1 0.010141 -0.000962 -0.003666 0.001423 0.001504 0.007808
# 2 -0.000962 0.020613 -0.004160 -0.007649 0.000084 0.011653
# 3 -0.003666 -0.004160 0.008988 0.001841 0.002534 -0.004478
# 4 0.001423 -0.007649 0.001841 0.044373 0.002389 -0.005394
# 5 0.001504 0.000084 0.002534 0.002389 0.020268 0.000576
# 6 0.007808 0.011653 -0.004478 -0.005394 0.000576 0.035003
#
#
# Mechanical properties :
#
#
# Convention : Reuss Voigt Hill
#
# Bulk Modulus (GPa) = 45.11178 81.10123 63.10650
# Shear Modulus (GPa) = 30.42281 41.71744 36.07013
#
# Velocity S-wave (km/s) = 3.45283 4.04329 3.75967
# Velocity P-wave (km/s) = 5.79435 7.31980 6.60129
#
# Compressibility (1/GPa) = 0.02216716
#
# Stress axis : x y z
#
# Youngs Moduli (GPa) = 98.60906 48.51295 111.26379
#
# Poissons Ratio (x) = 0.04665 0.40786
# Poissons Ratio (y) = 0.09482 0.46286
# Poissons Ratio (z) = 0.36147 0.20182
#
# Static dielectric constant tensor:
#      x y z
#    x 2.016800 0.086770 0.001050 
#    y 0.086770 2.033530 0.006160 
#    z 0.001050 0.006160 2.135130 
# 
# From -- ./inp_files/41282.got.cif
#   From: 2010.05.17/outbox.cif.g08.bks.cpg/sg2_21_cif.got.tgz:41282.got - 2010.06.03 11:33:40.
