data_PCOD9025032
_publ_section_title
;
Structure prediction by ZEFSAII (Michael W. Deem and Ramdas Pophale) SiO2 
 PCOD9025032
Probable space group: P -1
;
_chemical_formula_sum "Si O2"
_cell_formula_units_Z 16
_cell_length_a 11.070520
_cell_length_b 13.564898
_cell_length_c 5.144433
_cell_angle_alpha 100.769263
_cell_angle_beta 91.381490
_cell_angle_gamma 122.925769
_cell_volume 629.589979
_symmetry_space_group_name_H-M "P -1"
_symmetry_group_IT_number 2
_symmetry_cell_setting 'triclinic'
loop_
_space_group_symop_operation_xyz
x,y,z
-x,-y,-z
loop_
_atom_site_type_symbol
_atom_site_label
_atom_site_fract_x
_atom_site_fract_y
_atom_site_fract_z
Si Si1 0.483380 0.372131 0.150543
Si Si2 0.715272 0.566699 0.574718
Si Si3 0.940332 0.415180 0.706269
Si Si4 0.734365 0.106601 0.090482
Si Si5 0.952516 0.709386 0.027881
Si Si6 0.760906 0.771787 0.317058
Si Si7 0.356847 0.823029 0.378956
Si Si8 0.645791 0.874760 0.663417
O O1 0.649652 0.463929 0.298945
O O2 0.412927 0.447523 0.257067
O O3 0.423031 0.252869 0.259749
O O4 0.404332 0.310763 0.845936
O O5 0.771676 0.692244 0.497401
O O6 0.837837 0.591815 0.795017
O O7 0.765944 0.319265 0.656203
O O8 0.000000 0.500000 0.500000
O O9 0.002272 0.331366 0.731377
O O10 0.000000 0.500000 0.000000
O O11 0.650361 0.140592 0.897852
O O12 0.902256 0.207748 0.088882
O O13 0.700466 0.979698 0.927696
O O14 0.690311 0.113837 0.383052
O O15 0.874640 0.779814 0.120228
O O16 0.772619 0.887464 0.494155
O O17 0.515858 0.861738 0.484115
#
# Coordination Sequence:
#
# PCOD9025032 Si02
#       8
#     2   2   2   2   2   2   2   2
#     4   9  20  38  61  98 135 176 226 278 345 410
#     4   9  19  39  62  96 137 181 217 275 353 414
#     4  11  25  45  71 106 140 181 230 280 338 416
#     4  11  26  47  72  97 138 186 235 286 342 403
#     4  10  24  42  70  98 142 181 223 283 356 412
#     4  10  22  40  67 102 138 181 223 286 355 412
#     4  11  26  47  71 101 136 187 231 285 348 398
#     4  11  25  42  69  99 135 177 242 285 335 411
#
# _framework density 25.413364999999999
#
# number of rings (size 3 to 8) (size 9 to 14) (size 15 to 20)
#    0.000    1.750    0.000    2.625   10.500    1.500 
#    0.000    5.625    0.000    0.000    0.000    0.000 
#    0.000    0.000    0.000    0.000    0.000    0.000 
#
# Total GULP energy -89516.163736 kJ/mol
# GULP energy per Si atom -5594.760234 kJ/mol
# Density = 2.535552 g / cm^3
# Si number density = 25.413365 Si / 1000 Ang^3
#
#
#
# Elastic Constant Matrix: (Units=GPa)
#
#
# Indices 1 2 3 4 5 6 
#
# 1 93.1647 27.5224 24.5647 8.1232 -0.9074 -3.7744
# 2 27.5224 84.6557 20.5276 3.7130 8.1958 -1.3610
# 3 24.5647 20.5276 119.1841 1.1571 10.8761 -4.4261
# 4 8.1232 3.7130 1.1571 38.7537 -6.4121 -7.2054
# 5 -0.9074 8.1958 10.8761 -6.4121 44.3356 9.5012
# 6 -3.7744 -1.3610 -4.4261 -7.2054 9.5012 16.0545
#
#
#
# Elastic Compliance Matrix: (Units=1/GPa)
#
#
# Indices 1 2 3 4 5 6 
#
# 1 0.012528 -0.003586 -0.002014 -0.001941 0.000999 0.000624
# 2 -0.003586 0.013602 -0.001314 -0.000728 -0.002622 0.001173
# 3 -0.002014 -0.001314 0.009437 0.000525 -0.002886 0.003961
# 4 -0.001941 -0.000728 0.000525 0.028680 0.001644 0.011526
# 5 0.000999 -0.002622 -0.002886 0.001644 0.027504 -0.016323
# 6 0.000624 0.001173 0.003961 0.011526 -0.016323 0.078458
#
#
# Mechanical properties :
#
#
# Convention : Reuss Voigt Hill
#
# Bulk Modulus (GPa) = 45.99839 49.13709 47.56774
# Shear Modulus (GPa) = 26.13924 34.78809 30.46367
#
# Velocity S-wave (km/s) = 3.21060 3.70386 3.46602
# Velocity P-wave (km/s) = 5.64653 6.13747 5.89711
#
# Compressibility (1/GPa) = 0.02173989
#
# Stress axis : x y z
#
# Youngs Moduli (GPa) = 79.81905 73.52033 105.96557
#
# Poissons Ratio (x) = 0.26367 0.21338
# Poissons Ratio (y) = 0.28626 0.13920
# Poissons Ratio (z) = 0.16073 0.09658
#
# Static dielectric constant tensor:
#      x y z
#    x 2.071250 -0.021870 -0.037160 
#    y -0.021870 2.015070 0.005820 
#    z -0.037160 0.005820 2.027450 
# 
# From -- ./inp_files/78166.got.cif
#   From: 2010.05.17/outbox.cif.g08.bks.cpg/sg2_40_cif.got.tgz:78166.got - 2010.06.03 11:33:40.
