data_PCOD9025237
_publ_section_title
;
Structure prediction by ZEFSAII (Michael W. Deem and Ramdas Pophale) SiO2 
 PCOD9025237
Probable space group: P -1
;
_chemical_formula_sum "Si O2"
_cell_formula_units_Z 16
_cell_length_a 9.202249
_cell_length_b 29.687832
_cell_length_c 9.797015
_cell_angle_alpha 149.406324
_cell_angle_beta 41.975356
_cell_angle_gamma 151.972444
_cell_volume 638.579577
_symmetry_space_group_name_H-M "P -1"
_symmetry_group_IT_number 2
_symmetry_cell_setting 'triclinic'
loop_
_space_group_symop_operation_xyz
x,y,z
-x,-y,-z
loop_
_atom_site_type_symbol
_atom_site_label
_atom_site_fract_x
_atom_site_fract_y
_atom_site_fract_z
Si Si1 0.199562 0.851020 0.317239
Si Si2 0.278285 0.037501 0.311536
Si Si3 0.320323 0.749437 0.206169
Si Si4 0.106593 0.518083 0.260150
Si Si5 0.864103 0.766675 0.818004
Si Si6 0.613238 0.782244 0.482251
Si Si7 0.195417 0.314010 0.069956
Si Si8 0.445751 0.552619 0.368146
O O1 0.227326 0.779674 0.217603
O O2 0.894894 0.823556 0.482132
O O3 0.500000 0.000000 0.500000
O O4 0.129305 0.790428 0.057313
O O5 0.573714 0.151515 0.492917
O O6 0.318273 0.099073 0.299997
O O7 0.000000 0.000000 0.500000
O O8 0.175943 0.908029 0.013369
O O9 0.615356 0.774841 0.023724
O O10 0.051216 0.599872 0.035511
O O11 0.286394 0.654942 0.433797
O O12 0.347870 0.538378 0.243862
O O13 0.821837 0.471721 0.426427
O O14 0.812778 0.679187 0.745491
O O15 0.768249 0.690961 0.547494
O O16 0.651834 0.737768 0.198298
O O17 0.394469 0.440595 0.173623
#
# Coordination Sequence:
#
# PCOD9025237 Si02
#       8
#     2   2   2   2   2   2   2   2
#     4  10  18  30  56  89 111 139 184 240 287 325
#     4  10  17  35  56  86 111 146 186 238 291 330
#     4  10  17  31  54  80 114 145 178 241 282 326
#     4  10  21  38  54  87 115 152 193 230 290 333
#     4  10  19  34  58  80 114 151 193 221 285 351
#     4  10  21  35  60  88 114 139 198 248 275 330
#     4  10  19  35  57  89 108 143 194 235 283 331
#     4  10  21  37  58  79 119 160 185 225 284 352
#
# _framework density 25.055607999999999
#
# number of rings (size 3 to 8) (size 9 to 14) (size 15 to 20)
#    0.750    1.250    3.750    2.625    0.000    2.500 
#    0.000    0.625    2.750    0.750    0.000    0.000 
#    0.000    0.000    0.000    0.000    0.000    0.000 
#
# Total GULP energy -89381.856154 kJ/mol
# GULP energy per Si atom -5586.366010 kJ/mol
# Density = 2.499858 g / cm^3
# Si number density = 25.055608 Si / 1000 Ang^3
#
#
#
# Elastic Constant Matrix: (Units=GPa)
#
#
# Indices 1 2 3 4 5 6 
#
# 1 110.5730 23.7172 7.1470 11.2619 5.6568 -3.8337
# 2 23.7172 68.9550 28.5993 26.8047 7.0003 9.1461
# 3 7.1470 28.5993 116.9409 24.9937 16.0384 12.1257
# 4 11.2619 26.8047 24.9937 47.2131 6.0639 -1.0986
# 5 5.6568 7.0003 16.0384 6.0639 50.2125 13.6207
# 6 -3.8337 9.1461 12.1257 -1.0986 13.6207 34.2347
#
#
#
# Elastic Compliance Matrix: (Units=1/GPa)
#
#
# Indices 1 2 3 4 5 6 
#
# 1 0.009991 -0.003660 0.000251 -0.000204 -0.001361 0.002543
# 2 -0.003660 0.021446 -0.002325 -0.010349 0.001062 -0.006070
# 3 0.000251 -0.002325 0.010497 -0.004110 -0.001897 -0.002446
# 4 -0.000204 -0.010349 -0.004110 0.029742 -0.002478 0.006138
# 5 -0.001361 0.001062 -0.001897 -0.002478 0.023298 -0.009113
# 6 0.002543 -0.006070 -0.002446 0.006138 -0.009113 0.035805
#
#
# Mechanical properties :
#
#
# Convention : Reuss Voigt Hill
#
# Bulk Modulus (GPa) = 32.82479 46.15511 39.48995
# Shear Modulus (GPa) = 32.80761 42.13243 37.47002
#
# Velocity S-wave (km/s) = 3.62248 4.10513 3.87133
# Velocity P-wave (km/s) = 5.53405 6.39769 5.98148
#
# Compressibility (1/GPa) = 0.03046478
#
# Stress axis : x y z
#
# Youngs Moduli (GPa) = 100.08751 46.62841 95.26673
#
# Poissons Ratio (x) = 0.17068 -0.02393
# Poissons Ratio (y) = 0.36637 0.22154
# Poissons Ratio (z) = -0.02514 0.10843
#
# Static dielectric constant tensor:
#      x y z
#    x 1.987600 0.086740 -0.016200 
#    y 0.086740 2.050860 -0.043840 
#    z -0.016200 -0.043840 1.983590 
# 
# From -- ./inp_files/407268.got.cif
#   From: 2010.05.17/outbox.cif.g08.bks.cpg/sg2_204_cif.got.tgz:407268.got - 2010.06.03 11:33:40.
