data_PCOD9025732
_publ_section_title
;
Structure prediction by ZEFSAII (Michael W. Deem and Ramdas Pophale) SiO2 
 PCOD9025732
Probable space group: P -1
;
_chemical_formula_sum "Si O2"
_cell_formula_units_Z 12
_cell_length_a 12.883350
_cell_length_b 7.078796
_cell_length_c 9.088803
_cell_angle_alpha 129.393745
_cell_angle_beta 96.114050
_cell_angle_gamma 52.447016
_cell_volume 451.567107
_symmetry_space_group_name_H-M "P -1"
_symmetry_group_IT_number 2
_symmetry_cell_setting 'triclinic'
loop_
_space_group_symop_operation_xyz
x,y,z
-x,-y,-z
loop_
_atom_site_type_symbol
_atom_site_label
_atom_site_fract_x
_atom_site_fract_y
_atom_site_fract_z
Si Si1 0.935539 0.205847 0.747524
Si Si2 0.647780 0.020827 0.434123
Si Si3 0.776950 0.177179 0.331745
Si Si4 0.382903 0.336229 0.987142
Si Si5 0.603849 0.336777 0.105916
Si Si6 0.906038 0.430831 0.386127
O O1 0.062082 0.194395 0.788088
O O2 0.969455 0.985714 0.791880
O O3 0.761660 0.498321 0.861179
O O4 0.000000 0.000000 0.500000
O O5 0.803388 0.684907 0.363368
O O6 0.668283 0.245515 0.467324
O O7 0.522768 0.271017 0.658534
O O8 0.600240 0.907795 0.247753
O O9 0.731462 0.157388 0.155133
O O10 0.788275 0.454067 0.470490
O O11 0.528735 0.194729 0.018944
O O12 0.348808 0.638431 0.032655
O O13 0.000000 0.500000 0.500000
#
# Coordination Sequence:
#
# PCOD9025732 Si02
#       6
#     2   2   2   2   2   2
#     4  10  22  44  67 101 136 172 231 285 329 404
#     4  12  24  45  72 101 138 182 227 276 345 404
#     4  10  24  41  70 100 138 176 229 284 330 408
#     4  11  24  42  74  97 137 186 223 280 346 399
#     4  11  24  46  66 103 142 176 231 280 331 415
#     4  10  22  40  71 101 134 182 221 281 348 393
#
# _framework density 26.574121999999999
#
# number of rings (size 3 to 8) (size 9 to 14) (size 15 to 20)
#    1.000    0.333    1.667    4.000    0.000    4.000 
#    0.000    5.000    0.000    0.000    0.000    0.000 
#    0.000    0.000    0.000    0.000    0.000    0.000 
#
# Total GULP energy -66886.315103 kJ/mol
# GULP energy per Si atom -5573.859592 kJ/mol
# Density = 2.651364 g / cm^3
# Si number density = 26.574122 Si / 1000 Ang^3
#
#
#
# Elastic Constant Matrix: (Units=GPa)
#
#
# Indices 1 2 3 4 5 6 
#
# 1 165.8321 49.1710 47.4861 -1.8486 -16.6699 -23.7043
# 2 49.1710 125.5217 33.9879 -15.0815 8.5395 -37.5981
# 3 47.4861 33.9879 103.6919 -2.9855 -0.1882 -27.6713
# 4 -1.8486 -15.0815 -2.9855 27.1095 -6.1630 4.7889
# 5 -16.6699 8.5395 -0.1882 -6.1630 42.7230 -12.8363
# 6 -23.7043 -37.5981 -27.6713 4.7889 -12.8363 62.9279
#
#
#
# Elastic Compliance Matrix: (Units=1/GPa)
#
#
# Indices 1 2 3 4 5 6 
#
# 1 0.008049 -0.002381 -0.002558 -0.000394 0.003945 0.001319
# 2 -0.002381 0.011310 -0.001213 0.004918 -0.001063 0.004736
# 3 -0.002558 -0.001213 0.012219 -0.000075 0.000422 0.003777
# 4 -0.000394 0.004918 -0.000075 0.040588 0.004920 0.000672
# 5 0.003945 -0.001063 0.000422 0.004920 0.027771 0.006327
# 6 0.001319 0.004736 0.003777 0.000672 0.006327 0.022118
#
#
# Mechanical properties :
#
#
# Convention : Reuss Voigt Hill
#
# Bulk Modulus (GPa) = 51.88244 72.92622 62.40433
# Shear Modulus (GPa) = 35.51522 44.17879 39.84700
#
# Velocity S-wave (km/s) = 3.65973 4.08177 3.87650
# Velocity P-wave (km/s) = 6.11753 7.05100 6.60079
#
# Compressibility (1/GPa) = 0.01927434
#
# Stress axis : x y z
#
# Youngs Moduli (GPa) = 124.23212 88.41952 81.83666
#
# Poissons Ratio (x) = 0.21054 0.20933
# Poissons Ratio (y) = 0.29581 0.09928
# Poissons Ratio (z) = 0.31777 0.10727
#
# Static dielectric constant tensor:
#      x y z
#    x 2.116090 -0.037410 0.016530 
#    y -0.037410 2.180200 0.001930 
#    z 0.016530 0.001930 2.140220 
# 
# From -- ./inp_files/246020.got.cif
#   From: 2010.05.17/outbox.cif.g08.bks.cpg/sg2_124_cif.got.tgz:246020.got - 2010.06.03 11:33:40.
