data_PCOD9025537
_publ_section_title
;
Structure prediction by ZEFSAII (Michael W. Deem and Ramdas Pophale) SiO2 
 PCOD9025537
Probable space group: P -1
;
_chemical_formula_sum "Si O2"
_cell_formula_units_Z 12
_cell_length_a 10.790583
_cell_length_b 5.088998
_cell_length_c 10.899708
_cell_angle_alpha 108.533221
_cell_angle_beta 87.490131
_cell_angle_gamma 108.599679
_cell_volume 536.751994
_symmetry_space_group_name_H-M "P -1"
_symmetry_group_IT_number 2
_symmetry_cell_setting 'triclinic'
loop_
_space_group_symop_operation_xyz
x,y,z
-x,-y,-z
loop_
_atom_site_type_symbol
_atom_site_label
_atom_site_fract_x
_atom_site_fract_y
_atom_site_fract_z
Si Si1 0.509560 0.880144 0.676574
Si Si2 0.615755 0.734291 0.098685
Si Si3 0.170420 0.361441 0.775961
Si Si4 0.648594 0.423900 0.605149
Si Si5 0.906193 0.683348 0.497521
Si Si6 0.107279 0.915272 0.906739
O O1 0.433719 0.027694 0.794059
O O2 0.628477 0.156074 0.659276
O O3 0.315929 0.424034 0.830689
O O4 0.419362 0.733586 0.541618
O O5 0.431456 0.365423 0.315083
O O6 0.742715 0.902651 0.035330
O O7 0.500000 0.500000 0.000000
O O8 0.173396 0.408467 0.639243
O O9 0.102062 0.035535 0.785330
O O10 0.097845 0.579419 0.863231
O O11 0.796086 0.621657 0.597769
O O12 0.000000 0.500000 0.500000
O O13 0.000000 0.000000 0.500000
O O14 0.000000 0.000000 0.000000
#
# Coordination Sequence:
#
# PCOD9025537 Si02
#       6
#     2   2   2   2   2   2
#     4  10  22  40  69  95 133 174 218 281 344 400
#     4  10  25  44  69 102 138 180 230 280 346 405
#     4  10  24  43  70  92 136 177 223 282 345 396
#     4  10  23  41  66 100 130 174 224 278 339 408
#     4  12  25  43  67 100 136 177 225 277 350 410
#     4  10  22  44  70  95 132 182 228 277 335 402
#
# _framework density 22.356691999999999
#
# number of rings (size 3 to 8) (size 9 to 14) (size 15 to 20)
#    1.000    0.667    0.000    3.500   11.667    0.667 
#    9.000    0.000    0.000    0.000    0.000    0.000 
#    0.000    0.000    0.000    0.000    0.000    0.000 
#
# Total GULP energy -66981.811172 kJ/mol
# GULP energy per Si atom -5581.817598 kJ/mol
# Density = 2.230581 g / cm^3
# Si number density = 22.356692 Si / 1000 Ang^3
#
#
#
# Elastic Constant Matrix: (Units=GPa)
#
#
# Indices 1 2 3 4 5 6 
#
# 1 117.9678 45.5461 45.8873 6.1668 -27.5540 -5.6656
# 2 45.5461 131.8140 14.7463 1.3950 -11.4849 -12.1718
# 3 45.8873 14.7463 56.9703 7.9723 -12.3341 -6.4181
# 4 6.1668 1.3950 7.9723 31.2705 -6.0605 -9.8295
# 5 -27.5540 -11.4849 -12.3341 -6.0605 44.4176 -9.1365
# 6 -5.6656 -12.1718 -6.4181 -9.8295 -9.1365 48.4059
#
#
#
# Elastic Compliance Matrix: (Units=1/GPa)
#
#
# Indices 1 2 3 4 5 6 
#
# 1 0.015126 -0.003503 -0.010028 0.001200 0.006051 0.000946
# 2 -0.003503 0.008999 0.000835 0.001014 0.001009 0.002360
# 3 -0.010028 0.000835 0.026450 -0.003950 0.001206 0.001968
# 4 0.001200 0.001014 -0.003950 0.036698 0.006683 0.008585
# 5 0.006051 0.001009 0.001206 0.006683 0.029427 0.008033
# 6 0.000946 0.002360 0.001968 0.008585 0.008033 0.024883
#
#
# Mechanical properties :
#
#
# Convention : Reuss Voigt Hill
#
# Bulk Modulus (GPa) = 39.71101 57.67908 48.69504
# Shear Modulus (GPa) = 28.51119 38.19030 33.35075
#
# Velocity S-wave (km/s) = 3.57499 4.13755 3.86652
# Velocity P-wave (km/s) = 5.90269 6.97720 6.46232
#
# Compressibility (1/GPa) = 0.02518193
#
# Stress axis : x y z
#
# Youngs Moduli (GPa) = 66.11069 111.12927 37.80747
#
# Poissons Ratio (x) = 0.38927 0.37914
# Poissons Ratio (y) = 0.23158 -0.03156
# Poissons Ratio (z) = 0.66296 -0.09276
#
# Static dielectric constant tensor:
#      x y z
#    x 1.809590 0.114010 0.070790 
#    y 0.114010 2.108630 0.199810 
#    z 0.070790 0.199810 2.038740 
# 
# From -- ./inp_files/229964.got.cif
#   From: 2010.05.17/outbox.cif.g08.bks.cpg/sg2_115_cif.got.tgz:229964.got - 2010.06.03 11:33:40.
