data_PCOD9025646
_publ_section_title
;
Structure prediction by ZEFSAII (Michael W. Deem and Ramdas Pophale) SiO2 
 PCOD9025646
Probable space group: P -1
;
_chemical_formula_sum "Si O2"
_cell_formula_units_Z 16
_cell_length_a 12.622436
_cell_length_b 8.162077
_cell_length_c 11.717432
_cell_angle_alpha 83.591202
_cell_angle_beta 105.290727
_cell_angle_gamma 147.075723
_cell_volume 618.897988
_symmetry_space_group_name_H-M "P -1"
_symmetry_group_IT_number 2
_symmetry_cell_setting 'triclinic'
loop_
_space_group_symop_operation_xyz
x,y,z
-x,-y,-z
loop_
_atom_site_type_symbol
_atom_site_label
_atom_site_fract_x
_atom_site_fract_y
_atom_site_fract_z
Si Si1 0.193735 0.878151 0.055252
Si Si2 0.875075 0.051876 0.732326
Si Si3 0.768196 0.749037 0.494441
Si Si4 0.630509 0.267308 0.636592
Si Si5 0.948461 0.449150 0.621105
Si Si6 0.097244 0.265804 0.120284
Si Si7 0.334200 0.106416 0.705385
Si Si8 0.448455 0.741912 0.019355
O O1 0.206037 0.946425 0.184177
O O2 0.000000 0.500000 0.000000
O O3 0.121172 0.938478 0.952888
O O4 0.430899 0.158935 0.065823
O O5 0.035183 0.391800 0.707396
O O6 0.771183 0.877199 0.594272
O O7 0.913058 0.921721 0.805889
O O8 0.680802 0.469348 0.540597
O O9 0.645351 0.690580 0.365429
O O10 0.000000 0.000000 0.500000
O O11 0.771459 0.457157 0.776467
O O12 0.421132 0.072042 0.649088
O O13 0.714841 0.206209 0.605799
O O14 0.000000 0.500000 0.500000
O O15 0.093068 0.778544 0.679758
O O16 0.214761 0.423290 0.018727
O O17 0.444127 0.214410 0.846943
O O18 0.500000 0.000000 0.000000
#
# Coordination Sequence:
#
# PCOD9025646 Si02
#       8
#     2   2   2   2   2   2   2   2
#     4  12  23  43  73  95 136 183 221 280 340 394
#     4  11  25  41  68 100 138 175 228 279 338 402
#     4  11  21  44  70  98 135 176 222 286 341 404
#     4  10  22  40  70  90 132 174 224 277 336 404
#     4  12  23  43  62  98 135 175 227 275 333 408
#     4  10  23  44  64 100 132 173 224 282 330 403
#     4  11  23  41  68  98 128 177 228 270 344 402
#     4  11  24  42  69 102 128 178 233 270 333 407
#
# _framework density 25.852402999999999
#
# number of rings (size 3 to 8) (size 9 to 14) (size 15 to 20)
#    0.000    1.000    3.750    3.000    3.500    1.000 
#    0.000    1.250    2.750    0.000    0.000    0.000 
#    0.000    0.000    0.000    0.000    0.000    0.000 
#
# Total GULP energy -89183.427320 kJ/mol
# GULP energy per Si atom -5573.964208 kJ/mol
# Density = 2.579356 g / cm^3
# Si number density = 25.852403 Si / 1000 Ang^3
#
#
#
# Elastic Constant Matrix: (Units=GPa)
#
#
# Indices 1 2 3 4 5 6 
#
# 1 98.1483 12.2655 26.7656 -10.6693 -9.3873 14.4889
# 2 12.2655 43.9107 2.8591 -18.4012 -4.2578 10.3709
# 3 26.7656 2.8591 109.1462 -13.1558 -10.3080 -7.4910
# 4 -10.6693 -18.4012 -13.1558 44.3170 -8.7777 -0.1560
# 5 -9.3873 -4.2578 -10.3080 -8.7777 51.0431 -12.7866
# 6 14.4889 10.3709 -7.4910 -0.1560 -12.7866 47.0068
#
#
#
# Elastic Compliance Matrix: (Units=1/GPa)
#
#
# Indices 1 2 3 4 5 6 
#
# 1 0.011940 -0.001590 -0.002866 0.001521 0.000857 -0.003548
# 2 -0.001590 0.030174 0.001172 0.013164 0.003475 -0.004991
# 3 -0.002866 0.001172 0.010795 0.003643 0.003185 0.003223
# 4 0.001521 0.013164 0.003643 0.030912 0.007250 -0.000718
# 5 0.000857 0.003475 0.003185 0.007250 0.023398 0.005865
# 6 -0.003548 -0.004991 0.003223 -0.000718 0.005865 0.025575
#
#
# Mechanical properties :
#
#
# Convention : Reuss Voigt Hill
#
# Bulk Modulus (GPa) = 21.57906 37.22064 29.39985
# Shear Modulus (GPa) = 32.29795 42.42769 37.36282
#
# Velocity S-wave (km/s) = 3.53841 4.05551 3.80575
# Velocity P-wave (km/s) = 5.00589 6.02977 5.54153
#
# Compressibility (1/GPa) = 0.04634123
#
# Stress axis : x y z
#
# Youngs Moduli (GPa) = 83.75281 33.14134 92.63369
#
# Poissons Ratio (x) = 0.05270 0.26544
# Poissons Ratio (y) = 0.13318 -0.10855
# Poissons Ratio (z) = 0.24000 -0.03884
#
# Static dielectric constant tensor:
#      x y z
#    x 2.071180 0.001710 0.412700 
#    y 0.001710 2.082480 0.083820 
#    z 0.412700 0.083820 1.514320 
# 
# From -- ./inp_files/417171.got.cif
#   From: 2010.05.17/outbox.cif.g08.bks.cpg/sg2_209_cif.got.tgz:417171.got - 2010.06.03 11:33:40.
