data_PCOD9025382
_publ_section_title
;
Structure prediction by ZEFSAII (Michael W. Deem and Ramdas Pophale) SiO2 
 PCOD9025382
Probable space group: P -1
;
_chemical_formula_sum "Si O2"
_cell_formula_units_Z 12
_cell_length_a 10.899171
_cell_length_b 17.592943
_cell_length_c 5.494435
_cell_angle_alpha 84.130291
_cell_angle_beta 84.707423
_cell_angle_gamma 152.671370
_cell_volume 440.780720
_symmetry_space_group_name_H-M "P -1"
_symmetry_group_IT_number 2
_symmetry_cell_setting 'triclinic'
loop_
_space_group_symop_operation_xyz
x,y,z
-x,-y,-z
loop_
_atom_site_type_symbol
_atom_site_label
_atom_site_fract_x
_atom_site_fract_y
_atom_site_fract_z
Si Si1 0.387980 0.313497 0.059609
Si Si2 0.231586 0.793157 0.425013
Si Si3 0.461700 0.388767 0.533795
Si Si4 0.183742 0.677735 0.990185
Si Si5 0.851394 0.107113 0.319079
Si Si6 0.202736 0.040763 0.254837
O O1 0.560889 0.416851 0.243972
O O2 0.217012 0.138222 0.175704
O O3 0.170873 0.265337 0.109428
O O4 0.581811 0.421411 0.749370
O O5 0.196346 0.733791 0.718154
O O6 0.131113 0.824022 0.479851
O O7 0.586121 0.992486 0.252715
O O8 0.101138 0.677578 0.251524
O O9 0.500000 0.500000 0.500000
O O10 0.118581 0.170106 0.682477
O O11 0.506182 0.828510 0.959032
O O12 0.000000 0.500000 0.000000
O O13 0.753276 0.968432 0.478986
#
# Coordination Sequence:
#
# PCOD9025382 Si02
#       6
#     2   2   2   2   2   2
#     4  11  23  43  68  99 138 178 218 274 341 406
#     4  10  22  40  68  97 132 174 224 284 332 394
#     4  11  23  42  65  98 137 172 223 273 333 401
#     4  11  24  45  66  96 134 181 232 273 335 404
#     4   9  20  40  70 101 132 173 226 277 343 400
#     4  10  23  44  70  98 137 181 221 278 336 405
#
# _framework density 27.224423000000002
#
# number of rings (size 3 to 8) (size 9 to 14) (size 15 to 20)
#    0.000    1.667    0.000    4.500    0.000   11.333 
#   15.000    0.000    0.000    0.000    0.000    0.000 
#    0.000    0.000    0.000    0.000    0.000    0.000 
#
# Total GULP energy -67073.349812 kJ/mol
# GULP energy per Si atom -5589.445818 kJ/mol
# Density = 2.716246 g / cm^3
# Si number density = 27.224423 Si / 1000 Ang^3
#
#
#
# Elastic Constant Matrix: (Units=GPa)
#
#
# Indices 1 2 3 4 5 6 
#
# 1 146.6193 51.6876 56.3386 8.2603 -3.7183 4.1214
# 2 51.6876 151.4541 64.2384 20.8056 1.9826 -15.8206
# 3 56.3386 64.2384 176.6472 40.2756 -2.9173 -22.0688
# 4 8.2603 20.8056 40.2756 50.2889 -13.9945 0.8801
# 5 -3.7183 1.9826 -2.9173 -13.9945 35.9263 -9.8405
# 6 4.1214 -15.8206 -22.0688 0.8801 -9.8405 60.3569
#
#
#
# Elastic Compliance Matrix: (Units=1/GPa)
#
#
# Indices 1 2 3 4 5 6 
#
# 1 0.008603 -0.002334 -0.002567 0.001925 0.001013 -0.002001
# 2 -0.002334 0.008609 -0.001705 -0.002194 -0.001266 0.001618
# 3 -0.002567 -0.001705 0.008892 -0.006361 -0.001137 0.002887
# 4 0.001925 -0.002194 -0.006361 0.028504 0.010428 -0.001748
# 5 0.001013 -0.001266 -0.001137 0.010428 0.033196 0.004443
# 6 -0.002001 0.001618 0.002887 -0.001748 0.004443 0.018934
#
#
# Mechanical properties :
#
#
# Convention : Reuss Voigt Hill
#
# Bulk Modulus (GPa) = 77.56736 91.02778 84.29757
# Shear Modulus (GPa) = 40.24182 49.47817 44.86000
#
# Velocity S-wave (km/s) = 3.84884 4.26774 4.06370
# Velocity P-wave (km/s) = 6.95019 7.60220 7.28350
#
# Compressibility (1/GPa) = 0.01289202
#
# Stress axis : x y z
#
# Youngs Moduli (GPa) = 116.23730 116.15354 112.45859
#
# Poissons Ratio (x) = 0.27109 0.28872
# Poissons Ratio (y) = 0.27128 0.19175
# Poissons Ratio (z) = 0.29842 0.19805
#
# Static dielectric constant tensor:
#      x y z
#    x 2.309210 0.082990 -0.168060 
#    y 0.082990 2.171080 0.023300 
#    z -0.168060 0.023300 2.297810 
# 
# From -- ./inp_files/79113.got.cif
#   From: 2010.05.17/outbox.cif.g08.bks.cpg/sg2_40_cif.got.tgz:79113.got - 2010.06.03 11:33:40.
