data_PCOD9025086
_publ_section_title
;
Structure prediction by ZEFSAII (Michael W. Deem and Ramdas Pophale) SiO2 
 PCOD9025086
Probable space group: P -1
;
_chemical_formula_sum "Si O2"
_cell_formula_units_Z 14
_cell_length_a 7.148777
_cell_length_b 14.208421
_cell_length_c 9.921596
_cell_angle_alpha 136.772483
_cell_angle_beta 92.848635
_cell_angle_gamma 106.070627
_cell_volume 612.945772
_symmetry_space_group_name_H-M "P -1"
_symmetry_group_IT_number 2
_symmetry_cell_setting 'triclinic'
loop_
_space_group_symop_operation_xyz
x,y,z
-x,-y,-z
loop_
_atom_site_type_symbol
_atom_site_label
_atom_site_fract_x
_atom_site_fract_y
_atom_site_fract_z
Si Si1 0.662871 0.278170 0.969175
Si Si2 0.489414 0.690257 0.601859
Si Si3 0.364886 0.426284 0.145240
Si Si4 0.980608 0.401776 0.556210
Si Si5 0.199542 0.638383 0.218295
Si Si6 0.366160 0.990156 0.120509
Si Si7 0.105981 0.228526 0.152386
O O1 0.480138 0.330720 0.999242
O O2 0.849704 0.427931 0.209160
O O3 0.709413 0.248497 0.786194
O O4 0.609114 0.128698 0.901684
O O5 0.506841 0.545000 0.389757
O O6 0.238768 0.619862 0.544938
O O7 0.669010 0.766555 0.800672
O O8 0.547119 0.832099 0.648545
O O9 0.328701 0.545158 0.172291
O O10 0.151823 0.310513 0.093497
O O11 0.889124 0.313706 0.603235
O O12 0.934003 0.679653 0.630463
O O13 0.000000 0.500000 0.000000
O O14 0.115147 0.923819 0.020724
O O15 0.500000 0.000000 0.000000
#
# Coordination Sequence:
#
# PCOD9025086 Si02
#       7
#     2   2   2   2   2   2   2
#     4  11  23  42  65  92 127 166 209 258 306 371
#     4  11  23  40  59  95 126 165 203 250 315 369
#     4  11  23  38  68  97 119 166 211 258 308 370
#     4  10  22  40  67  92 123 164 209 258 308 360
#     4   9  20  39  63  91 124 160 212 260 304 356
#     4  12  25  39  63  91 131 167 199 258 321 367
#     4  12  23  40  65  94 130 159 211 256 316 370
#
# _framework density 22.840522
#
# number of rings (size 3 to 8) (size 9 to 14) (size 15 to 20)
#    0.000    1.143    2.857    4.714    2.000    2.857 
#    0.000    2.857    0.000    0.857    0.000    0.000 
#    0.000    0.000    0.000    0.000    0.000    0.000 
#
# Total GULP energy -78036.339749 kJ/mol
# GULP energy per Si atom -5574.024268 kJ/mol
# Density = 2.278854 g / cm^3
# Si number density = 22.840522 Si / 1000 Ang^3
#
#
#
# Elastic Constant Matrix: (Units=GPa)
#
#
# Indices 1 2 3 4 5 6 
#
# 1 93.1664 17.7445 9.5433 -4.4622 11.5281 -1.5793
# 2 17.7445 167.3935 17.3125 4.4132 -8.0939 18.2416
# 3 9.5433 17.3125 51.0812 16.9497 12.3145 9.4183
# 4 -4.4622 4.4132 16.9497 42.0895 0.8610 -1.5130
# 5 11.5281 -8.0939 12.3145 0.8610 41.6371 -7.0713
# 6 -1.5793 18.2416 9.4183 -1.5130 -7.0713 36.1127
#
#
#
# Elastic Compliance Matrix: (Units=1/GPa)
#
#
# Indices 1 2 3 4 5 6 
#
# 1 0.011673 -0.001357 -0.002078 0.002319 -0.002707 0.001305
# 2 -0.001357 0.006690 -0.001899 -0.000211 0.001800 -0.002600
# 3 -0.002078 -0.001899 0.028358 -0.011566 -0.009446 -0.008862
# 4 0.002319 -0.000211 -0.011566 0.028804 0.002994 0.005018
# 5 -0.002707 0.001800 -0.009446 0.002994 0.029081 0.007256
# 6 0.001305 -0.002600 -0.008862 0.005018 0.007256 0.033004
#
#
# Mechanical properties :
#
#
# Convention : Reuss Voigt Hill
#
# Bulk Modulus (GPa) = 27.73677 44.53796 36.13736
# Shear Modulus (GPa) = 31.19263 41.77059 36.48161
#
# Velocity S-wave (km/s) = 3.69951 4.28108 4.00087
# Velocity P-wave (km/s) = 5.51530 6.63164 6.09907
#
# Compressibility (1/GPa) = 0.03605323
#
# Stress axis : x y z
#
# Youngs Moduli (GPa) = 85.66810 149.47560 35.26374
#
# Poissons Ratio (x) = 0.20279 0.07329
# Poissons Ratio (y) = 0.11622 0.06695
# Poissons Ratio (z) = 0.17806 0.28380
#
# Static dielectric constant tensor:
#      x y z
#    x 1.945580 0.007410 0.027840 
#    y 0.007410 2.025920 -0.035190 
#    z 0.027840 -0.035190 1.846220 
# 
# From -- ./inp_files/391104.got.cif
#   From: 2010.05.17/outbox.cif.g08.bks.cpg/sg2_196_cif.got.tgz:391104.got - 2010.06.03 11:33:40.
