data_PCOD9025276
_publ_section_title
;
Structure prediction by ZEFSAII (Michael W. Deem and Ramdas Pophale) SiO2 
 PCOD9025276
Probable space group: P -1
;
_chemical_formula_sum "Si O2"
_cell_formula_units_Z 14
_cell_length_a 16.942968
_cell_length_b 16.715931
_cell_length_c 9.221197
_cell_angle_alpha 122.166240
_cell_angle_beta 130.182829
_cell_angle_gamma 18.935470
_cell_volume 614.637707
_symmetry_space_group_name_H-M "P -1"
_symmetry_group_IT_number 2
_symmetry_cell_setting 'triclinic'
loop_
_space_group_symop_operation_xyz
x,y,z
-x,-y,-z
loop_
_atom_site_type_symbol
_atom_site_label
_atom_site_fract_x
_atom_site_fract_y
_atom_site_fract_z
Si Si1 0.760387 0.405524 0.689028
Si Si2 0.432528 0.392107 0.902497
Si Si3 0.114934 0.007240 0.187584
Si Si4 0.343752 0.956446 0.988465
Si Si5 0.680126 0.815047 0.891237
Si Si6 0.419598 0.852780 0.639018
Si Si7 0.710329 0.273286 0.343619
O O1 0.718900 0.546194 0.722524
O O2 0.707629 0.386778 0.467913
O O3 0.529013 0.568459 0.685886
O O4 0.053674 0.151159 0.875665
O O5 0.136954 0.700912 0.849796
O O6 0.595607 0.225265 0.787555
O O7 0.420844 0.307305 0.906964
O O8 0.648104 0.284787 0.126467
O O9 0.218731 0.947287 0.415440
O O10 0.000000 0.000000 0.000000
O O11 0.333452 0.948471 0.794619
O O12 0.327539 0.082492 0.113922
O O13 0.489410 0.890627 0.677599
O O14 0.000000 0.500000 0.000000
O O15 0.500000 0.000000 0.000000
O O16 0.000000 0.000000 0.500000
#
# Coordination Sequence:
#
# PCOD9025276 Si02
#       7
#     2   2   2   2   2   2   2
#     4  11  20  35  65  95 131 163 225 272 338 380
#     4  12  26  45  65  97 136 177 225 278 326 403
#     4  12  30  46  64  96 146 183 218 264 347 415
#     4  11  23  41  73 100 127 172 237 284 332 392
#     4  10  22  40  68 105 132 164 225 293 341 384
#     4  11  24  43  68  96 136 181 219 281 341 399
#     4  11  22  34  60 100 126 167 221 284 324 382
#
# _framework density 22.777645
#
# number of rings (size 3 to 8) (size 9 to 14) (size 15 to 20)
#    0.000    0.857    4.286    2.143    8.000    0.000 
#    0.000    1.429    0.000    0.000    0.000    0.000 
#    0.000    0.000    0.000    0.000    0.000    0.000 
#
# Total GULP energy -78035.958317 kJ/mol
# GULP energy per Si atom -5573.997023 kJ/mol
# Density = 2.272580 g / cm^3
# Si number density = 22.777645 Si / 1000 Ang^3
#
#
#
# Elastic Constant Matrix: (Units=GPa)
#
#
# Indices 1 2 3 4 5 6 
#
# 1 87.7863 48.8698 14.4941 5.0899 14.2962 9.9275
# 2 48.8698 149.9397 17.4549 -7.4498 -2.7286 17.2818
# 3 14.4941 17.4549 49.6076 6.1195 1.1578 1.1407
# 4 5.0899 -7.4498 6.1195 35.1289 2.3799 -7.9246
# 5 14.2962 -2.7286 1.1578 2.3799 35.4642 9.9352
# 6 9.9275 17.2818 1.1407 -7.9246 9.9352 33.8401
#
#
#
# Elastic Compliance Matrix: (Units=1/GPa)
#
#
# Indices 1 2 3 4 5 6 
#
# 1 0.015868 -0.005058 -0.002358 -0.002708 -0.006310 -0.000774
# 2 -0.005058 0.009145 -0.001977 0.001914 0.003734 -0.003768
# 3 -0.002358 -0.001977 0.022024 -0.003956 0.000366 -0.000075
# 4 -0.002708 0.001914 -0.003956 0.032055 -0.003130 0.008376
# 5 -0.006310 0.003734 0.000366 -0.003130 0.034270 -0.010862
# 6 -0.000774 -0.003768 -0.000075 0.008376 -0.010862 0.036855
#
#
# Mechanical properties :
#
#
# Convention : Reuss Voigt Hill
#
# Bulk Modulus (GPa) = 35.39386 49.88569 42.63978
# Shear Modulus (GPa) = 28.02385 34.65430 31.33907
#
# Velocity S-wave (km/s) = 3.51140 3.90477 3.71330
# Velocity P-wave (km/s) = 5.65796 6.50218 6.09470
#
# Compressibility (1/GPa) = 0.02825349
#
# Stress axis : x y z
#
# Youngs Moduli (GPa) = 63.01856 109.34635 45.40563
#
# Poissons Ratio (x) = 0.55304 0.10705
# Poissons Ratio (y) = 0.31873 0.08975
# Poissons Ratio (z) = 0.14857 0.21614
#
# Static dielectric constant tensor:
#      x y z
#    x 2.022290 -0.093330 -0.072280 
#    y -0.093330 2.120440 0.053630 
#    z -0.072280 0.053630 1.884700 
# 
# From -- ./inp_files/54897.got.cif
#   From: 2010.05.17/outbox.cif.g08.bks.cpg/sg2_28_cif.got.tgz:54897.got - 2010.06.03 11:33:40.
