data_PCOD9025806
_publ_section_title
;
Structure prediction by ZEFSAII (Michael W. Deem and Ramdas Pophale) SiO2 
 PCOD9025806
Probable space group: P -1
;
_chemical_formula_sum "Si O2"
_cell_formula_units_Z 13
_cell_length_a 10.797786
_cell_length_b 10.591537
_cell_length_c 14.876984
_cell_angle_alpha 34.440306
_cell_angle_beta 142.149219
_cell_angle_gamma 119.638325
_cell_volume 526.822636
_symmetry_space_group_name_H-M "P -1"
_symmetry_group_IT_number 2
_symmetry_cell_setting 'triclinic'
loop_
_space_group_symop_operation_xyz
x,y,z
-x,-y,-z
loop_
_atom_site_type_symbol
_atom_site_label
_atom_site_fract_x
_atom_site_fract_y
_atom_site_fract_z
Si Si1 0.859534 0.960556 0.861563
Si Si2 0.586084 0.016985 0.439508
Si Si3 0.974554 0.706131 0.293030
Si Si4 0.660205 0.436001 0.981039
Si Si5 0.047785 0.432898 0.306794
Si Si6 0.000000 0.500000 0.000000
Si Si7 0.487933 0.989812 0.890945
O O1 0.611680 0.001599 0.721009
O O2 0.997606 0.674284 0.070067
O O3 0.846087 0.182944 0.659219
O O4 0.000000 0.000000 0.000000
O O5 0.500000 0.000000 0.500000
O O6 0.530193 0.307408 0.234357
O O7 0.830087 0.791020 0.697712
O O8 0.980999 0.576172 0.278692
O O9 0.000000 0.500000 0.500000
O O10 0.733986 0.940578 0.030247
O O11 0.871030 0.338200 0.229113
O O12 0.775135 0.482242 0.929074
O O13 0.561456 0.242768 0.022739
O O14 0.296753 0.224414 0.591597
O O15 0.500000 0.000000 0.000000
#
# Coordination Sequence:
#
# PCOD9025806 Si02
#       7
#     2   2   2   2   2   1   2
#     4   9  21  41  68  94 135 172 226 280 333 413
#     4   9  20  38  64  97 133 175 225 281 336 401
#     4  11  24  42  69  99 137 185 223 286 357 399
#     4  10  24  42  66 102 141 174 235 290 341 414
#     4  10  23  46  66 100 134 182 234 288 342 412
#     4  10  22  40  72 102 138 184 224 286 356 408
#     4  12  26  42  68  99 138 184 234 287 349 420
#
# _framework density 24.676237
#
# number of rings (size 3 to 8) (size 9 to 14) (size 15 to 20)
#    0.000    1.846    1.538    0.462    4.308    9.846 
#    0.000    0.000    0.000    0.000    0.000    0.000 
#    0.000    0.000    0.000    0.000    0.000    0.000 
#
# Total GULP energy -72396.459848 kJ/mol
# GULP energy per Si atom -5568.958450 kJ/mol
# Density = 2.462007 g / cm^3
# Si number density = 24.676237 Si / 1000 Ang^3
#
#
#
# Elastic Constant Matrix: (Units=GPa)
#
#
# Indices 1 2 3 4 5 6 
#
# 1 47.2988 10.5894 11.1356 -6.2659 7.9733 11.1178
# 2 10.5894 133.9834 31.8738 0.7503 3.7013 2.9722
# 3 11.1356 31.8738 190.1858 -10.0664 23.5611 -6.9921
# 4 -6.2659 0.7503 -10.0664 34.3247 -4.9034 -9.3974
# 5 7.9733 3.7013 23.5611 -4.9034 48.3697 -2.3553
# 6 11.1178 2.9722 -6.9921 -9.3974 -2.3553 15.6228
#
#
#
# Elastic Compliance Matrix: (Units=1/GPa)
#
#
# Indices 1 2 3 4 5 6 
#
# 1 0.027578 -0.001118 -0.001758 -0.002266 -0.004920 -0.022305
# 2 -0.001118 0.007946 -0.001423 -0.001390 0.000022 -0.002186
# 3 -0.001758 -0.001423 0.006212 0.002788 -0.002069 0.005667
# 4 -0.002266 -0.001390 0.002788 0.037344 0.004184 0.026219
# 5 -0.004920 0.000022 -0.002069 0.004184 0.023334 0.008606
# 6 -0.022305 -0.002186 0.005667 0.026219 0.008606 0.099902
#
#
# Mechanical properties :
#
#
# Convention : Reuss Voigt Hill
#
# Bulk Modulus (GPa) = 30.17650 53.18506 41.68078
# Shear Modulus (GPa) = 22.52659 40.85473 31.69066
#
# Velocity S-wave (km/s) = 3.02468 4.07336 3.58754
# Velocity P-wave (km/s) = 4.94507 6.61233 5.83852
#
# Compressibility (1/GPa) = 0.03313837
#
# Stress axis : x y z
#
# Youngs Moduli (GPa) = 36.26042 125.84694 160.99022
#
# Poissons Ratio (x) = 0.14071 0.28299
# Poissons Ratio (y) = 0.04054 0.22908
# Poissons Ratio (z) = 0.06374 0.17907
#
# Static dielectric constant tensor:
#      x y z
#    x 2.066800 0.064730 -0.127860 
#    y 0.064730 1.865810 -0.093110 
#    z -0.127860 -0.093110 2.112920 
# 
# From -- ./inp_files/437140.got.cif
#   From: 2010.05.17/outbox.cif.g08.bks.cpg/sg2_219_cif.got.tgz:437140.got - 2010.06.03 11:33:40.
