data_PCOD9025523
_publ_section_title
;
Structure prediction by ZEFSAII (Michael W. Deem and Ramdas Pophale) SiO2 
 PCOD9025523
Probable space group: P -1
;
_chemical_formula_sum "Si O2"
_cell_formula_units_Z 15
_cell_length_a 9.551896
_cell_length_b 7.110982
_cell_length_c 15.559091
_cell_angle_alpha 55.564346
_cell_angle_beta 138.461128
_cell_angle_gamma 105.592851
_cell_volume 554.470751
_symmetry_space_group_name_H-M "P -1"
_symmetry_group_IT_number 2
_symmetry_cell_setting 'triclinic'
loop_
_space_group_symop_operation_xyz
x,y,z
-x,-y,-z
loop_
_atom_site_type_symbol
_atom_site_label
_atom_site_fract_x
_atom_site_fract_y
_atom_site_fract_z
Si Si1 0.462424 0.765726 0.001340
Si Si2 0.821870 0.567209 0.640021
Si Si3 0.567461 0.391157 0.799162
Si Si4 0.514694 0.906372 0.810853
Si Si5 0.000000 0.000000 0.500000
Si Si6 0.369940 0.756765 0.469071
Si Si7 0.978738 0.941418 0.669691
Si Si8 0.019733 0.253301 0.976954
O O1 0.568814 0.733517 0.964808
O O2 0.203438 0.835421 0.846780
O O3 0.527106 0.583064 0.155428
O O4 0.500000 0.000000 0.000000
O O5 0.566485 0.717140 0.500792
O O6 0.807753 0.366574 0.619372
O O7 0.955079 0.756462 0.629076
O O8 0.935160 0.438514 0.811800
O O9 0.479990 0.610106 0.639876
O O10 0.522345 0.164285 0.786131
O O11 0.833652 0.332158 0.942739
O O12 0.276142 0.925493 0.661654
O O13 0.722499 0.805200 0.870133
O O14 0.973244 0.147095 0.547522
O O15 0.776276 0.991997 0.628575
O O16 0.000000 0.000000 0.000000
#
# Coordination Sequence:
#
# PCOD9025523 Si02
#       8
#     2   2   2   2   1   2   2   2
#     4   9  20  38  63  88 133 168 219 268 322 391
#     4  10  22  42  65 100 130 165 224 267 318 411
#     4   9  18  38  61  97 122 162 223 266 316 403
#     4   9  18  37  63  87 127 177 204 272 325 377
#     4  10  22  42  58  92 136 166 224 264 310 390
#     4  10  22  40  69  94 132 172 207 272 341 373
#     4  11  23  43  65  92 132 175 216 271 323 382
#     4   9  19  36  66  94 126 167 211 266 337 372
#
# _framework density 27.052823
#
# number of rings (size 3 to 8) (size 9 to 14) (size 15 to 20)
#    0.000    2.400    0.000    1.200    5.600    1.067 
#    7.200    9.333    0.000    0.000    0.000    0.000 
#    0.000    0.000    0.000    0.000    0.000    0.000 
#
# Total GULP energy -83727.615563 kJ/mol
# GULP energy per Si atom -5581.841038 kJ/mol
# Density = 2.699125 g / cm^3
# Si number density = 27.052823 Si / 1000 Ang^3
#
#
#
# Elastic Constant Matrix: (Units=GPa)
#
#
# Indices 1 2 3 4 5 6 
#
# 1 91.1659 24.2230 39.9812 4.2553 14.9158 1.1737
# 2 24.2230 99.1526 37.1671 19.3928 19.4147 -1.0211
# 3 39.9812 37.1671 133.5510 15.3420 5.2345 8.5929
# 4 4.2553 19.3928 15.3420 39.5356 8.1499 0.8948
# 5 14.9158 19.4147 5.2345 8.1499 56.3757 2.5892
# 6 1.1737 -1.0211 8.5929 0.8948 2.5892 30.7115
#
#
#
# Elastic Compliance Matrix: (Units=1/GPa)
#
#
# Indices 1 2 3 4 5 6 
#
# 1 0.013393 -0.001595 -0.003649 0.001335 -0.002879 0.000660
# 2 -0.001595 0.012987 -0.002590 -0.004566 -0.003225 0.001622
# 3 -0.003649 -0.002590 0.009687 -0.002327 0.001419 -0.002709
# 4 0.001335 -0.004566 -0.002327 0.028859 -0.002729 -0.000162
# 5 -0.002879 -0.003225 0.001419 -0.002729 0.019965 -0.001998
# 6 0.000660 0.001622 -0.002709 -0.000162 -0.001998 0.033521
#
#
# Mechanical properties :
#
#
# Convention : Reuss Voigt Hill
#
# Bulk Modulus (GPa) = 49.02107 58.51244 53.76675
# Shear Modulus (GPa) = 35.49137 40.15777 37.82457
#
# Velocity S-wave (km/s) = 3.62598 3.85700 3.74327
# Velocity P-wave (km/s) = 5.97413 6.44292 6.21294
#
# Compressibility (1/GPa) = 0.02039939
#
# Stress axis : x y z
#
# Youngs Moduli (GPa) = 74.66526 76.99919 103.23154
#
# Poissons Ratio (x) = 0.12281 0.37665
# Poissons Ratio (y) = 0.11908 0.26741
# Poissons Ratio (z) = 0.27243 0.19946
#
# Static dielectric constant tensor:
#      x y z
#    x 3.120520 1.880310 -0.708120 
#    y 1.880310 5.575570 -1.308820 
#    z -0.708120 -1.308820 2.465320 
# 
# From -- ./inp_files/567337.got.cif
#   From: 2010.05.17/outbox.cif.g08.bks.cpg/sg2_284_cif.got.tgz:567337.got - 2010.06.03 11:33:40.
