data_PCOD9025867
_publ_section_title
;
Structure prediction by ZEFSAII (Michael W. Deem and Ramdas Pophale) SiO2 
 PCOD9025867
Probable space group: P -1
;
_chemical_formula_sum "Si O2"
_cell_formula_units_Z 11
_cell_length_a 8.231547
_cell_length_b 9.271975
_cell_length_c 8.876687
_cell_angle_alpha 65.836616
_cell_angle_beta 53.722007
_cell_angle_gamma 101.430726
_cell_volume 399.116289
_symmetry_space_group_name_H-M "P -1"
_symmetry_group_IT_number 2
_symmetry_cell_setting 'triclinic'
loop_
_space_group_symop_operation_xyz
x,y,z
-x,-y,-z
loop_
_atom_site_type_symbol
_atom_site_label
_atom_site_fract_x
_atom_site_fract_y
_atom_site_fract_z
Si Si1 0.342052 0.482697 0.389294
Si Si2 0.396873 0.696041 0.774206
Si Si3 0.899270 0.266397 0.281268
Si Si4 0.000000 0.000000 0.500000
Si Si5 0.492512 0.155879 0.031709
Si Si6 0.103169 0.217394 0.897160
O O1 0.385593 0.335746 0.339597
O O2 0.123341 0.342679 0.687708
O O3 0.609112 0.639921 0.260540
O O4 0.320338 0.624213 0.235084
O O5 0.347508 0.744259 0.614721
O O6 0.458636 0.836704 0.819273
O O7 0.141896 0.490882 0.049991
O O8 0.927973 0.155024 0.443853
O O9 0.923016 0.190532 0.139817
O O10 0.782656 0.891472 0.796658
O O11 0.500000 0.000000 0.000000
O O12 0.000000 0.000000 0.000000
#
# Coordination Sequence:
#
# PCOD9025867 Si02
#       6
#     2   2   2   1   2   2
#     4  10  23  46  70 107 151 199 248 318 384 446
#     4  10  23  47  73 101 149 196 253 309 383 447
#     4  10  24  44  72 109 142 200 249 311 383 458
#     4  12  26  48  72 112 158 188 256 310 394 450
#     4  12  28  47  74 113 152 201 257 316 379 460
#     4  10  22  40  73 103 145 190 256 306 377 453
#
# _framework density 27.560891000000002
#
# number of rings (size 3 to 8) (size 9 to 14) (size 15 to 20)
#    0.000    1.455    3.636    0.545    5.091    6.545 
#    0.000    1.818    0.000    0.000    0.000    0.000 
#    0.000    0.000    0.000    0.000    0.000    0.000 
#
# Total GULP energy -61391.169543 kJ/mol
# GULP energy per Si atom -5581.015413 kJ/mol
# Density = 2.749816 g / cm^3
# Si number density = 27.560891 Si / 1000 Ang^3
#
#
#
# Elastic Constant Matrix: (Units=GPa)
#
#
# Indices 1 2 3 4 5 6 
#
# 1 117.6286 13.1975 3.0993 -15.0637 21.0307 -16.5292
# 2 13.1975 129.5741 5.3210 19.2046 -6.0374 -1.3442
# 3 3.0993 5.3210 83.5292 -14.6146 11.6082 -15.1680
# 4 -15.0637 19.2046 -14.6146 53.0679 -18.6211 8.3423
# 5 21.0307 -6.0374 11.6082 -18.6211 45.4337 -12.0096
# 6 -16.5292 -1.3442 -15.1680 8.3423 -12.0096 32.4674
#
#
#
# Elastic Compliance Matrix: (Units=1/GPa)
#
#
# Indices 1 2 3 4 5 6 
#
# 1 0.010024 -0.001473 0.001229 0.001938 -0.003328 0.003888
# 2 -0.001473 0.008485 -0.001170 -0.003605 0.000694 0.000237
# 3 0.001229 -0.001170 0.013786 0.003169 -0.001450 0.005667
# 4 0.001938 -0.003605 0.003169 0.024387 0.007499 -0.001174
# 5 -0.003328 0.000694 -0.001450 0.007499 0.028771 0.006373
# 6 0.003888 0.000237 0.005667 -0.001174 0.006373 0.038096
#
#
# Mechanical properties :
#
#
# Convention : Reuss Voigt Hill
#
# Bulk Modulus (GPa) = 33.93655 41.55196 37.74425
# Shear Modulus (GPa) = 36.71120 46.80140 41.75630
#
# Velocity S-wave (km/s) = 3.65362 4.12528 3.89660
# Velocity P-wave (km/s) = 5.48987 6.14815 5.82831
#
# Compressibility (1/GPa) = 0.02946675
#
# Stress axis : x y z
#
# Youngs Moduli (GPa) = 99.76333 117.85801 72.53804
#
# Poissons Ratio (x) = 0.17366 -0.08918
# Poissons Ratio (y) = 0.14700 0.08486
# Poissons Ratio (z) = -0.12266 0.13787
#
# Static dielectric constant tensor:
#      x y z
#    x 2.394070 -0.002360 0.033560 
#    y -0.002360 2.161910 -0.039280 
#    z 0.033560 -0.039280 2.217010 
# 
# From -- ./inp_files/153229.got.cif
#   From: 2010.05.17/outbox.cif.g08.bks.cpg/sg2_77_cif.got.tgz:153229.got - 2010.06.03 11:33:40.
