data_PCOD9025400
_publ_section_title
;
Structure prediction by ZEFSAII (Michael W. Deem and Ramdas Pophale) SiO2 
 PCOD9025400
Probable space group: P -1
;
_chemical_formula_sum "Si O2"
_cell_formula_units_Z 14
_cell_length_a 19.779368
_cell_length_b 8.533964
_cell_length_c 5.197713
_cell_angle_alpha 86.558911
_cell_angle_beta 88.678201
_cell_angle_gamma 47.426914
_cell_volume 644.749088
_symmetry_space_group_name_H-M "P -1"
_symmetry_group_IT_number 2
_symmetry_cell_setting 'triclinic'
loop_
_space_group_symop_operation_xyz
x,y,z
-x,-y,-z
loop_
_atom_site_type_symbol
_atom_site_label
_atom_site_fract_x
_atom_site_fract_y
_atom_site_fract_z
Si Si1 0.407087 0.977737 0.990150
Si Si2 0.335118 0.359141 0.659803
Si Si3 0.239566 0.293918 0.281559
Si Si4 0.155156 0.688114 0.936442
Si Si5 0.504272 0.682601 0.513342
Si Si6 0.060549 0.367180 0.265994
Si Si7 0.024482 0.086692 0.265226
O O1 0.452029 0.815091 0.764891
O O2 0.399102 0.176080 0.893394
O O3 0.456748 0.838070 0.255881
O O4 0.301117 0.120641 0.069036
O O5 0.302909 0.254450 0.514151
O O6 0.241983 0.584336 0.757487
O O7 0.395130 0.391345 0.495222
O O8 0.152949 0.319218 0.305495
O O9 0.199832 0.524400 0.179163
O O10 0.079027 0.694786 0.814802
O O11 0.085882 0.923720 0.039823
O O12 0.500000 0.500000 0.500000
O O13 0.080680 0.151521 0.321632
O O14 0.000000 0.500000 0.500000
O O15 0.000000 0.500000 0.000000
O O16 0.000000 0.000000 0.500000
#
# Coordination Sequence:
#
# PCOD9025400 Si02
#       7
#     2   2   2   2   2   2   2
#     4  11  25  47  73 103 137 185 232 281 347 420
#     4  11  24  44  76  99 139 181 240 280 344 423
#     4  11  24  45  71 103 137 181 243 281 340 415
#     4  10  22  40  68  98 135 183 229 284 344 407
#     4  12  27  47  72 105 145 178 226 291 355 412
#     4  12  26  44  70  99 140 184 234 286 339 403
#     4  11  23  43  66  97 141 184 232 284 348 407
#
# _framework density 21.713875000000002
#
# number of rings (size 3 to 8) (size 9 to 14) (size 15 to 20)
#    0.000    0.857    2.857    3.857    8.000    1.143 
#    5.143    0.000    0.000    0.000    0.000    0.000 
#    0.000    0.000    0.000    0.000    0.000    0.000 
#
# Total GULP energy -77939.469319 kJ/mol
# GULP energy per Si atom -5567.104951 kJ/mol
# Density = 2.166445 g / cm^3
# Si number density = 21.713875 Si / 1000 Ang^3
#
#
#
# Elastic Constant Matrix: (Units=GPa)
#
#
# Indices 1 2 3 4 5 6 
#
# 1 160.0060 51.1495 51.4201 31.1146 -26.2491 -12.0684
# 2 51.1495 110.8932 46.1808 38.0630 -11.5927 -20.5562
# 3 51.4201 46.1808 130.3564 23.0335 -7.0599 -11.7740
# 4 31.1146 38.0630 23.0335 53.6688 -11.9087 -0.6298
# 5 -26.2491 -11.5927 -7.0599 -11.9087 28.6724 7.7241
# 6 -12.0684 -20.5562 -11.7740 -0.6298 7.7241 22.3292
#
#
#
# Elastic Compliance Matrix: (Units=1/GPa)
#
#
# Indices 1 2 3 4 5 6 
#
# 1 0.008909 -0.002209 -0.002225 -0.001237 0.006371 -0.000630
# 2 -0.002209 0.016680 -0.002153 -0.010323 -0.003889 0.014080
# 3 -0.002225 -0.002153 0.009752 -0.001768 -0.001935 0.002577
# 4 -0.001237 -0.010323 -0.001768 0.029542 0.010250 -0.013817
# 5 0.006371 -0.003889 -0.001935 0.010250 0.047586 -0.017329
# 6 -0.000630 0.014080 0.002577 -0.013817 -0.017329 0.064370
#
#
# Mechanical properties :
#
#
# Convention : Reuss Voigt Hill
#
# Bulk Modulus (GPa) = 45.11044 77.63959 61.37502
# Shear Modulus (GPa) = 25.32913 37.76777 31.54845
#
# Velocity S-wave (km/s) = 3.41910 4.17506 3.81585
# Velocity P-wave (km/s) = 6.03383 7.68602 6.90948
#
# Compressibility (1/GPa) = 0.02216782
#
# Stress axis : x y z
#
# Youngs Moduli (GPa) = 112.24371 59.95316 102.54418
#
# Poissons Ratio (x) = 0.13243 0.22816
# Poissons Ratio (y) = 0.24793 0.22073
# Poissons Ratio (z) = 0.24974 0.12905
#
# Static dielectric constant tensor:
#      x y z
#    x 2.036670 -0.064080 0.141590 
#    y -0.064080 1.754940 -0.100950 
#    z 0.141590 -0.100950 1.962310 
# 
# From -- ./inp_files/48238.got.cif
#   From: 2010.05.17/outbox.cif.g08.bks.cpg/sg2_25_cif.got.tgz:48238.got - 2010.06.03 11:33:40.
