data_PCOD9025379
_publ_section_title
;
Structure prediction by ZEFSAII (Michael W. Deem and Ramdas Pophale) SiO2 
 PCOD9025379
Probable space group: P -1
;
_chemical_formula_sum "Si O2"
_cell_formula_units_Z 16
_cell_length_a 24.252884
_cell_length_b 18.732996
_cell_length_c 14.893679
_cell_angle_alpha 31.059853
_cell_angle_beta 19.375824
_cell_angle_gamma 21.054889
_cell_volume 790.338273
_symmetry_space_group_name_H-M "P -1"
_symmetry_group_IT_number 2
_symmetry_cell_setting 'triclinic'
loop_
_space_group_symop_operation_xyz
x,y,z
-x,-y,-z
loop_
_atom_site_type_symbol
_atom_site_label
_atom_site_fract_x
_atom_site_fract_y
_atom_site_fract_z
Si Si1 0.487573 0.716143 0.868043
Si Si2 0.444298 0.672762 0.497953
Si Si3 0.985147 0.579711 0.533291
Si Si4 0.862817 0.449106 0.230943
Si Si5 0.572566 0.632693 0.142764
Si Si6 0.788934 0.019701 0.823633
Si Si7 0.510241 0.599839 0.774321
Si Si8 0.041844 0.088652 0.764574
O O1 0.534964 0.700777 0.705083
O O2 0.749869 0.574542 0.663483
O O3 0.307593 0.910233 0.000818
O O4 0.392272 0.614879 0.125508
O O5 0.711612 0.539939 0.272016
O O6 0.435239 0.691487 0.384202
O O7 0.371424 0.560755 0.762727
O O8 0.256365 0.898759 0.579653
O O9 0.898422 0.790990 0.428870
O O10 0.000000 0.500000 0.500000
O O11 0.801964 0.591065 0.855279
O O12 0.648109 0.554198 0.520616
O O13 0.076174 0.205553 0.160278
O O14 0.000000 0.500000 0.000000
O O15 0.422956 0.803149 0.111024
O O16 0.000000 0.000000 0.500000
O O17 0.222688 0.749661 0.047856
O O18 0.000000 0.000000 0.000000
#
# Coordination Sequence:
#
# PCOD9025379 Si02
#       8
#     2   2   2   2   2   2   2   2
#     4  10  22  40  68  97 123 166 220 271 318 390
#     4  11  25  45  65  97 136 174 216 273 340 382
#     4  11  23  41  67  96 127 170 225 269 321 392
#     4  12  27  44  66  96 138 174 216 276 333 391
#     4  11  25  43  69  97 132 174 220 276 324 398
#     4  12  23  43  69  93 130 180 223 258 332 404
#     4  10  22  42  65  94 130 168 212 268 330 386
#     4  11  23  40  69  93 130 173 216 267 335 390
#
# _framework density 20.244496000000002
#
# number of rings (size 3 to 8) (size 9 to 14) (size 15 to 20)
#    0.000    1.000    5.000    0.750    5.250    1.500 
#    2.250    0.625    0.000    0.000    0.000    0.000 
#    0.000    0.000    0.000    0.000    0.000    0.000 
#
# Total GULP energy -89192.393803 kJ/mol
# GULP energy per Si atom -5574.524613 kJ/mol
# Density = 2.019842 g / cm^3
# Si number density = 20.244496 Si / 1000 Ang^3
#
#
#
# Elastic Constant Matrix: (Units=GPa)
#
#
# Indices 1 2 3 4 5 6 
#
# 1 102.9577 46.6160 11.5732 0.9282 -0.2749 20.7001
# 2 46.6160 144.3230 35.9835 -2.0298 -3.9484 41.5543
# 3 11.5732 35.9835 70.0655 -4.2564 -15.6114 16.7568
# 4 0.9282 -2.0298 -4.2564 26.7765 8.5731 -5.7846
# 5 -0.2749 -3.9484 -15.6114 8.5731 31.3139 -2.6167
# 6 20.7001 41.5543 16.7568 -5.7846 -2.6167 31.9682
#
#
#
# Elastic Compliance Matrix: (Units=1/GPa)
#
#
# Indices 1 2 3 4 5 6 
#
# 1 0.011806 -0.002547 0.000425 -0.001589 0.000025 -0.004843
# 2 -0.002547 0.012221 -0.002952 -0.002139 -0.000464 -0.013113
# 3 0.000425 -0.002952 0.019065 -0.001379 0.009017 -0.005942
# 4 -0.001589 -0.002139 -0.001379 0.043281 -0.011868 0.011392
# 5 0.000025 -0.000464 0.009017 -0.011868 0.039365 -0.003065
# 6 -0.004843 -0.013113 -0.005942 0.011392 -0.003065 0.056388
#
#
# Mechanical properties :
#
#
# Convention : Reuss Voigt Hill
#
# Bulk Modulus (GPa) = 30.35544 56.18796 43.27170
# Shear Modulus (GPa) = 24.59972 32.88995 28.74484
#
# Velocity S-wave (km/s) = 3.48965 4.03505 3.77222
# Velocity P-wave (km/s) = 5.59141 7.03731 6.35561
#
# Compressibility (1/GPa) = 0.03294303
#
# Stress axis : x y z
#
# Youngs Moduli (GPa) = 84.70262 81.82971 52.45244
#
# Poissons Ratio (x) = 0.20839 -0.02229
# Poissons Ratio (y) = 0.21570 0.15487
# Poissons Ratio (z) = -0.03599 0.24160
#
# Static dielectric constant tensor:
#      x y z
#    x 1.978640 -0.127890 0.008620 
#    y -0.127890 1.733560 -0.019340 
#    z 0.008620 -0.019340 1.747490 
# 
# From -- ./inp_files/543142.got.cif
#   From: 2010.05.17/outbox.cif.g08.bks.cpg/sg2_272_cif.got.tgz:543142.got - 2010.06.03 11:33:40.
