data_PCOD9025967
_publ_section_title
;
Structure prediction by ZEFSAII (Michael W. Deem and Ramdas Pophale) SiO2 
 PCOD9025967
Probable space group: P -1
;
_chemical_formula_sum "Si O2"
_cell_formula_units_Z 16
_cell_length_a 14.917195
_cell_length_b 12.854467
_cell_length_c 4.966716
_cell_angle_alpha 120.825537
_cell_angle_beta 115.331965
_cell_angle_gamma 66.238853
_cell_volume 718.202425
_symmetry_space_group_name_H-M "P -1"
_symmetry_group_IT_number 2
_symmetry_cell_setting 'triclinic'
loop_
_space_group_symop_operation_xyz
x,y,z
-x,-y,-z
loop_
_atom_site_type_symbol
_atom_site_label
_atom_site_fract_x
_atom_site_fract_y
_atom_site_fract_z
Si Si1 0.077751 0.886729 0.086394
Si Si2 0.605878 0.229649 0.310191
Si Si3 0.597947 0.957474 0.879296
Si Si4 0.527311 0.742256 0.300672
Si Si5 0.059464 0.638752 0.557441
Si Si6 0.727898 0.699540 0.765203
Si Si7 0.820854 0.218750 0.417174
Si Si8 0.153116 0.413267 0.718290
O O1 0.174945 0.844533 0.955197
O O2 0.026530 0.769453 0.844074
O O3 0.118261 0.885719 0.437481
O O4 0.000000 0.000000 0.000000
O O5 0.561393 0.239906 0.566262
O O6 0.708817 0.273524 0.456776
O O7 0.514653 0.295114 0.080608
O O8 0.633403 0.084132 0.053240
O O9 0.560724 0.875040 0.488061
O O10 0.684635 0.846015 0.973986
O O11 0.500000 0.000000 0.000000
O O12 0.630176 0.659623 0.454006
O O13 0.958901 0.589807 0.321207
O O14 0.115704 0.676441 0.418392
O O15 0.139339 0.543014 0.715090
O O16 0.809173 0.683406 0.606641
O O17 0.771522 0.623045 0.982875
#
# Coordination Sequence:
#
# PCOD9025967 Si02
#       8
#     2   2   2   2   2   2   2   2
#     4  10  22  41  60  86 125 155 192 250 299 356
#     4  11  18  35  60  83 122 158 191 233 308 361
#     4   8  19  34  57  87 124 155 192 249 300 356
#     4   9  20  34  55  87 120 150 196 248 287 356
#     4   9  26  40  66  84 127 152 213 250 304 346
#     4  10  23  35  61  92 120 152 206 247 308 354
#     4  10  23  37  61  90 115 163 196 238 297 366
#     4  11  23  41  63  89 115 167 201 257 301 357
#
# _framework density 22.277840000000001
#
# number of rings (size 3 to 8) (size 9 to 14) (size 15 to 20)
#    1.500    0.750    0.000    2.250    3.500    4.000 
#    0.000    0.000    0.000    4.500    0.000    0.000 
#    0.000    0.000    0.000    0.000    0.000    0.000 
#
# Total GULP energy -89121.166078 kJ/mol
# GULP energy per Si atom -5570.072880 kJ/mol
# Density = 2.222713 g / cm^3
# Si number density = 22.277840 Si / 1000 Ang^3
#
#
#
# Elastic Constant Matrix: (Units=GPa)
#
#
# Indices 1 2 3 4 5 6 
#
# 1 98.9088 33.9685 9.2514 -9.8980 -11.3672 10.6523
# 2 33.9685 113.5151 33.7520 -38.4270 3.4846 -11.1977
# 3 9.2514 33.7520 53.2882 -27.3985 -16.4530 3.9191
# 4 -9.8980 -38.4270 -27.3985 37.0557 -3.3876 -3.1159
# 5 -11.3672 3.4846 -16.4530 -3.3876 25.1700 -3.6684
# 6 10.6523 -11.1977 3.9191 -3.1159 -3.6684 23.2651
#
#
#
# Elastic Compliance Matrix: (Units=1/GPa)
#
#
# Indices 1 2 3 4 5 6 
#
# 1 0.014241 -0.006844 0.006976 0.002106 0.010913 -0.008987
# 2 -0.006844 0.019087 -0.007126 0.013301 -0.006521 0.014274
# 3 0.006976 -0.007126 0.058413 0.041715 0.047439 -0.003397
# 4 0.002106 0.013301 0.041715 0.076991 0.038905 0.014856
# 5 0.010913 -0.006521 0.047439 0.038905 0.082103 0.002030
# 6 -0.008987 0.014274 -0.003397 0.014856 0.002030 0.056850
#
#
# Mechanical properties :
#
#
# Convention : Reuss Voigt Hill
#
# Bulk Modulus (GPa) = 12.86123 46.62843 29.74483
# Shear Modulus (GPa) = 14.38472 29.68085 22.03278
#
# Velocity S-wave (km/s) = 2.54381 3.65403 3.14825
# Velocity P-wave (km/s) = 3.79653 6.22724 5.15713
#
# Compressibility (1/GPa) = 0.07775305
#
# Stress axis : x y z
#
# Youngs Moduli (GPa) = 70.21883 52.39178 17.11946
#
# Poissons Ratio (x) = 0.35858 -0.11942
# Poissons Ratio (y) = 0.48060 0.12199
# Poissons Ratio (z) = -0.48983 0.37333
#
# Static dielectric constant tensor:
#      x y z
#    x 1.836750 -0.012820 0.006370 
#    y -0.012820 1.867900 0.009990 
#    z 0.006370 0.009990 1.870820 
# 
# From -- ./inp_files/95403.got.cif
#   From: 2010.05.17/outbox.cif.g08.bks.cpg/sg2_48_cif.got.tgz:95403.got - 2010.06.03 11:33:40.
