data_PCOD9025868
_publ_section_title
;
Structure prediction by ZEFSAII (Michael W. Deem and Ramdas Pophale) SiO2 
 PCOD9025868
Probable space group: P -1
;
_chemical_formula_sum "Si O2"
_cell_formula_units_Z 14
_cell_length_a 9.103263
_cell_length_b 12.013246
_cell_length_c 9.601876
_cell_angle_alpha 54.444021
_cell_angle_beta 57.973876
_cell_angle_gamma 48.436259
_cell_volume 620.909134
_symmetry_space_group_name_H-M "P -1"
_symmetry_group_IT_number 2
_symmetry_cell_setting 'triclinic'
loop_
_space_group_symop_operation_xyz
x,y,z
-x,-y,-z
loop_
_atom_site_type_symbol
_atom_site_label
_atom_site_fract_x
_atom_site_fract_y
_atom_site_fract_z
Si Si1 0.909567 0.744776 0.785271
Si Si2 0.202152 0.524670 0.021791
Si Si3 0.473632 0.008647 0.844461
Si Si4 0.569127 0.685968 0.429518
Si Si5 0.222169 0.683336 0.429652
Si Si6 0.217008 0.846740 0.026477
Si Si7 0.481624 0.630411 0.796659
O O1 0.705972 0.914409 0.747549
O O2 0.022762 0.688167 0.921250
O O3 0.056478 0.740616 0.594004
O O4 0.846557 0.611530 0.891570
O O5 0.399645 0.518327 0.858584
O O6 0.298126 0.470987 0.168672
O O7 0.354804 0.194488 0.730379
O O8 0.367433 0.912083 0.928499
O O9 0.500000 0.000000 0.000000
O O10 0.402678 0.700234 0.393767
O O11 0.724781 0.497840 0.489521
O O12 0.481552 0.731668 0.595525
O O13 0.186039 0.765718 0.237849
O O14 0.315039 0.737565 0.918760
O O15 0.000000 0.000000 0.000000
#
# Coordination Sequence:
#
# PCOD9025868 Si02
#       7
#     2   2   2   2   2   2   2
#     4  11  25  42  77 107 146 187 247 292 359 429
#     4  10  22  40  73 104 139 187 237 292 354 428
#     4  12  28  48  73 106 148 192 240 298 361 429
#     4  11  26  44  78 103 151 186 247 291 361 428
#     4  11  25  47  74 111 138 194 244 297 348 441
#     4  12  29  48  74 105 151 186 244 300 368 427
#     4  11  23  45  70 106 147 192 231 300 369 415
#
# _framework density 22.547582999999999
#
# number of rings (size 3 to 8) (size 9 to 14) (size 15 to 20)
#    0.000    0.857    4.286    1.714   10.000    2.286 
#    0.000    2.143    0.000    0.000    0.000    0.000 
#    0.000    0.000    0.000    0.000    0.000    0.000 
#
# Total GULP energy -78049.584347 kJ/mol
# GULP energy per Si atom -5574.970311 kJ/mol
# Density = 2.249626 g / cm^3
# Si number density = 22.547583 Si / 1000 Ang^3
#
#
#
# Elastic Constant Matrix: (Units=GPa)
#
#
# Indices 1 2 3 4 5 6 
#
# 1 85.5022 15.2274 15.8364 -4.3193 6.6955 -2.4746
# 2 15.2274 90.4624 50.9419 -2.6231 4.2423 -8.6056
# 3 15.8364 50.9419 144.6789 -9.4596 14.6276 -0.4778
# 4 -4.3193 -2.6231 -9.4596 38.4411 2.7761 -4.5981
# 5 6.6955 4.2423 14.6276 2.7761 34.7231 -9.3873
# 6 -2.4746 -8.6056 -0.4778 -4.5981 -9.3873 34.4533
#
#
#
# Elastic Compliance Matrix: (Units=1/GPa)
#
#
# Indices 1 2 3 4 5 6 
#
# 1 0.012309 -0.001668 -0.000466 0.001312 -0.002058 0.000075
# 2 -0.001668 0.014486 -0.005090 -0.000113 0.001757 0.003892
# 3 -0.000466 -0.005090 0.009267 0.001924 -0.003880 -0.001977
# 4 0.001312 -0.000113 0.001924 0.027167 -0.002393 0.003066
# 5 -0.002058 0.001757 -0.003880 -0.002393 0.033233 0.008973
# 6 0.000075 0.003892 -0.001977 0.003066 0.008973 0.032829
#
#
# Mechanical properties :
#
#
# Convention : Reuss Voigt Hill
#
# Bulk Modulus (GPa) = 46.26748 53.85056 50.05902
# Shear Modulus (GPa) = 33.12523 37.43268 35.27895
#
# Velocity S-wave (km/s) = 3.83708 4.07893 3.95985
# Velocity P-wave (km/s) = 6.33998 6.79106 6.56939
#
# Compressibility (1/GPa) = 0.02161345
#
# Stress axis : x y z
#
# Youngs Moduli (GPa) = 81.24438 69.03208 107.91264
#
# Poissons Ratio (x) = 0.11513 0.05028
# Poissons Ratio (y) = 0.13550 0.54930
# Poissons Ratio (z) = 0.03786 0.35139
#
# Static dielectric constant tensor:
#      x y z
#    x 0.432960 1.246350 1.808690 
#    y 1.246350 0.402440 -1.764960 
#    z 1.808690 -1.764960 -0.525970 
# 
# From -- ./inp_files/184780.got.cif
#   From: 2010.05.17/outbox.cif.g08.bks.cpg/sg2_93_cif.got.tgz:184780.got - 2010.06.03 11:33:40.
