data_PCOD9025832
_publ_section_title
;
Structure prediction by ZEFSAII (Michael W. Deem and Ramdas Pophale) SiO2 
 PCOD9025832
Probable space group: P -1
;
_chemical_formula_sum "Si O2"
_cell_formula_units_Z 15
_cell_length_a 5.837466
_cell_length_b 26.692944
_cell_length_c 15.280272
_cell_angle_alpha 161.397473
_cell_angle_beta 117.394394
_cell_angle_gamma 61.989579
_cell_volume 669.605141
_symmetry_space_group_name_H-M "P -1"
_symmetry_group_IT_number 2
_symmetry_cell_setting 'triclinic'
loop_
_space_group_symop_operation_xyz
x,y,z
-x,-y,-z
loop_
_atom_site_type_symbol
_atom_site_label
_atom_site_fract_x
_atom_site_fract_y
_atom_site_fract_z
Si Si1 0.551116 0.646387 0.852842
Si Si2 0.740070 0.901510 0.989165
Si Si3 0.754115 0.628363 0.681025
Si Si4 0.519395 0.220432 0.752805
Si Si5 0.189408 0.946425 0.247483
Si Si6 0.729575 0.592408 0.146980
Si Si7 0.000000 0.000000 0.500000
Si Si8 0.211424 0.126432 0.245791
O O1 0.748480 0.676381 0.860816
O O2 0.491812 0.467010 0.539651
O O3 0.602168 0.696048 0.042336
O O4 0.301273 0.763908 0.971207
O O5 0.733081 0.773700 0.852544
O O6 0.769611 0.824245 0.770958
O O7 0.994497 0.983043 0.193784
O O8 0.485941 0.026289 0.152031
O O9 0.000000 0.500000 0.500000
O O10 0.420149 0.316753 0.810350
O O11 0.822231 0.175097 0.744598
O O12 0.431038 0.044806 0.442612
O O13 0.058928 0.992273 0.392324
O O14 0.820697 0.721619 0.445387
O O15 0.500000 0.500000 0.000000
O O16 0.000000 0.500000 0.000000
O O17 0.000000 0.000000 0.000000
#
# Coordination Sequence:
#
# PCOD9025832 Si02
#       8
#     2   2   2   2   2   2   1   2
#     4  10  24  41  64 104 146 186 237 294 385 454
#     4  11  26  43  79 104 149 192 268 315 390 463
#     4  11  24  41  64 101 145 189 232 300 376 453
#     4  11  26  44  76 106 150 195 252 312 393 470
#     4  11  23  41  68 110 141 191 242 317 376 473
#     4  12  32  55  81 118 166 213 271 340 411 473
#     4  10  22  40  72 106 146 190 250 302 392 460
#     4  11  28  51  81 108 145 211 277 326 392 472
#
# _framework density 22.401261999999999
#
# number of rings (size 3 to 8) (size 9 to 14) (size 15 to 20)
#    0.000    1.067    1.333    3.200   16.800    1.067 
#    0.000    0.000    0.000    0.000    0.000    0.000 
#    0.000    0.000    0.000    0.000    0.000    0.000 
#
# Total GULP energy -83558.040193 kJ/mol
# GULP energy per Si atom -5570.536013 kJ/mol
# Density = 2.235028 g / cm^3
# Si number density = 22.401262 Si / 1000 Ang^3
#
#
#
# Elastic Constant Matrix: (Units=GPa)
#
#
# Indices 1 2 3 4 5 6 
#
# 1 91.0375 28.0740 65.4401 -14.5290 -23.2832 20.0480
# 2 28.0740 103.5964 34.5070 -13.9284 -18.8238 20.6060
# 3 65.4401 34.5070 124.6662 -17.5103 -5.9331 10.9028
# 4 -14.5290 -13.9284 -17.5103 20.2826 7.3731 10.1124
# 5 -23.2832 -18.8238 -5.9331 7.3731 55.0035 -6.9453
# 6 20.0480 20.6060 10.9028 10.1124 -6.9453 32.4285
#
#
#
# Elastic Compliance Matrix: (Units=1/GPa)
#
#
# Indices 1 2 3 4 5 6 
#
# 1 0.026487 0.004423 -0.009880 0.021983 0.006007 -0.021432
# 2 0.004423 0.015888 -0.002172 0.020449 0.002057 -0.018036
# 3 -0.009880 -0.002172 0.014327 0.005177 -0.004050 0.000189
# 4 0.021983 0.020449 0.005177 0.119973 -0.007730 -0.067392
# 5 0.006007 0.002057 -0.004050 -0.007730 0.022477 0.003565
# 6 -0.021432 -0.018036 0.000189 -0.067392 0.003565 0.077263
#
#
# Mechanical properties :
#
#
# Convention : Reuss Voigt Hill
#
# Bulk Modulus (GPa) = 24.12888 63.92692 44.02790
# Shear Modulus (GPa) = 16.36734 34.29486 25.33110
#
# Velocity S-wave (km/s) = 2.70597 3.91696 3.36637
# Velocity P-wave (km/s) = 4.53406 7.00399 5.89973
#
# Compressibility (1/GPa) = 0.04144411
#
# Stress axis : x y z
#
# Youngs Moduli (GPa) = 37.75472 62.93954 69.79969
#
# Poissons Ratio (x) = -0.27840 0.68961
# Poissons Ratio (y) = -0.16700 0.15162
# Poissons Ratio (z) = 0.37301 0.13672
#
# Static dielectric constant tensor:
#      x y z
#    x 1.978560 -0.004770 0.037180 
#    y -0.004770 1.778480 -0.051610 
#    z 0.037180 -0.051610 1.884770 
# 
# From -- ./inp_files/486203.got.cif
#   From: 2010.05.17/outbox.cif.g08.bks.cpg/sg2_244_cif.got.tgz:486203.got - 2010.06.03 11:33:40.
