data_PCOD9025773
_publ_section_title
;
Structure prediction by ZEFSAII (Michael W. Deem and Ramdas Pophale) SiO2 
 PCOD9025773
Probable space group: P -1
;
_chemical_formula_sum "Si O2"
_cell_formula_units_Z 16
_cell_length_a 15.174365
_cell_length_b 11.792549
_cell_length_c 11.662845
_cell_angle_alpha 142.159442
_cell_angle_beta 54.688740
_cell_angle_gamma 142.947207
_cell_volume 763.704757
_symmetry_space_group_name_H-M "P -1"
_symmetry_group_IT_number 2
_symmetry_cell_setting 'triclinic'
loop_
_space_group_symop_operation_xyz
x,y,z
-x,-y,-z
loop_
_atom_site_type_symbol
_atom_site_label
_atom_site_fract_x
_atom_site_fract_y
_atom_site_fract_z
Si Si1 0.174496 0.478151 0.619018
Si Si2 0.900243 0.195367 0.768095
Si Si3 0.434518 0.989821 0.724060
Si Si4 0.043971 0.613310 0.432581
Si Si5 0.940727 0.622183 0.981305
Si Si6 0.620918 0.892269 0.385737
Si Si7 0.661607 0.619784 0.447173
Si Si8 0.657977 0.509457 0.107311
O O1 0.291047 0.774413 0.735946
O O2 0.274815 0.423656 0.530990
O O3 0.059319 0.358654 0.716202
O O4 0.061292 0.340674 0.488591
O O5 0.857835 0.356525 0.899524
O O6 0.779750 0.921781 0.585435
O O7 0.928534 0.185123 0.872484
O O8 0.504946 0.880689 0.535557
O O9 0.395240 0.064053 0.699841
O O10 0.554118 0.240459 0.908188
O O11 0.014395 0.419440 0.205320
O O12 0.000000 0.500000 0.500000
O O13 0.215513 0.861079 0.498916
O O14 0.828152 0.655936 0.069919
O O15 0.610291 0.660062 0.226020
O O16 0.500000 0.500000 0.500000
O O17 0.650689 0.492743 0.236953
#
# Coordination Sequence:
#
# PCOD9025773 Si02
#       8
#     2   2   2   2   2   2   2   2
#     4  11  23  40  71 100 135 188 229 286 352 411
#     4  10  23  45  66  97 145 182 229 285 349 421
#     4  11  25  45  70 101 142 188 235 291 351 420
#     4  11  22  44  70  99 136 186 237 290 351 412
#     4  10  22  40  71  97 133 188 230 282 351 410
#     4  11  24  46  71  98 145 186 237 292 352 413
#     4  12  27  43  68 106 143 182 232 292 355 424
#     4  12  24  42  73 102 134 190 234 289 352 418
#
# _framework density 20.950503000000001
#
# number of rings (size 3 to 8) (size 9 to 14) (size 15 to 20)
#    0.000    1.000    3.750    3.000    3.500    3.500 
#    0.000    0.625    0.000    0.000    0.000    0.000 
#    0.000    0.000    0.000    0.000    0.000    0.000 
#
# Total GULP energy -89339.466112 kJ/mol
# GULP energy per Si atom -5583.716632 kJ/mol
# Density = 2.090282 g / cm^3
# Si number density = 20.950503 Si / 1000 Ang^3
#
#
#
# Elastic Constant Matrix: (Units=GPa)
#
#
# Indices 1 2 3 4 5 6 
#
# 1 149.8909 31.6365 39.4998 -6.8390 1.7410 7.5516
# 2 31.6365 92.0150 36.2593 -8.9551 7.3257 7.0188
# 3 39.4998 36.2593 95.3621 -7.0665 16.5790 1.3070
# 4 -6.8390 -8.9551 -7.0665 21.8368 -1.8471 1.8398
# 5 1.7410 7.3257 16.5790 -1.8471 38.0187 -5.8534
# 6 7.5516 7.0188 1.3070 1.8398 -5.8534 28.7817
#
#
#
# Elastic Compliance Matrix: (Units=1/GPa)
#
#
# Indices 1 2 3 4 5 6 
#
# 1 0.007817 -0.001459 -0.002743 0.001165 0.000952 -0.001452
# 2 -0.001459 0.013701 -0.004071 0.004026 -0.001104 -0.003255
# 3 -0.002743 -0.004071 0.014200 0.001634 -0.005218 -0.000098
# 4 0.001165 0.004026 0.001634 0.048725 0.000141 -0.004448
# 5 0.000952 -0.001104 -0.005218 0.000141 0.029723 0.006292
# 6 -0.001452 -0.003255 -0.000098 -0.004448 0.006292 0.037487
#
#
# Mechanical properties :
#
#
# Convention : Reuss Voigt Hill
#
# Bulk Modulus (GPa) = 52.15256 61.33991 56.74624
# Shear Modulus (GPa) = 28.63858 33.05228 30.84543
#
# Velocity S-wave (km/s) = 3.70126 3.97626 3.84122
# Velocity P-wave (km/s) = 6.57366 7.10091 6.84236
#
# Compressibility (1/GPa) = 0.01917451
#
# Stress axis : x y z
#
# Youngs Moduli (GPa) = 127.91966 72.98548 70.42387
#
# Poissons Ratio (x) = 0.10646 0.19315
# Poissons Ratio (y) = 0.18659 0.28667
# Poissons Ratio (z) = 0.35085 0.29710
#
# Static dielectric constant tensor:
#      x y z
#    x 1.793580 -0.004880 -0.033360 
#    y -0.004880 1.755890 -0.018170 
#    z -0.033360 -0.018170 1.777120 
# 
# From -- ./inp_files/452631.got.cif
#   From: 2010.05.17/outbox.cif.g08.bks.cpg/sg2_227_cif.got.tgz:452631.got - 2010.06.03 11:33:40.
