data_PCOD9025429
_publ_section_title
;
Structure prediction by ZEFSAII (Michael W. Deem and Ramdas Pophale) SiO2 
 PCOD9025429
Probable space group: P -1
;
_chemical_formula_sum "Si O2"
_cell_formula_units_Z 16
_cell_length_a 12.988682
_cell_length_b 7.456165
_cell_length_c 11.939503
_cell_angle_alpha 128.616173
_cell_angle_beta 130.522895
_cell_angle_gamma 61.356820
_cell_volume 681.433954
_symmetry_space_group_name_H-M "P -1"
_symmetry_group_IT_number 2
_symmetry_cell_setting 'triclinic'
loop_
_space_group_symop_operation_xyz
x,y,z
-x,-y,-z
loop_
_atom_site_type_symbol
_atom_site_label
_atom_site_fract_x
_atom_site_fract_y
_atom_site_fract_z
Si Si1 0.678568 0.413703 0.736545
Si Si2 0.076978 0.578047 0.738802
Si Si3 0.491103 0.928954 0.593889
Si Si4 0.093479 0.663537 0.298980
Si Si5 0.902325 0.948078 0.111491
Si Si6 0.348731 0.128241 0.960553
Si Si7 0.770699 0.879651 0.375694
Si Si8 0.229761 0.894538 0.116335
O O1 0.547875 0.328020 0.551619
O O2 0.780278 0.465247 0.730541
O O3 0.757434 0.199672 0.783827
O O4 0.642177 0.627626 0.876355
O O5 0.025664 0.819254 0.735901
O O6 0.146669 0.367451 0.632577
O O7 0.966944 0.474800 0.698314
O O8 0.195479 0.669291 0.935870
O O9 0.500000 0.000000 0.500000
O O10 0.363364 0.061194 0.620777
O O11 0.630550 0.999541 0.768757
O O12 0.143181 0.903059 0.471089
O O13 0.977739 0.739129 0.153535
O O14 0.752774 0.996753 0.080804
O O15 0.885418 0.923286 0.955370
O O16 0.276566 0.144966 0.795470
O O17 0.500000 0.000000 0.000000
#
# Coordination Sequence:
#
# PCOD9025429 Si02
#       8
#     2   2   2   2   2   2   2   2
#     4  10  22  43  70  94 136 186 213 281 349 381
#     4  10  22  40  68  99 135 181 219 277 329 396
#     4   9  20  39  67  95 132 178 226 276 335 405
#     4  11  23  45  68  98 142 177 226 273 337 400
#     4  10  23  40  65 105 130 175 228 274 326 400
#     4  12  24  43  68 101 133 176 231 277 334 408
#     4  11  22  42  69  96 137 184 218 280 338 396
#     4   9  19  40  61 101 131 171 228 271 334 393
#
# _framework density 23.479897999999999
#
# number of rings (size 3 to 8) (size 9 to 14) (size 15 to 20)
#    0.750    1.000    2.500    1.125    0.000    5.500 
#    2.250    5.625    0.000    1.500    0.000    0.000 
#    0.000    0.000    0.000    0.000    0.000    0.000 
#
# Total GULP energy -89287.725938 kJ/mol
# GULP energy per Si atom -5580.482871 kJ/mol
# Density = 2.342646 g / cm^3
# Si number density = 23.479898 Si / 1000 Ang^3
#
#
#
# Elastic Constant Matrix: (Units=GPa)
#
#
# Indices 1 2 3 4 5 6 
#
# 1 131.9068 23.6618 50.2006 11.4113 6.4515 19.4559
# 2 23.6618 51.4775 -2.1211 16.1411 -7.3527 13.3998
# 3 50.2006 -2.1211 112.6465 28.9803 3.4427 -13.3546
# 4 11.4113 16.1411 28.9803 32.7435 -0.8668 -3.8177
# 5 6.4515 -7.3527 3.4427 -0.8668 36.9482 5.1219
# 6 19.4559 13.3998 -13.3546 -3.8177 5.1219 28.5042
#
#
#
# Elastic Compliance Matrix: (Units=1/GPa)
#
#
# Indices 1 2 3 4 5 6 
#
# 1 0.012461 -0.005083 -0.007678 0.003881 -0.001135 -0.008990
# 2 -0.005083 0.033775 0.006733 -0.022218 0.008364 -0.013732
# 3 -0.007678 0.006733 0.017268 -0.014978 -0.000421 0.008236
# 4 0.003881 -0.022218 -0.014978 0.054316 -0.003636 0.008706
# 5 -0.001135 0.008364 -0.000421 -0.003636 0.030165 -0.009262
# 6 -0.008990 -0.013732 0.008236 0.008706 -0.009262 0.054363
#
#
# Mechanical properties :
#
#
# Convention : Reuss Voigt Hill
#
# Bulk Modulus (GPa) = 19.43661 48.83483 34.13572
# Shear Modulus (GPa) = 21.59325 34.59181 28.09253
#
# Velocity S-wave (km/s) = 3.03586 3.84246 3.46273
# Velocity P-wave (km/s) = 4.53702 6.36630 5.52785
#
# Compressibility (1/GPa) = 0.05144930
#
# Stress axis : x y z
#
# Youngs Moduli (GPa) = 80.25206 29.60733 57.90892
#
# Poissons Ratio (x) = 0.15049 0.44464
# Poissons Ratio (y) = 0.40791 -0.38992
# Poissons Ratio (z) = 0.61619 -0.19936
#
# Static dielectric constant tensor:
#      x y z
#    x 1.854960 -0.049900 0.004340 
#    y -0.049900 1.875250 -0.114360 
#    z 0.004340 -0.114360 1.854200 
# 
# From -- ./inp_files/420099.got.cif
#   From: 2010.05.17/outbox.cif.g08.bks.cpg/sg2_211_cif.got.tgz:420099.got - 2010.06.03 11:33:40.
