data_PCOD9025218
_publ_section_title
;
Structure prediction by ZEFSAII (Michael W. Deem and Ramdas Pophale) SiO2 
 PCOD9025218
Probable space group: P -1
;
_chemical_formula_sum "Si O2"
_cell_formula_units_Z 16
_cell_length_a 13.910406
_cell_length_b 23.788997
_cell_length_c 15.468897
_cell_angle_alpha 18.087223
_cell_angle_beta 27.802082
_cell_angle_gamma 26.488474
_cell_volume 687.426888
_symmetry_space_group_name_H-M "P -1"
_symmetry_group_IT_number 2
_symmetry_cell_setting 'triclinic'
loop_
_space_group_symop_operation_xyz
x,y,z
-x,-y,-z
loop_
_atom_site_type_symbol
_atom_site_label
_atom_site_fract_x
_atom_site_fract_y
_atom_site_fract_z
Si Si1 0.976209 0.892204 0.470272
Si Si2 0.838664 0.557451 0.384189
Si Si3 0.878108 0.567442 0.090559
Si Si4 0.102654 0.819192 0.748704
Si Si5 0.822971 0.876901 0.247613
Si Si6 0.514739 0.250964 0.753823
Si Si7 0.577076 0.816811 0.364377
Si Si8 0.096023 0.144727 0.600761
O O1 0.230056 0.776686 0.408934
O O2 0.824304 0.919492 0.466587
O O3 0.953322 0.091967 0.240115
O O4 0.923802 0.765686 0.771682
O O5 0.619215 0.619110 0.409072
O O6 0.762235 0.659977 0.387872
O O7 0.964774 0.326823 0.627560
O O8 0.998193 0.654833 0.069663
O O9 0.616625 0.650489 0.198706
O O10 0.989435 0.379285 0.336052
O O11 0.000000 0.500000 0.000000
O O12 0.366509 0.753173 0.625902
O O13 0.000000 0.000000 0.500000
O O14 0.657300 0.849936 0.347773
O O15 0.749469 0.908015 0.360838
O O16 0.911919 0.048052 0.904018
O O17 0.511322 0.034501 0.058747
#
# Coordination Sequence:
#
# PCOD9025218 Si02
#       8
#     2   2   2   2   2   2   2   2
#     4  11  22  40  72 102 135 174 225 280 339 392
#     4  12  24  43  69 100 136 177 222 280 336 403
#     4  10  22  40  67  99 134 169 227 281 327 383
#     4  12  23  40  71 102 137 166 218 292 336 391
#     4  11  24  45  67  95 141 183 225 269 335 410
#     4  12  21  41  70 104 132 174 225 275 340 399
#     4  12  24  42  71  99 132 180 223 272 347 402
#     4  10  22  44  66  92 138 186 216 278 329 392
#
# _framework density 23.275203999999999
#
# number of rings (size 3 to 8) (size 9 to 14) (size 15 to 20)
#    0.000    0.750    6.250    1.500    0.000    2.500 
#    0.000    0.625    0.000    0.000    0.000    0.000 
#    0.000    0.000    0.000    0.000    0.000    0.000 
#
# Total GULP energy -89342.657540 kJ/mol
# GULP energy per Si atom -5583.916096 kJ/mol
# Density = 2.322223 g / cm^3
# Si number density = 23.275204 Si / 1000 Ang^3
#
#
#
# Elastic Constant Matrix: (Units=GPa)
#
#
# Indices 1 2 3 4 5 6 
#
# 1 121.1527 20.3812 32.9924 4.9206 7.1635 12.5737
# 2 20.3812 76.3517 27.1817 15.4660 -3.5857 14.4826
# 3 32.9924 27.1817 114.1945 9.8210 2.2567 -3.0125
# 4 4.9206 15.4660 9.8210 36.1254 -5.8159 -6.6228
# 5 7.1635 -3.5857 2.2567 -5.8159 31.6275 -1.8837
# 6 12.5737 14.4826 -3.0125 -6.6228 -1.8837 40.4398
#
#
#
# Elastic Compliance Matrix: (Units=1/GPa)
#
#
# Indices 1 2 3 4 5 6 
#
# 1 0.009615 -0.000962 -0.002478 -0.001206 -0.002519 -0.003145
# 2 -0.000962 0.017605 -0.003456 -0.007747 0.000589 -0.007505
# 3 -0.002478 -0.003456 0.010429 -0.000616 -0.000529 0.002660
# 4 -0.001206 -0.007747 -0.000616 0.033973 0.006220 0.008957
# 5 -0.002519 0.000589 -0.000529 0.006220 0.033623 0.003118
# 6 -0.003145 -0.007505 0.002660 0.008957 0.003118 0.030204
#
#
# Mechanical properties :
#
#
# Convention : Reuss Voigt Hill
#
# Bulk Modulus (GPa) = 41.91663 52.53440 47.22551
# Shear Modulus (GPa) = 31.80798 37.04812 34.42805
#
# Velocity S-wave (km/s) = 3.70077 3.99399 3.85017
# Velocity P-wave (km/s) = 6.02571 6.62490 6.33239
#
# Compressibility (1/GPa) = 0.02385688
#
# Stress axis : x y z
#
# Youngs Moduli (GPa) = 104.00331 56.80257 95.88431
#
# Poissons Ratio (x) = 0.05463 0.23764
# Poissons Ratio (y) = 0.10003 0.33137
# Poissons Ratio (z) = 0.25777 0.19630
#
# Static dielectric constant tensor:
#      x y z
#    x 1.957290 0.022190 -0.016270 
#    y 0.022190 1.882130 0.021060 
#    z -0.016270 0.021060 1.897860 
# 
# From -- ./inp_files/535374.got.cif
#   From: 2010.05.17/outbox.cif.g08.bks.cpg/sg2_268_cif.got.tgz:535374.got - 2010.06.03 11:33:40.
