data_PCOD9025124
_publ_section_title
;
Structure prediction by ZEFSAII (Michael W. Deem and Ramdas Pophale) SiO2 
 PCOD9025124
Probable space group: P -1
;
_chemical_formula_sum "Si O2"
_cell_formula_units_Z 12
_cell_length_a 10.006807
_cell_length_b 14.401275
_cell_length_c 8.098454
_cell_angle_alpha 81.782944
_cell_angle_beta 91.973169
_cell_angle_gamma 152.737724
_cell_volume 517.948634
_symmetry_space_group_name_H-M "P -1"
_symmetry_group_IT_number 2
_symmetry_cell_setting 'triclinic'
loop_
_space_group_symop_operation_xyz
x,y,z
-x,-y,-z
loop_
_atom_site_type_symbol
_atom_site_label
_atom_site_fract_x
_atom_site_fract_y
_atom_site_fract_z
Si Si1 0.694012 0.748305 0.881633
Si Si2 0.223121 0.601336 0.850040
Si Si3 0.732995 0.149856 0.813800
Si Si4 0.765979 0.848716 0.379911
Si Si5 0.723216 0.642343 0.235053
Si Si6 0.332052 0.743706 0.485239
O O1 0.496406 0.716578 0.910074
O O2 0.529820 0.595266 0.754949
O O3 0.700069 0.684891 0.053098
O O4 0.029917 0.987007 0.801741
O O5 0.342373 0.751447 0.683765
O O6 0.005926 0.389500 0.811764
O O7 0.000000 0.500000 0.000000
O O8 0.599563 0.120597 0.654518
O O9 0.939455 0.187565 0.776019
O O10 0.500000 0.000000 0.000000
O O11 0.658741 0.678130 0.366026
O O12 0.526181 0.777222 0.426146
O O13 0.000000 0.000000 0.500000
O O14 0.000000 0.500000 0.500000
#
# Coordination Sequence:
#
# PCOD9025124 Si02
#       6
#     2   2   2   2   2   2
#     4  10  22  44  67 102 135 179 240 275 353 411
#     4  10  22  40  67  94 133 180 230 283 343 412
#     4  10  22  41  65  98 138 176 225 283 350 408
#     4  12  24  42  72 100 137 180 233 284 350 418
#     4  10  24  42  67 102 138 180 227 293 341 415
#     4  10  23  44  67  99 137 182 232 281 351 418
#
# _framework density 23.168319
#
# number of rings (size 3 to 8) (size 9 to 14) (size 15 to 20)
#    0.000    1.667    1.667    1.500    7.000    0.667 
#    0.000    3.333    0.000    0.000    0.000    0.000 
#    0.000    0.000    0.000    0.000    0.000    0.000 
#
# Total GULP energy -66936.204013 kJ/mol
# GULP energy per Si atom -5578.017001 kJ/mol
# Density = 2.311559 g / cm^3
# Si number density = 23.168319 Si / 1000 Ang^3
#
#
#
# Elastic Constant Matrix: (Units=GPa)
#
#
# Indices 1 2 3 4 5 6 
#
# 1 168.9874 50.0946 86.1345 -1.0209 1.0204 34.6338
# 2 50.0946 96.1387 20.6881 -9.6708 0.6073 7.5195
# 3 86.1345 20.6881 127.2962 -20.9970 4.1088 16.0424
# 4 -1.0209 -9.6708 -20.9970 37.3357 -6.1945 -5.8266
# 5 1.0204 0.6073 4.1088 -6.1945 39.6765 -3.8778
# 6 34.6338 7.5195 16.0424 -5.8266 -3.8778 50.6289
#
#
#
# Elastic Compliance Matrix: (Units=1/GPa)
#
#
# Indices 1 2 3 4 5 6 
#
# 1 0.012835 -0.005113 -0.008132 -0.006708 -0.001072 -0.006298
# 2 -0.005113 0.012999 0.001898 0.004637 0.000611 0.001546
# 3 -0.008132 0.001898 0.014235 0.008589 0.000220 0.001776
# 4 -0.006708 0.004637 0.008589 0.034342 0.005114 0.005522
# 5 -0.001072 0.000611 0.000220 0.005114 0.026308 0.003177
# 6 -0.006298 0.001546 0.001776 0.005522 0.003177 0.024146
#
#
# Mechanical properties :
#
#
# Convention : Reuss Voigt Hill
#
# Bulk Modulus (GPa) = 57.55528 78.47299 68.01413
# Shear Modulus (GPa) = 32.60454 41.22855 36.91655
#
# Velocity S-wave (km/s) = 3.75546 4.22302 3.99608
# Velocity P-wave (km/s) = 6.61066 7.59755 7.12122
#
# Compressibility (1/GPa) = 0.01737460
#
# Stress axis : x y z
#
# Youngs Moduli (GPa) = 77.91219 76.92698 70.24730
#
# Poissons Ratio (x) = 0.39335 0.57123
# Poissons Ratio (y) = 0.39839 -0.13330
# Poissons Ratio (z) = 0.63356 -0.14597
#
# Static dielectric constant tensor:
#      x y z
#    x 2.043650 -0.199230 -0.128010 
#    y -0.199230 2.040400 0.204240 
#    z -0.128010 0.204240 2.064920 
# 
# From -- ./inp_files/157167.got.cif
#   From: 2010.05.17/outbox.cif.g08.bks.cpg/sg2_79_cif.got.tgz:157167.got - 2010.06.03 11:33:40.
