data_PCOD9025479
_publ_section_title
;
Structure prediction by ZEFSAII (Michael W. Deem and Ramdas Pophale) SiO2 
 PCOD9025479
Probable space group: P -1
;
_chemical_formula_sum "Si O2"
_cell_formula_units_Z 14
_cell_length_a 12.092714
_cell_length_b 6.748598
_cell_length_c 11.129954
_cell_angle_alpha 101.913159
_cell_angle_beta 68.763137
_cell_angle_gamma 134.940320
_cell_volume 597.590050
_symmetry_space_group_name_H-M "P -1"
_symmetry_group_IT_number 2
_symmetry_cell_setting 'triclinic'
loop_
_space_group_symop_operation_xyz
x,y,z
-x,-y,-z
loop_
_atom_site_type_symbol
_atom_site_label
_atom_site_fract_x
_atom_site_fract_y
_atom_site_fract_z
Si Si1 0.627921 0.815374 0.032269
Si Si2 0.574012 0.180108 0.725597
Si Si3 0.365345 0.590662 0.658141
Si Si4 0.180212 0.287315 0.930704
Si Si5 0.095493 0.684115 0.366425
Si Si6 0.896215 0.391154 0.902010
Si Si7 0.314873 0.311233 0.400921
O O1 0.534607 0.901786 0.125893
O O2 0.717069 0.795441 0.099173
O O3 0.500000 0.500000 0.000000
O O4 0.764958 0.053405 0.916279
O O5 0.733571 0.237135 0.693924
O O6 0.637291 0.469123 0.689741
O O7 0.448237 0.910041 0.654957
O O8 0.231248 0.422123 0.795664
O O9 0.291483 0.413231 0.544050
O O10 0.523456 0.638168 0.637152
O O11 0.196454 0.502118 0.037966
O O12 0.000000 0.000000 0.000000
O O13 0.012248 0.530065 0.251597
O O14 0.000000 0.500000 0.500000
O O15 0.156812 0.987551 0.393854
O O16 0.000000 0.500000 0.000000
#
# Coordination Sequence:
#
# PCOD9025479 Si02
#       7
#     2   2   2   2   2   2   2
#     4  12  25  43  73 102 142 188 242 299 360 434
#     4  11  22  44  71 103 137 192 238 297 358 427
#     4  10  22  40  69 104 141 186 243 291 352 442
#     4  12  25  43  70 108 143 186 241 301 361 427
#     4  11  28  47  70 106 146 186 243 298 363 437
#     4  12  27  48  72 106 147 192 240 302 369 432
#     4  10  22  43  69 100 142 191 238 292 360 427
#
# _framework density 23.427429
#
# number of rings (size 3 to 8) (size 9 to 14) (size 15 to 20)
#    0.000    0.857    4.286    2.143    4.000    2.857 
#    2.571    0.000    0.000    0.000    0.000    0.000 
#    0.000    0.000    0.000    0.000    0.000    0.000 
#
# Total GULP energy -78239.262901 kJ/mol
# GULP energy per Si atom -5588.518779 kJ/mol
# Density = 2.337411 g / cm^3
# Si number density = 23.427429 Si / 1000 Ang^3
#
#
#
# Elastic Constant Matrix: (Units=GPa)
#
#
# Indices 1 2 3 4 5 6 
#
# 1 45.6210 3.9817 9.6274 0.8437 -7.1101 7.1329
# 2 3.9817 151.1906 47.1807 -5.1702 3.2633 -3.1926
# 3 9.6274 47.1807 157.6849 -0.4053 0.6905 16.8435
# 4 0.8437 -5.1702 -0.4053 41.0943 -6.5218 1.3445
# 5 -7.1101 3.2633 0.6905 -6.5218 26.3356 0.6013
# 6 7.1329 -3.1926 16.8435 1.3445 0.6013 29.3497
#
#
#
# Elastic Compliance Matrix: (Units=1/GPa)
#
#
# Indices 1 2 3 4 5 6 
#
# 1 0.024078 -0.000664 -0.000691 0.000697 0.006904 -0.005701
# 2 -0.000664 0.007489 -0.002447 0.000708 -0.000922 0.002367
# 3 -0.000691 -0.002447 0.007592 -0.000073 0.000001 -0.004452
# 4 0.000697 0.000708 -0.000073 0.025475 0.006442 -0.001350
# 5 0.006904 -0.000922 0.000001 0.006442 0.041612 -0.002927
# 6 -0.005701 0.002367 -0.004452 -0.001350 -0.002927 0.038391
#
#
# Mechanical properties :
#
#
# Convention : Reuss Voigt Hill
#
# Bulk Modulus (GPa) = 31.69136 52.89733 42.29435
# Shear Modulus (GPa) = 30.72020 38.93637 34.82829
#
# Velocity S-wave (km/s) = 3.62511 4.08119 3.85989
# Velocity P-wave (km/s) = 5.57483 6.69599 6.16097
#
# Compressibility (1/GPa) = 0.03155434
#
# Stress axis : x y z
#
# Youngs Moduli (GPa) = 41.53188 133.52073 131.72562
#
# Poissons Ratio (x) = 0.08866 0.09101
# Poissons Ratio (y) = 0.02758 0.32238
# Poissons Ratio (z) = 0.02869 0.32677
#
# Static dielectric constant tensor:
#      x y z
#    x 1.891350 0.013560 0.011510 
#    y 0.013560 1.899180 0.021310 
#    z 0.011510 0.021310 1.902930 
# 
# From -- ./inp_files/355030.got.cif
#   From: 2010.05.17/outbox.cif.g08.bks.cpg/sg2_178_cif.got.tgz:355030.got - 2010.06.03 11:33:40.
