data_PCOD9025708
_publ_section_title
;
Structure prediction by ZEFSAII (Michael W. Deem and Ramdas Pophale) SiO2 
 PCOD9025708
Probable space group: P -1
;
_chemical_formula_sum "Si O2"
_cell_formula_units_Z 15
_cell_length_a 14.336263
_cell_length_b 14.419284
_cell_length_c 12.770117
_cell_angle_alpha 49.680651
_cell_angle_beta 132.218361
_cell_angle_gamma 160.095300
_cell_volume 664.385118
_symmetry_space_group_name_H-M "P -1"
_symmetry_group_IT_number 2
_symmetry_cell_setting 'triclinic'
loop_
_space_group_symop_operation_xyz
x,y,z
-x,-y,-z
loop_
_atom_site_type_symbol
_atom_site_label
_atom_site_fract_x
_atom_site_fract_y
_atom_site_fract_z
Si Si1 0.000000 0.000000 0.000000
Si Si2 0.395447 0.147925 0.652507
Si Si3 0.676219 0.841472 0.192294
Si Si4 0.528827 0.101647 0.596979
Si Si5 0.865104 0.666596 0.976181
Si Si6 0.983470 0.206998 0.674429
Si Si7 0.867883 0.464739 0.289747
Si Si8 0.790554 0.672926 0.464073
O O1 0.053709 0.947903 0.174591
O O2 0.913256 0.811743 0.993230
O O3 0.460928 0.200869 0.785770
O O4 0.516383 0.376475 0.525351
O O5 0.517466 0.147678 0.671149
O O6 0.058644 0.857265 0.596480
O O7 0.448007 0.600501 0.111680
O O8 0.789448 0.816801 0.350442
O O9 0.917173 0.121079 0.108213
O O10 0.314793 0.996650 0.442447
O O11 0.400089 0.854618 0.678904
O O12 0.849484 0.370820 0.604674
O O13 0.897484 0.564785 0.131212
O O14 0.133019 0.433988 0.696047
O O15 0.166009 0.337790 0.613237
#
# Coordination Sequence:
#
# PCOD9025708 Si02
#       8
#     1   2   2   2   2   2   2   2
#     4  10  22  46  62 104 134 172 202 272 328 408
#     4  11  24  41  66  97 131 175 221 275 320 384
#     4  12  23  43  66  97 135 173 219 267 335 390
#     4  11  23  43  66  93 131 174 228 268 317 377
#     4  11  25  43  67  97 135 175 219 264 333 394
#     4  10  22  40  70  98 133 169 215 265 340 391
#     4  11  24  44  65  95 132 176 222 273 314 386
#     4  11  22  40  65 100 134 170 216 267 335 397
#
# _framework density 22.577266999999999
#
# number of rings (size 3 to 8) (size 9 to 14) (size 15 to 20)
#    0.000    1.067    1.333    5.600    1.867    2.667 
#    2.400    4.000    0.000    0.000    0.000    0.000 
#    0.000    0.000    0.000    0.000    0.000    0.000 
#
# Total GULP energy -83771.062856 kJ/mol
# GULP energy per Si atom -5584.737524 kJ/mol
# Density = 2.252588 g / cm^3
# Si number density = 22.577267 Si / 1000 Ang^3
#
#
#
# Elastic Constant Matrix: (Units=GPa)
#
#
# Indices 1 2 3 4 5 6 
#
# 1 -246.7935 -27.3046 -524.2646 173.5076 506.0871 -77.4746
# 2 -27.3046 50.0388 -55.8299 17.6793 53.7481 -1.0191
# 3 -524.2646 -55.8299 -840.1018 300.1890 892.7788 -114.2289
# 4 173.5076 17.6793 300.1890 -94.0515 -306.1773 35.4304
# 5 506.0871 53.7481 892.7788 -306.1773 -827.1960 106.7105
# 6 -77.4746 -1.0191 -114.2289 35.4304 106.7105 11.3381
#
#
#
# Elastic Compliance Matrix: (Units=1/GPa)
#
#
# Indices 1 2 3 4 5 6 
#
# 1 0.023613 -0.003349 0.000986 0.021395 0.009398 0.015682
# 2 -0.003349 0.019686 -0.000121 -0.001706 -0.001111 -0.006536
# 3 0.000986 -0.000121 0.013423 0.022538 0.007213 0.003655
# 4 0.021395 -0.001706 0.022538 0.108194 0.000802 0.027473
# 5 0.009398 -0.001111 0.007213 0.000802 0.013223 0.009822
# 6 0.015682 -0.006536 0.003655 0.027473 0.009822 0.053302
#
#
# Mechanical properties :
#
#
# Convention : Reuss Voigt Hill
#
# Bulk Modulus (GPa) = 19.32102 -250.18386 -115.43142
# Shear Modulus (GPa) = 19.71148 -210.61236 -95.45044
#
# Velocity S-wave (km/s) = 2.95798 -9.66890 -6.50915
# Velocity P-wave (km/s) = 4.49916 15.35262 10.37932
#
# Compressibility (1/GPa) = 0.05175710
#
# Stress axis : x y z
#
# Youngs Moduli (GPa) = 42.34952 50.79722 74.49665
#
# Poissons Ratio (x) = 0.17010 -0.07349
# Poissons Ratio (y) = 0.14181 0.00899
# Poissons Ratio (z) = -0.04178 0.00613
#
# Static dielectric constant tensor:
#      x y z
#    x 1.843930 -0.005690 -0.009150 
#    y -0.005690 1.808490 0.005240 
#    z -0.009150 0.005240 1.845690 
# 
# From -- ./inp_files/63413.got.cif
#   From: 2010.05.17/outbox.cif.g08.bks.cpg/sg2_32_cif.got.tgz:63413.got - 2010.06.03 11:33:40.
