data_PCOD9025154
_publ_section_title
;
Structure prediction by ZEFSAII (Michael W. Deem and Ramdas Pophale) SiO2 
 PCOD9025154
Probable space group: P -1
;
_chemical_formula_sum "Si O2"
_cell_formula_units_Z 14
_cell_length_a 17.735021
_cell_length_b 11.684804
_cell_length_c 11.433428
_cell_angle_alpha 138.943338
_cell_angle_beta 148.002970
_cell_angle_gamma 32.159171
_cell_volume 662.750777
_symmetry_space_group_name_H-M "P -1"
_symmetry_group_IT_number 2
_symmetry_cell_setting 'triclinic'
loop_
_space_group_symop_operation_xyz
x,y,z
-x,-y,-z
loop_
_atom_site_type_symbol
_atom_site_label
_atom_site_fract_x
_atom_site_fract_y
_atom_site_fract_z
Si Si1 0.729746 0.092873 0.169752
Si Si2 0.299448 0.585945 0.277936
Si Si3 0.033566 0.680933 0.679337
Si Si4 0.444749 0.118325 0.145806
Si Si5 0.281333 0.900549 0.327724
Si Si6 0.577915 0.445347 0.928519
Si Si7 0.961834 0.985798 0.610149
O O1 0.575520 0.345152 0.185897
O O2 0.842093 0.082125 0.200623
O O3 0.876472 0.972656 0.370961
O O4 0.639341 0.972161 0.956361
O O5 0.500000 0.500000 0.500000
O O6 0.309667 0.371790 0.130081
O O7 0.247154 0.733200 0.208372
O O8 0.164584 0.762224 0.329320
O O9 0.000000 0.500000 0.500000
O O10 0.960764 0.834778 0.587431
O O11 0.242016 0.572949 0.860767
O O12 0.903288 0.862927 0.745541
O O13 0.598283 0.087502 0.407681
O O14 0.500000 0.000000 0.000000
O O15 0.381283 0.774396 0.242793
O O16 0.500000 0.500000 0.000000
#
# Coordination Sequence:
#
# PCOD9025154 Si02
#       7
#     2   2   2   2   2   2   2
#     4  11  22  39  66  94 135 171 222 277 340 398
#     4   9  18  35  60  89 125 160 215 264 329 386
#     4  11  23  44  70 101 133 175 232 281 330 409
#     4  11  20  36  65 101 132 170 223 280 335 396
#     4  10  22  40  67  96 131 178 227 273 333 405
#     4  12  24  44  69  95 136 186 220 271 349 404
#     4  10  22  41  65  96 130 177 218 278 343 401
#
# _framework density 21.124081
#
# number of rings (size 3 to 8) (size 9 to 14) (size 15 to 20)
#    0.000    1.429    1.429    6.429    0.000    1.714 
#    0.000    2.857    0.000    0.000    0.000    0.000 
#    0.000    0.000    0.000    0.000    0.000    0.000 
#
# Total GULP energy -78058.571830 kJ/mol
# GULP energy per Si atom -5575.612274 kJ/mol
# Density = 2.107600 g / cm^3
# Si number density = 21.124081 Si / 1000 Ang^3
#
#
#
# Elastic Constant Matrix: (Units=GPa)
#
#
# Indices 1 2 3 4 5 6 
#
# 1 88.7682 47.6660 57.0329 17.4352 17.0182 -14.6014
# 2 47.6660 157.3138 47.9297 10.9309 24.5346 -17.1661
# 3 57.0329 47.9297 114.0673 -1.0799 14.8041 -11.4505
# 4 17.4352 10.9309 -1.0799 33.7635 -2.1442 6.2324
# 5 17.0182 24.5346 14.8041 -2.1442 34.2034 0.5483
# 6 -14.6014 -17.1661 -11.4505 6.2324 0.5483 36.0400
#
#
#
# Elastic Compliance Matrix: (Units=1/GPa)
#
#
# Indices 1 2 3 4 5 6 
#
# 1 0.023859 -0.001089 -0.009708 -0.014382 -0.007928 0.008671
# 2 -0.001089 0.008771 -0.002139 -0.003355 -0.005094 0.003715
# 3 -0.009708 -0.002139 0.014352 0.006483 0.000583 -0.001522
# 4 -0.014382 -0.003355 0.006483 0.041279 0.009547 -0.012649
# 5 -0.007928 -0.005094 0.000583 0.009547 0.037305 -0.007672
# 6 0.008671 0.003715 -0.001522 -0.012649 -0.007672 0.034850
#
#
# Mechanical properties :
#
#
# Convention : Reuss Voigt Hill
#
# Bulk Modulus (GPa) = 47.37128 73.93409 60.65268
# Shear Modulus (GPa) = 25.86311 34.63610 30.24961
#
# Velocity S-wave (km/s) = 3.50286 4.05365 3.78828
# Velocity P-wave (km/s) = 6.23169 7.54886 6.92168
#
# Compressibility (1/GPa) = 0.02110984
#
# Stress axis : x y z
#
# Youngs Moduli (GPa) = 41.91312 114.00840 69.67467
#
# Poissons Ratio (x) = 0.12419 0.67643
# Poissons Ratio (y) = 0.04566 0.14901
# Poissons Ratio (z) = 0.40691 0.24383
#
# Static dielectric constant tensor:
#      x y z
#    x 1.875220 -0.023750 -0.040270 
#    y -0.023750 1.769230 -0.027170 
#    z -0.040270 -0.027170 1.819980 
# 
# From -- ./inp_files/437432.got.cif
#   From: 2010.05.17/outbox.cif.g08.bks.cpg/sg2_219_cif.got.tgz:437432.got - 2010.06.03 11:33:40.
