data_PCOD9025827
_publ_section_title
;
Structure prediction by ZEFSAII (Michael W. Deem and Ramdas Pophale) SiO2 
 PCOD9025827
Probable space group: P -1
;
_chemical_formula_sum "Si O2"
_cell_formula_units_Z 16
_cell_length_a 24.474730
_cell_length_b 5.217340
_cell_length_c 9.247562
_cell_angle_alpha 60.403619
_cell_angle_beta 137.317732
_cell_angle_gamma 123.827419
_cell_volume 657.464341
_symmetry_space_group_name_H-M "P -1"
_symmetry_group_IT_number 2
_symmetry_cell_setting 'triclinic'
loop_
_space_group_symop_operation_xyz
x,y,z
-x,-y,-z
loop_
_atom_site_type_symbol
_atom_site_label
_atom_site_fract_x
_atom_site_fract_y
_atom_site_fract_z
Si Si1 0.806625 0.926889 0.051583
Si Si2 0.543915 0.794981 0.395209
Si Si3 0.984877 0.331536 0.364590
Si Si4 0.746261 0.635760 0.435484
Si Si5 0.560915 0.505142 0.983168
Si Si6 0.163918 0.630514 0.552029
Si Si7 0.635770 0.053172 0.773679
Si Si8 0.712783 0.696041 0.676636
O O1 0.822534 0.624114 0.237400
O O2 0.794306 0.908002 0.860781
O O3 0.886175 0.232758 0.157438
O O4 0.716930 0.944236 0.930922
O O5 0.500000 0.500000 0.500000
O O6 0.477980 0.751211 0.147041
O O7 0.631274 0.810061 0.475918
O O8 0.582618 0.050239 0.524121
O O9 0.062215 0.550266 0.358412
O O10 0.000000 0.500000 0.500000
O O11 0.000000 0.000000 0.500000
O O12 0.797149 0.451682 0.497004
O O13 0.738007 0.586274 0.604924
O O14 0.790363 0.014698 0.404075
O O15 0.651764 0.517631 0.217679
O O16 0.579022 0.832741 0.843816
O O17 0.500000 0.500000 0.000000
O O18 0.674767 0.408358 0.793538
#
# Coordination Sequence:
#
# PCOD9025827 Si02
#       8
#     2   2   2   2   2   2   2   2
#     4  10  22  41  71  98 130 176 224 271 334 406
#     4   9  21  40  58  88 128 171 226 281 327 393
#     4  10  22  40  72 106 134 168 227 279 329 404
#     4  12  26  44  67  98 142 181 222 283 345 395
#     4  11  21  41  63  96 131 174 234 282 338 388
#     4  11  24  46  69 101 136 174 225 285 340 392
#     4  10  22  41  66  89 136 174 225 272 336 405
#     4  11  24  41  64  94 134 186 222 271 344 410
#
# _framework density 24.335920999999999
#
# number of rings (size 3 to 8) (size 9 to 14) (size 15 to 20)
#    0.000    1.500    2.500    2.250    7.000    2.000 
#    2.250    2.500    0.000    0.000    0.000    0.000 
#    0.000    0.000    0.000    0.000    0.000    0.000 
#
# Total GULP energy -89477.912557 kJ/mol
# GULP energy per Si atom -5592.369535 kJ/mol
# Density = 2.428053 g / cm^3
# Si number density = 24.335921 Si / 1000 Ang^3
#
#
#
# Elastic Constant Matrix: (Units=GPa)
#
#
# Indices 1 2 3 4 5 6 
#
# 1 150.6318 21.9146 63.2490 18.6884 -11.5784 10.1481
# 2 21.9146 101.3941 50.2408 18.3674 3.6238 4.5441
# 3 63.2490 50.2408 149.0032 42.9721 -15.5964 14.8908
# 4 18.6884 18.3674 42.9721 44.9265 -1.2163 -4.3493
# 5 -11.5784 3.6238 -15.5964 -1.2163 35.4101 6.6379
# 6 10.1481 4.5441 14.8908 -4.3493 6.6379 34.6148
#
#
#
# Elastic Compliance Matrix: (Units=1/GPa)
#
#
# Indices 1 2 3 4 5 6 
#
# 1 0.008198 -0.000214 -0.002882 -0.000669 0.001700 -0.001545
# 2 -0.000214 0.012241 -0.004206 -0.000907 -0.003355 0.000794
# 3 -0.002882 -0.004206 0.013911 -0.010908 0.006594 -0.007222
# 4 -0.000669 -0.000907 -0.010908 0.034193 -0.005705 0.010398
# 5 0.001700 -0.003355 0.006594 -0.005705 0.033738 -0.010081
# 6 -0.001545 0.000794 -0.007222 0.010398 -0.010081 0.035585
#
#
# Mechanical properties :
#
#
# Convention : Reuss Voigt Hill
#
# Bulk Modulus (GPa) = 50.64415 74.64866 62.64641
# Shear Modulus (GPa) = 31.43647 40.69860 36.06754
#
# Velocity S-wave (km/s) = 3.59802 4.09390 3.85394
# Velocity P-wave (km/s) = 6.17387 7.28612 6.75293
#
# Compressibility (1/GPa) = 0.01974562
#
# Stress axis : x y z
#
# Youngs Moduli (GPa) = 121.98256 81.69085 71.88792
#
# Poissons Ratio (x) = 0.01747 0.20721
# Poissons Ratio (y) = 0.02609 0.30235
# Poissons Ratio (z) = 0.35160 0.34358
#
# Static dielectric constant tensor:
#      x y z
#    x 1.973260 0.007590 0.020340 
#    y 0.007590 2.004810 -0.014500 
#    z 0.020340 -0.014500 1.972760 
# 
# From -- ./inp_files/52102.got.cif
#   From: 2010.05.17/outbox.cif.g08.bks.cpg/sg2_27_cif.got.tgz:52102.got - 2010.06.03 11:33:40.
