data_PCOD9025925
_publ_section_title
;
Structure prediction by ZEFSAII (Michael W. Deem and Ramdas Pophale) SiO2 
 PCOD9025925
Probable space group: P -1
;
_chemical_formula_sum "Si O2"
_cell_formula_units_Z 14
_cell_length_a 14.398844
_cell_length_b 11.778991
_cell_length_c 12.349229
_cell_angle_alpha 144.358142
_cell_angle_beta 34.861017
_cell_angle_gamma 149.382020
_cell_volume 567.442886
_symmetry_space_group_name_H-M "P -1"
_symmetry_group_IT_number 2
_symmetry_cell_setting 'triclinic'
loop_
_space_group_symop_operation_xyz
x,y,z
-x,-y,-z
loop_
_atom_site_type_symbol
_atom_site_label
_atom_site_fract_x
_atom_site_fract_y
_atom_site_fract_z
Si Si1 0.377421 0.696675 0.429380
Si Si2 0.000000 0.000000 0.500000
Si Si3 0.192736 0.734349 0.050862
Si Si4 0.903772 0.851714 0.715919
Si Si5 0.000000 0.500000 0.500000
Si Si6 0.638522 0.030595 0.139864
Si Si7 0.763508 0.449197 0.905153
Si Si8 0.175707 0.072691 0.806280
O O1 0.284848 0.419912 0.331152
O O2 0.234657 0.658193 0.438917
O O3 0.638528 0.182591 0.354973
O O4 0.612056 0.850574 0.293490
O O5 0.149410 0.929631 0.265041
O O6 0.021288 0.948868 0.568018
O O7 0.222187 0.650611 0.071490
O O8 0.000000 0.500000 0.000000
O O9 0.351548 0.843379 0.885844
O O10 0.822860 0.005687 0.951082
O O11 0.050991 0.856488 0.670254
O O12 0.068147 0.478993 0.289613
O O13 0.444812 0.762457 0.110765
O O14 0.766504 0.680391 0.109527
O O15 0.000000 0.000000 0.000000
#
# Coordination Sequence:
#
# PCOD9025925 Si02
#       8
#     2   1   2   2   1   2   2   2
#     4  12  28  51  75 113 153 202 260 322 392 462
#     4  10  22  40  80 108 148 202 248 314 386 456
#     4  11  23  46  74 112 155 200 260 316 389 464
#     4  11  24  50  73 111 152 200 255 314 385 465
#     4  12  28  46  78 106 150 202 260 312 382 460
#     4  11  26  47  77 113 154 199 256 320 393 463
#     4  12  26  49  74 115 155 205 259 324 389 462
#     4  12  29  49  79 111 155 210 261 322 389 461
#
# _framework density 24.672086
#
# number of rings (size 3 to 8) (size 9 to 14) (size 15 to 20)
#    0.000    0.571    1.429    6.429    8.000    1.714 
#    0.000    1.429    0.000    0.000    0.000    0.000 
#    0.000    0.000    0.000    0.000    0.000    0.000 
#
# Total GULP energy -77946.688160 kJ/mol
# GULP energy per Si atom -5567.620583 kJ/mol
# Density = 2.461593 g / cm^3
# Si number density = 24.672086 Si / 1000 Ang^3
#
#
#
# Elastic Constant Matrix: (Units=GPa)
#
#
# Indices 1 2 3 4 5 6 
#
# 1 157.4729 27.1521 69.7204 -19.2343 10.7483 22.3709
# 2 27.1521 102.1243 30.5407 2.9629 -3.2077 33.4962
# 3 69.7204 30.5407 128.4354 -16.8979 16.1407 15.3615
# 4 -19.2343 2.9629 -16.8979 42.0079 -3.2137 -4.4578
# 5 10.7483 -3.2077 16.1407 -3.2137 39.5686 -4.7125
# 6 22.3709 33.4962 15.3615 -4.4578 -4.7125 54.0902
#
#
#
# Elastic Compliance Matrix: (Units=1/GPa)
#
#
# Indices 1 2 3 4 5 6 
#
# 1 0.008850 -0.000563 -0.004026 0.002186 -0.000876 -0.002064
# 2 -0.000563 0.013226 -0.002475 -0.002885 0.001120 -0.007395
# 3 -0.004026 -0.002475 0.011365 0.002619 -0.003545 -0.000123
# 4 0.002186 -0.002885 0.002619 0.026353 0.000525 0.002356
# 5 -0.000876 0.001120 -0.003545 0.000525 0.027460 0.003111
# 6 -0.002064 -0.007395 -0.000123 0.002356 0.003111 0.024421
#
#
# Mechanical properties :
#
#
# Convention : Reuss Voigt Hill
#
# Bulk Modulus (GPa) = 51.77856 71.42878 61.60367
# Shear Modulus (GPa) = 37.80980 44.50797 41.15889
#
# Velocity S-wave (km/s) = 3.91895 4.25194 4.08884
# Velocity P-wave (km/s) = 6.44281 7.28831 6.87856
#
# Compressibility (1/GPa) = 0.01931301
#
# Stress axis : x y z
#
# Youngs Moduli (GPa) = 112.99739 75.60661 87.99257
#
# Poissons Ratio (x) = 0.04256 0.35422
# Poissons Ratio (y) = 0.06360 0.21782
# Poissons Ratio (z) = 0.45488 0.18716
#
# Static dielectric constant tensor:
#      x y z
#    x 1.860460 0.026520 0.037630 
#    y 0.026520 1.907940 0.011080 
#    z 0.037630 0.011080 1.862370 
# 
# From -- ./inp_files/451763.got.cif
#   From: 2010.05.17/outbox.cif.g08.bks.cpg/sg2_226_cif.got.tgz:451763.got - 2010.06.03 11:33:40.
