data_PCOD9025542
_publ_section_title
;
Structure prediction by ZEFSAII (Michael W. Deem and Ramdas Pophale) SiO2 
 PCOD9025542
Probable space group: P -1
;
_chemical_formula_sum "Si O2"
_cell_formula_units_Z 16
_cell_length_a 9.858255
_cell_length_b 15.091533
_cell_length_c 8.452721
_cell_angle_alpha 105.822352
_cell_angle_beta 83.854294
_cell_angle_gamma 144.282573
_cell_volume 691.551326
_symmetry_space_group_name_H-M "P -1"
_symmetry_group_IT_number 2
_symmetry_cell_setting 'triclinic'
loop_
_space_group_symop_operation_xyz
x,y,z
-x,-y,-z
loop_
_atom_site_type_symbol
_atom_site_label
_atom_site_fract_x
_atom_site_fract_y
_atom_site_fract_z
Si Si1 0.754016 0.010863 0.332511
Si Si2 0.286001 0.216444 0.793215
Si Si3 0.261824 0.475006 0.241517
Si Si4 0.771751 0.262225 0.820596
Si Si5 0.871379 0.807069 0.870370
Si Si6 0.133835 0.604390 0.792105
Si Si7 0.083884 0.283408 0.680154
Si Si8 0.441949 0.620802 0.631632
O O1 0.917382 0.164172 0.495595
O O2 0.870971 0.069338 0.172886
O O3 0.752609 0.904016 0.338955
O O4 0.485005 0.895062 0.297275
O O5 0.571376 0.389712 0.850015
O O6 0.181563 0.245023 0.726392
O O7 0.166423 0.154259 0.949938
O O8 0.228704 0.349677 0.154522
O O9 0.405361 0.570558 0.432170
O O10 0.012697 0.389994 0.252680
O O11 0.922979 0.252391 0.806812
O O12 0.929642 0.416863 0.767280
O O13 0.752053 0.299718 0.011022
O O14 0.708843 0.760091 0.728262
O O15 0.326528 0.657601 0.689717
O O16 0.290493 0.464530 0.679606
#
# Coordination Sequence:
#
# PCOD9025542 Si02
#       8
#     2   2   2   2   2   2   2   2
#     4  12  24  45  63  95 136 170 207 263 330 378
#     4  12  25  41  67  98 127 168 223 261 313 387
#     4  12  22  42  66 100 127 165 220 261 317 379
#     4  10  22  42  67  96 127 171 213 261 323 376
#     4  12  25  42  68  95 133 168 211 271 322 373
#     4  10  22  40  69  96 128 164 219 267 309 382
#     4  11  23  42  67  95 131 170 214 261 320 384
#     4  11  23  41  66  99 130 168 211 268 323 370
#
# _framework density 23.136389000000001
#
# number of rings (size 3 to 8) (size 9 to 14) (size 15 to 20)
#    0.000    0.750    3.750    4.500    3.500    0.000 
#    0.000    3.750    0.000    0.000    0.000    0.000 
#    0.000    0.000    0.000    0.000    0.000    0.000 
#
# Total GULP energy -89604.543093 kJ/mol
# GULP energy per Si atom -5600.283943 kJ/mol
# Density = 2.308373 g / cm^3
# Si number density = 23.136389 Si / 1000 Ang^3
#
#
#
# Elastic Constant Matrix: (Units=GPa)
#
#
# Indices 1 2 3 4 5 6 
#
# 1 97.7236 14.5517 -0.9795 9.8151 -1.5452 18.3438
# 2 14.5517 45.3261 -4.7887 2.3347 -9.6120 8.3995
# 3 -0.9795 -4.7887 42.7416 -4.4718 -5.5790 7.7341
# 4 9.8151 2.3347 -4.4718 23.3535 -0.1791 0.1660
# 5 -1.5452 -9.6120 -5.5790 -0.1791 38.0920 1.7827
# 6 18.3438 8.3995 7.7341 0.1660 1.7827 24.5911
#
#
#
# Elastic Compliance Matrix: (Units=1/GPa)
#
#
# Indices 1 2 3 4 5 6 
#
# 1 0.012771 -0.001834 0.001357 -0.004853 0.000669 -0.009343
# 2 -0.001834 0.026897 0.005800 -0.000674 0.008037 -0.010222
# 3 0.001357 0.005800 0.027516 0.004252 0.006136 -0.012121
# 4 -0.004853 -0.000674 0.004252 0.045728 0.000369 0.002177
# 5 0.000669 0.008037 0.006136 0.000369 0.029550 -0.007319
# 6 -0.009343 -0.010222 -0.012121 0.002177 -0.007319 0.055454
#
#
# Mechanical properties :
#
#
# Convention : Reuss Voigt Hill
#
# Bulk Modulus (GPa) = 12.84818 22.59534 17.72176
# Shear Modulus (GPa) = 23.45055 29.00784 26.22920
#
# Velocity S-wave (km/s) = 3.18713 3.54471 3.37067
# Velocity P-wave (km/s) = 4.37139 5.15176 4.77753
#
# Compressibility (1/GPa) = 0.07783201
#
# Stress axis : x y z
#
# Youngs Moduli (GPa) = 78.30008 37.17875 36.34200
#
# Poissons Ratio (x) = 0.06817 -0.04933
# Poissons Ratio (y) = 0.14357 -0.21077
# Poissons Ratio (z) = -0.10629 -0.21563
#
# Static dielectric constant tensor:
#      x y z
#    x 1.858040 -0.009360 0.004080 
#    y -0.009360 1.867930 -0.010440 
#    z 0.004080 -0.010440 1.837870 
# 
# From -- ./inp_files/182361.got.cif
#   From: 2010.05.17/outbox.cif.g08.bks.cpg/sg2_92_cif.got.tgz:182361.got - 2010.06.03 11:33:40.
