data_PCOD9025642
_publ_section_title
;
Structure prediction by ZEFSAII (Michael W. Deem and Ramdas Pophale) SiO2 
 PCOD9025642
Probable space group: P -1
;
_chemical_formula_sum "Si O2"
_cell_formula_units_Z 14
_cell_length_a 11.235620
_cell_length_b 5.125488
_cell_length_c 11.042577
_cell_angle_alpha 77.228910
_cell_angle_beta 82.458273
_cell_angle_gamma 122.742171
_cell_volume 496.667494
_symmetry_space_group_name_H-M "P -1"
_symmetry_group_IT_number 2
_symmetry_cell_setting 'triclinic'
loop_
_space_group_symop_operation_xyz
x,y,z
-x,-y,-z
loop_
_atom_site_type_symbol
_atom_site_label
_atom_site_fract_x
_atom_site_fract_y
_atom_site_fract_z
Si Si1 0.942974 0.750042 0.869569
Si Si2 0.446865 0.581454 0.131212
Si Si3 0.509912 0.893675 0.336844
Si Si4 0.795070 0.402220 0.491856
Si Si5 0.822568 0.155425 0.761535
Si Si6 0.690295 0.515555 0.089399
Si Si7 0.790453 0.972023 0.340567
O O1 0.865618 0.411189 0.837681
O O2 0.117539 0.926851 0.807107
O O3 0.906517 0.985059 0.787413
O O4 0.860348 0.673093 0.017542
O O5 0.418117 0.685072 0.250790
O O6 0.619117 0.717329 0.093229
O O7 0.347125 0.179463 0.185714
O O8 0.392422 0.661106 0.010131
O O9 0.385248 0.839765 0.447873
O O10 0.628913 0.266275 0.234481
O O11 0.614495 0.781588 0.368774
O O12 0.852184 0.339048 0.611980
O O13 0.839246 0.287896 0.381662
O O14 0.827354 0.755606 0.433716
#
# Coordination Sequence:
#
# PCOD9025642 Si02
#       7
#     2   2   2   2   2   2   2
#     4  11  26  45  67 105 137 181 217 273 343 413
#     4  10  22  40  70 109 128 166 224 293 343 381
#     4  12  25  43  71 102 135 177 224 283 340 396
#     4  12  25  46  71  99 130 182 233 286 323 384
#     4  11  23  44  74  99 136 170 233 285 334 383
#     4  10  23  39  73  99 135 169 221 289 337 396
#     4  12  29  46  66  96 147 184 224 264 332 418
#
# _framework density 28.187873
#
# number of rings (size 3 to 8) (size 9 to 14) (size 15 to 20)
#    0.000    0.857    1.429    5.571    8.000    4.000 
#    0.000    0.714    0.000    0.000    0.000    0.000 
#    0.000    0.000    0.000    0.000    0.000    0.000 
#
# Total GULP energy -78485.711097 kJ/mol
# GULP energy per Si atom -5606.122221 kJ/mol
# Density = 2.812372 g / cm^3
# Si number density = 28.187873 Si / 1000 Ang^3
#
#
#
# Elastic Constant Matrix: (Units=GPa)
#
#
# Indices 1 2 3 4 5 6 
#
# 1 152.6614 42.9862 57.8577 -9.4491 -28.8218 -12.8509
# 2 42.9862 98.6177 12.8210 -5.9089 1.8204 -19.0820
# 3 57.8577 12.8210 98.0094 -19.7991 -39.4046 -11.5635
# 4 -9.4491 -5.9089 -19.7991 43.6795 -7.8921 -1.5288
# 5 -28.8218 1.8204 -39.4046 -7.8921 73.9926 -7.5664
# 6 -12.8509 -19.0820 -11.5635 -1.5288 -7.5664 53.9075
#
#
#
# Elastic Compliance Matrix: (Units=1/GPa)
#
#
# Indices 1 2 3 4 5 6 
#
# 1 0.009582 -0.003571 -0.004705 -0.000301 0.001301 0.000185
# 2 -0.003571 0.012380 0.000906 0.001315 -0.000698 0.003664
# 3 -0.004705 0.000906 0.019562 0.009984 0.010149 0.005103
# 4 -0.000301 0.001315 0.009984 0.029276 0.008760 0.004595
# 5 0.001301 -0.000698 0.010149 0.008760 0.020933 0.005427
# 6 0.000185 0.003664 0.005103 0.004595 0.005427 0.021878
#
#
# Mechanical properties :
#
#
# Convention : Reuss Voigt Hill
#
# Bulk Modulus (GPa) = 37.33808 64.06871 50.70340
# Shear Modulus (GPa) = 36.42242 50.02415 43.22328
#
# Velocity S-wave (km/s) = 3.59852 4.21725 3.92011
# Velocity P-wave (km/s) = 5.52637 6.81851 6.20616
#
# Compressibility (1/GPa) = 0.02678231
#
# Stress axis : x y z
#
# Youngs Moduli (GPa) = 104.36425 80.77704 51.12080
#
# Poissons Ratio (x) = 0.28847 0.24053
# Poissons Ratio (y) = 0.37271 -0.04632
# Poissons Ratio (z) = 0.49105 -0.07319
#
# Static dielectric constant tensor:
#      x y z
#    x 2.244280 0.083940 -0.035630 
#    y 0.083940 2.176890 -0.046450 
#    z -0.035630 -0.046450 2.167230 
# 
# From -- ./inp_files/410054.got.cif
#   From: 2010.05.17/outbox.cif.g08.bks.cpg/sg2_206_cif.got.tgz:410054.got - 2010.06.03 11:33:40.
