data_PCOD9025766
_publ_section_title
;
Structure prediction by ZEFSAII (Michael W. Deem and Ramdas Pophale) SiO2 
 PCOD9025766
Probable space group: P -1
;
_chemical_formula_sum "Si O2"
_cell_formula_units_Z 16
_cell_length_a 15.954196
_cell_length_b 7.465607
_cell_length_c 11.913765
_cell_angle_alpha 77.220362
_cell_angle_beta 154.381230
_cell_angle_gamma 107.511260
_cell_volume 580.787845
_symmetry_space_group_name_H-M "P -1"
_symmetry_group_IT_number 2
_symmetry_cell_setting 'triclinic'
loop_
_space_group_symop_operation_xyz
x,y,z
-x,-y,-z
loop_
_atom_site_type_symbol
_atom_site_label
_atom_site_fract_x
_atom_site_fract_y
_atom_site_fract_z
Si Si1 0.081250 0.613892 0.840840
Si Si2 0.798714 0.699360 0.824017
Si Si3 0.858026 0.087035 0.950316
Si Si4 0.622508 0.152705 0.456115
Si Si5 0.133313 0.726430 0.484852
Si Si6 0.484635 0.259558 0.693681
Si Si7 0.519195 0.743175 0.067853
Si Si8 0.700983 0.688053 0.079043
O O1 0.111238 0.466920 0.995288
O O2 0.088970 0.813911 0.879498
O O3 0.287333 0.641638 0.019821
O O4 0.906538 0.499259 0.566302
O O5 0.609438 0.622398 0.525176
O O6 0.785425 0.860076 0.878516
O O7 0.939900 0.831573 0.885758
O O8 0.706743 0.176224 0.679926
O O9 0.797244 0.186895 0.566849
O O10 0.518167 0.933060 0.347644
O O11 0.464292 0.266999 0.211744
O O12 0.322900 0.810685 0.780573
O O13 0.923668 0.732603 0.289869
O O14 0.386193 0.208775 0.702450
O O15 0.406688 0.522499 0.981033
O O16 0.677232 0.798418 0.150379
#
# Coordination Sequence:
#
# PCOD9025766 Si02
#       8
#     2   2   2   2   2   2   2   2
#     4  12  24  40  73 101 133 186 233 277 347 422
#     4  10  23  43  67 101 141 181 225 283 352 407
#     4  10  23  43  67 103 142 179 227 290 341 415
#     4  10  24  45  66  99 145 175 224 293 344 407
#     4  11  23  43  72  99 136 182 230 285 342 417
#     4  11  25  44  64 102 137 176 230 288 339 417
#     4  10  23  44  68  99 139 175 228 290 344 407
#     4  10  22  40  71  96 129 182 226 281 347 405
#
# _framework density 27.548786
#
# number of rings (size 3 to 8) (size 9 to 14) (size 15 to 20)
#    0.000    1.500    2.500    1.125    1.750    8.000 
#    0.000    1.250    2.750    0.000    0.000    0.000 
#    0.000    0.000    0.000    0.000    0.000    0.000 
#
# Total GULP energy -89415.190586 kJ/mol
# GULP energy per Si atom -5588.449412 kJ/mol
# Density = 2.748608 g / cm^3
# Si number density = 27.548786 Si / 1000 Ang^3
#
#
#
# Elastic Constant Matrix: (Units=GPa)
#
#
# Indices 1 2 3 4 5 6 
#
# 1 174.5015 7.4431 61.3687 7.1320 15.8696 -1.8930
# 2 7.4431 26.2351 21.1013 -2.5842 -7.6023 -10.2669
# 3 61.3687 21.1013 113.4246 -7.1477 -10.0190 -6.6791
# 4 7.1320 -2.5842 -7.1477 38.8935 -3.4076 -12.1346
# 5 15.8696 -7.6023 -10.0190 -3.4076 52.9969 12.6387
# 6 -1.8930 -10.2669 -6.6791 -12.1346 12.6387 37.8524
#
#
#
# Elastic Compliance Matrix: (Units=1/GPa)
#
#
# Indices 1 2 3 4 5 6 
#
# 1 0.007791 0.000358 -0.004743 -0.002590 -0.003328 -0.000069
# 2 0.000358 0.051473 -0.008319 0.006313 0.002872 0.013576
# 3 -0.004743 -0.008319 0.013372 0.002981 0.002989 -0.000176
# 4 -0.002590 0.006313 0.002981 0.030875 0.001485 0.011511
# 5 -0.003328 0.002872 0.002989 0.001485 0.022331 -0.005840
# 6 -0.000069 0.013576 -0.000176 0.011511 -0.005840 0.035706
#
#
# Mechanical properties :
#
#
# Convention : Reuss Voigt Hill
#
# Bulk Modulus (GPa) = 21.17377 54.88751 38.03064
# Shear Modulus (GPa) = 24.66707 40.89843 32.78275
#
# Velocity S-wave (km/s) = 2.99556 3.85721 3.45336
# Velocity P-wave (km/s) = 4.43476 6.30907 5.45305
#
# Compressibility (1/GPa) = 0.04722824
#
# Stress axis : x y z
#
# Youngs Moduli (GPa) = 128.34851 19.42763 74.78338
#
# Poissons Ratio (x) = -0.00696 0.35473
# Poissons Ratio (y) = -0.04596 0.62210
# Poissons Ratio (z) = 0.60881 0.16161
#
# Static dielectric constant tensor:
#      x y z
#    x 2.224550 -0.072210 0.025920 
#    y -0.072210 2.230640 -0.046530 
#    z 0.025920 -0.046530 2.222340 
# 
# From -- ./inp_files/447584.got.cif
#   From: 2010.05.17/outbox.cif.g08.bks.cpg/sg2_224_cif.got.tgz:447584.got - 2010.06.03 11:33:40.
