data_PCOD9025499
_publ_section_title
;
Structure prediction by ZEFSAII (Michael W. Deem and Ramdas Pophale) SiO2 
 PCOD9025499
Probable space group: P -1
;
_chemical_formula_sum "Si O2"
_cell_formula_units_Z 16
_cell_length_a 20.160389
_cell_length_b 10.644135
_cell_length_c 8.681709
_cell_angle_alpha 88.657757
_cell_angle_beta 105.358352
_cell_angle_gamma 31.900869
_cell_volume 829.047777
_symmetry_space_group_name_H-M "P -1"
_symmetry_group_IT_number 2
_symmetry_cell_setting 'triclinic'
loop_
_space_group_symop_operation_xyz
x,y,z
-x,-y,-z
loop_
_atom_site_type_symbol
_atom_site_label
_atom_site_fract_x
_atom_site_fract_y
_atom_site_fract_z
Si Si1 0.360178 0.858126 0.540196
Si Si2 0.589179 0.446140 0.943246
Si Si3 0.041148 0.749348 0.632722
Si Si4 0.141335 0.127273 0.013823
Si Si5 0.084650 0.977998 0.119991
Si Si6 0.621131 0.472221 0.503773
Si Si7 0.235031 0.669243 0.707687
Si Si8 0.039278 0.383241 0.286928
O O1 0.453873 0.757918 0.455398
O O2 0.351471 0.720158 0.513291
O O3 0.194854 0.174742 0.461850
O O4 0.467421 0.707409 0.753495
O O5 0.685857 0.391812 0.097415
O O6 0.691672 0.185840 0.912319
O O7 0.500000 0.500000 0.000000
O O8 0.184340 0.605900 0.694239
O O9 0.989744 0.871774 0.767864
O O10 0.032515 0.612194 0.654971
O O11 0.913253 0.007474 0.431158
O O12 0.078832 0.320133 0.840285
O O13 0.059480 0.127034 0.974736
O O14 0.105905 0.234859 0.161513
O O15 0.258639 0.686369 0.284578
O O16 0.000000 0.000000 0.000000
O O17 0.660316 0.483237 0.373197
#
# Coordination Sequence:
#
# PCOD9025499 Si02
#       8
#     2   2   2   2   2   2   2   2
#     4  11  18  34  54  81 112 142 184 231 270 322
#     4  12  21  32  55  89 113 139 188 235 275 323
#     4   9  18  33  51  77 115 145 180 229 281 327
#     4  10  20  34  55  88 106 147 190 226 275 328
#     4  10  17  31  54  85 109 138 186 239 269 315
#     4  10  18  32  54  80 111 144 188 225 276 322
#     4  10  19  32  52  83 113 144 182 230 281 325
#     4  10  19  36  58  81 112 147 187 225 278 333
#
# _framework density 19.299251999999999
#
# number of rings (size 3 to 8) (size 9 to 14) (size 15 to 20)
#    0.000    1.750    6.250    1.500    0.000    0.000 
#    0.000    2.500    0.000    1.500    6.500    0.000 
#    0.000    0.000    0.000    0.000    0.000    0.000 
#
# Total GULP energy -89110.488432 kJ/mol
# GULP energy per Si atom -5569.405527 kJ/mol
# Density = 1.925533 g / cm^3
# Si number density = 19.299252 Si / 1000 Ang^3
#
#
#
# Elastic Constant Matrix: (Units=GPa)
#
#
# Indices 1 2 3 4 5 6 
#
# 1 114.3198 19.5166 51.1579 -6.2084 1.2901 -23.5884
# 2 19.5166 26.2841 10.3025 -1.6917 -2.4857 -13.2140
# 3 51.1579 10.3025 111.6247 -2.9438 9.5986 6.6803
# 4 -6.2084 -1.6917 -2.9438 12.8581 2.8857 -1.4975
# 5 1.2901 -2.4857 9.5986 2.8857 33.7758 1.8559
# 6 -23.5884 -13.2140 6.6803 -1.4975 1.8559 25.5585
#
#
#
# Elastic Compliance Matrix: (Units=1/GPa)
#
#
# Indices 1 2 3 4 5 6 
#
# 1 0.016803 0.000901 -0.008697 0.008388 0.000150 0.018728
# 2 0.000901 0.058097 -0.007848 0.009282 0.003855 0.033184
# 3 -0.008697 -0.007848 0.014829 -0.002939 -0.003335 -0.015890
# 4 0.008388 0.009282 -0.002939 0.086186 -0.007203 0.018881
# 5 0.000150 0.003855 -0.003335 -0.007203 0.031432 0.000299
# 6 0.018728 0.033184 -0.015890 0.018881 0.000299 0.078804
#
#
# Mechanical properties :
#
#
# Convention : Reuss Voigt Hill
#
# Bulk Modulus (GPa) = 17.11070 46.02029 31.56550
# Shear Modulus (GPa) = 14.84036 25.85525 20.34780
#
# Velocity S-wave (km/s) = 2.77602 3.66417 3.25057
# Velocity P-wave (km/s) = 4.37725 6.46521 5.52083
#
# Compressibility (1/GPa) = 0.05844295
#
# Stress axis : x y z
#
# Youngs Moduli (GPa) = 59.51177 17.21248 67.43596
#
# Poissons Ratio (x) = -0.01551 0.58647
# Poissons Ratio (y) = -0.05363 0.52922
# Poissons Ratio (z) = 0.51756 0.13508
#
# Static dielectric constant tensor:
#      x y z
#    x 1.735520 -0.005120 0.020250 
#    y -0.005120 1.716360 0.030390 
#    z 0.020250 0.030390 1.725690 
# 
# From -- ./inp_files/345281.got.cif
#   From: 2010.05.17/outbox.cif.g08.bks.cpg/sg2_173_cif.got.tgz:345281.got - 2010.06.03 11:33:40.
