data_PCOD9025144
_publ_section_title
;
Structure prediction by ZEFSAII (Michael W. Deem and Ramdas Pophale) SiO2 
 PCOD9025144
Probable space group: P -1
;
_chemical_formula_sum "Si O2"
_cell_formula_units_Z 14
_cell_length_a 10.520050
_cell_length_b 26.448044
_cell_length_c 6.442984
_cell_angle_alpha 56.484610
_cell_angle_beta 122.932931
_cell_angle_gamma 156.498428
_cell_volume 592.249432
_symmetry_space_group_name_H-M "P -1"
_symmetry_group_IT_number 2
_symmetry_cell_setting 'triclinic'
loop_
_space_group_symop_operation_xyz
x,y,z
-x,-y,-z
loop_
_atom_site_type_symbol
_atom_site_label
_atom_site_fract_x
_atom_site_fract_y
_atom_site_fract_z
Si Si1 0.794445 0.320704 0.906929
Si Si2 0.247542 0.907296 0.674494
Si Si3 0.589553 0.440847 0.831467
Si Si4 0.248329 0.046046 0.002143
Si Si5 0.853820 0.615201 0.316209
Si Si6 0.730899 0.765686 0.268585
Si Si7 0.480951 0.894316 0.265848
O O1 0.587881 0.187113 0.083484
O O2 0.526655 0.279642 0.752285
O O3 0.994968 0.368990 0.774937
O O4 0.061710 0.440631 0.027172
O O5 0.893396 0.778709 0.553999
O O6 0.500000 0.000000 0.500000
O O7 0.302778 0.990331 0.653264
O O8 0.342801 0.889697 0.967531
O O9 0.648758 0.499002 0.540711
O O10 0.369207 0.404448 0.868665
O O11 0.420803 0.321022 0.868818
O O12 0.312789 0.080637 0.738302
O O13 0.000000 0.000000 0.000000
O O14 0.045595 0.912717 0.135153
O O15 0.166268 0.752591 0.399655
#
# Coordination Sequence:
#
# PCOD9025144 Si02
#       7
#     2   2   2   2   2   2   2
#     4  10  23  45  65  92 133 174 212 270 330 387
#     4  11  22  38  64  98 132 162 213 271 321 383
#     4  11  24  42  68  93 130 177 218 268 322 384
#     4   9  20  41  64  94 128 164 210 266 329 382
#     4  10  24  43  64  95 127 171 227 260 324 390
#     4  11  23  42  66  99 131 167 219 273 322 383
#     4  10  22  40  67  96 125 173 212 266 330 383
#
# _framework density 23.638688999999999
#
# number of rings (size 3 to 8) (size 9 to 14) (size 15 to 20)
#    0.000    1.714    1.429    1.714    4.000    6.286 
#    5.143    2.143    0.000    0.000    0.000    0.000 
#    0.000    0.000    0.000    0.000    0.000    0.000 
#
# Total GULP energy -78042.568255 kJ/mol
# GULP energy per Si atom -5574.469161 kJ/mol
# Density = 2.358489 g / cm^3
# Si number density = 23.638689 Si / 1000 Ang^3
#
#
#
# Elastic Constant Matrix: (Units=GPa)
#
#
# Indices 1 2 3 4 5 6 
#
# 1 120.5194 50.9648 20.5722 16.3927 -13.8089 17.3873
# 2 50.9648 140.7296 45.0134 21.7277 -3.9273 0.2995
# 3 20.5722 45.0134 41.5214 14.5963 -8.0267 -0.5117
# 4 16.3927 21.7277 14.5963 43.2987 -6.0882 -6.3472
# 5 -13.8089 -3.9273 -8.0267 -6.0882 13.5576 -2.4192
# 6 17.3873 0.2995 -0.5117 -6.3472 -2.4192 45.4807
#
#
#
# Elastic Compliance Matrix: (Units=1/GPa)
#
#
# Indices 1 2 3 4 5 6 
#
# 1 0.011840 -0.004031 0.001080 -0.002063 0.009846 -0.004252
# 2 -0.004031 0.012683 -0.012844 -0.001635 -0.008659 0.000624
# 3 0.001080 -0.012844 0.043455 -0.005638 0.020659 0.000473
# 4 -0.002063 -0.001635 -0.005638 0.028440 0.007772 0.005118
# 5 0.009846 -0.008659 0.020659 0.007772 0.097500 0.002796
# 6 -0.004252 0.000624 0.000473 0.005118 0.002796 0.024477
#
#
# Mechanical properties :
#
#
# Convention : Reuss Voigt Hill
#
# Bulk Modulus (GPa) = 27.48215 59.54125 43.51170
# Shear Modulus (GPa) = 19.07554 32.88207 25.97881
#
# Velocity S-wave (km/s) = 2.84379 3.73369 3.31871
# Velocity P-wave (km/s) = 4.73646 6.62043 5.75604
#
# Compressibility (1/GPa) = 0.03638726
#
# Stress axis : x y z
#
# Youngs Moduli (GPa) = 84.46146 78.84339 23.01217
#
# Poissons Ratio (x) = 0.31780 -0.02485
# Poissons Ratio (y) = 0.34045 0.29558
# Poissons Ratio (z) = -0.09120 1.01270
#
# Static dielectric constant tensor:
#      x y z
#    x 1.975500 -0.021170 0.040530 
#    y -0.021170 1.862330 -0.000450 
#    z 0.040530 -0.000450 1.952510 
# 
# From -- ./inp_files/85317.got.cif
#   From: 2010.05.17/outbox.cif.g08.bks.cpg/sg2_43_cif.got.tgz:85317.got - 2010.06.03 11:33:40.
