data_PCOD9025589
_publ_section_title
;
Structure prediction by ZEFSAII (Michael W. Deem and Ramdas Pophale) SiO2 
 PCOD9025589
Probable space group: P -1
;
_chemical_formula_sum "Si O2"
_cell_formula_units_Z 16
_cell_length_a 9.041131
_cell_length_b 10.793717
_cell_length_c 14.465092
_cell_angle_alpha 137.548226
_cell_angle_beta 131.440649
_cell_angle_gamma 48.795773
_cell_volume 672.529589
_symmetry_space_group_name_H-M "P -1"
_symmetry_group_IT_number 2
_symmetry_cell_setting 'triclinic'
loop_
_space_group_symop_operation_xyz
x,y,z
-x,-y,-z
loop_
_atom_site_type_symbol
_atom_site_label
_atom_site_fract_x
_atom_site_fract_y
_atom_site_fract_z
Si Si1 0.422489 0.404797 0.159910
Si Si2 0.362627 0.757280 0.662320
Si Si3 0.153131 0.706676 0.846233
Si Si4 0.852157 0.547551 0.551455
Si Si5 0.133916 0.875485 0.126859
Si Si6 0.741323 0.244449 0.591094
Si Si7 0.515181 0.969674 0.597192
Si Si8 0.886383 0.795954 0.160003
O O1 0.450587 0.300023 0.216011
O O2 0.625837 0.355199 0.150801
O O3 0.378807 0.622433 0.299339
O O4 0.242058 0.346049 0.000228
O O5 0.223077 0.635619 0.575106
O O6 0.358830 0.697058 0.519520
O O7 0.269781 0.988146 0.762370
O O8 0.010155 0.570173 0.706223
O O9 0.165139 0.736958 0.976174
O O10 0.019378 0.911894 0.854248
O O11 0.671056 0.756210 0.577177
O O12 0.000000 0.500000 0.500000
O O13 0.026153 0.819920 0.142253
O O14 0.365271 0.888374 0.242261
O O15 0.714922 0.032773 0.472471
O O16 0.967559 0.254642 0.715825
O O17 0.500000 0.000000 0.500000
#
# Coordination Sequence:
#
# PCOD9025589 Si02
#       8
#     2   2   2   2   2   2   2   2
#     4  12  25  45  70 104 140 182 237 290 345 421
#     4  12  25  44  72 105 133 188 239 288 341 418
#     4  10  22  41  68 102 131 175 232 288 343 404
#     4  11  21  42  69  96 134 173 236 291 332 402
#     4  10  22  40  70 100 132 178 228 287 345 407
#     4  12  27  45  69 103 146 186 229 290 360 411
#     4  11  22  41  70  95 136 179 231 280 346 411
#     4  12  26  46  68 101 148 185 227 288 360 420
#
# _framework density 23.790773999999999
#
# number of rings (size 3 to 8) (size 9 to 14) (size 15 to 20)
#    0.000    0.750    5.000    2.250    3.500    1.000 
#    0.000    0.625    0.000    0.000    0.000    0.000 
#    0.000    0.000    0.000    0.000    0.000    0.000 
#
# Total GULP energy -89167.204438 kJ/mol
# GULP energy per Si atom -5572.950277 kJ/mol
# Density = 2.373662 g / cm^3
# Si number density = 23.790774 Si / 1000 Ang^3
#
#
#
# Elastic Constant Matrix: (Units=GPa)
#
#
# Indices 1 2 3 4 5 6 
#
# 1 66.4350 8.4055 34.7573 -7.7638 -0.3072 1.1529
# 2 8.4055 25.4966 13.1488 -13.3027 -0.8546 -5.8004
# 3 34.7573 13.1488 189.0630 -24.4818 16.6217 -20.4944
# 4 -7.7638 -13.3027 -24.4818 36.2817 -2.9236 0.1516
# 5 -0.3072 -0.8546 16.6217 -2.9236 45.6540 2.0323
# 6 1.1529 -5.8004 -20.4944 0.1516 2.0323 24.9923
#
#
#
# Elastic Compliance Matrix: (Units=1/GPa)
#
#
# Indices 1 2 3 4 5 6 
#
# 1 0.017667 -0.005319 -0.003634 -0.000476 0.001541 -0.005151
# 2 -0.005319 0.053545 0.001090 0.019271 0.001209 0.013351
# 3 -0.003634 0.001090 0.007413 0.004377 -0.002721 0.006694
# 4 -0.000476 0.019271 0.004377 0.037513 0.000819 0.007790
# 5 0.001541 0.001209 -0.002721 0.000819 0.023154 -0.003909
# 6 -0.005151 0.013351 0.006694 0.007790 -0.003909 0.049109
#
#
# Mechanical properties :
#
#
# Convention : Reuss Voigt Hill
#
# Bulk Modulus (GPa) = 15.89811 43.73531 29.81671
# Shear Modulus (GPa) = 22.21314 36.36447 29.28881
#
# Velocity S-wave (km/s) = 3.05894 3.91386 3.51251
# Velocity P-wave (km/s) = 4.37872 6.23279 5.38613
#
# Compressibility (1/GPa) = 0.06290056
#
# Stress axis : x y z
#
# Youngs Moduli (GPa) = 56.60215 18.67598 134.89754
#
# Poissons Ratio (x) = 0.09934 0.49015
# Poissons Ratio (y) = 0.30107 -0.14709
# Poissons Ratio (z) = 0.20566 -0.02036
#
# Static dielectric constant tensor:
#      x y z
#    x 1.947170 -0.090550 0.080160 
#    y -0.090550 2.129030 -0.201300 
#    z 0.080160 -0.201300 2.085460 
# 
# From -- ./inp_files/495708.got.cif
#   From: 2010.05.17/outbox.cif.g08.bks.cpg/sg2_248_cif.got.tgz:495708.got - 2010.06.03 11:33:40.
