data_PCOD9025440
_publ_section_title
;
Structure prediction by ZEFSAII (Michael W. Deem and Ramdas Pophale) SiO2 
 PCOD9025440
Probable space group: P -1
;
_chemical_formula_sum "Si O2"
_cell_formula_units_Z 14
_cell_length_a 7.850512
_cell_length_b 8.215328
_cell_length_c 9.759960
_cell_angle_alpha 113.623301
_cell_angle_beta 111.993763
_cell_angle_gamma 71.652831
_cell_volume 524.598090
_symmetry_space_group_name_H-M "P -1"
_symmetry_group_IT_number 2
_symmetry_cell_setting 'triclinic'
loop_
_space_group_symop_operation_xyz
x,y,z
-x,-y,-z
loop_
_atom_site_type_symbol
_atom_site_label
_atom_site_fract_x
_atom_site_fract_y
_atom_site_fract_z
Si Si1 0.193688 0.742098 0.982018
Si Si2 0.129640 0.373812 0.891916
Si Si3 0.462171 0.923648 0.650899
Si Si4 0.532425 0.593035 0.396813
Si Si5 0.477523 0.260336 0.104953
Si Si6 0.892104 0.947090 0.750785
Si Si7 0.152243 0.249126 0.580529
O O1 0.240645 0.526202 0.919692
O O2 0.377733 0.797331 0.993388
O O3 0.028284 0.820722 0.853541
O O4 0.124048 0.844797 0.137398
O O5 0.039033 0.319362 0.706522
O O6 0.276345 0.236085 0.980501
O O7 0.000000 0.500000 0.000000
O O8 0.423623 0.795295 0.469084
O O9 0.444118 0.845100 0.769809
O O10 0.681928 0.917755 0.698872
O O11 0.330822 0.115101 0.654268
O O12 0.500000 0.500000 0.500000
O O13 0.462348 0.470120 0.219307
O O14 0.747617 0.609234 0.427239
O O15 0.948275 0.869478 0.591066
#
# Coordination Sequence:
#
# PCOD9025440 Si02
#       7
#     2   2   2   2   2   2   2
#     4  11  24  43  68  98 134 178 224 280 342 396
#     4  12  27  44  67  97 136 180 228 280 338 396
#     4  10  22  40  69 100 137 176 224 273 337 404
#     4   9  19  38  65 103 128 170 223 272 333 397
#     4  11  23  42  68  97 136 178 226 277 336 399
#     4  10  23  42  67  98 135 173 220 280 336 401
#     4  11  23  43  70  99 135 182 224 273 341 396
#
# _framework density 26.687096
#
# number of rings (size 3 to 8) (size 9 to 14) (size 15 to 20)
#    0.000    1.429    1.429    3.857    4.000    5.143 
#    7.714    1.429    0.000    0.000    0.000    0.000 
#    0.000    0.000    0.000    0.000    0.000    0.000 
#
# Total GULP energy -78299.092493 kJ/mol
# GULP energy per Si atom -5592.792321 kJ/mol
# Density = 2.662636 g / cm^3
# Si number density = 26.687096 Si / 1000 Ang^3
#
#
#
# Elastic Constant Matrix: (Units=GPa)
#
#
# Indices 1 2 3 4 5 6 
#
# 1 55.5871 -3.6434 20.5016 -8.3671 -13.2599 -6.4212
# 2 -3.6434 49.9200 9.3501 4.0502 -0.6963 -3.7417
# 3 20.5016 9.3501 209.7915 23.4707 -29.9677 -10.2432
# 4 -8.3671 4.0502 23.4707 45.2460 -3.4839 1.7866
# 5 -13.2599 -0.6963 -29.9677 -3.4839 50.2971 -5.6235
# 6 -6.4212 -3.7417 -10.2432 1.7866 -5.6235 20.0018
#
#
#
# Elastic Compliance Matrix: (Units=1/GPa)
#
#
# Indices 1 2 3 4 5 6 
#
# 1 0.021769 0.002161 -0.001501 0.004767 0.006089 0.007910
# 2 0.002161 0.020769 -0.000644 -0.001238 0.000904 0.004614
# 3 -0.001501 -0.000644 0.005955 -0.003197 0.003332 0.003670
# 4 0.004767 -0.001238 -0.003197 0.024906 0.000798 -0.002339
# 5 0.006089 0.000904 0.003332 0.000798 0.024738 0.010714
# 6 0.007910 0.004614 0.003670 -0.002339 0.010714 0.058499
#
#
# Mechanical properties :
#
#
# Convention : Reuss Voigt Hill
#
# Bulk Modulus (GPa) = 20.60789 40.85725 30.73257
# Shear Modulus (GPa) = 28.93869 42.38166 35.66017
#
# Velocity S-wave (km/s) = 3.29655 3.98941 3.65942
# Velocity P-wave (km/s) = 4.71471 6.04678 5.42181
#
# Compressibility (1/GPa) = 0.04852511
#
# Stress axis : x y z
#
# Youngs Moduli (GPa) = 45.93716 48.14804 167.92953
#
# Poissons Ratio (x) = -0.10405 0.25205
# Poissons Ratio (y) = -0.09927 0.10814
# Poissons Ratio (z) = 0.06895 0.03101
#
# Static dielectric constant tensor:
#      x y z
#    x 2.102530 0.111940 -0.038770 
#    y 0.111940 2.191140 0.072900 
#    z -0.038770 0.072900 2.108080 
# 
# From -- ./inp_files/159923.got.cif
#   From: 2010.05.17/outbox.cif.g08.bks.cpg/sg2_80_cif.got.tgz:159923.got - 2010.06.03 11:33:40.
