data_PCOD9025194
_publ_section_title
;
Structure prediction by ZEFSAII (Michael W. Deem and Ramdas Pophale) SiO2 
 PCOD9025194
Probable space group: P -1
;
_chemical_formula_sum "Si O2"
_cell_formula_units_Z 16
_cell_length_a 8.866489
_cell_length_b 19.593168
_cell_length_c 8.363034
_cell_angle_alpha 51.065374
_cell_angle_beta 115.607825
_cell_angle_gamma 79.107336
_cell_volume 768.642765
_symmetry_space_group_name_H-M "P -1"
_symmetry_group_IT_number 2
_symmetry_cell_setting 'triclinic'
loop_
_space_group_symop_operation_xyz
x,y,z
-x,-y,-z
loop_
_atom_site_type_symbol
_atom_site_label
_atom_site_fract_x
_atom_site_fract_y
_atom_site_fract_z
Si Si1 0.410823 0.937807 0.111009
Si Si2 0.725357 0.684195 0.709649
Si Si3 0.286834 0.049475 0.223592
Si Si4 0.045738 0.972940 0.375333
Si Si5 0.085614 0.695232 0.440681
Si Si6 0.570885 0.498327 0.353708
Si Si7 0.599643 0.282862 0.228759
Si Si8 0.146940 0.551909 0.965844
O O1 0.584095 0.800095 0.370439
O O2 0.379875 0.961394 0.249674
O O3 0.500000 0.000000 0.000000
O O4 0.176762 0.989657 0.857549
O O5 0.582079 0.705382 0.764962
O O6 0.975248 0.636515 0.903983
O O7 0.784487 0.573091 0.813127
O O8 0.500000 0.000000 0.500000
O O9 0.113333 0.045578 0.237064
O O10 0.144733 0.179055 0.896850
O O11 0.241207 0.838997 0.612220
O O12 0.000000 0.000000 0.500000
O O13 0.206386 0.618856 0.447592
O O14 0.242240 0.712586 0.584642
O O15 0.053575 0.623354 0.651419
O O16 0.500000 0.500000 0.500000
O O17 0.533833 0.611459 0.115633
O O18 0.379307 0.518499 0.134841
#
# Coordination Sequence:
#
# PCOD9025194 Si02
#       8
#     2   2   2   2   2   2   2   2
#     4  12  25  44  70 100 136 188 228 285 353 411
#     4  11  21  39  70  94 130 172 237 276 336 417
#     4  12  26  44  69 102 137 182 231 286 349 413
#     4  12  27  45  69 102 139 181 234 288 348 418
#     4  11  21  44  69  95 136 178 230 276 345 423
#     4  11  24  39  66 100 133 177 223 285 340 409
#     4  11  21  45  71  95 132 185 228 276 349 420
#     4  10  22  40  67  98 127 178 226 278 343 409
#
# _framework density 20.815912000000001
#
# number of rings (size 3 to 8) (size 9 to 14) (size 15 to 20)
#    0.000    0.750    5.000    3.375    3.500    1.000 
#    0.000    1.875    0.000    0.000    0.000    0.000 
#    0.000    0.000    0.000    0.000    0.000    0.000 
#
# Total GULP energy -89254.301299 kJ/mol
# GULP energy per Si atom -5578.393831 kJ/mol
# Density = 2.076853 g / cm^3
# Si number density = 20.815912 Si / 1000 Ang^3
#
#
#
# Elastic Constant Matrix: (Units=GPa)
#
#
# Indices 1 2 3 4 5 6 
#
# 1 118.5458 27.1182 43.1285 -8.5017 -8.9640 -3.5477
# 2 27.1182 95.3917 50.0293 -10.0018 -1.0985 -20.4719
# 3 43.1285 50.0293 111.1701 -24.0789 -8.1362 0.3962
# 4 -8.5017 -10.0018 -24.0789 47.6218 1.2062 3.3702
# 5 -8.9640 -1.0985 -8.1362 1.2062 41.7302 -4.5198
# 6 -3.5477 -20.4719 0.3962 3.3702 -4.5198 34.2326
#
#
#
# Elastic Compliance Matrix: (Units=1/GPa)
#
#
# Indices 1 2 3 4 5 6 
#
# 1 0.010008 -0.000893 -0.003418 -0.000223 0.001550 0.000769
# 2 -0.000893 0.016686 -0.007450 -0.001133 -0.000081 0.010073
# 3 -0.003418 -0.007450 0.015036 0.005777 0.001251 -0.005387
# 4 -0.000223 -0.001133 0.005777 0.023862 0.000022 -0.003114
# 5 0.001550 -0.000081 0.001251 0.000022 0.024904 0.003384
# 6 0.000769 0.010073 -0.005387 -0.003114 0.003384 0.036131
#
#
# Mechanical properties :
#
#
# Convention : Reuss Voigt Hill
#
# Bulk Modulus (GPa) = 54.92129 62.85105 58.88617
# Shear Modulus (GPa) = 32.00637 38.37235 35.18936
#
# Velocity S-wave (km/s) = 3.92547 4.29816 4.11603
# Velocity P-wave (km/s) = 6.85473 7.40888 7.13718
#
# Compressibility (1/GPa) = 0.01820788
#
# Stress axis : x y z
#
# Youngs Moduli (GPa) = 99.92400 59.92955 66.50607
#
# Poissons Ratio (x) = 0.05349 0.22735
# Poissons Ratio (y) = 0.08919 0.49548
# Poissons Ratio (z) = 0.34158 0.44648
#
# Static dielectric constant tensor:
#      x y z
#    x 1.725090 0.042800 -0.000680 
#    y 0.042800 1.746690 0.008820 
#    z -0.000680 0.008820 1.743800 
# 
# From -- ./inp_files/223252.got.cif
#   From: 2010.05.17/outbox.cif.g08.bks.cpg/sg2_112_cif.got.tgz:223252.got - 2010.06.03 11:33:40.
