data_PCOD9025053
_publ_section_title
;
Structure prediction by ZEFSAII (Michael W. Deem and Ramdas Pophale) SiO2 
 PCOD9025053
Probable space group: P -1
;
_chemical_formula_sum "Si O2"
_cell_formula_units_Z 15
_cell_length_a 5.417213
_cell_length_b 20.335894
_cell_length_c 5.728976
_cell_angle_alpha 70.180459
_cell_angle_beta 83.594683
_cell_angle_gamma 75.917646
_cell_volume 575.605637
_symmetry_space_group_name_H-M "P -1"
_symmetry_group_IT_number 2
_symmetry_cell_setting 'triclinic'
loop_
_space_group_symop_operation_xyz
x,y,z
-x,-y,-z
loop_
_atom_site_type_symbol
_atom_site_label
_atom_site_fract_x
_atom_site_fract_y
_atom_site_fract_z
Si Si1 0.128998 0.226192 0.258605
Si Si2 0.661451 0.906891 0.355387
Si Si3 0.650750 0.561992 0.374431
Si Si4 0.210158 0.958763 0.706039
Si Si5 0.410315 0.825876 0.090467
Si Si6 0.748645 0.307316 0.845501
Si Si7 0.000000 0.500000 0.000000
Si Si8 0.893184 0.639078 0.611320
O O1 0.114446 0.155107 0.489240
O O2 0.205955 0.285792 0.343788
O O3 0.352588 0.202820 0.074141
O O4 0.873295 0.264634 0.109087
O O5 0.462195 0.931327 0.557020
O O6 0.521701 0.868781 0.225610
O O7 0.746770 0.979657 0.193074
O O8 0.500000 0.500000 0.500000
O O9 0.491459 0.628709 0.163504
O O10 0.692293 0.596365 0.578478
O O11 0.894590 0.528554 0.236208
O O12 0.184977 0.885879 0.922945
O O13 0.000000 0.000000 0.500000
O O14 0.318007 0.753844 0.242579
O O15 0.950372 0.342847 0.647795
O O16 0.054612 0.580415 0.836952
#
# Coordination Sequence:
#
# PCOD9025053 Si02
#       8
#     2   2   2   2   2   2   1   2
#     4  11  25  45  70 101 140 193 240 302 367 439
#     4  10  22  42  67 102 145 186 244 305 357 438
#     4  12  28  51  76 109 146 190 245 308 379 449
#     4  10  22  40  67 105 142 190 244 297 369 433
#     4  11  24  44  71 102 146 191 241 304 370 435
#     4  12  25  45  71 105 143 190 245 301 371 444
#     4  12  26  50  76 104 144 186 242 306 372 444
#     4  12  27  47  73 105 144 183 245 305 365 455
#
# _framework density 26.059505000000001
#
# number of rings (size 3 to 8) (size 9 to 14) (size 15 to 20)
#    0.000    0.800    1.333    5.600    1.867    7.467 
#    2.400    0.000    0.000    0.000    0.000    0.000 
#    0.000    0.000    0.000    0.000    0.000    0.000 
#
# Total GULP energy -83805.749836 kJ/mol
# GULP energy per Si atom -5587.049989 kJ/mol
# Density = 2.600019 g / cm^3
# Si number density = 26.059505 Si / 1000 Ang^3
#
#
#
# Elastic Constant Matrix: (Units=GPa)
#
#
# Indices 1 2 3 4 5 6 
#
# 1 38.7564 30.1820 11.1556 0.3687 22.5673 3.7449
# 2 30.1820 215.0690 47.0479 -1.1043 14.5053 11.9857
# 3 11.1556 47.0479 59.3544 -1.6348 7.4476 -5.2224
# 4 0.3687 -1.1043 -1.6348 69.0268 -4.3854 8.0198
# 5 22.5673 14.5053 7.4476 -4.3854 35.3008 -8.1091
# 6 3.7449 11.9857 -5.2224 8.0198 -8.1091 55.0201
#
#
#
# Elastic Compliance Matrix: (Units=1/GPa)
#
#
# Indices 1 2 3 4 5 6 
#
# 1 0.047760 -0.003637 -0.002958 -0.001492 -0.030200 -0.006973
# 2 -0.003637 0.006177 -0.004388 0.000212 0.000398 -0.001487
# 3 -0.002958 -0.004388 0.021166 0.000079 -0.000038 0.003149
# 4 -0.001492 0.000212 0.000079 0.014851 0.002290 -0.001764
# 5 -0.030200 0.000398 -0.000038 0.002290 0.049825 0.008975
# 6 -0.006973 -0.001487 0.003149 -0.001764 0.008975 0.020853
#
#
# Mechanical properties :
#
#
# Convention : Reuss Voigt Hill
#
# Bulk Modulus (GPa) = 18.81964 54.43898 36.62931
# Shear Modulus (GPa) = 24.96134 46.85583 35.90859
#
# Velocity S-wave (km/s) = 3.09829 4.24492 3.71610
# Velocity P-wave (km/s) = 4.47623 6.70533 5.70079
#
# Compressibility (1/GPa) = 0.05313598
#
# Stress axis : x y z
#
# Youngs Moduli (GPa) = 20.93821 161.88886 47.24596
#
# Poissons Ratio (x) = 0.58887 0.13976
# Poissons Ratio (y) = 0.07616 0.20729
# Poissons Ratio (z) = 0.06194 0.71029
#
# Static dielectric constant tensor:
#      x y z
#    x 2.108720 0.001460 0.074540 
#    y 0.001460 2.058970 -0.016680 
#    z 0.074540 -0.016680 2.098650 
# 
# From -- ./inp_files/7581.got.cif
#   From: 2010.05.17/outbox.cif.g08.bks.cpg/sg2_4_cif.got.tgz:7581.got - 2010.06.03 11:33:40.
