data_PCOD9025242
_publ_section_title
;
Structure prediction by ZEFSAII (Michael W. Deem and Ramdas Pophale) SiO2 
 PCOD9025242
Probable space group: P -1
;
_chemical_formula_sum "Si O2"
_cell_formula_units_Z 12
_cell_length_a 7.760413
_cell_length_b 13.442843
_cell_length_c 9.706035
_cell_angle_alpha 100.825509
_cell_angle_beta 105.242526
_cell_angle_gamma 26.397657
_cell_volume 431.652296
_symmetry_space_group_name_H-M "P -1"
_symmetry_group_IT_number 2
_symmetry_cell_setting 'triclinic'
loop_
_space_group_symop_operation_xyz
x,y,z
-x,-y,-z
loop_
_atom_site_type_symbol
_atom_site_label
_atom_site_fract_x
_atom_site_fract_y
_atom_site_fract_z
Si Si1 0.168497 0.314861 0.912989
Si Si2 0.516123 0.447291 0.836769
Si Si3 0.269100 0.885467 0.218632
Si Si4 0.633350 0.053023 0.185917
Si Si5 0.430377 0.248585 0.470539
Si Si6 0.480441 0.599892 0.633193
O O1 0.595496 0.115068 0.877806
O O2 0.871084 0.446213 0.756211
O O3 0.290579 0.194403 0.047508
O O4 0.000000 0.500000 0.000000
O O5 0.457067 0.355953 0.797902
O O6 0.286243 0.638215 0.733798
O O7 0.500000 0.500000 0.000000
O O8 0.973715 0.214484 0.812393
O O9 0.358429 0.893462 0.383026
O O10 0.828128 0.062938 0.181298
O O11 0.471265 0.148155 0.330032
O O12 0.624107 0.253084 0.451160
O O13 0.000000 0.500000 0.500000
O O14 0.500000 0.500000 0.500000
#
# Coordination Sequence:
#
# PCOD9025242 Si02
#       6
#     2   2   2   2   2   2
#     4  12  22  41  71 104 132 184 241 281 333 422
#     4  10  24  42  67 101 143 178 222 287 360 392
#     4  10  22  40  68 101 135 183 229 282 340 410
#     4  10  24  42  72 101 137 180 239 281 338 420
#     4  12  22  44  73  99 138 185 239 276 340 421
#     4  12  24  42  68 103 142 181 225 290 352 403
#
# _framework density 27.800152000000001
#
# number of rings (size 3 to 8) (size 9 to 14) (size 15 to 20)
#    1.000    0.000    5.000    2.000    0.000    0.667 
#    0.000    0.833    3.667    0.000    0.000    0.000 
#    0.000    0.000    0.000    0.000    0.000    0.000 
#
# Total GULP energy -66970.370578 kJ/mol
# GULP energy per Si atom -5580.864215 kJ/mol
# Density = 2.773688 g / cm^3
# Si number density = 27.800152 Si / 1000 Ang^3
#
#
#
# Elastic Constant Matrix: (Units=GPa)
#
#
# Indices 1 2 3 4 5 6 
#
# 1 48.4670 1.9311 40.0253 7.6761 -2.3836 -6.8978
# 2 1.9311 119.1196 48.2730 18.6381 -1.5654 -6.9092
# 3 40.0253 48.2730 288.2132 16.7305 2.8902 -4.0593
# 4 7.6761 18.6381 16.7305 53.5745 -5.8564 -12.4306
# 5 -2.3836 -1.5654 2.8902 -5.8564 49.7197 -8.7717
# 6 -6.8978 -6.9092 -4.0593 -12.4306 -8.7717 50.3285
#
#
#
# Elastic Compliance Matrix: (Units=1/GPa)
#
#
# Indices 1 2 3 4 5 6 
#
# 1 0.024292 0.001537 -0.003487 -0.002029 0.001716 0.003057
# 2 0.001537 0.009521 -0.001637 -0.002822 0.000266 0.000735
# 3 -0.003487 -0.001637 0.004253 -0.000462 -0.000623 -0.000582
# 4 -0.002029 -0.002822 -0.000462 0.021657 0.003313 0.005224
# 5 0.001716 0.000266 -0.000623 0.003313 0.021474 0.004782
# 6 0.003057 0.000735 -0.000582 0.005224 0.004782 0.022466
#
#
# Mechanical properties :
#
#
# Convention : Reuss Voigt Hill
#
# Bulk Modulus (GPa) = 32.37112 70.69540 51.53326
# Shear Modulus (GPa) = 41.27676 55.09590 48.18633
#
# Velocity S-wave (km/s) = 3.85745 4.45663 4.16782
# Velocity P-wave (km/s) = 5.61332 7.20883 6.46052
#
# Compressibility (1/GPa) = 0.03089173
#
# Stress axis : x y z
#
# Youngs Moduli (GPa) = 41.16562 105.03241 235.13102
#
# Poissons Ratio (x) = -0.16141 0.81997
# Poissons Ratio (y) = -0.06326 0.38481
# Poissons Ratio (z) = 0.14356 0.17190
#
# Static dielectric constant tensor:
#      x y z
#    x 2.775980 -0.021120 0.047900 
#    y -0.021120 2.413760 0.050260 
#    z 0.047900 0.050260 2.036000 
# 
# From -- ./inp_files/193416.got.cif
#   From: 2010.05.17/outbox.cif.g08.bks.cpg/sg2_97_cif.got.tgz:193416.got - 2010.06.03 11:33:40.
