data_PCOD9025340
_publ_section_title
;
Structure prediction by ZEFSAII (Michael W. Deem and Ramdas Pophale) SiO2 
 PCOD9025340
Probable space group: P -1
;
_chemical_formula_sum "Si O2"
_cell_formula_units_Z 14
_cell_length_a 11.513983
_cell_length_b 10.259350
_cell_length_c 18.281185
_cell_angle_alpha 25.371437
_cell_angle_beta 143.049750
_cell_angle_gamma 129.567363
_cell_volume 524.990381
_symmetry_space_group_name_H-M "P -1"
_symmetry_group_IT_number 2
_symmetry_cell_setting 'triclinic'
loop_
_space_group_symop_operation_xyz
x,y,z
-x,-y,-z
loop_
_atom_site_type_symbol
_atom_site_label
_atom_site_fract_x
_atom_site_fract_y
_atom_site_fract_z
Si Si1 0.297252 0.224604 0.682454
Si Si2 0.532537 0.416851 0.318435
Si Si3 0.786791 0.556252 0.727484
Si Si4 0.776733 0.211393 0.753644
Si Si5 0.594981 0.748569 0.959075
Si Si6 0.819981 0.703543 0.861326
Si Si7 0.075297 0.867835 0.522983
O O1 0.361097 0.314977 0.748510
O O2 0.236086 0.567714 0.434781
O O3 0.105499 0.099786 0.641464
O O4 0.467785 0.974384 0.844871
O O5 0.368408 0.472824 0.273896
O O6 0.375481 0.425374 0.168519
O O7 0.705345 0.066779 0.591205
O O8 0.711709 0.456881 0.664597
O O9 0.791621 0.917314 0.543876
O O10 0.027064 0.339667 0.971266
O O11 0.644120 0.975074 0.808224
O O12 0.000000 0.000000 0.000000
O O13 0.500000 0.500000 0.000000
O O14 0.802142 0.506986 0.219475
O O15 0.000000 0.500000 0.000000
O O16 0.000000 0.000000 0.500000
#
# Coordination Sequence:
#
# PCOD9025340 Si02
#       7
#     2   2   2   2   2   2   2
#     4  12  24  39  61  92 132 168 212 255 309 379
#     4  10  22  40  68  95 118 163 218 262 317 377
#     4  11  22  40  63  92 130 166 212 258 315 373
#     4  12  22  38  61  92 128 174 212 253 311 379
#     4  12  24  37  57  86 132 173 208 254 304 374
#     4   9  21  42  69  95 119 154 215 275 318 371
#     4  12  24  40  54  93 136 170 206 255 311 366
#
# _framework density 26.667154
#
# number of rings (size 3 to 8) (size 9 to 14) (size 15 to 20)
#    0.000    0.857    5.714    1.286    2.000    1.143 
#    0.000    0.714    0.000    8.571    0.000    0.000 
#    0.000    0.000    0.000    0.000    0.000    0.000 
#
# Total GULP energy -78398.663868 kJ/mol
# GULP energy per Si atom -5599.904562 kJ/mol
# Density = 2.660646 g / cm^3
# Si number density = 26.667154 Si / 1000 Ang^3
#
#
#
# Elastic Constant Matrix: (Units=GPa)
#
#
# Indices 1 2 3 4 5 6 
#
# 1 35.5213 15.7413 7.6354 -3.3514 6.7173 -0.5157
# 2 15.7413 213.5952 32.6723 0.9961 6.4536 7.7830
# 3 7.6354 32.6723 197.2515 11.4690 15.7960 6.2523
# 4 -3.3514 0.9961 11.4690 45.9738 7.3206 -2.1079
# 5 6.7173 6.4536 15.7960 7.3206 46.5227 -5.3935
# 6 -0.5157 7.7830 6.2523 -2.1079 -5.3935 37.2989
#
#
#
# Elastic Compliance Matrix: (Units=1/GPa)
#
#
# Indices 1 2 3 4 5 6 
#
# 1 0.030316 -0.002032 -0.000692 0.003134 -0.004294 0.000515
# 2 -0.002032 0.004982 -0.000689 -0.000088 -0.000265 -0.000995
# 3 -0.000692 -0.000689 0.005441 -0.001189 -0.001590 -0.001075
# 4 0.003134 -0.000088 -0.001189 0.022886 -0.003517 0.001046
# 5 -0.004294 -0.000265 -0.001590 -0.003517 0.023649 0.003483
# 6 0.000515 -0.000995 -0.001075 0.001046 0.003483 0.027768
#
#
# Mechanical properties :
#
#
# Convention : Reuss Voigt Hill
#
# Bulk Modulus (GPa) = 29.48593 62.05178 45.76886
# Shear Modulus (GPa) = 37.54550 51.98035 44.76293
#
# Velocity S-wave (km/s) = 3.75631 4.41980 4.10149
# Velocity P-wave (km/s) = 5.46756 7.02607 6.29523
#
# Compressibility (1/GPa) = 0.03391448
#
# Stress axis : x y z
#
# Youngs Moduli (GPa) = 32.98535 200.74110 183.78992
#
# Poissons Ratio (x) = 0.40792 0.12711
# Poissons Ratio (y) = 0.06703 0.12655
# Poissons Ratio (z) = 0.02281 0.13822
#
# Static dielectric constant tensor:
#      x y z
#    x 2.096410 -0.059310 0.007430 
#    y -0.059310 2.217180 0.039690 
#    z 0.007430 0.039690 2.131800 
# 
# From -- ./inp_files/349598.got.cif
#   From: 2010.05.17/outbox.cif.g08.bks.cpg/sg2_175_cif.got.tgz:349598.got - 2010.06.03 11:33:40.
