data_PCOD9025489
_publ_section_title
;
Structure prediction by ZEFSAII (Michael W. Deem and Ramdas Pophale) SiO2 
 PCOD9025489
Probable space group: P -1
;
_chemical_formula_sum "Si O2"
_cell_formula_units_Z 13
_cell_length_a 10.932995
_cell_length_b 4.895988
_cell_length_c 9.516505
_cell_angle_alpha 84.397784
_cell_angle_beta 108.321755
_cell_angle_gamma 82.878802
_cell_volume 474.772723
_symmetry_space_group_name_H-M "P -1"
_symmetry_group_IT_number 2
_symmetry_cell_setting 'triclinic'
loop_
_space_group_symop_operation_xyz
x,y,z
-x,-y,-z
loop_
_atom_site_type_symbol
_atom_site_label
_atom_site_fract_x
_atom_site_fract_y
_atom_site_fract_z
Si Si1 0.464991 0.803367 0.289904
Si Si2 0.028005 0.439304 0.241823
Si Si3 0.184642 0.113211 0.909244
Si Si4 0.423419 0.343444 0.091651
Si Si5 0.862144 0.158085 0.381352
Si Si6 0.000000 0.000000 0.000000
Si Si7 0.292282 0.126855 0.450179
O O1 0.428500 0.525035 0.224823
O O2 0.598851 0.750450 0.428342
O O3 0.484505 0.025151 0.163890
O O4 0.358974 0.976350 0.345338
O O5 0.027561 0.212619 0.134838
O O6 0.168699 0.368140 0.364805
O O7 0.971490 0.736131 0.136287
O O8 0.914146 0.424420 0.319060
O O9 0.194544 0.979477 0.768309
O O10 0.284095 0.310295 0.977355
O O11 0.167490 0.900864 0.036083
O O12 0.500000 0.500000 0.000000
O O13 0.761583 0.113695 0.467270
O O14 0.000000 0.000000 0.500000
#
# Coordination Sequence:
#
# PCOD9025489 Si02
#       7
#     2   2   2   2   2   1   2
#     4  11  27  50  72 110 143 205 244 303 368 436
#     4  10  22  40  69 106 135 190 237 310 373 432
#     4  11  24  41  73 105 141 191 246 309 374 434
#     4  12  28  49  79 107 151 195 253 303 366 445
#     4   9  21  42  63 101 140 184 234 298 369 437
#     4  10  22  42  62 104 144 180 236 302 370 432
#     4  10  23  46  70 101 150 186 250 301 366 446
#
# _framework density 27.381522
#
# number of rings (size 3 to 8) (size 9 to 14) (size 15 to 20)
#    0.000    1.538    0.000    2.769    8.615    4.923 
#   19.385    0.000    0.000    0.000    0.000    0.000 
#    0.000    0.000    0.000    0.000    0.000    0.000 
#
# Total GULP energy -72701.218688 kJ/mol
# GULP energy per Si atom -5592.401438 kJ/mol
# Density = 2.731920 g / cm^3
# Si number density = 27.381522 Si / 1000 Ang^3
#
#
#
# Elastic Constant Matrix: (Units=GPa)
#
#
# Indices 1 2 3 4 5 6 
#
# 1 171.5927 36.4307 70.5998 4.5649 9.3587 33.1651
# 2 36.4307 126.1596 50.2260 11.0651 31.3789 25.7889
# 3 70.5998 50.2260 133.7004 1.8863 17.1510 18.3877
# 4 4.5649 11.0651 1.8863 41.3121 3.3681 7.2693
# 5 9.3587 31.3789 17.1510 3.3681 61.7648 -13.5559
# 6 33.1651 25.7889 18.3877 7.2693 -13.5559 37.3866
#
#
#
# Elastic Compliance Matrix: (Units=1/GPa)
#
#
# Indices 1 2 3 4 5 6 
#
# 1 0.008710 0.001121 -0.003626 0.000481 -0.002611 -0.007757
# 2 0.001121 0.013412 -0.002867 -0.000786 -0.008746 -0.011854
# 3 -0.003626 -0.002867 0.010698 0.000891 -0.001158 -0.000661
# 4 0.000481 -0.000786 0.000891 0.025649 -0.002700 -0.006288
# 5 -0.002611 -0.008746 -0.001158 -0.002700 0.025609 0.018730
# 6 -0.007757 -0.011854 -0.000661 -0.006288 0.018730 0.050145
#
#
# Mechanical properties :
#
#
# Convention : Reuss Voigt Hill
#
# Bulk Modulus (GPa) = 45.29560 82.88508 64.09034
# Shear Modulus (GPa) = 32.82465 46.37244 39.59855
#
# Velocity S-wave (km/s) = 3.46611 4.11976 3.80699
# Velocity P-wave (km/s) = 5.70937 7.27778 6.54075
#
# Compressibility (1/GPa) = 0.02207720
#
# Stress axis : x y z
#
# Youngs Moduli (GPa) = 114.80536 74.56251 93.47725
#
# Poissons Ratio (x) = -0.08360 0.33891
# Poissons Ratio (y) = -0.12872 0.26799
# Poissons Ratio (z) = 0.41624 0.21376
#
# Static dielectric constant tensor:
#      x y z
#    x 2.250470 0.026450 -0.017380 
#    y 0.026450 2.160010 -0.136730 
#    z -0.017380 -0.136730 2.210380 
# 
# From -- ./inp_files/229170.got.cif
#   From: 2010.05.17/outbox.cif.g08.bks.cpg/sg2_115_cif.got.tgz:229170.got - 2010.06.03 11:33:40.
