data_PCOD9025365
_publ_section_title
;
Structure prediction by ZEFSAII (Michael W. Deem and Ramdas Pophale) SiO2 
 PCOD9025365
Probable space group: P -1
;
_chemical_formula_sum "Si O2"
_cell_formula_units_Z 15
_cell_length_a 14.184725
_cell_length_b 10.941781
_cell_length_c 15.995014
_cell_angle_alpha 36.875948
_cell_angle_beta 153.399648
_cell_angle_gamma 145.145340
_cell_volume 613.647576
_symmetry_space_group_name_H-M "P -1"
_symmetry_group_IT_number 2
_symmetry_cell_setting 'triclinic'
loop_
_space_group_symop_operation_xyz
x,y,z
-x,-y,-z
loop_
_atom_site_type_symbol
_atom_site_label
_atom_site_fract_x
_atom_site_fract_y
_atom_site_fract_z
Si Si1 0.599323 0.949387 0.377811
Si Si2 0.353691 0.245286 0.039496
Si Si3 0.687020 0.883183 0.156249
Si Si4 0.900899 0.385723 0.802940
Si Si5 0.000000 0.000000 0.000000
Si Si6 0.740619 0.747812 0.448334
Si Si7 0.284390 0.646629 0.072209
Si Si8 0.000562 0.745805 0.362846
O O1 0.367315 0.745187 0.323945
O O2 0.740158 0.873269 0.464421
O O3 0.763479 0.071328 0.518030
O O4 0.495197 0.126701 0.167995
O O5 0.088608 0.189962 0.830218
O O6 0.500000 0.500000 0.000000
O O7 0.286847 0.138492 0.135679
O O8 0.421684 0.730591 0.046754
O O9 0.807116 0.759288 0.264089
O O10 0.781764 0.903058 0.315355
O O11 0.730406 0.129418 0.027245
O O12 0.901717 0.614047 0.642307
O O13 0.047515 0.454081 0.967086
O O14 0.984833 0.227274 0.903115
O O15 0.467264 0.593388 0.301449
O O16 0.000000 0.500000 0.500000
#
# Coordination Sequence:
#
# PCOD9025365 Si02
#       8
#     2   2   2   2   1   2   2   2
#     4  11  25  43  63 104 133 179 238 283 354 416
#     4  11  25  46  72  96 143 191 230 293 351 419
#     4   9  22  41  63 104 131 173 235 289 342 417
#     4  11  24  41  65  94 138 180 228 289 354 416
#     4  10  28  46  66 108 138 188 240 286 348 432
#     4  10  22  40  68  96 131 180 225 291 342 413
#     4   9  21  41  64  97 131 170 223 291 339 410
#     4  12  25  42  67 100 138 181 232 287 347 421
#
# _framework density 24.443998000000001
#
# number of rings (size 3 to 8) (size 9 to 14) (size 15 to 20)
#    0.800    0.800    1.333    2.000    3.733    4.800 
#    0.000    3.333    0.000    0.000    0.000    0.000 
#    0.000    0.000    0.000    0.000    0.000    0.000 
#
# Total GULP energy -83508.931932 kJ/mol
# GULP energy per Si atom -5567.262129 kJ/mol
# Density = 2.438836 g / cm^3
# Si number density = 24.443998 Si / 1000 Ang^3
#
#
#
# Elastic Constant Matrix: (Units=GPa)
#
#
# Indices 1 2 3 4 5 6 
#
# 1 43.1175 11.4486 14.3731 -9.7177 28.3840 -15.0196
# 2 11.4486 127.8650 55.7739 5.9941 12.6658 -8.6500
# 3 14.3731 55.7739 142.6234 -10.1824 21.4673 -24.3979
# 4 -9.7177 5.9941 -10.1824 66.6783 -13.6530 12.1028
# 5 28.3840 12.6658 21.4673 -13.6530 35.8801 -2.0373
# 6 -15.0196 -8.6500 -24.3979 12.1028 -2.0373 37.0743
#
#
#
# Elastic Compliance Matrix: (Units=1/GPa)
#
#
# Indices 1 2 3 4 5 6 
#
# 1 0.070602 -0.001074 0.007450 -0.006728 -0.060667 0.032117
# 2 -0.001074 0.009701 -0.003662 -0.001797 -0.001071 -0.000053
# 3 0.007450 -0.003662 0.010797 -0.000778 -0.010850 0.008927
# 4 -0.006728 -0.001797 -0.000778 0.018319 0.012886 -0.008929
# 5 -0.060667 -0.001071 -0.010850 0.012886 0.085850 -0.031457
# 6 0.032117 -0.000053 0.008927 -0.008929 -0.031457 0.047033
#
#
# Mechanical properties :
#
#
# Convention : Reuss Voigt Hill
#
# Bulk Modulus (GPa) = 10.35946 52.97744 31.66845
# Shear Modulus (GPa) = 18.58395 43.39389 30.98892
#
# Velocity S-wave (km/s) = 2.76028 4.21793 3.56441
# Velocity P-wave (km/s) = 3.79554 6.74101 5.47025
#
# Compressibility (1/GPa) = 0.09653009
#
# Stress axis : x y z
#
# Youngs Moduli (GPa) = 14.16387 103.08432 92.61551
#
# Poissons Ratio (x) = 0.11067 -0.68999
# Poissons Ratio (y) = 0.01521 0.33912
# Poissons Ratio (z) = -0.10552 0.37745
#
# Static dielectric constant tensor:
#      x y z
#    x 1.874720 0.057660 0.032670 
#    y 0.057660 2.060110 0.041780 
#    z 0.032670 0.041780 1.961730 
# 
# From -- ./inp_files/447946.got.cif
#   From: 2010.05.17/outbox.cif.g08.bks.cpg/sg2_224_cif.got.tgz:447946.got - 2010.06.03 11:33:40.
