data_PCOD9025935
_publ_section_title
;
Structure prediction by ZEFSAII (Michael W. Deem and Ramdas Pophale) SiO2 
 PCOD9025935
Probable space group: P -1
;
_chemical_formula_sum "Si O2"
_cell_formula_units_Z 14
_cell_length_a 5.433731
_cell_length_b 18.905674
_cell_length_c 7.419410
_cell_angle_alpha 117.009528
_cell_angle_beta 69.029521
_cell_angle_gamma 68.022660
_cell_volume 484.432940
_symmetry_space_group_name_H-M "P -1"
_symmetry_group_IT_number 2
_symmetry_cell_setting 'triclinic'
loop_
_space_group_symop_operation_xyz
x,y,z
-x,-y,-z
loop_
_atom_site_type_symbol
_atom_site_label
_atom_site_fract_x
_atom_site_fract_y
_atom_site_fract_z
Si Si1 0.745559 0.123065 0.252951
Si Si2 0.482596 0.869303 0.044595
Si Si3 0.001293 0.368573 0.355230
Si Si4 0.088234 0.083668 0.500073
Si Si5 0.148333 0.408286 0.994307
Si Si6 0.872341 0.292277 0.849459
Si Si7 0.432355 0.677160 0.636656
O O1 0.831553 0.118874 0.437815
O O2 0.769379 0.210238 0.272462
O O3 0.465217 0.149375 0.203930
O O4 0.000000 0.000000 0.000000
O O5 0.112542 0.909153 0.262631
O O6 0.745665 0.753072 0.915541
O O7 0.442278 0.967625 0.233714
O O8 0.177182 0.372292 0.486247
O O9 0.655222 0.388760 0.510453
O O10 0.982800 0.430884 0.264385
O O11 0.132110 0.168257 0.616342
O O12 0.551293 0.346885 0.860371
O O13 0.074457 0.335315 0.845485
O O14 0.000000 0.500000 0.000000
O O15 0.690781 0.313836 0.115236
#
# Coordination Sequence:
#
# PCOD9025935 Si02
#       7
#     2   2   2   2   2   2   2
#     4   9  17  30  51  78 110 152 192 221 270 325
#     4   9  17  33  51  79 116 151 189 223 272 331
#     4   9  17  33  55  73 107 144 181 222 271 330
#     4  10  17  31  55  80 115 151 183 235 268 321
#     4  10  19  33  56  84 109 138 184 236 281 339
#     4  10  19  35  53  81 112 142 186 225 282 334
#     4   9  17  33  51  71 105 141 182 221 263 326
#
# _framework density 28.899767000000001
#
# number of rings (size 3 to 8) (size 9 to 14) (size 15 to 20)
#    0.000    2.571    4.286    0.429    0.000    0.000 
#    0.000   16.429    0.000    0.000    0.000   38.000 
#    0.000    0.000    0.000    0.000    0.000    0.000 
#
# Total GULP energy -78290.052680 kJ/mol
# GULP energy per Si atom -5592.146620 kJ/mol
# Density = 2.883399 g / cm^3
# Si number density = 28.899767 Si / 1000 Ang^3
#
#
#
# Elastic Constant Matrix: (Units=GPa)
#
#
# Indices 1 2 3 4 5 6 
#
# 1 192.0110 69.3480 26.6106 14.4727 24.4986 -11.0573
# 2 69.3480 225.5741 45.4723 0.9896 4.9960 -0.0802
# 3 26.6106 45.4723 93.5800 -23.3464 12.5766 7.8285
# 4 14.4727 0.9896 -23.3464 70.3487 4.0008 0.3163
# 5 24.4986 4.9960 12.5766 4.0008 31.5811 11.6340
# 6 -11.0573 -0.0802 7.8285 0.3163 11.6340 38.9622
#
#
#
# Elastic Compliance Matrix: (Units=1/GPa)
#
#
# Indices 1 2 3 4 5 6 
#
# 1 0.007147 -0.001850 -0.001006 -0.001446 -0.006171 0.004081
# 2 -0.001850 0.005465 -0.002486 -0.000624 0.001846 -0.000560
# 3 -0.001006 -0.002486 0.014242 0.005231 -0.004476 -0.001858
# 4 -0.001446 -0.000624 0.005231 0.016411 -0.002645 -0.000806
# 5 -0.006171 0.001846 -0.004476 -0.002645 0.043350 -0.013771
# 6 0.004081 -0.000560 -0.001858 -0.000806 -0.013771 0.031315
#
#
# Mechanical properties :
#
#
# Convention : Reuss Voigt Hill
#
# Bulk Modulus (GPa) = 61.84451 88.22520 75.03486
# Shear Modulus (GPa) = 37.31214 52.82737 45.06975
#
# Velocity S-wave (km/s) = 3.59707 4.28009 3.95336
# Velocity P-wave (km/s) = 6.22077 7.41754 6.84536
#
# Compressibility (1/GPa) = 0.01616958
#
# Stress axis : x y z
#
# Youngs Moduli (GPa) = 139.92032 182.99351 70.21277
#
# Poissons Ratio (x) = 0.33852 0.07064
# Poissons Ratio (y) = 0.25884 0.17456
# Poissons Ratio (z) = 0.14078 0.45496
#
# Static dielectric constant tensor:
#      x y z
#    x 2.442990 0.097440 -0.099710 
#    y 0.097440 2.251250 -0.022770 
#    z -0.099710 -0.022770 2.302720 
# 
# From -- ./inp_files/137924.got.cif
#   From: 2010.05.17/outbox.cif.g08.bks.cpg/sg2_69_cif.got.tgz:137924.got - 2010.06.03 11:33:40.
