data_PCOD9025579
_publ_section_title
;
Structure prediction by ZEFSAII (Michael W. Deem and Ramdas Pophale) SiO2 
 PCOD9025579
Probable space group: P -1
;
_chemical_formula_sum "Si O2"
_cell_formula_units_Z 14
_cell_length_a 10.423844
_cell_length_b 10.335705
_cell_length_c 8.669257
_cell_angle_alpha 74.541024
_cell_angle_beta 82.199321
_cell_angle_gamma 46.386640
_cell_volume 650.213582
_symmetry_space_group_name_H-M "P -1"
_symmetry_group_IT_number 2
_symmetry_cell_setting 'triclinic'
loop_
_space_group_symop_operation_xyz
x,y,z
-x,-y,-z
loop_
_atom_site_type_symbol
_atom_site_label
_atom_site_fract_x
_atom_site_fract_y
_atom_site_fract_z
Si Si1 0.415429 0.427200 0.615567
Si Si2 0.864202 0.491217 0.951534
Si Si3 0.013669 0.063525 0.640422
Si Si4 0.249587 0.681014 0.858951
Si Si5 0.091570 0.570834 0.404772
Si Si6 0.501338 0.158595 0.937840
Si Si7 0.799137 0.138172 0.924554
O O1 0.500000 0.500000 0.500000
O O2 0.349791 0.543316 0.747428
O O3 0.269636 0.476060 0.502951
O O4 0.490210 0.236046 0.744165
O O5 0.879159 0.464542 0.773167
O O6 0.903805 0.319194 0.079152
O O7 0.664740 0.671972 0.983734
O O8 0.000000 0.500000 0.000000
O O9 0.025977 0.214293 0.602275
O O10 0.835788 0.151799 0.738186
O O11 0.181594 0.871611 0.749435
O O12 0.000000 0.000000 0.500000
O O13 0.313371 0.669632 0.025135
O O14 0.000000 0.500000 0.500000
O O15 0.691573 0.079721 0.986018
O O16 0.500000 0.000000 0.000000
O O17 0.000000 0.000000 0.000000
#
# Coordination Sequence:
#
# PCOD9025579 Si02
#       7
#     2   2   2   2   2   2   2
#     4  11  25  44  68 103 148 184 241 304 370 425
#     4  11  26  45  73 105 148 189 242 301 372 433
#     4  11  22  40  70 104 138 186 244 291 359 431
#     4  10  22  40  69  99 133 189 245 291 351 438
#     4  12  25  44  70 106 147 191 234 304 373 430
#     4  11  27  46  72 102 144 193 245 301 368 440
#     4  10  23  41  70 100 134 182 245 295 346 429
#
# _framework density 21.531388
#
# number of rings (size 3 to 8) (size 9 to 14) (size 15 to 20)
#    0.000    1.143    2.857    2.571    6.000    3.429 
#    0.000    0.714    0.000    0.000    0.000    0.000 
#    0.000    0.000    0.000    0.000    0.000    0.000 
#
# Total GULP energy -77937.027893 kJ/mol
# GULP energy per Si atom -5566.930564 kJ/mol
# Density = 2.148238 g / cm^3
# Si number density = 21.531388 Si / 1000 Ang^3
#
#
#
# Elastic Constant Matrix: (Units=GPa)
#
#
# Indices 1 2 3 4 5 6 
#
# 1 187.5244 56.1412 69.7315 -2.5125 -12.7472 37.4160
# 2 56.1412 114.3862 54.8080 2.6565 -9.2396 33.4134
# 3 69.7315 54.8080 162.9889 23.0754 -6.2056 17.3353
# 4 -2.5125 2.6565 23.0754 56.2011 5.3969 -5.3459
# 5 -12.7472 -9.2396 -6.2056 5.3969 44.1457 -9.2471
# 6 37.4160 33.4134 17.3353 -5.3459 -9.2471 44.4690
#
#
#
# Elastic Compliance Matrix: (Units=1/GPa)
#
#
# Indices 1 2 3 4 5 6 
#
# 1 0.007510 -0.001265 -0.002456 0.000952 0.000567 -0.004179
# 2 -0.001265 0.013026 -0.003000 -0.000191 0.000393 -0.007495
# 3 -0.002456 -0.003000 0.008641 -0.003498 0.000436 0.000623
# 4 0.000952 -0.000191 -0.003498 0.019736 -0.002117 0.002639
# 5 0.000567 0.000393 0.000436 -0.002117 0.024014 0.003797
# 6 -0.004179 -0.007495 0.000623 0.002639 0.003797 0.032499
#
#
# Mechanical properties :
#
#
# Convention : Reuss Voigt Hill
#
# Bulk Modulus (GPa) = 63.55442 91.80680 77.68061
# Shear Modulus (GPa) = 40.28626 47.91108 44.09867
#
# Velocity S-wave (km/s) = 4.33025 4.72229 4.53052
# Velocity P-wave (km/s) = 7.38801 8.51261 7.97017
#
# Compressibility (1/GPa) = 0.01573455
#
# Stress axis : x y z
#
# Youngs Moduli (GPa) = 133.16189 76.76917 115.73007
#
# Poissons Ratio (x) = 0.09708 0.28428
# Poissons Ratio (y) = 0.16838 0.34719
# Poissons Ratio (z) = 0.32710 0.23031
#
# Static dielectric constant tensor:
#      x y z
#    x 1.811110 -0.028200 0.046590 
#    y -0.028200 1.915880 0.013360 
#    z 0.046590 0.013360 1.983980 
# 
# From -- ./inp_files/158082.got.cif
#   From: 2010.05.17/outbox.cif.g08.bks.cpg/sg2_80_cif.got.tgz:158082.got - 2010.06.03 11:33:40.
