data_PCOD9026357
_publ_section_title
;
Structure prediction by ZEFSAII (Michael W. Deem and Ramdas Pophale) SiO2 
 PCOD9026357
Probable space group: P -1
;
_chemical_formula_sum "Si O2"
_cell_formula_units_Z 16
_cell_length_a 26.811238
_cell_length_b 12.924925
_cell_length_c 7.902180
_cell_angle_alpha 110.644575
_cell_angle_beta 56.898420
_cell_angle_gamma 157.643991
_cell_volume 766.087815
_symmetry_space_group_name_H-M "P -1"
_symmetry_group_IT_number 2
_symmetry_cell_setting 'triclinic'
loop_
_space_group_symop_operation_xyz
x,y,z
-x,-y,-z
loop_
_atom_site_type_symbol
_atom_site_label
_atom_site_fract_x
_atom_site_fract_y
_atom_site_fract_z
Si Si1 0.312141 0.386005 0.150355
Si Si2 0.688338 0.363036 0.737109
Si Si3 0.651166 0.758488 0.236280
Si Si4 0.986217 0.798061 0.629504
Si Si5 0.124531 0.962016 0.784240
Si Si6 0.103767 0.245399 0.770539
Si Si7 0.473144 0.647944 0.367391
Si Si8 0.562765 0.181386 0.332284
O O1 0.316580 0.515683 0.134564
O O2 0.427415 0.591907 0.224233
O O3 0.127649 0.033679 0.358104
O O4 0.365215 0.381178 0.923975
O O5 0.796208 0.555155 0.471985
O O6 0.802586 0.487174 0.716833
O O7 0.513407 0.005351 0.800855
O O8 0.500000 0.500000 0.500000
O O9 0.821365 0.041914 0.192396
O O10 0.617162 0.807106 0.213821
O O11 0.010826 0.751863 0.706686
O O12 0.031313 0.997706 0.735676
O O13 0.299687 0.305243 0.575163
O O14 0.033551 0.900060 0.023795
O O15 0.239815 0.475137 0.802060
O O16 0.510310 0.824091 0.501489
O O17 0.500000 0.000000 0.500000
#
# Coordination Sequence:
#
# PCOD9026357 Si02
#       8
#     2   2   2   2   2   2   2   2
#     4  10  17  33  54  81 107 136 183 225 266 311
#     4  10  19  31  54  84 113 140 173 216 273 326
#     4  10  21  33  53  80 108 140 182 229 265 306
#     4  10  18  29  52  81 109 139 177 224 263 313
#     4  10  19  32  52  78 108 141 179 222 262 309
#     4  10  17  31  56  77 111 141 174 221 273 314
#     4  10  19  34  55  82 107 143 180 221 263 318
#     4  10  18  34  54  81 114 142 172 214 274 326
#
# _framework density 20.885335999999999
#
# number of rings (size 3 to 8) (size 9 to 14) (size 15 to 20)
#    0.000    2.000    5.000    3.750    0.000    0.000 
#    0.000    0.625    0.000    7.500    0.000    0.000 
#    0.000    0.000    0.000    0.000    0.000    0.000 
#
# Total GULP energy -89305.677569 kJ/mol
# GULP energy per Si atom -5581.604848 kJ/mol
# Density = 2.083780 g / cm^3
# Si number density = 20.885336 Si / 1000 Ang^3
#
#
#
# Elastic Constant Matrix: (Units=GPa)
#
#
# Indices 1 2 3 4 5 6 
#
# 1 101.6661 23.8613 18.6669 3.1130 -32.1527 32.8184
# 2 23.8613 78.7976 23.0301 12.6796 -10.1921 30.9430
# 3 18.6669 23.0301 112.0446 10.4542 -23.7493 2.4588
# 4 3.1130 12.6796 10.4542 20.9970 0.5671 -1.7295
# 5 -32.1527 -10.1921 -23.7493 0.5671 33.7189 -8.2525
# 6 32.8184 30.9430 2.4588 -1.7295 -8.2525 31.1706
#
#
#
# Elastic Compliance Matrix: (Units=1/GPa)
#
#
# Indices 1 2 3 4 5 6 
#
# 1 0.022968 0.008298 -0.000150 -0.011153 0.017546 -0.028382
# 2 0.008298 0.030411 -0.003660 -0.021080 0.005495 -0.038351
# 3 -0.000150 -0.003660 0.011651 -0.003390 0.008202 0.004855
# 4 -0.011153 -0.021080 -0.003390 0.066779 -0.012350 0.033372
# 5 0.017546 0.005495 0.008202 -0.012350 0.051166 -0.011714
# 6 -0.028382 -0.038351 0.004855 0.033372 -0.011714 0.098402
#
#
# Mechanical properties :
#
#
# Convention : Reuss Voigt Hill
#
# Bulk Modulus (GPa) = 13.51244 47.06944 30.29094
# Shear Modulus (GPa) = 16.83108 32.30730 24.56919
#
# Velocity S-wave (km/s) = 2.84188 3.93732 3.43357
# Velocity P-wave (km/s) = 4.15358 6.57693 5.50037
#
# Compressibility (1/GPa) = 0.07400590
#
# Stress axis : x y z
#
# Youngs Moduli (GPa) = 43.53840 32.88320 85.83301
#
# Poissons Ratio (x) = -0.27286 0.01284
# Poissons Ratio (y) = -0.36128 0.31415
# Poissons Ratio (z) = 0.00652 0.12035
#
# Static dielectric constant tensor:
#      x y z
#    x 1.816910 0.055870 0.053920 
#    y 0.055870 1.768720 -0.006920 
#    z 0.053920 -0.006920 1.801090 
# 
# From -- ./inp_files/176743.got.cif
#   From: 2010.05.17/outbox.cif.g08.bks.cpg/sg2_89_cif.got.tgz:176743.got - 2010.06.03 11:33:40.
