data_PCOD9026763
_publ_section_title
;
Structure prediction by ZEFSAII (Michael W. Deem and Ramdas Pophale) SiO2 
 PCOD9026763
Probable space group: P -1
;
_chemical_formula_sum "Si O2"
_cell_formula_units_Z 15
_cell_length_a 10.911106
_cell_length_b 9.169006
_cell_length_c 7.915717
_cell_angle_alpha 112.957065
_cell_angle_beta 60.405967
_cell_angle_gamma 77.492148
_cell_volume 545.011787
_symmetry_space_group_name_H-M "P -1"
_symmetry_group_IT_number 2
_symmetry_cell_setting 'triclinic'
loop_
_space_group_symop_operation_xyz
x,y,z
-x,-y,-z
loop_
_atom_site_type_symbol
_atom_site_label
_atom_site_fract_x
_atom_site_fract_y
_atom_site_fract_z
Si Si1 0.446169 0.013382 0.344015
Si Si2 0.676820 0.090564 0.102441
Si Si3 0.066888 0.621001 0.917291
Si Si4 0.195523 0.335519 0.416709
Si Si5 0.646419 0.238454 0.551033
Si Si6 0.000000 0.000000 0.000000
Si Si7 0.124819 0.661509 0.450467
Si Si8 0.667863 0.377554 0.026702
O O1 0.612065 0.948976 0.091847
O O2 0.323329 0.196519 0.403429
O O3 0.500000 0.000000 0.500000
O O4 0.353265 0.902490 0.380176
O O5 0.602374 0.208163 0.378440
O O6 0.619913 0.229396 0.051124
O O7 0.863906 0.024321 0.967134
O O8 0.096953 0.532843 0.671968
O O9 0.964093 0.840742 0.061910
O O10 0.234657 0.581355 0.874324
O O11 0.000000 0.500000 0.000000
O O12 0.231651 0.436244 0.285950
O O13 0.061488 0.281038 0.435480
O O14 0.820121 0.231073 0.403208
O O15 0.502576 0.435215 0.796141
O O16 0.203425 0.696489 0.245932
#
# Coordination Sequence:
#
# PCOD9026763 Si02
#       8
#     2   2   2   2   2   1   2   2
#     4  10  23  40  69  96 129 174 226 279 330 400
#     4  10  22  41  65  95 133 168 223 291 326 393
#     4  11  22  40  69  96 133 174 225 289 331 392
#     4  11  24  45  66  96 134 180 218 274 349 397
#     4  11  23  40  65  95 131 177 221 275 338 400
#     4  10  24  36  64 106 128 162 222 278 344 400
#     4  11  24  42  65  93 136 181 222 269 339 417
#     4  11  22  40  65  96 126 177 227 273 333 404
#
# _framework density 27.522338999999999
#
# number of rings (size 3 to 8) (size 9 to 14) (size 15 to 20)
#    0.000    1.333    1.333    4.800    5.600    0.533 
#    0.000    8.000    0.000    0.000    0.000    0.000 
#    0.000    0.000    0.000    0.000    0.000    0.000 
#
# Total GULP energy -83600.271715 kJ/mol
# GULP energy per Si atom -5573.351448 kJ/mol
# Density = 2.745970 g / cm^3
# Si number density = 27.522339 Si / 1000 Ang^3
#
#
#
# Elastic Constant Matrix: (Units=GPa)
#
#
# Indices 1 2 3 4 5 6 
#
# 1 159.7895 50.6183 8.1023 -0.7335 -6.8981 12.4529
# 2 50.6183 208.5762 19.8111 -19.3133 -21.4508 32.6188
# 3 8.1023 19.8111 2.1147 0.0895 -3.4136 13.7665
# 4 -0.7335 -19.3133 0.0895 36.6679 9.2932 -17.9414
# 5 -6.8981 -21.4508 -3.4136 9.2932 56.7304 -5.9092
# 6 12.4529 32.6188 13.7665 -17.9414 -5.9092 60.5754
#
#
#
# Elastic Compliance Matrix: (Units=1/GPa)
#
#
# Indices 1 2 3 4 5 6 
#
# 1 0.006802 -0.001868 0.003940 -0.001854 0.000475 -0.001791
# 2 -0.001868 0.004121 0.025397 -0.002514 0.002426 -0.008115
# 3 0.003940 0.025397 -0.377645 0.060868 -0.013440 0.088056
# 4 -0.001854 -0.002514 0.060868 0.023672 -0.001941 -0.005276
# 5 0.000475 0.002426 -0.013440 -0.001941 0.018411 0.002872
# 6 -0.001791 -0.008115 0.088056 -0.005276 0.002872 -0.000048
#
#
# Mechanical properties :
#
#
# Convention : Reuss Voigt Hill
#
# Bulk Modulus (GPa) = -3.20735 58.61598 27.70432
# Shear Modulus (GPa) = -10.34010 50.25801 19.95895
#
# Velocity S-wave (km/s) = -1.94040 4.27790 2.69586
# Velocity P-wave (km/s) = 2.48759 6.76346 4.44727
#
# Compressibility (1/GPa) = -0.31178378
#
# Stress axis : x y z
#
# Youngs Moduli (GPa) = 147.02348 242.64756 -2.64799
#
# Poissons Ratio (x) = 0.45319 0.01043
# Poissons Ratio (y) = 0.27459 0.06725
# Poissons Ratio (z) = -0.57934 -6.16241
#
# Static dielectric constant tensor:
#      x y z
#    x 2.271440 -0.134520 0.149020 
#    y -0.134520 2.813700 -0.776040 
#    z 0.149020 -0.776040 2.479090 
# 
# From -- ./inp_files/239514.got.cif
#   From: 2010.05.17/outbox.cif.g08.bks.cpg/sg2_120_cif.got.tgz:239514.got - 2010.06.03 11:33:40.
