data_PCOD9026157
_publ_section_title
;
Structure prediction by ZEFSAII (Michael W. Deem and Ramdas Pophale) SiO2 
 PCOD9026157
Probable space group: P -1
;
_chemical_formula_sum "Si O2"
_cell_formula_units_Z 14
_cell_length_a 24.100018
_cell_length_b 5.331686
_cell_length_c 9.231592
_cell_angle_alpha 137.209339
_cell_angle_beta 141.209715
_cell_angle_gamma 52.539024
_cell_volume 502.985760
_symmetry_space_group_name_H-M "P -1"
_symmetry_group_IT_number 2
_symmetry_cell_setting 'triclinic'
loop_
_space_group_symop_operation_xyz
x,y,z
-x,-y,-z
loop_
_atom_site_type_symbol
_atom_site_label
_atom_site_fract_x
_atom_site_fract_y
_atom_site_fract_z
Si Si1 0.302472 0.589640 0.335833
Si Si2 0.405477 0.609100 0.276184
Si Si3 0.871331 0.467919 0.686940
Si Si4 0.145062 0.359795 0.755832
Si Si5 0.750079 0.709782 0.319045
Si Si6 0.027198 0.398858 0.775986
Si Si7 0.511309 0.434762 0.164508
O O1 0.344204 0.779111 0.356580
O O2 0.391214 0.455622 0.545242
O O3 0.247097 0.865192 0.449309
O O4 0.233622 0.316410 0.018305
O O5 0.500000 0.500000 0.500000
O O6 0.439800 0.700318 0.222858
O O7 0.341577 0.303774 0.958437
O O8 0.773299 0.539885 0.451427
O O9 0.943212 0.603035 0.774252
O O10 0.886529 0.026266 0.526405
O O11 0.896879 0.634944 0.960972
O O12 0.181009 0.512145 0.744182
O O13 0.069899 0.562833 0.788842
O O14 0.000000 0.000000 0.500000
O O15 0.500000 0.500000 0.000000
O O16 0.500000 0.000000 0.000000
#
# Coordination Sequence:
#
# PCOD9026157 Si02
#       7
#     2   2   2   2   2   2   2
#     4  10  22  43  64  98 137 177 230 289 354 426
#     4   9  21  42  63  94 135 177 226 284 351 423
#     4  10  22  41  64  92 131 178 222 291 343 420
#     4  10  22  41  62  95 132 173 226 279 347 419
#     4  11  22  40  66  96 134 169 229 281 345 411
#     4   9  20  41  64  91 132 174 229 279 354 417
#     4  11  23  46  72 101 142 191 239 299 359 426
#
# _framework density 27.833788999999999
#
# number of rings (size 3 to 8) (size 9 to 14) (size 15 to 20)
#    0.000    2.000    1.429    0.857    0.000    7.429 
#    7.714   13.571    0.000    0.000    0.000    0.000 
#    0.000    0.000    0.000    0.000    0.000    0.000 
#
# Total GULP energy -78060.984072 kJ/mol
# GULP energy per Si atom -5575.784577 kJ/mol
# Density = 2.777044 g / cm^3
# Si number density = 27.833789 Si / 1000 Ang^3
#
#
#
# Elastic Constant Matrix: (Units=GPa)
#
#
# Indices 1 2 3 4 5 6 
#
# 1 193.0063 36.1963 44.2472 -0.0012 -36.5150 -3.5638
# 2 36.1963 63.8322 53.9222 4.6883 -10.5715 -2.9483
# 3 44.2472 53.9222 247.7265 -16.0068 -29.3019 9.1737
# 4 -0.0012 4.6883 -16.0068 43.7653 6.6171 -14.1257
# 5 -36.5150 -10.5715 -29.3019 6.6171 49.2986 -0.0928
# 6 -3.5638 -2.9483 9.1737 -14.1257 -0.0928 32.1444
#
#
#
# Elastic Compliance Matrix: (Units=1/GPa)
#
#
# Indices 1 2 3 4 5 6 
#
# 1 0.006550 -0.002929 -0.000062 -0.000220 0.004216 0.000391
# 2 -0.002929 0.021390 -0.004375 -0.003500 0.000290 0.001348
# 3 -0.000062 -0.004375 0.005392 0.001765 0.001981 -0.001166
# 4 -0.000220 -0.003500 0.001765 0.028129 -0.003619 0.011502
# 5 0.004216 0.000290 0.001981 -0.003619 0.025130 -0.001589
# 6 0.000391 0.001348 -0.001166 0.011502 -0.001589 0.036659
#
#
# Mechanical properties :
#
#
# Convention : Reuss Voigt Hill
#
# Bulk Modulus (GPa) = 53.76501 85.92180 69.84340
# Shear Modulus (GPa) = 34.67884 49.72161 42.20023
#
# Velocity S-wave (km/s) = 3.53360 4.23114 3.89800
# Velocity P-wave (km/s) = 6.00057 7.40315 6.73845
#
# Compressibility (1/GPa) = 0.01859946
#
# Stress axis : x y z
#
# Youngs Moduli (GPa) = 152.67944 46.75173 185.47412
#
# Poissons Ratio (x) = 0.13693 0.01155
# Poissons Ratio (y) = 0.44718 0.81136
# Poissons Ratio (z) = 0.00951 0.20452
#
# Static dielectric constant tensor:
#      x y z
#    x 2.272130 0.052110 0.088800 
#    y 0.052110 2.396280 0.023520 
#    z 0.088800 0.023520 2.106290 
# 
# From -- ./inp_files/351126.got.cif
#   From: 2010.05.17/outbox.cif.g08.bks.cpg/sg2_176_cif.got.tgz:351126.got - 2010.06.03 11:33:40.
