data_PCOD9026670
_publ_section_title
;
Structure prediction by ZEFSAII (Michael W. Deem and Ramdas Pophale) SiO2 
 PCOD9026670
Probable space group: P -1
;
_chemical_formula_sum "Si O2"
_cell_formula_units_Z 16
_cell_length_a 10.504867
_cell_length_b 11.198828
_cell_length_c 10.900811
_cell_angle_alpha 109.330649
_cell_angle_beta 58.402619
_cell_angle_gamma 140.374649
_cell_volume 690.379377
_symmetry_space_group_name_H-M "P -1"
_symmetry_group_IT_number 2
_symmetry_cell_setting 'triclinic'
loop_
_space_group_symop_operation_xyz
x,y,z
-x,-y,-z
loop_
_atom_site_type_symbol
_atom_site_label
_atom_site_fract_x
_atom_site_fract_y
_atom_site_fract_z
Si Si1 0.835188 0.616276 0.153542
Si Si2 0.700268 0.494589 0.906358
Si Si3 0.079188 0.588859 0.336722
Si Si4 0.326714 0.902869 0.945503
Si Si5 0.386411 0.720785 0.674237
Si Si6 0.254546 0.117503 0.913176
Si Si7 0.369414 0.263123 0.643352
Si Si8 0.838245 0.592264 0.613732
O O1 0.676541 0.422454 0.240864
O O2 0.812148 0.739661 0.269752
O O3 0.760292 0.581414 0.038535
O O4 0.082844 0.715819 0.058614
O O5 0.768816 0.386045 0.833766
O O6 0.439763 0.329659 0.947864
O O7 0.838439 0.643306 0.771331
O O8 0.178050 0.566272 0.390604
O O9 0.833043 0.405888 0.344271
O O10 0.042030 0.706390 0.452959
O O11 0.412300 0.867235 0.781449
O O12 0.281731 0.009891 0.943212
O O13 0.500000 0.000000 0.000000
O O14 0.587675 0.794275 0.516170
O O15 0.319666 0.146796 0.747515
O O16 0.000000 0.000000 0.000000
O O17 0.608864 0.482882 0.625919
#
# Coordination Sequence:
#
# PCOD9026670 Si02
#       8
#     2   2   2   2   2   2   2   2
#     4  12  23  40  66  98 127 174 224 273 327 383
#     4   9  18  34  62  91 122 161 218 260 314 377
#     4   8  14  30  56  87 114 152 198 268 311 360
#     4  12  26  42  68  99 134 176 215 270 332 396
#     4  11  23  41  65  91 130 169 225 276 319 384
#     4  11  23  43  66  97 139 175 211 268 333 401
#     4  10  22  41  65  91 129 172 219 273 327 387
#     4   7  14  29  53  87 117 146 196 264 317 352
#
# _framework density 23.175664000000001
#
# number of rings (size 3 to 8) (size 9 to 14) (size 15 to 20)
#    0.750    1.250    2.500    1.500    1.750    2.500 
#    2.250    0.625    2.750    0.000    0.000    0.000 
#    0.000    0.000    0.000    0.000    0.000    0.000 
#
# Total GULP energy -89090.290209 kJ/mol
# GULP energy per Si atom -5568.143138 kJ/mol
# Density = 2.312292 g / cm^3
# Si number density = 23.175664 Si / 1000 Ang^3
#
#
#
# Elastic Constant Matrix: (Units=GPa)
#
#
# Indices 1 2 3 4 5 6 
#
# 1 104.5536 31.3874 53.1297 16.1642 -2.7503 8.1956
# 2 31.3874 45.5460 33.3360 4.0845 0.7903 8.1724
# 3 53.1297 33.3360 152.5905 18.5497 -27.6791 22.8761
# 4 16.1642 4.0845 18.5497 24.1297 6.6769 4.1826
# 5 -2.7503 0.7903 -27.6791 6.6769 34.0466 -2.8761
# 6 8.1956 8.1724 22.8761 4.1826 -2.8761 27.3984
#
#
#
# Elastic Compliance Matrix: (Units=1/GPa)
#
#
# Indices 1 2 3 4 5 6 
#
# 1 0.014023 -0.007461 -0.002513 -0.006590 0.000657 0.001204
# 2 -0.007461 0.031763 -0.006055 0.007213 -0.008026 -0.004131
# 3 -0.002513 -0.006055 0.012871 -0.009498 0.011799 -0.005500
# 4 -0.006590 0.007213 -0.009498 0.058051 -0.020078 -0.003220
# 5 0.000657 -0.008026 0.011799 -0.020078 0.043136 -0.000061
# 6 0.001204 -0.004131 -0.005500 -0.003220 -0.000061 0.042448
#
#
# Mechanical properties :
#
#
# Convention : Reuss Voigt Hill
#
# Bulk Modulus (GPa) = 37.59519 59.82181 48.70850
# Shear Modulus (GPa) = 20.55805 29.43741 24.99773
#
# Velocity S-wave (km/s) = 2.98158 3.56783 3.28780
# Velocity P-wave (km/s) = 5.30190 6.54530 5.95613
#
# Compressibility (1/GPa) = 0.02659914
#
# Stress axis : x y z
#
# Youngs Moduli (GPa) = 71.31208 31.48360 77.69671
#
# Poissons Ratio (x) = 0.23490 0.19523
# Poissons Ratio (y) = 0.53206 0.47043
# Poissons Ratio (z) = 0.17919 0.19062
#
# Static dielectric constant tensor:
#      x y z
#    x 1.863450 -0.039880 -0.050690 
#    y -0.039880 1.935740 -0.029230 
#    z -0.050690 -0.029230 2.086880 
# 
# From -- ./inp_files/423908.got.cif
#   From: 2010.05.17/outbox.cif.g08.bks.cpg/sg2_212_cif.got.tgz:423908.got - 2010.06.03 11:33:40.
