data_PCOD9026640
_publ_section_title
;
Structure prediction by ZEFSAII (Michael W. Deem and Ramdas Pophale) SiO2 
 PCOD9026640
Probable space group: P -1
;
_chemical_formula_sum "Si O2"
_cell_formula_units_Z 16
_cell_length_a 7.768084
_cell_length_b 14.621561
_cell_length_c 14.180999
_cell_angle_alpha 40.217269
_cell_angle_beta 92.022969
_cell_angle_gamma 120.575469
_cell_volume 691.553812
_symmetry_space_group_name_H-M "P -1"
_symmetry_group_IT_number 2
_symmetry_cell_setting 'triclinic'
loop_
_space_group_symop_operation_xyz
x,y,z
-x,-y,-z
loop_
_atom_site_type_symbol
_atom_site_label
_atom_site_fract_x
_atom_site_fract_y
_atom_site_fract_z
Si Si1 0.642327 0.498134 0.585520
Si Si2 0.353919 0.695217 0.727631
Si Si3 0.787117 0.770422 0.726263
Si Si4 0.163221 0.710040 0.044781
Si Si5 0.306234 0.046365 0.912969
Si Si6 0.439143 0.590301 0.140428
Si Si7 0.765913 0.127966 0.278109
Si Si8 0.074516 0.957285 0.182749
O O1 0.500000 0.500000 0.500000
O O2 0.514611 0.447391 0.725177
O O3 0.928861 0.738910 0.402176
O O4 0.582613 0.296905 0.720668
O O5 0.538634 0.716000 0.783493
O O6 0.213067 0.727288 0.763189
O O7 0.142738 0.476812 0.837413
O O8 0.544779 0.892219 0.503365
O O9 0.676402 0.592373 0.788533
O O10 0.962289 0.789581 0.786758
O O11 0.000000 0.000000 0.500000
O O12 0.237130 0.592656 0.152398
O O13 0.266706 0.870781 0.003974
O O14 0.297680 0.851926 0.841172
O O15 0.201591 0.981521 0.068665
O O16 0.125157 0.042665 0.852176
O O17 0.700196 0.827049 0.925443
#
# Coordination Sequence:
#
# PCOD9026640 Si02
#       8
#     2   2   2   2   2   2   2   2
#     4   9  20  39  65  86 124 162 204 270 312 373
#     4  10  22  41  65  87 128 174 208 265 313 367
#     4  10  22  42  67  92 127 172 213 263 312 374
#     4  12  24  39  62  92 133 166 209 266 316 379
#     4   9  20  38  61  90 120 160 205 260 315 373
#     4  11  23  39  59  95 125 160 216 264 306 383
#     4  10  23  44  60  93 132 167 213 264 314 372
#     4   9  19  39  62  88 120 156 211 259 310 381
#
# _framework density 23.136303999999999
#
# number of rings (size 3 to 8) (size 9 to 14) (size 15 to 20)
#    0.000    2.000    1.250    1.875    0.000    8.500 
#    2.250    1.250    0.000    0.000    0.000    0.000 
#    0.000    0.000    0.000    0.000    0.000    0.000 
#
# Total GULP energy -89432.441031 kJ/mol
# GULP energy per Si atom -5589.527564 kJ/mol
# Density = 2.308364 g / cm^3
# Si number density = 23.136304 Si / 1000 Ang^3
#
#
#
# Elastic Constant Matrix: (Units=GPa)
#
#
# Indices 1 2 3 4 5 6 
#
# 1 76.5867 0.2659 22.1649 -3.9637 10.0954 10.7853
# 2 0.2659 63.0407 44.3519 -17.7334 12.0906 -4.6335
# 3 22.1649 44.3519 151.5269 -36.1739 -3.6056 -9.9689
# 4 -3.9637 -17.7334 -36.1739 47.7422 5.5324 7.9866
# 5 10.0954 12.0906 -3.6056 5.5324 26.9256 -7.8127
# 6 10.7853 -4.6335 -9.9689 7.9866 -7.8127 26.3186
#
#
#
# Elastic Compliance Matrix: (Units=1/GPa)
#
#
# Indices 1 2 3 4 5 6 
#
# 1 0.018837 0.006659 -0.004950 0.004553 -0.015862 -0.014512
# 2 0.006659 0.026994 -0.007958 0.008491 -0.020204 -0.009565
# 3 -0.004950 -0.007958 0.010964 0.002946 0.008119 0.006296
# 4 0.004553 0.008491 0.002946 0.030661 -0.015220 -0.013077
# 5 -0.015862 -0.020204 0.008119 -0.015220 0.065063 0.029951
# 6 -0.014512 -0.009565 0.006296 -0.013077 0.029951 0.057503
#
#
# Mechanical properties :
#
#
# Convention : Reuss Voigt Hill
#
# Bulk Modulus (GPa) = 22.57521 47.19107 34.88314
# Shear Modulus (GPa) = 21.07171 35.15539 28.11355
#
# Velocity S-wave (km/s) = 3.02116 3.90229 3.48965
# Velocity P-wave (km/s) = 4.68493 6.38319 5.59882
#
# Compressibility (1/GPa) = 0.04429637
#
# Stress axis : x y z
#
# Youngs Moduli (GPa) = 53.08832 37.04526 91.21098
#
# Poissons Ratio (x) = -0.24669 0.45147
# Poissons Ratio (y) = -0.35352 0.72587
# Poissons Ratio (z) = 0.26277 0.29481
#
# Static dielectric constant tensor:
#      x y z
#    x 1.911270 0.029040 0.001080 
#    y 0.029040 1.845540 -0.015210 
#    z 0.001080 -0.015210 1.879360 
# 
# From -- ./inp_files/505286.got.cif
#   From: 2010.05.17/outbox.cif.g08.bks.cpg/sg2_253_cif.got.tgz:505286.got - 2010.06.03 11:33:40.
