data_PCOD9026467
_publ_section_title
;
Structure prediction by ZEFSAII (Michael W. Deem and Ramdas Pophale) SiO2 
 PCOD9026467
Probable space group: P -1
;
_chemical_formula_sum "Si O2"
_cell_formula_units_Z 16
_cell_length_a 13.658412
_cell_length_b 9.360099
_cell_length_c 9.921367
_cell_angle_alpha 114.054117
_cell_angle_beta 128.422346
_cell_angle_gamma 97.192222
_cell_volume 770.024656
_symmetry_space_group_name_H-M "P -1"
_symmetry_group_IT_number 2
_symmetry_cell_setting 'triclinic'
loop_
_space_group_symop_operation_xyz
x,y,z
-x,-y,-z
loop_
_atom_site_type_symbol
_atom_site_label
_atom_site_fract_x
_atom_site_fract_y
_atom_site_fract_z
Si Si1 0.815348 0.588821 0.984278
Si Si2 0.581988 0.801755 0.205747
Si Si3 0.348917 0.608381 0.490406
Si Si4 0.555346 0.991215 0.692986
Si Si5 0.083959 0.910811 0.469166
Si Si6 0.481233 0.463471 0.189684
Si Si7 0.843436 0.365699 0.445564
Si Si8 0.840728 0.328691 0.121751
O O1 0.775998 0.509862 0.770830
O O2 0.683366 0.613450 0.929082
O O3 0.810535 0.439859 0.026186
O O4 0.974008 0.771405 0.208037
O O5 0.508902 0.916332 0.228625
O O6 0.538349 0.648118 0.224102
O O7 0.757417 0.937002 0.393224
O O8 0.525390 0.689251 0.974739
O O9 0.412223 0.502310 0.582339
O O10 0.282455 0.678242 0.573542
O O11 0.481661 0.781414 0.593062
O O12 0.500000 0.000000 0.500000
O O13 0.731631 0.115982 0.908177
O O14 0.107285 0.781397 0.543315
O O15 0.000000 0.000000 0.500000
O O16 0.802064 0.359691 0.252226
O O17 0.983017 0.569477 0.678139
#
# Coordination Sequence:
#
# PCOD9026467 Si02
#       8
#     2   2   2   2   2   2   2   2
#     4  11  23  43  64  93 132 176 208 268 334 376
#     4  11  23  41  64  95 123 174 217 264 322 380
#     4  12  25  40  66  99 132 168 218 272 323 389
#     4  12  23  40  64  96 132 168 216 266 325 385
#     4  11  23  41  67  91 129 169 220 263 318 391
#     4  11  24  41  66  92 134 169 219 265 325 383
#     4  10  24  40  65  99 127 168 222 268 324 380
#     4  10  22  41  64  92 132 168 211 268 323 377
#
# _framework density 20.778558
#
# number of rings (size 3 to 8) (size 9 to 14) (size 15 to 20)
#    0.000    1.000    5.000    1.125    3.500    5.000 
#    0.000    0.625    0.000    0.000    0.000    0.000 
#    0.000    0.000    0.000    0.000    0.000    0.000 
#
# Total GULP energy -89439.993942 kJ/mol
# GULP energy per Si atom -5589.999621 kJ/mol
# Density = 2.073126 g / cm^3
# Si number density = 20.778558 Si / 1000 Ang^3
#
#
#
# Elastic Constant Matrix: (Units=GPa)
#
#
# Indices 1 2 3 4 5 6 
#
# 1 43.7987 15.1974 -3.9316 -0.8382 8.1140 11.2071
# 2 15.1974 36.4905 37.8229 0.4641 -0.5337 11.7527
# 3 -3.9316 37.8229 125.8218 -6.6637 11.3002 21.1155
# 4 -0.8382 0.4641 -6.6637 40.1406 11.5253 1.4382
# 5 8.1140 -0.5337 11.3002 11.5253 33.3873 3.7251
# 6 11.2071 11.7527 21.1155 1.4382 3.7251 28.5237
#
#
#
# Elastic Compliance Matrix: (Units=1/GPa)
#
#
# Indices 1 2 3 4 5 6 
#
# 1 0.039538 -0.026348 0.013173 0.008354 -0.015948 -0.012769
# 2 -0.026348 0.061002 -0.021143 -0.009918 0.018068 -0.000991
# 3 0.013173 -0.021143 0.017448 0.006837 -0.010878 -0.008305
# 4 0.008354 -0.009918 0.006837 0.030686 -0.014661 -0.003889
# 5 -0.015948 0.018068 -0.010878 -0.014661 0.042631 0.002046
# 6 -0.012769 -0.000991 -0.008305 -0.003889 0.002046 0.046560
#
#
# Mechanical properties :
#
#
# Convention : Reuss Voigt Hill
#
# Bulk Modulus (GPa) = 20.26206 33.80982 27.03594
# Shear Modulus (GPa) = 15.48231 30.87848 23.18039
#
# Velocity S-wave (km/s) = 2.73263 3.85915 3.34367
# Velocity P-wave (km/s) = 4.44173 6.01366 5.28645
#
# Compressibility (1/GPa) = 0.04935332
#
# Stress axis : x y z
#
# Youngs Moduli (GPa) = 25.29215 16.39300 57.31395
#
# Poissons Ratio (x) = 0.43192 -0.75502
# Poissons Ratio (y) = 0.66639 1.21176
# Poissons Ratio (z) = -0.33318 0.34659
#
# Static dielectric constant tensor:
#      x y z
#    x 1.741980 -0.005950 0.005080 
#    y -0.005950 1.723170 0.013770 
#    z 0.005080 0.013770 1.746700 
# 
# From -- ./inp_files/205531.got.cif
#   From: 2010.05.17/outbox.cif.g08.bks.cpg/sg2_103_cif.got.tgz:205531.got - 2010.06.03 11:33:40.
