data_PCOD9026642
_publ_section_title
;
Structure prediction by ZEFSAII (Michael W. Deem and Ramdas Pophale) SiO2 
 PCOD9026642
Probable space group: P -1
;
_chemical_formula_sum "Si O2"
_cell_formula_units_Z 16
_cell_length_a 18.619630
_cell_length_b 15.964109
_cell_length_c 13.987050
_cell_angle_alpha 46.061993
_cell_angle_beta 20.833624
_cell_angle_gamma 33.321293
_cell_volume 727.117623
_symmetry_space_group_name_H-M "P -1"
_symmetry_group_IT_number 2
_symmetry_cell_setting 'triclinic'
loop_
_space_group_symop_operation_xyz
x,y,z
-x,-y,-z
loop_
_atom_site_type_symbol
_atom_site_label
_atom_site_fract_x
_atom_site_fract_y
_atom_site_fract_z
Si Si1 0.383662 0.693354 0.416776
Si Si2 0.132771 0.176670 0.909531
Si Si3 0.692441 0.777198 0.524792
Si Si4 0.982761 0.547465 0.091098
Si Si5 0.288027 0.995520 0.217620
Si Si6 0.758483 0.497384 0.583426
Si Si7 0.287306 0.254017 0.260076
Si Si8 0.608124 0.359085 0.763655
O O1 0.338721 0.845970 0.317356
O O2 0.385600 0.616966 0.377038
O O3 0.695793 0.550841 0.193331
O O4 0.134485 0.765804 0.745234
O O5 0.089291 0.251621 0.798977
O O6 0.225957 0.252379 0.793808
O O7 0.384893 0.975020 0.745075
O O8 0.644885 0.662903 0.643951
O O9 0.792463 0.744203 0.535176
O O10 0.886856 0.487149 0.330292
O O11 0.000000 0.500000 0.000000
O O12 0.414481 0.933618 0.001090
O O13 0.944790 0.172447 0.510820
O O14 0.500000 0.000000 0.000000
O O15 0.550793 0.481044 0.818686
O O16 0.024829 0.342505 0.442065
O O17 0.374071 0.353678 0.070632
#
# Coordination Sequence:
#
# PCOD9026642 Si02
#       8
#     2   2   2   2   2   2   2   2
#     4  11  21  39  66  99 127 161 215 267 330 387
#     4  10  22  41  65  88 127 178 211 263 312 380
#     4  10  23  41  63  86 130 178 220 253 317 377
#     4  11  22  40  67  97 132 164 211 271 330 382
#     4  11  20  36  64 100 133 160 201 269 343 381
#     4  11  22  41  63  96 128 168 217 265 320 388
#     4  11  21  40  65  94 127 168 213 266 329 383
#     4  11  21  37  66  99 129 160 205 274 335 380
#
# _framework density 22.004693
#
# number of rings (size 3 to 8) (size 9 to 14) (size 15 to 20)
#    0.000    1.250    3.750    4.500    0.000    1.500 
#    0.000    0.000    5.500    3.750    0.000    0.000 
#    0.000    0.000    0.000    0.000    0.000    0.000 
#
# Total GULP energy -89445.404699 kJ/mol
# GULP energy per Si atom -5590.337794 kJ/mol
# Density = 2.195461 g / cm^3
# Si number density = 22.004693 Si / 1000 Ang^3
#
#
#
# Elastic Constant Matrix: (Units=GPa)
#
#
# Indices 1 2 3 4 5 6 
#
# 1 154.0723 42.7066 25.8160 -11.6506 10.5367 3.4632
# 2 42.7066 68.4454 13.3019 9.3021 11.4189 5.7399
# 3 25.8160 13.3019 57.7458 -7.4559 4.4451 -7.1869
# 4 -11.6506 9.3021 -7.4559 34.3325 0.8580 3.2811
# 5 10.5367 11.4189 4.4451 0.8580 37.5355 -6.9306
# 6 3.4632 5.7399 -7.1869 3.2811 -6.9306 24.2907
#
#
#
# Elastic Compliance Matrix: (Units=1/GPa)
#
#
# Indices 1 2 3 4 5 6 
#
# 1 0.008742 -0.005282 -0.002279 0.004069 -0.000946 -0.001492
# 2 -0.005282 0.021069 -0.003791 -0.007630 -0.005384 -0.005853
# 3 -0.002279 -0.003791 0.020550 0.004043 0.000543 0.006910
# 4 0.004069 -0.007630 0.004043 0.033682 -0.000489 -0.002270
# 5 -0.000946 -0.005384 0.000543 -0.000489 0.030395 0.010306
# 6 -0.001492 -0.005853 0.006910 -0.002270 0.010306 0.048055
#
#
# Mechanical properties :
#
#
# Convention : Reuss Voigt Hill
#
# Bulk Modulus (GPa) = 36.15810 49.32361 42.74085
# Shear Modulus (GPa) = 25.71813 32.46102 29.08957
#
# Velocity S-wave (km/s) = 3.42242 3.84498 3.63984
# Velocity P-wave (km/s) = 5.66435 6.49427 6.09346
#
# Compressibility (1/GPa) = 0.02765632
#
# Stress axis : x y z
#
# Youngs Moduli (GPa) = 114.38579 47.46399 48.66275
#
# Poissons Ratio (x) = 0.25070 0.11091
# Poissons Ratio (y) = 0.60418 0.18448
# Poissons Ratio (z) = 0.26071 0.17994
#
# Static dielectric constant tensor:
#      x y z
#    x 1.803590 0.013360 0.028950 
#    y 0.013360 1.872230 -0.017450 
#    z 0.028950 -0.017450 1.820010 
# 
# From -- ./inp_files/455596.got.cif
#   From: 2010.05.17/outbox.cif.g08.bks.cpg/sg2_228_cif.got.tgz:455596.got - 2010.06.03 11:33:40.
