data_PCOD9026301
_publ_section_title
;
Structure prediction by ZEFSAII (Michael W. Deem and Ramdas Pophale) SiO2 
 PCOD9026301
Probable space group: P -1
;
_chemical_formula_sum "Si O2"
_cell_formula_units_Z 16
_cell_length_a 27.605741
_cell_length_b 15.277170
_cell_length_c 19.133137
_cell_angle_alpha 19.348559
_cell_angle_beta 18.595697
_cell_angle_gamma 20.684275
_cell_volume 784.760090
_symmetry_space_group_name_H-M "P -1"
_symmetry_group_IT_number 2
_symmetry_cell_setting 'triclinic'
loop_
_space_group_symop_operation_xyz
x,y,z
-x,-y,-z
loop_
_atom_site_type_symbol
_atom_site_label
_atom_site_fract_x
_atom_site_fract_y
_atom_site_fract_z
Si Si1 0.044525 0.804682 0.924494
Si Si2 0.458412 0.438755 0.403960
Si Si3 0.617376 0.874330 0.868353
Si Si4 0.853869 0.119321 0.419215
Si Si5 0.330129 0.952292 0.475763
Si Si6 0.132624 0.598204 0.475019
Si Si7 0.447555 0.332744 0.339529
Si Si8 0.221990 0.567084 0.213706
O O1 0.095717 0.737069 0.824017
O O2 0.911348 0.133020 0.858423
O O3 0.964034 0.598851 0.220830
O O4 0.206177 0.792660 0.753995
O O5 0.296259 0.658605 0.499151
O O6 0.414985 0.367330 0.440746
O O7 0.548049 0.171576 0.533214
O O8 0.591127 0.587488 0.102354
O O9 0.571638 0.070361 0.713911
O O10 0.789966 0.886013 0.646941
O O11 0.500000 0.000000 0.000000
O O12 0.009068 0.931572 0.394806
O O13 0.224527 0.288222 0.379936
O O14 0.289225 0.518855 0.370690
O O15 0.187913 0.540249 0.362347
O O16 0.500000 0.000000 0.500000
O O17 0.599440 0.421222 0.047893
#
# Coordination Sequence:
#
# PCOD9026301 Si02
#       8
#     2   2   2   2   2   2   2   2
#     4  10  22  41  63  94 131 161 205 259 315 380
#     4  11  23  40  63  96 128 165 213 257 307 376
#     4   9  19  38  62  92 128 163 204 256 307 372
#     4   9  22  40  63  94 126 163 210 256 314 375
#     4  11  22  37  65  98 128 165 202 259 322 372
#     4  11  23  41  66  87 125 176 204 261 315 358
#     4  12  24  44  67  88 126 167 217 263 307 370
#     4  11  23  42  64  95 123 163 218 259 316 371
#
# _framework density 20.388397000000001
#
# number of rings (size 3 to 8) (size 9 to 14) (size 15 to 20)
#    0.000    1.500    2.500    2.250    0.000    7.500 
#    0.000    0.625    0.000    0.000    0.000    0.000 
#    0.000    0.000    0.000    0.000    0.000    0.000 
#
# Total GULP energy -89397.354958 kJ/mol
# GULP energy per Si atom -5587.334685 kJ/mol
# Density = 2.034199 g / cm^3
# Si number density = 20.388397 Si / 1000 Ang^3
#
#
#
# Elastic Constant Matrix: (Units=GPa)
#
#
# Indices 1 2 3 4 5 6 
#
# 1 91.5002 37.6143 23.8858 2.1317 20.4218 -3.8206
# 2 37.6143 77.4274 16.9630 7.6810 15.6420 -0.9906
# 3 23.8858 16.9630 87.7264 15.8538 19.5799 5.8099
# 4 2.1317 7.6810 15.8538 21.2857 3.8259 -1.1670
# 5 20.4218 15.6420 19.5799 3.8259 27.1224 -3.9627
# 6 -3.8206 -0.9906 5.8099 -1.1670 -3.9627 32.9780
#
#
#
# Elastic Compliance Matrix: (Units=1/GPa)
#
#
# Indices 1 2 3 4 5 6 
#
# 1 0.015485 -0.005974 -0.002258 0.003599 -0.006900 0.001311
# 2 -0.005974 0.017265 0.000440 -0.005080 -0.005214 -0.001057
# 3 -0.002258 0.000440 0.016266 -0.010598 -0.009477 -0.004628
# 4 0.003599 -0.005080 -0.010598 0.056483 0.000516 0.004192
# 5 -0.006900 -0.005214 -0.009477 0.000516 0.052877 0.007086
# 6 0.001311 -0.001057 -0.004628 0.004192 0.007086 0.032258
#
#
# Mechanical properties :
#
#
# Convention : Reuss Voigt Hill
#
# Bulk Modulus (GPa) = 29.91194 45.95336 37.93265
# Shear Modulus (GPa) = 23.00299 28.15661 25.57980
#
# Velocity S-wave (km/s) = 3.36257 3.72023 3.54591
# Velocity P-wave (km/s) = 5.45699 6.40635 5.95064
#
# Compressibility (1/GPa) = 0.03343147
#
# Stress axis : x y z
#
# Youngs Moduli (GPa) = 64.57736 57.92031 61.47881
#
# Poissons Ratio (x) = 0.34604 0.13883
# Poissons Ratio (y) = 0.38581 -0.02706
# Poissons Ratio (z) = 0.14583 -0.02550
#
# Static dielectric constant tensor:
#      x y z
#    x 1.722030 0.000410 0.003530 
#    y 0.000410 1.724930 -0.001780 
#    z 0.003530 -0.001780 1.724950 
# 
# From -- ./inp_files/77611.got.cif
#   From: 2010.05.17/outbox.cif.g08.bks.cpg/sg2_39_cif.got.tgz:77611.got - 2010.06.03 11:33:40.
