data_PCOD9026843
_publ_section_title
;
Structure prediction by ZEFSAII (Michael W. Deem and Ramdas Pophale) SiO2 
 PCOD9026843
Probable space group: P -1
;
_chemical_formula_sum "Si O2"
_cell_formula_units_Z 14
_cell_length_a 8.898879
_cell_length_b 15.349705
_cell_length_c 12.169811
_cell_angle_alpha 46.775841
_cell_angle_beta 146.559596
_cell_angle_gamma 119.117604
_cell_volume 652.433886
_symmetry_space_group_name_H-M "P -1"
_symmetry_group_IT_number 2
_symmetry_cell_setting 'triclinic'
loop_
_space_group_symop_operation_xyz
x,y,z
-x,-y,-z
loop_
_atom_site_type_symbol
_atom_site_label
_atom_site_fract_x
_atom_site_fract_y
_atom_site_fract_z
Si Si1 0.228861 0.967767 0.067018
Si Si2 0.253275 0.930589 0.442269
Si Si3 0.133785 0.452851 0.966556
Si Si4 0.656904 0.254286 0.539433
Si Si5 0.278424 0.895778 0.740955
Si Si6 0.293397 0.633459 0.076098
Si Si7 0.901865 0.462902 0.588587
O O1 0.412544 0.839823 0.331452
O O2 0.439382 0.056800 0.103083
O O3 0.000000 0.000000 0.000000
O O4 0.037420 0.972473 0.839003
O O5 0.243373 0.822553 0.443024
O O6 0.289847 0.877673 0.631680
O O7 0.500000 0.000000 0.500000
O O8 0.873802 0.395140 0.894598
O O9 0.111781 0.471534 0.807479
O O10 0.400833 0.356643 0.254741
O O11 0.146354 0.574806 0.936411
O O12 0.866706 0.324258 0.667998
O O13 0.278415 0.773391 0.914987
O O14 0.000000 0.000000 0.500000
O O15 0.606769 0.555391 0.349504
O O16 0.000000 0.500000 0.500000
#
# Coordination Sequence:
#
# PCOD9026843 Si02
#       7
#     2   2   2   2   2   2   2
#     4  10  22  41  65  99 132 176 226 270 342 408
#     4  11  24  41  69  96 138 185 223 284 347 405
#     4  10  23  47  67  94 137 183 219 279 347 403
#     4  10  23  39  68  98 127 176 225 272 345 407
#     4  12  26  43  68 105 138 178 230 284 344 408
#     4  10  25  43  68  97 137 178 228 274 338 409
#     4  11  26  39  69 102 131 172 229 280 336 402
#
# _framework density 21.458112
#
# number of rings (size 3 to 8) (size 9 to 14) (size 15 to 20)
#    0.000    1.429    2.857    1.286   10.000    1.714 
#    0.000    0.000    0.000    0.000    0.000    0.000 
#    0.000    0.000    0.000    0.000    0.000    0.000 
#
# Total GULP energy -78187.266783 kJ/mol
# GULP energy per Si atom -5584.804770 kJ/mol
# Density = 2.140927 g / cm^3
# Si number density = 21.458112 Si / 1000 Ang^3
#
#
#
# Elastic Constant Matrix: (Units=GPa)
#
#
# Indices 1 2 3 4 5 6 
#
# 1 31.4486 11.9431 5.8181 -3.3026 -1.9206 10.6427
# 2 11.9431 97.1191 24.1493 -12.8674 -3.6668 18.1395
# 3 5.8181 24.1493 80.8869 11.7704 -12.9869 6.0829
# 4 -3.3026 -12.8674 11.7704 32.5286 2.0819 -3.8348
# 5 -1.9206 -3.6668 -12.9869 2.0819 32.4479 0.5798
# 6 10.6427 18.1395 6.0829 -3.8348 0.5798 32.3826
#
#
#
# Elastic Compliance Matrix: (Units=1/GPa)
#
#
# Indices 1 2 3 4 5 6 
#
# 1 0.036629 -0.001863 -0.001365 0.002144 0.001461 -0.010511
# 2 -0.001863 0.013424 -0.004480 0.006158 -0.000686 -0.005324
# 3 -0.001365 -0.004480 0.016124 -0.008294 0.006419 -0.001168
# 4 0.002144 0.006158 -0.008294 0.036930 -0.004900 0.001865
# 5 0.001461 -0.000686 0.006419 -0.004900 0.033756 -0.002486
# 6 -0.010511 -0.005324 -0.001168 0.001865 -0.002486 0.037803
#
#
# Mechanical properties :
#
#
# Convention : Reuss Voigt Hill
#
# Bulk Modulus (GPa) = 19.69984 32.58616 26.14300
# Shear Modulus (GPa) = 24.15434 30.64142 27.39788
#
# Velocity S-wave (km/s) = 3.35871 3.78294 3.57712
# Velocity P-wave (km/s) = 4.92360 5.85660 5.41025
#
# Compressibility (1/GPa) = 0.05076183
#
# Stress axis : x y z
#
# Youngs Moduli (GPa) = 27.30055 74.49283 62.01946
#
# Poissons Ratio (x) = 0.13875 0.08469
# Poissons Ratio (y) = 0.05085 0.27783
# Poissons Ratio (z) = 0.03728 0.33371
#
# Static dielectric constant tensor:
#      x y z
#    x 1.796100 -0.001320 0.032180 
#    y -0.001320 1.892320 -0.033990 
#    z 0.032180 -0.033990 1.856840 
# 
# From -- ./inp_files/398719.got.cif
#   From: 2010.05.17/outbox.cif.g08.bks.cpg/sg2_200_cif.got.tgz:398719.got - 2010.06.03 11:33:40.
