data_PCOD9026681
_publ_section_title
;
Structure prediction by ZEFSAII (Michael W. Deem and Ramdas Pophale) SiO2 
 PCOD9026681
Probable space group: P -1
;
_chemical_formula_sum "Si O2"
_cell_formula_units_Z 14
_cell_length_a 12.595762
_cell_length_b 11.005600
_cell_length_c 11.569593
_cell_angle_alpha 38.352003
_cell_angle_beta 50.395169
_cell_angle_gamma 33.537439
_cell_volume 549.194137
_symmetry_space_group_name_H-M "P -1"
_symmetry_group_IT_number 2
_symmetry_cell_setting 'triclinic'
loop_
_space_group_symop_operation_xyz
x,y,z
-x,-y,-z
loop_
_atom_site_type_symbol
_atom_site_label
_atom_site_fract_x
_atom_site_fract_y
_atom_site_fract_z
Si Si1 0.829970 0.144256 0.672987
Si Si2 0.498630 0.127570 0.177812
Si Si3 0.237391 0.082389 0.662916
Si Si4 0.768747 0.760841 0.078812
Si Si5 0.459225 0.507878 0.220569
Si Si6 0.757462 0.353086 0.310835
Si Si7 0.069381 0.515504 0.257174
O O1 0.742203 0.351459 0.686782
O O2 0.754620 0.292487 0.491374
O O3 0.059343 0.928607 0.665969
O O4 0.785316 0.957164 0.862898
O O5 0.273845 0.379173 0.166120
O O6 0.618037 0.924656 0.354480
O O7 0.567422 0.946174 0.151315
O O8 0.580044 0.265327 0.000217
O O9 0.137469 0.283204 0.473496
O O10 0.062679 0.209541 0.778341
O O11 0.391074 0.776442 0.735929
O O12 0.784486 0.560005 0.135392
O O13 0.935137 0.582958 0.193913
O O14 0.572253 0.472146 0.281746
#
# Coordination Sequence:
#
# PCOD9026681 Si02
#       7
#     2   2   2   2   2   2   2
#     4  10  24  41  61  94 129 165 215 253 309 375
#     4  10  22  41  65  93 121 169 207 255 324 365
#     4  10  23  40  63  92 127 159 213 261 306 383
#     4  10  23  42  65  95 130 162 212 261 305 384
#     4  11  24  41  62  94 128 162 209 262 311 373
#     4  11  24  41  64  96 127 172 206 254 324 367
#     4  10  22  41  65  92 124 165 207 257 320 371
#
# _framework density 25.491897999999999
#
# number of rings (size 3 to 8) (size 9 to 14) (size 15 to 20)
#    0.000    1.714    0.000    2.571    6.000    5.143 
#    0.000    0.000    0.000    0.000    0.000    0.000 
#    0.000    0.000    0.000    0.000    0.000    0.000 
#
# Total GULP energy -78332.663140 kJ/mol
# GULP energy per Si atom -5595.190224 kJ/mol
# Density = 2.543388 g / cm^3
# Si number density = 25.491898 Si / 1000 Ang^3
#
#
#
# Elastic Constant Matrix: (Units=GPa)
#
#
# Indices 1 2 3 4 5 6 
#
# 1 44.3171 28.3177 15.5792 -1.6772 16.0071 -9.2018
# 2 28.3177 218.6198 43.7054 8.3137 -0.9852 -3.5720
# 3 15.5792 43.7054 73.0168 -4.4522 15.8956 -6.7334
# 4 -1.6772 8.3137 -4.4522 42.3250 -4.8873 -5.3626
# 5 16.0071 -0.9852 15.8956 -4.8873 23.4258 -11.8840
# 6 -9.2018 -3.5720 -6.7334 -5.3626 -11.8840 32.4447
#
#
#
# Elastic Compliance Matrix: (Units=1/GPa)
#
#
# Indices 1 2 3 4 5 6 
#
# 1 0.033904 -0.004617 0.000704 -0.000336 -0.023635 0.000541
# 2 -0.004617 0.006047 -0.003994 -0.000987 0.006244 0.000651
# 3 0.000704 -0.003994 0.018909 0.001042 -0.013886 -0.001230
# 4 -0.000336 -0.000987 0.001042 0.025862 0.008660 0.007459
# 5 -0.023635 0.006244 -0.013886 0.008660 0.081728 0.022470
# 6 0.000541 0.000651 -0.001230 0.007459 0.022470 0.040255
#
#
# Mechanical properties :
#
#
# Convention : Reuss Voigt Hill
#
# Bulk Modulus (GPa) = 23.23073 56.79537 40.01305
# Shear Modulus (GPa) = 21.10895 36.19587 28.65241
#
# Velocity S-wave (km/s) = 2.88073 3.77224 3.35622
# Velocity P-wave (km/s) = 4.49417 6.42660 5.54521
#
# Compressibility (1/GPa) = 0.04304643
#
# Stress axis : x y z
#
# Youngs Moduli (GPa) = 29.49535 165.37269 52.88536
#
# Poissons Ratio (x) = 0.76357 -0.03726
# Poissons Ratio (y) = 0.13619 0.21121
# Poissons Ratio (z) = -0.02078 0.66045
#
# Static dielectric constant tensor:
#      x y z
#    x 1.979580 0.006190 -0.008670 
#    y 0.006190 2.035070 0.034820 
#    z -0.008670 0.034820 2.022410 
# 
# From -- ./inp_files/450968.got.cif
#   From: 2010.05.17/outbox.cif.g08.bks.cpg/sg2_226_cif.got.tgz:450968.got - 2010.06.03 11:33:40.
