data_PCOD9026916
_publ_section_title
;
Structure prediction by ZEFSAII (Michael W. Deem and Ramdas Pophale) SiO2 
 PCOD9026916
Probable space group: P -1
;
_chemical_formula_sum "Si O2"
_cell_formula_units_Z 16
_cell_length_a 16.158094
_cell_length_b 11.178036
_cell_length_c 9.337833
_cell_angle_alpha 55.555762
_cell_angle_beta 80.434209
_cell_angle_gamma 125.684260
_cell_volume 759.067837
_symmetry_space_group_name_H-M "P -1"
_symmetry_group_IT_number 2
_symmetry_cell_setting 'triclinic'
loop_
_space_group_symop_operation_xyz
x,y,z
-x,-y,-z
loop_
_atom_site_type_symbol
_atom_site_label
_atom_site_fract_x
_atom_site_fract_y
_atom_site_fract_z
Si Si1 0.824708 0.132895 0.254639
Si Si2 0.144102 0.568237 0.754359
Si Si3 0.322681 0.881318 0.933204
Si Si4 0.916675 0.539883 0.492479
Si Si5 0.380162 0.677584 0.634430
Si Si6 0.495405 0.419150 0.206703
Si Si7 0.635031 0.760760 0.196448
Si Si8 0.121176 0.083596 0.994998
O O1 0.841273 0.244558 0.324155
O O2 0.783386 0.195213 0.104588
O O3 0.675642 0.820924 0.521831
O O4 0.983548 0.290456 0.058552
O O5 0.139825 0.536847 0.605511
O O6 0.283906 0.678554 0.704282
O O7 0.482145 0.075722 0.677499
O O8 0.366140 0.072007 0.900878
O O9 0.216577 0.633722 0.233991
O O10 0.000000 0.500000 0.500000
O O11 0.027990 0.837136 0.288564
O O12 0.456034 0.680268 0.728122
O O13 0.249934 0.383490 0.804338
O O14 0.609983 0.672069 0.103632
O O15 0.500000 0.500000 0.000000
O O16 0.500000 0.500000 0.500000
O O17 0.783661 0.902292 0.124899
O O18 0.000000 0.000000 0.000000
#
# Coordination Sequence:
#
# PCOD9026916 Si02
#       8
#     2   2   2   2   2   2   2   2
#     4  10  22  41  66  86 129 171 217 255 336 386
#     4  11  23  40  65  92 122 173 214 264 327 386
#     4  11  22  40  63  98 125 170 213 271 314 387
#     4  12  23  36  68  99 129 163 218 267 315 382
#     4  10  23  42  67  90 132 170 216 265 328 384
#     4  10  23  39  63  93 126 171 213 263 314 392
#     4  11  19  37  66  90 122 166 216 249 317 389
#     4  11  21  37  62  93 129 165 203 266 320 371
#
# _framework density 21.078485000000001
#
# number of rings (size 3 to 8) (size 9 to 14) (size 15 to 20)
#    0.000    1.250    7.500    0.000    1.750    2.500 
#    0.000    0.625    8.250    0.000    0.000    0.000 
#    0.000    0.000    0.000    0.000    0.000    0.000 
#
# Total GULP energy -89130.586994 kJ/mol
# GULP energy per Si atom -5570.661687 kJ/mol
# Density = 2.103051 g / cm^3
# Si number density = 21.078485 Si / 1000 Ang^3
#
#
#
# Elastic Constant Matrix: (Units=GPa)
#
#
# Indices 1 2 3 4 5 6 
#
# 1 103.6848 6.9720 61.0083 7.1894 -26.4823 11.4347
# 2 6.9720 63.7506 23.4178 5.5623 -2.6860 6.3428
# 3 61.0083 23.4178 168.2471 -9.5842 -18.5070 10.0304
# 4 7.1894 5.5623 -9.5842 37.9989 3.8929 2.6938
# 5 -26.4823 -2.6860 -18.5070 3.8929 32.8148 -5.0855
# 6 11.4347 6.3428 10.0304 2.6938 -5.0855 23.8356
#
#
#
# Elastic Compliance Matrix: (Units=1/GPa)
#
#
# Indices 1 2 3 4 5 6 
#
# 1 0.015730 0.001259 -0.004872 -0.005216 0.010193 -0.003067
# 2 0.001259 0.017225 -0.002753 -0.003279 0.000719 -0.003505
# 3 -0.004872 -0.002753 0.008342 0.003488 0.000005 -0.000834
# 4 -0.005216 -0.003279 0.003488 0.029522 -0.006448 -0.002805
# 5 0.010193 0.000719 0.000005 -0.006448 0.040181 0.004218
# 6 -0.003067 -0.003505 -0.000834 -0.002805 0.004218 0.045926
#
#
# Mechanical properties :
#
#
# Convention : Reuss Voigt Hill
#
# Bulk Modulus (GPa) = 35.00707 57.60876 46.30792
# Shear Modulus (GPa) = 27.90492 35.21549 31.56020
#
# Velocity S-wave (km/s) = 3.64243 4.09183 3.87366
# Velocity P-wave (km/s) = 5.85950 7.05082 6.48259
#
# Compressibility (1/GPa) = 0.02856566
#
# Stress axis : x y z
#
# Youngs Moduli (GPa) = 63.57202 58.05596 119.86939
#
# Poissons Ratio (x) = -0.07310 0.58404
# Poissons Ratio (y) = -0.08005 0.32997
# Poissons Ratio (z) = 0.30974 0.15981
#
# Static dielectric constant tensor:
#      x y z
#    x 1.794980 -0.005590 -0.007560 
#    y -0.005590 1.832990 -0.011370 
#    z -0.007560 -0.011370 1.832090 
# 
# From -- ./inp_files/333037.got.cif
#   From: 2010.05.17/outbox.cif.g08.bks.cpg/sg2_167_cif.got.tgz:333037.got - 2010.06.03 11:33:40.
