data_PCOD9026765
_publ_section_title
;
Structure prediction by ZEFSAII (Michael W. Deem and Ramdas Pophale) SiO2 
 PCOD9026765
Probable space group: P -1
;
_chemical_formula_sum "Si O2"
_cell_formula_units_Z 10
_cell_length_a 14.869975
_cell_length_b 6.576125
_cell_length_c 5.109564
_cell_angle_alpha 73.090571
_cell_angle_beta 113.686032
_cell_angle_gamma 76.643380
_cell_volume 401.794835
_symmetry_space_group_name_H-M "P -1"
_symmetry_group_IT_number 2
_symmetry_cell_setting 'triclinic'
loop_
_space_group_symop_operation_xyz
x,y,z
-x,-y,-z
loop_
_atom_site_type_symbol
_atom_site_label
_atom_site_fract_x
_atom_site_fract_y
_atom_site_fract_z
Si Si1 0.336232 0.987404 0.205614
Si Si2 0.358905 0.488517 0.407958
Si Si3 0.171621 0.349689 0.191673
Si Si4 0.013090 0.139628 0.218138
Si Si5 0.475965 0.224345 0.120059
O O1 0.316254 0.760735 0.200446
O O2 0.403570 0.910244 0.586932
O O3 0.229185 0.212191 0.047995
O O4 0.417876 0.043433 0.092046
O O5 0.263886 0.412102 0.406900
O O6 0.413676 0.362292 0.254439
O O7 0.443795 0.400851 0.776034
O O8 0.076410 0.599717 0.958174
O O9 0.123799 0.177785 0.327730
O O10 0.000000 0.000000 0.500000
O O11 0.000000 0.000000 0.000000
#
# Coordination Sequence:
#
# PCOD9026765 Si02
#       5
#     2   2   2   2   2
#     4  10  22  41  65  95 134 172 214 263 309 372
#     4  11  23  41  64  95 134 173 212 259 314 373
#     4  10  25  42  69 100 124 166 219 262 322 387
#     4  11  26  49  70  93 128 165 209 272 331 384
#     4  10  24  40  62  96 134 176 216 252 308 378
#
# _framework density 24.888321999999999
#
# number of rings (size 3 to 8) (size 9 to 14) (size 15 to 20)
#    0.000    1.600    0.000    2.400    0.000   24.800 
#    0.000    0.000    0.000    0.000    0.000    0.000 
#    0.000    0.000    0.000    0.000    0.000    0.000 
#
# Total GULP energy -55958.284216 kJ/mol
# GULP energy per Si atom -5595.828422 kJ/mol
# Density = 2.483168 g / cm^3
# Si number density = 24.888322 Si / 1000 Ang^3
#
#
#
# Elastic Constant Matrix: (Units=GPa)
#
#
# Indices 1 2 3 4 5 6 
#
# 1 158.6338 41.9584 18.4205 -5.0833 2.2414 38.7637
# 2 41.9584 154.7931 27.1066 -19.2763 -6.3961 7.9973
# 3 18.4205 27.1066 65.1402 6.7555 -21.3445 7.8829
# 4 -5.0833 -19.2763 6.7555 35.8094 3.3494 1.2481
# 5 2.2414 -6.3961 -21.3445 3.3494 36.0852 -8.8904
# 6 38.7637 7.9973 7.8829 1.2481 -8.8904 56.7083
#
#
#
# Elastic Compliance Matrix: (Units=1/GPa)
#
#
# Indices 1 2 3 4 5 6 
#
# 1 0.008548 -0.001566 -0.002456 0.001400 -0.003848 -0.005915
# 2 -0.001566 0.008123 -0.003856 0.004981 -0.001165 0.000169
# 3 -0.002456 -0.003856 0.022959 -0.008130 0.014156 0.001429
# 4 0.001400 0.004981 -0.008130 0.033145 -0.007697 -0.002465
# 5 -0.003848 -0.001165 0.014156 -0.007697 0.038568 0.007043
# 6 -0.005915 0.000169 0.001429 -0.002465 0.007043 0.022613
#
#
# Mechanical properties :
#
#
# Convention : Reuss Voigt Hill
#
# Bulk Modulus (GPa) = 41.88565 61.50423 51.69494
# Shear Modulus (GPa) = 31.71160 45.12602 38.41881
#
# Velocity S-wave (km/s) = 3.57340 4.26272 3.93319
# Velocity P-wave (km/s) = 5.82165 6.99953 6.43759
#
# Compressibility (1/GPa) = 0.02387453
#
# Stress axis : x y z
#
# Youngs Moduli (GPa) = 116.98915 123.10043 43.55530
#
# Poissons Ratio (x) = 0.19278 0.10697
# Poissons Ratio (y) = 0.18321 0.16795
# Poissons Ratio (z) = 0.28731 0.47469
#
# Static dielectric constant tensor:
#      x y z
#    x 1.980570 0.024480 0.040240 
#    y 0.024480 2.142200 0.079570 
#    z 0.040240 0.079570 1.977570 
# 
# From -- ./inp_files/85810.got.cif
#   From: 2010.05.17/outbox.cif.g08.bks.cpg/sg2_43_cif.got.tgz:85810.got - 2010.06.03 11:33:40.
