data_PCOD9026172
_publ_section_title
;
Structure prediction by ZEFSAII (Michael W. Deem and Ramdas Pophale) SiO2 
 PCOD9026172
Probable space group: P -1
;
_chemical_formula_sum "Si O2"
_cell_formula_units_Z 16
_cell_length_a 16.104324
_cell_length_b 21.310208
_cell_length_c 11.199878
_cell_angle_alpha 30.738984
_cell_angle_beta 43.403335
_cell_angle_gamma 23.301925
_cell_volume 738.631440
_symmetry_space_group_name_H-M "P -1"
_symmetry_group_IT_number 2
_symmetry_cell_setting 'triclinic'
loop_
_space_group_symop_operation_xyz
x,y,z
-x,-y,-z
loop_
_atom_site_type_symbol
_atom_site_label
_atom_site_fract_x
_atom_site_fract_y
_atom_site_fract_z
Si Si1 0.205794 0.439684 0.888486
Si Si2 0.177359 0.056216 0.492189
Si Si3 0.965137 0.389604 0.664441
Si Si4 0.153740 0.795400 0.583545
Si Si5 0.349680 0.867036 0.173071
Si Si6 0.430604 0.442137 0.081508
Si Si7 0.343735 0.020101 0.156325
Si Si8 0.018352 0.478156 0.802647
O O1 0.435881 0.309570 0.843774
O O2 0.187666 0.361826 0.924345
O O3 0.189324 0.387000 0.120460
O O4 0.989718 0.709737 0.650616
O O5 0.337810 0.820386 0.767768
O O6 0.353684 0.974977 0.356553
O O7 0.009245 0.141294 0.433172
O O8 0.968462 0.421879 0.466736
O O9 0.000000 0.500000 0.500000
O O10 0.750969 0.494214 0.766332
O O11 0.170747 0.122288 0.906484
O O12 0.265964 0.800565 0.374115
O O13 0.316487 0.583953 0.846344
O O14 0.000000 0.000000 0.500000
O O15 0.395830 0.866168 0.264510
O O16 0.500000 0.500000 0.000000
O O17 0.099928 0.286557 0.962093
O O18 0.500000 0.000000 0.000000
#
# Coordination Sequence:
#
# PCOD9026172 Si02
#       8
#     2   2   2   2   2   2   2   2
#     4  10  25  42  64  95 142 192 218 272 362 429
#     4  11  24  44  67  98 136 181 235 281 344 417
#     4  12  25  39  71 113 135 170 240 306 347 402
#     4  12  23  45  71 101 137 177 234 296 343 407
#     4  12  23  42  67  99 137 178 223 286 352 406
#     4  12  24  43  74 107 133 182 235 298 351 405
#     4  11  18  34  67  94 124 173 222 282 330 396
#     4  10  22  41  62  96 141 180 228 275 350 426
#
# _framework density 21.661684000000001
#
# number of rings (size 3 to 8) (size 9 to 14) (size 15 to 20)
#    0.000    0.750    6.250    0.750    3.500    1.000 
#    2.250    0.625    0.000    0.000    0.000    0.000 
#    0.000    0.000    0.000    0.000    0.000    0.000 
#
# Total GULP energy -89142.136462 kJ/mol
# GULP energy per Si atom -5571.383529 kJ/mol
# Density = 2.161238 g / cm^3
# Si number density = 21.661684 Si / 1000 Ang^3
#
#
#
# Elastic Constant Matrix: (Units=GPa)
#
#
# Indices 1 2 3 4 5 6 
#
# 1 61.3095 21.5038 23.3141 4.8528 -9.9636 -8.4004
# 2 21.5038 140.3408 67.9899 15.4507 -5.6966 -17.5094
# 3 23.3141 67.9899 152.2524 -8.2639 6.1170 -12.2083
# 4 4.8528 15.4507 -8.2639 52.6348 -7.8343 -5.1169
# 5 -9.9636 -5.6966 6.1170 -7.8343 29.9930 7.5935
# 6 -8.4004 -17.5094 -12.2083 -5.1169 7.5935 28.9523
#
#
#
# Elastic Compliance Matrix: (Units=1/GPa)
#
#
# Indices 1 2 3 4 5 6 
#
# 1 0.018956 -0.001103 -0.002518 -0.000741 0.005876 0.002099
# 2 -0.001103 0.010165 -0.004312 -0.003124 0.000806 0.003246
# 3 -0.002518 -0.004312 0.009313 0.002649 -0.003353 0.001936
# 4 -0.000741 -0.003124 0.002649 0.021122 0.003687 0.001779
# 5 0.005876 0.000806 -0.003353 0.003687 0.039344 -0.008889
# 6 0.002099 0.003246 0.001936 0.001779 -0.008889 0.040574
#
#
# Mechanical properties :
#
#
# Convention : Reuss Voigt Hill
#
# Bulk Modulus (GPa) = 44.30991 64.39093 54.35042
# Shear Modulus (GPa) = 30.70072 38.38904 34.54488
#
# Velocity S-wave (km/s) = 3.76876 4.21433 3.99776
# Velocity P-wave (km/s) = 6.27996 7.31239 6.81575
#
# Compressibility (1/GPa) = 0.02256831
#
# Stress axis : x y z
#
# Youngs Moduli (GPa) = 52.75287 98.37552 107.37571
#
# Poissons Ratio (x) = 0.10846 0.27041
# Poissons Ratio (y) = 0.05816 0.46302
# Poissons Ratio (z) = 0.13285 0.42421
#
# Static dielectric constant tensor:
#      x y z
#    x 2.302780 0.098440 -0.356940 
#    y 0.098440 1.971580 -0.047880 
#    z -0.356940 -0.047880 2.167940 
# 
# From -- ./inp_files/467324.got.cif
#   From: 2010.05.17/outbox.cif.g08.bks.cpg/sg2_234_cif.got.tgz:467324.got - 2010.06.03 11:33:40.
