data_PCOD9026934
_publ_section_title
;
Structure prediction by ZEFSAII (Michael W. Deem and Ramdas Pophale) SiO2 
 PCOD9026934
Probable space group: P -1
;
_chemical_formula_sum "Si O2"
_cell_formula_units_Z 16
_cell_length_a 14.987591
_cell_length_b 20.756513
_cell_length_c 23.252600
_cell_angle_alpha 160.961773
_cell_angle_beta 162.123751
_cell_angle_gamma 27.842665
_cell_volume 715.659180
_symmetry_space_group_name_H-M "P -1"
_symmetry_group_IT_number 2
_symmetry_cell_setting 'triclinic'
loop_
_space_group_symop_operation_xyz
x,y,z
-x,-y,-z
loop_
_atom_site_type_symbol
_atom_site_label
_atom_site_fract_x
_atom_site_fract_y
_atom_site_fract_z
Si Si1 0.151047 0.926194 0.230647
Si Si2 0.118546 0.238949 0.562129
Si Si3 0.617097 0.389668 0.822476
Si Si4 0.829044 0.305390 0.058833
Si Si5 0.789064 0.212467 0.579180
Si Si6 0.981414 0.538322 0.453777
Si Si7 0.409690 0.483744 0.212548
Si Si8 0.066391 0.162908 0.591916
O O1 0.157613 0.738407 0.119319
O O2 0.500000 0.000000 0.500000
O O3 0.013198 0.091217 0.320461
O O4 0.045969 0.846747 0.036047
O O5 0.087872 0.468994 0.725385
O O6 0.978286 0.150258 0.460749
O O7 0.474000 0.247919 0.792607
O O8 0.303515 0.351501 0.630863
O O9 0.584523 0.372918 0.719582
O O10 0.732170 0.622289 0.098839
O O11 0.921120 0.337897 0.208921
O O12 0.585899 0.372369 0.608419
O O13 0.813952 0.166728 0.488458
O O14 0.752282 0.008788 0.420721
O O15 0.112928 0.327247 0.893827
O O16 0.000000 0.500000 0.500000
O O17 0.310063 0.628358 0.713464
#
# Coordination Sequence:
#
# PCOD9026934 Si02
#       8
#     2   2   2   2   2   2   2   2
#     4  10  19  29  53  82 115 141 178 216 265 338
#     4  10  18  31  57  82 111 144 177 227 271 321
#     4  10  17  32  53  83 109 141 173 222 287 327
#     4  10  18  33  51  82 115 142 175 217 280 336
#     4   9  19  33  53  79 102 142 199 226 258 309
#     4  10  19  32  56  77 115 150 168 216 293 333
#     4   9  19  34  53  77 106 143 187 231 260 327
#     4  10  17  31  57  78 107 139 179 236 269 308
#
# _framework density 22.357009999999999
#
# number of rings (size 3 to 8) (size 9 to 14) (size 15 to 20)
#    0.000    2.250    2.500    2.250    0.000    0.000 
#    0.000    0.625   33.000    1.500    0.000    0.000 
#    0.000    0.000    0.000    0.000    0.000    0.000 
#
# Total GULP energy -89207.874413 kJ/mol
# GULP energy per Si atom -5575.492151 kJ/mol
# Density = 2.230612 g / cm^3
# Si number density = 22.357010 Si / 1000 Ang^3
#
#
#
# Elastic Constant Matrix: (Units=GPa)
#
#
# Indices 1 2 3 4 5 6 
#
# 1 152.9249 30.0588 29.1449 21.4974 -37.1600 3.2243
# 2 30.0588 46.1046 15.4855 12.0938 6.2516 -1.7497
# 3 29.1449 15.4855 41.9059 12.7260 -10.3218 -0.4903
# 4 21.4974 12.0938 12.7260 27.3887 0.2050 -0.4501
# 5 -37.1600 6.2516 -10.3218 0.2050 44.2443 4.3381
# 6 3.2243 -1.7497 -0.4903 -0.4501 4.3381 27.9263
#
#
#
# Elastic Compliance Matrix: (Units=1/GPa)
#
#
# Indices 1 2 3 4 5 6 
#
# 1 0.011767 -0.007504 -0.001025 -0.005589 0.011088 -0.003659
# 2 -0.007504 0.032658 -0.008805 -0.004261 -0.013419 0.004774
# 3 -0.001025 -0.008805 0.033132 -0.010786 0.008291 -0.001313
# 4 -0.005589 -0.004261 -0.010786 0.047878 -0.007032 0.002053
# 5 0.011088 -0.013419 0.008291 -0.007032 0.036539 -0.007765
# 6 -0.003659 0.004774 -0.001313 0.002053 -0.007765 0.037746
#
#
# Mechanical properties :
#
#
# Convention : Reuss Voigt Hill
#
# Bulk Modulus (GPa) = 23.31585 43.36821 33.34203
# Shear Modulus (GPa) = 20.10596 30.99493 25.55045
#
# Velocity S-wave (km/s) = 3.00211 3.72743 3.38426
# Velocity P-wave (km/s) = 4.74008 6.16158 5.49698
#
# Compressibility (1/GPa) = 0.04288928
#
# Stress axis : x y z
#
# Youngs Moduli (GPa) = 84.98564 30.62071 30.18250
#
# Poissons Ratio (x) = 0.22976 0.03094
# Poissons Ratio (y) = 0.63769 0.26575
# Poissons Ratio (z) = 0.08711 0.26961
#
# Static dielectric constant tensor:
#      x y z
#    x 1.912790 0.016740 -0.021560 
#    y 0.016740 1.854080 -0.007210 
#    z -0.021560 -0.007210 1.846720 
# 
# From -- ./inp_files/542569.got.cif
#   From: 2010.05.17/outbox.cif.g08.bks.cpg/sg2_272_cif.got.tgz:542569.got - 2010.06.03 11:33:40.
