data_PCOD9026651
_publ_section_title
;
Structure prediction by ZEFSAII (Michael W. Deem and Ramdas Pophale) SiO2 
 PCOD9026651
Probable space group: P -1
;
_chemical_formula_sum "Si O2"
_cell_formula_units_Z 14
_cell_length_a 10.993854
_cell_length_b 11.002167
_cell_length_c 7.013371
_cell_angle_alpha 114.507123
_cell_angle_beta 131.785877
_cell_angle_gamma 75.872869
_cell_volume 574.895607
_symmetry_space_group_name_H-M "P -1"
_symmetry_group_IT_number 2
_symmetry_cell_setting 'triclinic'
loop_
_space_group_symop_operation_xyz
x,y,z
-x,-y,-z
loop_
_atom_site_type_symbol
_atom_site_label
_atom_site_fract_x
_atom_site_fract_y
_atom_site_fract_z
Si Si1 0.275005 0.793761 0.988231
Si Si2 0.226121 0.238180 0.684239
Si Si3 0.331241 0.042461 0.945836
Si Si4 0.112029 0.638820 0.006371
Si Si5 0.609313 0.742768 0.523453
Si Si6 0.909056 0.381850 0.586614
Si Si7 0.560925 0.515387 0.856291
O O1 0.138951 0.771029 0.995469
O O2 0.243294 0.667660 0.730659
O O3 0.446610 0.791989 0.276711
O O4 0.261851 0.919587 0.920212
O O5 0.257321 0.239274 0.492107
O O6 0.062507 0.308040 0.614730
O O7 0.227204 0.095947 0.696501
O O8 0.380705 0.329130 0.992367
O O9 0.355012 0.162697 0.200148
O O10 0.500000 0.000000 0.000000
O O11 0.958196 0.539015 0.732549
O O12 0.271034 0.555726 0.065908
O O13 0.112807 0.660322 0.245573
O O14 0.572812 0.587505 0.450508
O O15 0.500000 0.500000 0.000000
#
# Coordination Sequence:
#
# PCOD9026651 Si02
#       7
#     2   2   2   2   2   2   2
#     4  11  23  38  66  91 124 166 212 258 309 378
#     4  10  22  42  62  93 131 159 211 268 311 380
#     4  12  26  40  64  93 126 175 215 257 314 377
#     4   9  20  39  65  93 132 163 207 258 319 378
#     4  10  22  41  65  90 125 167 213 266 316 364
#     4  10  22  41  66  97 124 168 210 261 317 377
#     4   8  17  36  64  94 120 159 204 264 318 356
#
# _framework density 24.352247999999999
#
# number of rings (size 3 to 8) (size 9 to 14) (size 15 to 20)
#    0.000    2.000    1.429    0.857    4.000    2.286 
#    0.000   20.000    0.000    0.000    0.000    0.000 
#    0.000    0.000    0.000    0.000    0.000    0.000 
#
# Total GULP energy -78260.850096 kJ/mol
# GULP energy per Si atom -5590.060721 kJ/mol
# Density = 2.429682 g / cm^3
# Si number density = 24.352248 Si / 1000 Ang^3
#
#
#
# Elastic Constant Matrix: (Units=GPa)
#
#
# Indices 1 2 3 4 5 6 
#
# 1 130.0126 49.1044 50.9675 -7.0525 -25.0566 25.3634
# 2 49.1044 104.2841 11.5488 -23.9986 -12.8950 37.7322
# 3 50.9675 11.5488 87.5300 2.1859 -28.0688 4.9282
# 4 -7.0525 -23.9986 2.1859 26.1109 -5.0333 -3.9195
# 5 -25.0566 -12.8950 -28.0688 -5.0333 42.2421 -6.0314
# 6 25.3634 37.7322 4.9282 -3.9195 -6.0314 45.2245
#
#
#
# Elastic Compliance Matrix: (Units=1/GPa)
#
#
# Indices 1 2 3 4 5 6 
#
# 1 0.012417 -0.003900 -0.005977 0.000202 0.001828 -0.002797
# 2 -0.003900 0.020336 0.001513 0.016555 0.005040 -0.012838
# 3 -0.005977 0.001513 0.017416 0.000203 0.008709 0.001371
# 4 0.000202 0.016555 0.000203 0.054439 0.010681 -0.007805
# 5 0.001828 0.005040 0.008709 0.010681 0.033238 -0.000820
# 6 -0.002797 -0.012838 0.001371 -0.007805 -0.000820 0.033456
#
#
# Mechanical properties :
#
#
# Convention : Reuss Voigt Hill
#
# Bulk Modulus (GPa) = 29.90366 60.56314 45.23340
# Shear Modulus (GPa) = 25.10351 36.72923 30.91637
#
# Velocity S-wave (km/s) = 3.21417 3.88783 3.56694
# Velocity P-wave (km/s) = 5.10694 6.71396 5.96482
#
# Compressibility (1/GPa) = 0.03344073
#
# Stress axis : x y z
#
# Youngs Moduli (GPa) = 80.53799 49.17400 57.41944
#
# Poissons Ratio (x) = 0.19179 0.34319
# Poissons Ratio (y) = 0.31412 -0.08690
# Poissons Ratio (z) = 0.48136 -0.07442
#
# Static dielectric constant tensor:
#      x y z
#    x 1.939480 0.007740 0.049080 
#    y 0.007740 1.993490 0.012440 
#    z 0.049080 0.012440 1.969250 
# 
# From -- ./inp_files/72469.got.cif
#   From: 2010.05.17/outbox.cif.g08.bks.cpg/sg2_37_cif.got.tgz:72469.got - 2010.06.03 11:33:40.
