data_PCOD9026562
_publ_section_title
;
Structure prediction by ZEFSAII (Michael W. Deem and Ramdas Pophale) SiO2 
 PCOD9026562
Probable space group: P -1
;
_chemical_formula_sum "Si O2"
_cell_formula_units_Z 12
_cell_length_a 11.524065
_cell_length_b 10.307718
_cell_length_c 5.241846
_cell_angle_alpha 109.375900
_cell_angle_beta 67.531090
_cell_angle_gamma 113.710352
_cell_volume 515.023172
_symmetry_space_group_name_H-M "P -1"
_symmetry_group_IT_number 2
_symmetry_cell_setting 'triclinic'
loop_
_space_group_symop_operation_xyz
x,y,z
-x,-y,-z
loop_
_atom_site_type_symbol
_atom_site_label
_atom_site_fract_x
_atom_site_fract_y
_atom_site_fract_z
Si Si1 0.875458 0.691411 0.835802
Si Si2 0.225373 0.188336 0.498598
Si Si3 0.633998 0.099112 0.322761
Si Si4 0.886332 0.064794 0.236091
Si Si5 0.676245 0.396929 0.699714
Si Si6 0.462686 0.691752 0.739306
O O1 0.820905 0.765837 0.698696
O O2 0.810136 0.521643 0.731307
O O3 0.032835 0.765017 0.731395
O O4 0.823803 0.730645 0.175599
O O5 0.383381 0.239483 0.399158
O O6 0.161935 0.018235 0.511740
O O7 0.750861 0.029635 0.165261
O O8 0.690262 0.238835 0.549227
O O9 0.596987 0.173684 0.152325
O O10 0.500000 0.000000 0.500000
O O11 0.000000 0.000000 0.000000
O O12 0.609942 0.416287 0.498259
O O13 0.574099 0.381967 0.006557
#
# Coordination Sequence:
#
# PCOD9026562 Si02
#       6
#     2   2   2   2   2   2
#     4  11  24  40  64  94 135 170 212 265 316 391
#     4  11  22  41  66  95 130 172 218 263 320 374
#     4  10  22  45  67  97 128 169 217 270 316 383
#     4  10  22  45  67  98 128 172 217 265 321 383
#     4  10  23  41  61 100 127 172 211 263 327 376
#     4  10  22  41  64  97 127 169 217 263 320 377
#
# _framework density 23.299924000000001
#
# number of rings (size 3 to 8) (size 9 to 14) (size 15 to 20)
#    1.000    0.667    1.667    2.500    0.000    5.333 
#   12.000    0.833    0.000    0.000    0.000    0.000 
#    0.000    0.000    0.000    0.000    0.000    0.000 
#
# Total GULP energy -67006.079712 kJ/mol
# GULP energy per Si atom -5583.839976 kJ/mol
# Density = 2.324689 g / cm^3
# Si number density = 23.299924 Si / 1000 Ang^3
#
#
#
# Elastic Constant Matrix: (Units=GPa)
#
#
# Indices 1 2 3 4 5 6 
#
# 1 101.6206 14.3196 29.5743 1.4331 -24.3035 12.5717
# 2 14.3196 124.7211 39.4107 -19.5007 -20.8062 27.0783
# 3 29.5743 39.4107 95.5637 2.0473 8.3642 7.8161
# 4 1.4331 -19.5007 2.0473 23.8249 7.9331 -5.7718
# 5 -24.3035 -20.8062 8.3642 7.9331 39.2312 -12.6072
# 6 12.5717 27.0783 7.8161 -5.7718 -12.6072 38.9633
#
#
#
# Elastic Compliance Matrix: (Units=1/GPa)
#
#
# Indices 1 2 3 4 5 6 
#
# 1 0.014240 0.002067 -0.006056 -0.002778 0.011262 -0.001584
# 2 0.002067 0.013256 -0.006392 0.007856 0.006357 -0.005377
# 3 -0.006056 -0.006392 0.015966 -0.003000 -0.010106 -0.000521
# 4 -0.002778 0.007856 -0.003000 0.051461 -0.006857 0.001443
# 5 0.011262 0.006357 -0.010106 -0.006857 0.041424 0.006363
# 6 -0.001584 -0.005377 -0.000521 0.001443 0.006363 0.032290
#
#
# Mechanical properties :
#
#
# Convention : Reuss Voigt Hill
#
# Bulk Modulus (GPa) = 44.05076 54.27939 49.16507
# Shear Modulus (GPa) = 25.38506 36.31059 30.84783
#
# Velocity S-wave (km/s) = 3.30433 3.95194 3.64255
# Velocity P-wave (km/s) = 5.78836 6.64607 6.23199
#
# Compressibility (1/GPa) = 0.02270109
#
# Stress axis : x y z
#
# Youngs Moduli (GPa) = 70.22365 75.43485 62.63415
#
# Poissons Ratio (x) = -0.15592 0.37931
# Poissons Ratio (y) = -0.14514 0.40033
# Poissons Ratio (z) = 0.42527 0.48215
#
# Static dielectric constant tensor:
#      x y z
#    x 1.891040 -0.022990 0.003770 
#    y -0.022990 1.992970 0.070470 
#    z 0.003770 0.070470 1.855400 
# 
# From -- ./inp_files/63590.got.cif
#   From: 2010.05.17/outbox.cif.g08.bks.cpg/sg2_32_cif.got.tgz:63590.got - 2010.06.03 11:33:40.
