data_PCOD9026198
_publ_section_title
;
Structure prediction by ZEFSAII (Michael W. Deem and Ramdas Pophale) SiO2 
 PCOD9026198
Probable space group: P -1
;
_chemical_formula_sum "Si O2"
_cell_formula_units_Z 14
_cell_length_a 9.606966
_cell_length_b 17.410451
_cell_length_c 11.486774
_cell_angle_alpha 40.050780
_cell_angle_beta 39.679185
_cell_angle_gamma 26.732490
_cell_volume 531.016570
_symmetry_space_group_name_H-M "P -1"
_symmetry_group_IT_number 2
_symmetry_cell_setting 'triclinic'
loop_
_space_group_symop_operation_xyz
x,y,z
-x,-y,-z
loop_
_atom_site_type_symbol
_atom_site_label
_atom_site_fract_x
_atom_site_fract_y
_atom_site_fract_z
Si Si1 0.285678 0.896663 0.074128
Si Si2 0.667896 0.025732 0.450311
Si Si3 0.078294 0.832550 0.616077
Si Si4 0.777895 0.263740 0.892813
Si Si5 0.252104 0.416733 0.232303
Si Si6 0.682106 0.495245 0.490098
Si Si7 0.795040 0.787534 0.036846
O O1 0.335496 0.805509 0.029067
O O2 0.606205 0.775443 0.083939
O O3 0.993247 0.946594 0.271376
O O4 0.124493 0.089084 0.924799
O O5 0.458661 0.229601 0.382741
O O6 0.500000 0.000000 0.500000
O O7 0.801996 0.905426 0.617415
O O8 0.420936 0.682849 0.506303
O O9 0.051065 0.761834 0.828666
O O10 0.000000 0.000000 0.500000
O O11 0.789721 0.363479 0.677169
O O12 0.513971 0.377283 0.031250
O O13 0.000433 0.430522 0.313673
O O14 0.996050 0.626384 0.188682
O O15 0.500000 0.500000 0.500000
O O16 0.500000 0.000000 0.000000
#
# Coordination Sequence:
#
# PCOD9026198 Si02
#       7
#     2   2   2   2   2   2   2
#     4  10  23  40  69  98 147 172 234 285 357 414
#     4  11  24  45  72 111 144 187 237 298 357 431
#     4  12  27  48  71 103 147 194 238 298 368 431
#     4  10  22  41  63 107 132 181 226 293 347 417
#     4  11  24  42  69 102 139 179 238 287 352 420
#     4  12  24  41  69 103 145 182 241 293 355 425
#     4  12  26  47  69  99 143 193 238 292 359 432
#
# _framework density 26.364526000000001
#
# number of rings (size 3 to 8) (size 9 to 14) (size 15 to 20)
#    0.000    0.857    1.429    6.000   10.000    1.143 
#    2.571    3.571    0.000    0.000    0.000    0.000 
#    0.000    0.000    0.000    0.000    0.000    0.000 
#
# Total GULP energy -78313.970662 kJ/mol
# GULP energy per Si atom -5593.855047 kJ/mol
# Density = 2.630452 g / cm^3
# Si number density = 26.364526 Si / 1000 Ang^3
#
#
#
# Elastic Constant Matrix: (Units=GPa)
#
#
# Indices 1 2 3 4 5 6 
#
# 1 57.0515 15.0633 17.1636 3.1994 -13.1429 -9.3282
# 2 15.0633 151.2444 31.0099 -30.4737 6.9037 0.7760
# 3 17.1636 31.0099 98.2945 -9.5393 3.8334 -23.3090
# 4 3.1994 -30.4737 -9.5393 61.5828 -15.4631 0.6351
# 5 -13.1429 6.9037 3.8334 -15.4631 38.2660 -3.3301
# 6 -9.3282 0.7760 -23.3090 0.6351 -3.3301 38.4769
#
#
#
# Elastic Compliance Matrix: (Units=1/GPa)
#
#
# Indices 1 2 3 4 5 6 
#
# 1 0.021463 -0.002159 -0.002364 -0.000544 0.008173 0.004531
# 2 -0.002159 0.008069 -0.002317 0.003592 -0.000706 -0.002210
# 3 -0.002364 -0.002317 0.013168 0.000747 -0.000770 0.007372
# 4 -0.000544 0.003592 0.000747 0.019963 0.007204 0.000542
# 5 0.008173 -0.000706 -0.000770 0.007204 0.032423 0.004216
# 6 0.004531 -0.002210 0.007372 0.000542 0.004216 0.031954
#
#
# Mechanical properties :
#
#
# Convention : Reuss Voigt Hill
#
# Bulk Modulus (GPa) = 34.45715 48.11823 41.28769
# Shear Modulus (GPa) = 33.24645 43.88873 38.56759
#
# Velocity S-wave (km/s) = 3.55495 4.08449 3.82888
# Velocity P-wave (km/s) = 5.47249 6.36669 5.93645
#
# Compressibility (1/GPa) = 0.02902155
#
# Stress axis : x y z
#
# Youngs Moduli (GPa) = 46.59122 123.93019 75.94393
#
# Poissons Ratio (x) = 0.26756 0.17951
# Poissons Ratio (y) = 0.10059 0.17593
# Poissons Ratio (z) = 0.11013 0.28709
#
# Static dielectric constant tensor:
#      x y z
#    x 2.120400 0.011440 -0.007910 
#    y 0.011440 2.110020 -0.068990 
#    z -0.007910 -0.068990 2.095020 
# 
# From -- ./inp_files/426746.got.cif
#   From: 2010.05.17/outbox.cif.g08.bks.cpg/sg2_214_cif.got.tgz:426746.got - 2010.06.03 11:33:40.
