data_PCOD9026935
_publ_section_title
;
Structure prediction by ZEFSAII (Michael W. Deem and Ramdas Pophale) SiO2 
 PCOD9026935
Probable space group: P -1
;
_chemical_formula_sum "Si O2"
_cell_formula_units_Z 12
_cell_length_a 7.814819
_cell_length_b 11.833520
_cell_length_c 16.458291
_cell_angle_alpha 38.905727
_cell_angle_beta 145.686297
_cell_angle_gamma 131.401630
_cell_volume 538.111836
_symmetry_space_group_name_H-M "P -1"
_symmetry_group_IT_number 2
_symmetry_cell_setting 'triclinic'
loop_
_space_group_symop_operation_xyz
x,y,z
-x,-y,-z
loop_
_atom_site_type_symbol
_atom_site_label
_atom_site_fract_x
_atom_site_fract_y
_atom_site_fract_z
Si Si1 0.898722 0.363406 0.432881
Si Si2 0.536025 0.387719 0.494501
Si Si3 0.160629 0.019555 0.296776
Si Si4 0.215860 0.006285 0.156412
Si Si5 0.782569 0.619527 0.794963
Si Si6 0.754369 0.128122 0.368168
O O1 0.847093 0.487217 0.527818
O O2 0.556841 0.417594 0.282139
O O3 0.911883 0.297780 0.380406
O O4 0.934278 0.177908 0.599716
O O5 0.500000 0.500000 0.500000
O O6 0.622842 0.184059 0.663113
O O7 0.280738 0.395104 0.318939
O O8 0.106008 0.177604 0.249090
O O9 0.019201 0.045267 0.137840
O O10 0.481419 0.956281 0.606484
O O11 0.499547 0.154381 0.184761
O O12 0.000000 0.000000 0.000000
O O13 0.000000 0.500000 0.000000
O O14 0.000000 0.000000 0.500000
#
# Coordination Sequence:
#
# PCOD9026935 Si02
#       6
#     2   2   2   2   2   2
#     4  11  21  42  68  93 130 174 218 269 327 389
#     4  12  26  41  68  99 134 169 221 275 331 381
#     4   9  21  41  70  87 128 178 218 255 332 385
#     4  10  22  41  66  90 133 168 219 264 326 385
#     4  11  23  43  68  97 135 170 220 269 326 394
#     4   9  18  36  64  93 121 167 211 260 322 383
#
# _framework density 22.300196
#
# number of rings (size 3 to 8) (size 9 to 14) (size 15 to 20)
#    1.000    0.667    1.667    4.500    2.333    0.000 
#    0.000   10.833    0.000    0.000    0.000    0.000 
#    0.000    0.000    0.000    0.000    0.000    0.000 
#
# Total GULP energy -66840.142038 kJ/mol
# GULP energy per Si atom -5570.011837 kJ/mol
# Density = 2.224944 g / cm^3
# Si number density = 22.300196 Si / 1000 Ang^3
#
#
#
# Elastic Constant Matrix: (Units=GPa)
#
#
# Indices 1 2 3 4 5 6 
#
# 1 74.7613 18.1947 20.0086 8.3628 -11.5733 -19.0345
# 2 18.1947 124.2727 59.8503 27.8530 -11.7280 -13.4334
# 3 20.0086 59.8503 157.7718 36.2006 -13.9710 -14.4400
# 4 8.3628 27.8530 36.2006 45.4319 -10.7512 -9.1706
# 5 -11.5733 -11.7280 -13.9710 -10.7512 17.3469 7.8604
# 6 -19.0345 -13.4334 -14.4400 -9.1706 7.8604 45.7934
#
#
#
# Elastic Compliance Matrix: (Units=1/GPa)
#
#
# Indices 1 2 3 4 5 6 
#
# 1 0.016213 -0.000950 -0.000787 0.001129 0.007940 0.005075
# 2 -0.000950 0.010597 -0.002880 -0.003460 0.001694 0.000822
# 3 -0.000787 -0.002880 0.008766 -0.004629 0.001536 0.000401
# 4 0.001129 -0.003460 -0.004629 0.031105 0.013066 0.001981
# 5 0.007940 0.001694 0.001536 0.013066 0.076228 -0.006186
# 6 0.005075 0.000822 0.000401 0.001981 -0.006186 0.025773
#
#
# Mechanical properties :
#
#
# Convention : Reuss Voigt Hill
#
# Bulk Modulus (GPa) = 37.96297 61.43478 49.69887
# Shear Modulus (GPa) = 26.78136 38.96459 32.87297
#
# Velocity S-wave (km/s) = 3.46923 4.18458 3.84358
# Velocity P-wave (km/s) = 5.75395 7.13837 6.48322
#
# Compressibility (1/GPa) = 0.02634146
#
# Stress axis : x y z
#
# Youngs Moduli (GPa) = 61.67960 94.36328 114.08061
#
# Poissons Ratio (x) = 0.08960 0.08980
# Poissons Ratio (y) = 0.05857 0.32861
# Poissons Ratio (z) = 0.04855 0.27181
#
# Static dielectric constant tensor:
#      x y z
#    x 1.975370 -0.016580 -0.065810 
#    y -0.016580 1.889050 0.069830 
#    z -0.065810 0.069830 1.907740 
# 
# From -- ./inp_files/299604.got.cif
#   From: 2010.05.17/outbox.cif.g08.bks.cpg/sg2_150_cif.got.tgz:299604.got - 2010.06.03 11:33:40.
