data_PCOD9026107
_publ_section_title
;
Structure prediction by ZEFSAII (Michael W. Deem and Ramdas Pophale) SiO2 
 PCOD9026107
Probable space group: P -1
;
_chemical_formula_sum "Si O2"
_cell_formula_units_Z 14
_cell_length_a 4.874557
_cell_length_b 5.871279
_cell_length_c 23.197069
_cell_angle_alpha 56.579570
_cell_angle_beta 91.101604
_cell_angle_gamma 84.748762
_cell_volume 549.857307
_symmetry_space_group_name_H-M "P -1"
_symmetry_group_IT_number 2
_symmetry_cell_setting 'triclinic'
loop_
_space_group_symop_operation_xyz
x,y,z
-x,-y,-z
loop_
_atom_site_type_symbol
_atom_site_label
_atom_site_fract_x
_atom_site_fract_y
_atom_site_fract_z
Si Si1 0.035094 0.304910 0.391113
Si Si2 0.798251 0.404863 0.962868
Si Si3 0.911774 0.287736 0.856475
Si Si4 0.415845 0.194012 0.646881
Si Si5 0.939102 0.835494 0.714807
Si Si6 0.232983 0.256465 0.516595
Si Si7 0.432506 0.932951 0.896270
O O1 0.788242 0.549938 0.365568
O O2 0.144581 0.292572 0.328703
O O3 0.269811 0.300360 0.442470
O O4 0.899998 0.025026 0.438635
O O5 0.964592 0.279718 0.926324
O O6 0.595698 0.669821 0.902524
O O7 0.000000 0.500000 0.000000
O O8 0.616207 0.199791 0.022828
O O9 0.937071 0.591689 0.793320
O O10 0.618317 0.178793 0.863306
O O11 0.133362 0.067193 0.856152
O O12 0.454087 0.241408 0.571200
O O13 0.712146 0.098191 0.688977
O O14 0.234159 0.942210 0.691892
O O15 0.000000 0.500000 0.500000
#
# Coordination Sequence:
#
# PCOD9026107 Si02
#       7
#     2   2   2   2   2   2   2
#     4   9  19  38  65  90 129 167 211 260 323 371
#     4  11  25  43  69 100 130 163 217 268 323 385
#     4  12  26  42  67  93 133 170 214 266 325 381
#     4  10  22  41  62  90 129 164 216 262 312 373
#     4  11  25  42  61  92 126 171 213 258 313 384
#     4   8  16  36  64  97 123 164 211 268 313 370
#     4  11  25  43  68  98 127 168 212 267 324 385
#
# _framework density 25.461151000000001
#
# number of rings (size 3 to 8) (size 9 to 14) (size 15 to 20)
#    0.000    1.714    1.429    1.714    4.000    5.143 
#    0.000   24.286    0.000    0.000    0.000    0.000 
#    0.000    0.000    0.000    0.000    0.000    0.000 
#
# Total GULP energy -78380.518293 kJ/mol
# GULP energy per Si atom -5598.608450 kJ/mol
# Density = 2.540320 g / cm^3
# Si number density = 25.461151 Si / 1000 Ang^3
#
#
#
# Elastic Constant Matrix: (Units=GPa)
#
#
# Indices 1 2 3 4 5 6 
#
# 1 109.2202 9.0936 17.5735 -5.9109 -8.8078 -6.8921
# 2 9.0936 72.8406 9.3132 -15.5902 -9.5425 -15.0394
# 3 17.5735 9.3132 87.1115 -20.6568 -17.8243 -16.4876
# 4 -5.9109 -15.5902 -20.6568 29.6077 -4.6281 7.6346
# 5 -8.8078 -9.5425 -17.8243 -4.6281 29.6055 -11.4145
# 6 -6.8921 -15.0394 -16.4876 7.6346 -11.4145 34.7314
#
#
#
# Elastic Compliance Matrix: (Units=1/GPa)
#
#
# Indices 1 2 3 4 5 6 
#
# 1 0.009808 0.000537 0.000080 0.002189 0.004753 0.003298
# 2 0.000537 0.023371 0.010292 0.018468 0.024091 0.018970
# 3 0.000080 0.010292 0.026528 0.023111 0.031544 0.022353
# 4 0.002189 0.018468 0.023111 0.061179 0.037075 0.018139
# 5 0.004753 0.024091 0.031544 0.037075 0.085608 0.046334
# 6 0.003298 0.018970 0.022353 0.018139 0.046334 0.059513
#
#
# Mechanical properties :
#
#
# Convention : Reuss Voigt Hill
#
# Bulk Modulus (GPa) = 12.26603 37.90367 25.08485
# Shear Modulus (GPa) = 18.42547 34.33506 26.38026
#
# Velocity S-wave (km/s) = 2.69303 3.67621 3.22234
# Velocity P-wave (km/s) = 3.80761 5.73921 4.87014
#
# Compressibility (1/GPa) = 0.08152600
#
# Stress axis : x y z
#
# Youngs Moduli (GPa) = 101.95658 42.78774 37.69556
#
# Poissons Ratio (x) = -0.02299 -0.00300
# Poissons Ratio (y) = -0.05479 -0.38797
# Poissons Ratio (z) = -0.00812 -0.44038
#
# Static dielectric constant tensor:
#      x y z
#    x 1.986170 0.043280 0.020490 
#    y 0.043280 2.023280 -0.001830 
#    z 0.020490 -0.001830 2.001610 
# 
# From -- ./inp_files/127851.got.cif
#   From: 2010.05.17/outbox.cif.g08.bks.cpg/sg2_64_cif.got.tgz:127851.got - 2010.06.03 11:33:40.
