data_PCOD9026318
_publ_section_title
;
Structure prediction by ZEFSAII (Michael W. Deem and Ramdas Pophale) SiO2 
 PCOD9026318
Probable space group: P -1
;
_chemical_formula_sum "Si O2"
_cell_formula_units_Z 16
_cell_length_a 17.368809
_cell_length_b 12.163666
_cell_length_c 7.637350
_cell_angle_alpha 100.557072
_cell_angle_beta 125.736746
_cell_angle_gamma 38.283277
_cell_volume 679.104423
_symmetry_space_group_name_H-M "P -1"
_symmetry_group_IT_number 2
_symmetry_cell_setting 'triclinic'
loop_
_space_group_symop_operation_xyz
x,y,z
-x,-y,-z
loop_
_atom_site_type_symbol
_atom_site_label
_atom_site_fract_x
_atom_site_fract_y
_atom_site_fract_z
Si Si1 0.077941 0.443238 0.359429
Si Si2 0.810417 0.379944 0.147831
Si Si3 0.474720 0.222889 0.332360
Si Si4 0.163794 0.113873 0.885745
Si Si5 0.807151 0.890856 0.440431
Si Si6 0.906417 0.180164 0.562832
Si Si7 0.333378 0.589162 0.356566
Si Si8 0.275670 0.224182 0.215714
O O1 0.229422 0.301043 0.373105
O O2 0.153211 0.283465 0.557090
O O3 0.002435 0.642888 0.338854
O O4 0.905876 0.556531 0.069842
O O5 0.789529 0.363800 0.315571
O O6 0.662638 0.619150 0.966505
O O7 0.008934 0.226519 0.325911
O O8 0.778956 0.312705 0.944109
O O9 0.412979 0.383167 0.428821
O O10 0.669822 0.047161 0.460480
O O11 0.433096 0.141933 0.325579
O O12 0.271952 0.986997 0.813474
O O13 0.269035 0.096778 0.139563
O O14 0.065256 0.103579 0.822271
O O15 0.785494 0.260584 0.588155
O O16 0.000000 0.000000 0.500000
O O17 0.500000 0.500000 0.500000
#
# Coordination Sequence:
#
# PCOD9026318 Si02
#       8
#     2   2   2   2   2   2   2   2
#     4   9  17  33  61  86 126 171 211 260 327 380
#     4   9  23  44  66  93 137 168 212 283 330 371
#     4  10  22  41  63  95 136 169 217 271 333 391
#     4   9  20  35  60  93 127 167 216 268 327 385
#     4  11  20  36  65  94 129 173 221 259 327 414
#     4  11  24  42  72 100 126 178 235 266 329 410
#     4  10  24  45  69  94 136 173 215 279 339 380
#     4   9  18  35  60  87 128 172 205 265 328 383
#
# _framework density 23.56044
#
# number of rings (size 3 to 8) (size 9 to 14) (size 15 to 20)
#    1.500    0.750    1.250    1.125    5.250    2.000 
#    0.000    1.250    0.000    0.000    0.000    0.000 
#    0.000    0.000    0.000    0.000    0.000    0.000 
#
# Total GULP energy -89156.914723 kJ/mol
# GULP energy per Si atom -5572.307170 kJ/mol
# Density = 2.350682 g / cm^3
# Si number density = 23.560440 Si / 1000 Ang^3
#
#
#
# Elastic Constant Matrix: (Units=GPa)
#
#
# Indices 1 2 3 4 5 6 
#
# 1 120.5368 21.8457 47.6017 12.7494 20.8142 -27.7285
# 2 21.8457 67.7266 20.7710 6.1287 19.6072 -14.1711
# 3 47.6017 20.7710 70.9880 10.4884 21.6294 -20.0622
# 4 12.7494 6.1287 10.4884 25.6710 -0.9100 -1.7508
# 5 20.8142 19.6072 21.6294 -0.9100 34.3647 -5.3348
# 6 -27.7285 -14.1711 -20.0622 -1.7508 -5.3348 42.4586
#
#
#
# Elastic Compliance Matrix: (Units=1/GPa)
#
#
# Indices 1 2 3 4 5 6 
#
# 1 0.012609 0.000034 -0.005357 -0.003861 -0.003595 0.005104
# 2 0.000034 0.019215 -0.000630 -0.004380 -0.009973 0.004704
# 3 -0.005357 -0.000630 0.023792 -0.006884 -0.010635 0.005913
# 4 -0.003861 -0.004380 -0.006884 0.044790 0.009709 -0.004169
# 5 -0.003595 -0.009973 -0.010635 0.009709 0.043161 -0.004878
# 6 0.005104 0.004704 0.005913 -0.004169 -0.004878 0.030465
#
#
# Mechanical properties :
#
#
# Convention : Reuss Voigt Hill
#
# Bulk Modulus (GPa) = 22.87767 48.85423 35.86595
# Shear Modulus (GPa) = 24.93676 31.76773 28.35224
#
# Velocity S-wave (km/s) = 3.25686 3.67597 3.47275
# Velocity P-wave (km/s) = 4.88612 6.22878 5.59785
#
# Compressibility (1/GPa) = 0.04371075
#
# Stress axis : x y z
#
# Youngs Moduli (GPa) = 79.31053 52.04135 42.03110
#
# Poissons Ratio (x) = -0.00176 0.22515
# Poissons Ratio (y) = -0.00268 0.02647
# Poissons Ratio (z) = 0.42484 0.03277
#
# Static dielectric constant tensor:
#      x y z
#    x 1.908180 0.059950 -0.056590 
#    y 0.059950 1.963130 -0.033730 
#    z -0.056590 -0.033730 1.970430 
# 
# From -- ./inp_files/305407.got.cif
#   From: 2010.05.17/outbox.cif.g08.bks.cpg/sg2_153_cif.got.tgz:305407.got - 2010.06.03 11:33:40.
