data_PCOD9026481
_publ_section_title
;
Structure prediction by ZEFSAII (Michael W. Deem and Ramdas Pophale) SiO2 
 PCOD9026481
Probable space group: P -1
;
_chemical_formula_sum "Si O2"
_cell_formula_units_Z 12
_cell_length_a 16.996422
_cell_length_b 19.213978
_cell_length_c 5.461598
_cell_angle_alpha 84.330626
_cell_angle_beta 83.410222
_cell_angle_gamma 14.182663
_cell_volume 433.546393
_symmetry_space_group_name_H-M "P -1"
_symmetry_group_IT_number 2
_symmetry_cell_setting 'triclinic'
loop_
_space_group_symop_operation_xyz
x,y,z
-x,-y,-z
loop_
_atom_site_type_symbol
_atom_site_label
_atom_site_fract_x
_atom_site_fract_y
_atom_site_fract_z
Si Si1 0.381350 0.158889 0.784888
Si Si2 0.910984 0.965417 0.966950
Si Si3 0.757498 0.611293 0.868514
Si Si4 0.281801 0.767860 0.672940
Si Si5 0.158428 0.165470 0.614638
Si Si6 0.275467 0.545819 0.706595
O O1 0.020243 0.444428 0.750444
O O2 0.642076 0.943626 0.554666
O O3 0.353388 0.260569 0.880384
O O4 0.500000 0.000000 0.000000
O O5 0.193549 0.781370 0.884492
O O6 0.085462 0.743511 0.930321
O O7 0.608455 0.228395 0.796627
O O8 0.757866 0.123647 0.217121
O O9 0.953200 0.372913 0.840782
O O10 0.445140 0.873523 0.720447
O O11 0.613376 0.486109 0.505247
O O12 0.000000 0.000000 0.500000
O O13 0.936770 0.321587 0.433684
#
# Coordination Sequence:
#
# PCOD9026481 Si02
#       6
#     2   2   2   2   2   2
#     4  11  25  43  68  95 124 167 220 265 319 379
#     4  10  22  41  64  93 127 165 208 258 304 371
#     4  11  25  43  66  94 123 169 215 264 319 381
#     4   9  21  40  68  93 124 166 212 253 307 372
#     4  12  26  41  66  93 132 167 212 265 320 378
#     4  11  24  41  61  94 129 166 206 256 317 370
#
# _framework density 27.678697
#
# number of rings (size 3 to 8) (size 9 to 14) (size 15 to 20)
#    0.000    1.333    1.667    2.500    4.667   11.333 
#    0.000    0.000    0.000    0.000    0.000    0.000 
#    0.000    0.000    0.000    0.000    0.000    0.000 
#
# Total GULP energy -67254.807227 kJ/mol
# GULP energy per Si atom -5604.567269 kJ/mol
# Density = 2.761570 g / cm^3
# Si number density = 27.678697 Si / 1000 Ang^3
#
#
#
# Elastic Constant Matrix: (Units=GPa)
#
#
# Indices 1 2 3 4 5 6 
#
# 1 109.3730 50.6253 19.2693 7.4450 23.4108 -8.4755
# 2 50.6253 168.7012 35.6913 -11.2239 10.5024 -1.4988
# 3 19.2693 35.6913 75.9650 17.0530 28.7723 -1.8774
# 4 7.4450 -11.2239 17.0530 46.8059 -3.2732 11.5838
# 5 23.4108 10.5024 28.7723 -3.2732 52.7547 5.8139
# 6 -8.4755 -1.4988 -1.8774 11.5838 5.8139 59.5992
#
#
#
# Elastic Compliance Matrix: (Units=1/GPa)
#
#
# Indices 1 2 3 4 5 6 
#
# 1 0.012816 -0.004323 0.002770 -0.005458 -0.007067 0.003551
# 2 -0.004323 0.008542 -0.005699 0.005592 0.003899 -0.002047
# 3 0.002770 -0.005699 0.023445 -0.012532 -0.014189 0.004809
# 4 -0.005458 0.005592 -0.012532 0.030912 0.010955 -0.008107
# 5 -0.007067 0.003899 -0.014189 0.010955 0.030445 -0.006453
# 6 0.003551 -0.002047 0.004809 -0.008107 -0.006453 0.019589
#
#
# Mechanical properties :
#
#
# Convention : Reuss Voigt Hill
#
# Bulk Modulus (GPa) = 33.00555 62.80123 47.90339
# Shear Modulus (GPa) = 33.25499 48.39552 40.82525
#
# Velocity S-wave (km/s) = 3.46998 4.18601 3.84470
# Velocity P-wave (km/s) = 5.29195 6.78986 6.08716
#
# Compressibility (1/GPa) = 0.03029793
#
# Stress axis : x y z
#
# Youngs Moduli (GPa) = 78.03007 117.06949 42.65246
#
# Poissons Ratio (x) = 0.50615 -0.11816
# Poissons Ratio (y) = 0.33736 0.24309
# Poissons Ratio (z) = -0.21616 0.66720
#
# Static dielectric constant tensor:
#      x y z
#    x 2.257040 0.018970 -0.070740 
#    y 0.018970 2.033410 -0.002510 
#    z -0.070740 -0.002510 2.123630 
# 
# From -- ./inp_files/6744.got.cif
#   From: 2010.05.17/outbox.cif.g08.bks.cpg/sg2_4_cif.got.tgz:6744.got - 2010.06.03 11:33:40.
