data_PCOD9026602
_publ_section_title
;
Structure prediction by ZEFSAII (Michael W. Deem and Ramdas Pophale) SiO2 
 PCOD9026602
Probable space group: P -1
;
_chemical_formula_sum "Si O2"
_cell_formula_units_Z 14
_cell_length_a 11.476683
_cell_length_b 5.335722
_cell_length_c 14.059007
_cell_angle_alpha 135.127595
_cell_angle_beta 114.570917
_cell_angle_gamma 73.938370
_cell_volume 552.187130
_symmetry_space_group_name_H-M "P -1"
_symmetry_group_IT_number 2
_symmetry_cell_setting 'triclinic'
loop_
_space_group_symop_operation_xyz
x,y,z
-x,-y,-z
loop_
_atom_site_type_symbol
_atom_site_label
_atom_site_fract_x
_atom_site_fract_y
_atom_site_fract_z
Si Si1 0.691127 0.649659 0.627412
Si Si2 0.937686 0.640822 0.837502
Si Si3 0.215368 0.400656 0.049787
Si Si4 0.648957 0.576483 0.081479
Si Si5 0.706913 0.401218 0.357448
Si Si6 0.431215 0.635069 0.302778
Si Si7 0.147717 0.629914 0.767546
O O1 0.822399 0.720251 0.748248
O O2 0.720325 0.435241 0.484039
O O3 0.604022 0.442251 0.619977
O O4 0.624512 0.006448 0.663977
O O5 0.873990 0.445895 0.855663
O O6 0.043258 0.461174 0.758501
O O7 0.000000 0.000000 0.000000
O O8 0.349277 0.337091 0.134938
O O9 0.268941 0.579623 0.020122
O O10 0.138673 0.054136 0.890767
O O11 0.712855 0.434642 0.159043
O O12 0.670953 0.998866 0.208189
O O13 0.500000 0.500000 0.000000
O O14 0.583090 0.621686 0.344938
O O15 0.836403 0.497716 0.368972
#
# Coordination Sequence:
#
# PCOD9026602 Si02
#       7
#     2   2   2   2   2   2   2
#     4  11  26  45  69 102 135 187 228 283 342 408
#     4   9  21  45  69  97 132 173 237 282 337 404
#     4   9  21  39  63  99 127 173 228 280 337 395
#     4  11  23  38  68  97 140 177 221 280 347 404
#     4  11  25  42  64 100 141 176 227 276 345 416
#     4  11  24  42  71 100 136 182 228 282 344 409
#     4  10  22  41  64  99 131 181 221 284 343 399
#
# _framework density 25.353726999999999
#
# number of rings (size 3 to 8) (size 9 to 14) (size 15 to 20)
#    0.000    1.714    0.000    2.571   12.000    3.429 
#   12.857    0.714    0.000    0.000    0.000    0.000 
#    0.000    0.000    0.000    0.000    0.000    0.000 
#
# Total GULP energy -78256.341289 kJ/mol
# GULP energy per Si atom -5589.738663 kJ/mol
# Density = 2.529602 g / cm^3
# Si number density = 25.353727 Si / 1000 Ang^3
#
#
#
# Elastic Constant Matrix: (Units=GPa)
#
#
# Indices 1 2 3 4 5 6 
#
# 1 144.8259 39.7149 71.8858 -18.8992 -36.5020 2.7535
# 2 39.7149 101.3527 39.0913 -16.1866 -13.1416 -0.5842
# 3 71.8858 39.0913 125.3381 -25.0238 -35.0809 4.3169
# 4 -18.8992 -16.1866 -25.0238 32.1510 13.1746 -3.5127
# 5 -36.5020 -13.1416 -35.0809 13.1746 55.2622 -17.0807
# 6 2.7535 -0.5842 4.3169 -3.5127 -17.0807 34.3040
#
#
#
# Elastic Compliance Matrix: (Units=1/GPa)
#
#
# Indices 1 2 3 4 5 6 
#
# 1 0.010668 -0.001884 -0.004298 0.000398 0.004350 0.001859
# 2 -0.001884 0.011922 -0.002046 0.003511 -0.000290 0.000827
# 3 -0.004298 -0.002046 0.013260 0.005159 0.004261 0.001292
# 4 0.000398 0.003511 0.005159 0.039132 -0.004621 0.001085
# 5 0.004350 -0.000290 0.004261 -0.004621 0.028702 0.012928
# 6 0.001859 0.000827 0.001292 0.001085 0.012928 0.035402
#
#
# Mechanical properties :
#
#
# Convention : Reuss Voigt Hill
#
# Bulk Modulus (GPa) = 51.56561 74.76677 63.16619
# Shear Modulus (GPa) = 30.86296 39.06507 34.96402
#
# Velocity S-wave (km/s) = 3.49276 3.92956 3.71758
# Velocity P-wave (km/s) = 6.05380 7.08111 6.58751
#
# Compressibility (1/GPa) = 0.01939277
#
# Stress axis : x y z
#
# Youngs Moduli (GPa) = 93.74136 83.87831 75.41643
#
# Poissons Ratio (x) = 0.15805 0.32412
# Poissons Ratio (y) = 0.17663 0.15432
# Poissons Ratio (z) = 0.40288 0.17164
#
# Static dielectric constant tensor:
#      x y z
#    x 2.037320 0.011830 -0.022880 
#    y 0.011830 2.036310 0.065460 
#    z -0.022880 0.065460 2.060940 
# 
# From -- ./inp_files/84354.got.cif
#   From: 2010.05.17/outbox.cif.g08.bks.cpg/sg2_43_cif.got.tgz:84354.got - 2010.06.03 11:33:40.
