data_PCOD9026890
_publ_section_title
;
Structure prediction by ZEFSAII (Michael W. Deem and Ramdas Pophale) SiO2 
 PCOD9026890
Probable space group: P -1
;
_chemical_formula_sum "Si O2"
_cell_formula_units_Z 14
_cell_length_a 9.362449
_cell_length_b 13.125496
_cell_length_c 5.312767
_cell_angle_alpha 69.234769
_cell_angle_beta 108.669548
_cell_angle_gamma 121.448390
_cell_volume 513.261631
_symmetry_space_group_name_H-M "P -1"
_symmetry_group_IT_number 2
_symmetry_cell_setting 'triclinic'
loop_
_space_group_symop_operation_xyz
x,y,z
-x,-y,-z
loop_
_atom_site_type_symbol
_atom_site_label
_atom_site_fract_x
_atom_site_fract_y
_atom_site_fract_z
Si Si1 0.694775 0.849231 0.815111
Si Si2 0.771774 0.279528 0.953848
Si Si3 0.122296 0.142228 0.608045
Si Si4 0.003803 0.696005 0.336752
Si Si5 0.278437 0.526612 0.475087
Si Si6 0.611420 0.409300 0.013052
Si Si7 0.257617 0.920890 0.567539
O O1 0.774708 0.823885 0.625360
O O2 0.552169 0.720675 0.947430
O O3 0.628757 0.945775 0.597041
O O4 0.811792 0.912651 0.075737
O O5 0.759188 0.366099 0.089834
O O6 0.690101 0.139296 0.120692
O O7 0.688862 0.331584 0.651934
O O8 0.959050 0.312333 0.928117
O O9 0.124953 0.255411 0.674038
O O10 0.921178 0.072634 0.480310
O O11 0.919589 0.564303 0.533677
O O12 0.181857 0.809152 0.423968
O O13 0.356012 0.513599 0.787900
O O14 0.361023 0.509695 0.286735
#
# Coordination Sequence:
#
# PCOD9026890 Si02
#       7
#     2   2   2   2   2   2   2
#     4  12  23  47  64  91 136 170 211 262 309 388
#     4  10  22  41  66 102 126 165 210 263 329 376
#     4  10  25  41  67  96 124 169 218 264 316 361
#     4  10  23  39  68  98 127 160 218 269 321 359
#     4  10  23  43  63  97 132 164 211 261 319 381
#     4  10  25  41  66  92 133 177 204 247 331 382
#     4  10  24  38  70 100 121 166 214 271 323 362
#
# _framework density 27.276539
#
# number of rings (size 3 to 8) (size 9 to 14) (size 15 to 20)
#    1.714    0.000    0.000    3.857    4.000    1.714 
#    0.000    5.714    0.000    0.000    0.000    0.000 
#    0.000    0.000    0.000    0.000    0.000    0.000 
#
# Total GULP energy -77973.579286 kJ/mol
# GULP energy per Si atom -5569.541378 kJ/mol
# Density = 2.721446 g / cm^3
# Si number density = 27.276539 Si / 1000 Ang^3
#
#
#
# Elastic Constant Matrix: (Units=GPa)
#
#
# Indices 1 2 3 4 5 6 
#
# 1 91.0863 16.5006 32.8714 9.9838 -34.9690 -7.0209
# 2 16.5006 73.4588 15.1483 -3.3541 -17.4761 20.7825
# 3 32.8714 15.1483 130.0374 8.5817 -32.0318 8.9438
# 4 9.9838 -3.3541 8.5817 43.6720 -4.2876 -4.7239
# 5 -34.9690 -17.4761 -32.0318 -4.2876 56.1070 -5.1967
# 6 -7.0209 20.7825 8.9438 -4.7239 -5.1967 32.3628
#
#
#
# Elastic Compliance Matrix: (Units=1/GPa)
#
#
# Indices 1 2 3 4 5 6 
#
# 1 0.016387 -0.003415 -0.002021 -0.001975 0.008529 0.007388
# 2 -0.003415 0.018441 0.000122 0.001133 0.002658 -0.012025
# 3 -0.002021 0.000122 0.009391 -0.001293 0.003792 -0.002692
# 4 -0.001975 0.001133 -0.001293 0.024039 0.000479 0.002787
# 5 0.008529 0.002658 0.003792 0.000479 0.026484 0.003418
# 6 0.007388 -0.012025 -0.002692 0.002787 0.003418 0.041924
#
#
# Mechanical properties :
#
#
# Convention : Reuss Voigt Hill
#
# Bulk Modulus (GPa) = 29.77086 47.06923 38.42005
# Shear Modulus (GPa) = 31.54701 41.76585 36.65643
#
# Velocity S-wave (km/s) = 3.40452 3.91730 3.66988
# Velocity P-wave (km/s) = 5.13736 6.14444 5.66333
#
# Compressibility (1/GPa) = 0.03358989
#
# Stress axis : x y z
#
# Youngs Moduli (GPa) = 61.02359 54.22654 106.48139
#
# Poissons Ratio (x) = 0.18521 0.21525
# Poissons Ratio (y) = 0.20842 -0.01300
# Poissons Ratio (z) = 0.12336 -0.00662
#
# Static dielectric constant tensor:
#      x y z
#    x 2.248440 -0.038890 0.008000 
#    y -0.038890 2.135380 0.025900 
#    z 0.008000 0.025900 2.240100 
# 
# From -- ./inp_files/75537.got.cif
#   From: 2010.05.17/outbox.cif.g08.bks.cpg/sg2_38_cif.got.tgz:75537.got - 2010.06.03 11:33:40.
