data_PCOD9026872
_publ_section_title
;
Structure prediction by ZEFSAII (Michael W. Deem and Ramdas Pophale) SiO2 
 PCOD9026872
Probable space group: P -1
;
_chemical_formula_sum "Si O2"
_cell_formula_units_Z 14
_cell_length_a 5.220640
_cell_length_b 9.862011
_cell_length_c 20.801649
_cell_angle_alpha 35.587199
_cell_angle_beta 64.913980
_cell_angle_gamma 71.605697
_cell_volume 563.596076
_symmetry_space_group_name_H-M "P -1"
_symmetry_group_IT_number 2
_symmetry_cell_setting 'triclinic'
loop_
_space_group_symop_operation_xyz
x,y,z
-x,-y,-z
loop_
_atom_site_type_symbol
_atom_site_label
_atom_site_fract_x
_atom_site_fract_y
_atom_site_fract_z
Si Si1 0.085450 0.058490 0.541836
Si Si2 0.605944 0.383903 0.349223
Si Si3 0.207054 0.865838 0.322964
Si Si4 0.210553 0.884942 0.101070
Si Si5 0.164939 0.329529 0.669031
Si Si6 0.936674 0.648528 0.118573
Si Si7 0.180664 0.386576 0.080555
O O1 0.288973 0.292204 0.431552
O O2 0.871471 0.083121 0.613958
O O3 0.267167 0.830105 0.620804
O O4 0.000000 0.000000 0.500000
O O5 0.752780 0.450533 0.376481
O O6 0.654753 0.598564 0.211196
O O7 0.528076 0.783523 0.320173
O O8 0.970334 0.690546 0.380317
O O9 0.197965 0.109769 0.190960
O O10 0.085253 0.808846 0.211253
O O11 0.161943 0.660948 0.147011
O O12 0.500000 0.000000 0.000000
O O13 0.021476 0.103898 0.017171
O O14 0.011801 0.458997 0.133493
O O15 0.500000 0.500000 0.000000
O O16 0.000000 0.500000 0.000000
#
# Coordination Sequence:
#
# PCOD9026872 Si02
#       7
#     2   2   2   2   2   2   2
#     4  11  27  48  80 104 145 194 259 309 372 452
#     4  10  25  49  72 105 142 194 254 305 373 438
#     4  12  27  50  73 112 153 192 251 311 370 444
#     4  10  23  40  70 103 145 192 242 292 358 450
#     4  11  28  47  76 110 154 195 244 311 375 437
#     4  10  22  41  66 100 138 193 239 298 357 434
#     4  12  26  43  69 103 150 196 238 294 370 439
#
# _framework density 24.840488000000001
#
# number of rings (size 3 to 8) (size 9 to 14) (size 15 to 20)
#    0.000    1.143    1.429    2.571   16.000    3.429 
#    0.000    0.000    0.000    0.000    0.000    0.000 
#    0.000    0.000    0.000    0.000    0.000    0.000 
#
# Total GULP energy -78099.688945 kJ/mol
# GULP energy per Si atom -5578.549210 kJ/mol
# Density = 2.478395 g / cm^3
# Si number density = 24.840488 Si / 1000 Ang^3
#
#
#
# Elastic Constant Matrix: (Units=GPa)
#
#
# Indices 1 2 3 4 5 6 
#
# 1 147.1548 65.4454 48.2972 19.9621 -13.9114 12.0942
# 2 65.4454 169.1373 43.6604 12.2080 -10.9980 11.7268
# 3 48.2972 43.6604 129.5312 14.7827 -7.9672 16.5999
# 4 19.9621 12.2080 14.7827 39.2268 -1.7735 -4.3470
# 5 -13.9114 -10.9980 -7.9672 -1.7735 36.8576 3.0488
# 6 12.0942 11.7268 16.5999 -4.3470 3.0488 45.6662
#
#
#
# Elastic Compliance Matrix: (Units=1/GPa)
#
#
# Indices 1 2 3 4 5 6 
#
# 1 0.009391 -0.002647 -0.001884 -0.003317 0.002320 -0.001593
# 2 -0.002647 0.007430 -0.001287 -0.000531 0.000985 -0.000856
# 3 -0.001884 -0.001287 0.009595 -0.002536 0.001103 -0.002973
# 4 -0.003317 -0.000531 -0.002536 0.028783 -0.000966 0.004741
# 5 0.002320 0.000985 0.001103 -0.000966 0.028764 -0.003281
# 6 -0.001593 -0.000856 -0.002973 0.004741 -0.003281 0.024291
#
#
# Mechanical properties :
#
#
# Convention : Reuss Voigt Hill
#
# Bulk Modulus (GPa) = 67.65423 84.51437 76.08430
# Shear Modulus (GPa) = 40.05858 43.57815 41.81837
#
# Velocity S-wave (km/s) = 4.02012 4.19300 4.10747
# Velocity P-wave (km/s) = 6.98878 7.58541 7.29320
#
# Compressibility (1/GPa) = 0.01478104
#
# Stress axis : x y z
#
# Youngs Moduli (GPa) = 106.48202 134.58305 104.22415
#
# Poissons Ratio (x) = 0.35621 0.19637
# Poissons Ratio (y) = 0.28183 0.13412
# Poissons Ratio (z) = 0.20062 0.17318
#
# Static dielectric constant tensor:
#      x y z
#    x 4.912350 -2.948950 -4.118730 
#    y -2.948950 4.988060 4.249150 
#    z -4.118730 4.249150 8.327940 
# 
# From -- ./inp_files/582152.got.cif
#   From: 2010.05.17/outbox.cif.g08.bks.cpg/sg2_292_cif.got.tgz:582152.got - 2010.06.03 11:33:40.
