data_PCOD9026970
_publ_section_title
;
Structure prediction by ZEFSAII (Michael W. Deem and Ramdas Pophale) SiO2 
 PCOD9026970
Probable space group: P -1
;
_chemical_formula_sum "Si O2"
_cell_formula_units_Z 16
_cell_length_a 14.938544
_cell_length_b 14.246594
_cell_length_c 8.907679
_cell_angle_alpha 150.080314
_cell_angle_beta 130.786067
_cell_angle_gamma 45.022108
_cell_volume 664.438852
_symmetry_space_group_name_H-M "P -1"
_symmetry_group_IT_number 2
_symmetry_cell_setting 'triclinic'
loop_
_space_group_symop_operation_xyz
x,y,z
-x,-y,-z
loop_
_atom_site_type_symbol
_atom_site_label
_atom_site_fract_x
_atom_site_fract_y
_atom_site_fract_z
Si Si1 0.814289 0.853849 0.196551
Si Si2 0.280652 0.452058 0.799575
Si Si3 0.380393 0.350005 0.214176
Si Si4 0.094664 0.285679 0.238215
Si Si5 0.954287 0.111079 0.338419
Si Si6 0.475647 0.819332 0.143593
Si Si7 0.283523 0.639957 0.754082
Si Si8 0.235004 0.727930 0.382981
O O1 0.913019 0.868675 0.451788
O O2 0.730339 0.089452 0.391622
O O3 0.729985 0.740059 0.018740
O O4 0.878368 0.745930 0.957785
O O5 0.228691 0.283307 0.451143
O O6 0.417800 0.366170 0.908903
O O7 0.280481 0.593265 0.857725
O O8 0.195280 0.599605 0.037949
O O9 0.381566 0.432763 0.497182
O O10 0.335840 0.563388 0.370790
O O11 0.490797 0.200535 0.024158
O O12 0.000000 0.500000 0.500000
O O13 0.049213 0.109249 0.005362
O O14 0.859098 0.279585 0.357762
O O15 0.885084 0.161015 0.492157
O O16 0.500000 0.000000 0.500000
O O17 0.340224 0.808931 0.012021
#
# Coordination Sequence:
#
# PCOD9026970 Si02
#       8
#     2   2   2   2   2   2   2   2
#     4  11  21  42  68  97 132 178 220 255 328 396
#     4  11  22  42  66  97 128 169 212 274 330 383
#     4  10  23  44  69  95 130 176 219 268 325 390
#     4  11  21  40  66  99 137 170 214 266 331 383
#     4  10  22  41  66  92 133 175 209 267 320 390
#     4  11  25  45  69  93 129 170 217 277 330 378
#     4  11  23  44  66  96 129 166 226 270 321 389
#     4   9  21  39  66  91 132 173 211 265 319 385
#
# _framework density 24.080469000000001
#
# number of rings (size 3 to 8) (size 9 to 14) (size 15 to 20)
#    0.000    1.500    1.250    4.500    1.750    2.000 
#    6.750    1.875    2.750    0.000    0.000    0.000 
#    0.000    0.000    0.000    0.000    0.000    0.000 
#
# Total GULP energy -89373.270256 kJ/mol
# GULP energy per Si atom -5585.829391 kJ/mol
# Density = 2.402566 g / cm^3
# Si number density = 24.080469 Si / 1000 Ang^3
#
#
#
# Elastic Constant Matrix: (Units=GPa)
#
#
# Indices 1 2 3 4 5 6 
#
# 1 52.9684 11.7065 30.0567 -3.8837 10.4852 12.1927
# 2 11.7065 50.8444 4.0065 -1.2890 -2.7948 2.1578
# 3 30.0567 4.0065 136.9979 4.7057 11.9175 0.1441
# 4 -3.8837 -1.2890 4.7057 38.2221 0.1776 2.1290
# 5 10.4852 -2.7948 11.9175 0.1776 36.7353 -8.8972
# 6 12.1927 2.1578 0.1441 2.1290 -8.8972 14.6480
#
#
#
# Elastic Compliance Matrix: (Units=1/GPa)
#
#
# Indices 1 2 3 4 5 6 
#
# 1 0.039451 -0.007575 -0.006842 0.007210 -0.020604 -0.045218
# 2 -0.007575 0.021365 0.000601 -0.000500 0.005131 0.006341
# 3 -0.006842 0.000601 0.008791 -0.002107 0.000666 0.006231
# 4 0.007210 -0.000500 -0.002107 0.027871 -0.004642 -0.012777
# 5 -0.020604 0.005131 0.000666 -0.004642 0.043888 0.043720
# 6 -0.045218 0.006341 0.006231 -0.012777 0.043720 0.133324
#
#
# Mechanical properties :
#
#
# Convention : Reuss Voigt Hill
#
# Bulk Modulus (GPa) = 23.82304 36.92781 30.37542
# Shear Modulus (GPa) = 15.80710 30.92382 23.36546
#
# Velocity S-wave (km/s) = 2.56486 3.58744 3.11836
# Velocity P-wave (km/s) = 4.32272 5.70334 5.06034
#
# Compressibility (1/GPa) = 0.04197617
#
# Stress axis : x y z
#
# Youngs Moduli (GPa) = 25.34764 46.80600 113.75617
#
# Poissons Ratio (x) = 0.35455 0.77828
# Poissons Ratio (y) = 0.19201 -0.06840
# Poissons Ratio (z) = 0.17342 -0.02814
#
# Static dielectric constant tensor:
#      x y z
#    x 1.930790 -0.092600 -0.022060 
#    y -0.092600 2.039320 0.015360 
#    z -0.022060 0.015360 1.941820 
# 
# From -- ./inp_files/316213.got.cif
#   From: 2010.05.17/outbox.cif.g08.bks.cpg/sg2_159_cif.got.tgz:316213.got - 2010.06.03 11:33:40.
