data_PCOD9026049
_publ_section_title
;
Structure prediction by ZEFSAII (Michael W. Deem and Ramdas Pophale) SiO2 
 PCOD9026049
Probable space group: P -1
;
_chemical_formula_sum "Si O2"
_cell_formula_units_Z 12
_cell_length_a 18.587606
_cell_length_b 18.720208
_cell_length_c 7.015094
_cell_angle_alpha 37.665381
_cell_angle_beta 140.801004
_cell_angle_gamma 158.199737
_cell_volume 545.265348
_symmetry_space_group_name_H-M "P -1"
_symmetry_group_IT_number 2
_symmetry_cell_setting 'triclinic'
loop_
_space_group_symop_operation_xyz
x,y,z
-x,-y,-z
loop_
_atom_site_type_symbol
_atom_site_label
_atom_site_fract_x
_atom_site_fract_y
_atom_site_fract_z
Si Si1 0.087165 0.914431 0.196692
Si Si2 0.497082 0.751452 0.746198
Si Si3 0.208925 0.049207 0.771812
Si Si4 0.873281 0.505925 0.678901
Si Si5 0.461530 0.456942 0.237297
Si Si6 0.865315 0.691433 0.566426
O O1 0.008849 0.717887 0.407455
O O2 0.946168 0.832352 0.251515
O O3 0.316952 0.095376 0.341702
O O4 0.098566 0.996718 0.852006
O O5 0.318901 0.677303 0.456790
O O6 0.607347 0.866727 0.929679
O O7 0.419209 0.553000 0.012501
O O8 0.302337 0.230422 0.456765
O O9 0.050315 0.842611 0.766253
O O10 0.814097 0.524914 0.712796
O O11 0.000000 0.500000 0.000000
O O12 0.671874 0.588302 0.468927
O O13 0.500000 0.500000 0.000000
#
# Coordination Sequence:
#
# PCOD9026049 Si02
#       6
#     2   2   2   2   2   2
#     4   8  22  41  62  93 128 161 212 253 317 363
#     4  10  22  41  61  94 129 167 208 252 315 372
#     4  10  24  40  63  96 135 163 207 260 310 381
#     4  10  22  44  69  88 123 169 216 264 313 370
#     4  12  22  38  66  96 132 170 203 251 316 386
#     4  10  23  40  64  92 128 163 212 252 322 363
#
# _framework density 22.007633999999999
#
# number of rings (size 3 to 8) (size 9 to 14) (size 15 to 20)
#    2.000    0.000    1.667    1.500    2.333    5.333 
#    3.000    1.667    0.000    0.000    0.000    0.000 
#    0.000    0.000    0.000    0.000    0.000    0.000 
#
# Total GULP energy -66867.302829 kJ/mol
# GULP energy per Si atom -5572.275236 kJ/mol
# Density = 2.195754 g / cm^3
# Si number density = 22.007634 Si / 1000 Ang^3
#
#
#
# Elastic Constant Matrix: (Units=GPa)
#
#
# Indices 1 2 3 4 5 6 
#
# 1 37.9148 7.3550 32.0628 6.2627 -20.6525 5.3656
# 2 7.3550 122.8209 56.5486 33.9949 -4.8849 5.5301
# 3 32.0628 56.5486 84.8391 34.6662 2.7146 11.4969
# 4 6.2627 33.9949 34.6662 44.7664 4.5674 -11.1973
# 5 -20.6525 -4.8849 2.7146 4.5674 36.2474 2.5086
# 6 5.3656 5.5301 11.4969 -11.1973 2.5086 38.2935
#
#
#
# Elastic Compliance Matrix: (Units=1/GPa)
#
#
# Indices 1 2 3 4 5 6 
#
# 1 0.114574 0.023520 -0.064038 0.007619 0.072475 -0.002744
# 2 0.023520 0.017517 -0.019024 -0.004326 0.017908 -0.002552
# 3 -0.064038 -0.019024 0.060115 -0.021552 -0.040144 -0.010000
# 4 0.007619 -0.004326 -0.021552 0.046362 -0.001833 0.019704
# 5 0.072475 0.017908 -0.040144 -0.001833 0.074957 -0.006135
# 6 -0.002744 -0.002552 -0.010000 0.019704 -0.006135 0.036033
#
#
# Mechanical properties :
#
#
# Convention : Reuss Voigt Hill
#
# Bulk Modulus (GPa) = 13.67580 48.61195 31.14388
# Shear Modulus (GPa) = 10.14167 33.83537 21.98852
#
# Velocity S-wave (km/s) = 2.14901 3.92527 3.16433
# Velocity P-wave (km/s) = 3.51927 6.53302 5.24717
#
# Compressibility (1/GPa) = 0.07312184
#
# Stress axis : x y z
#
# Youngs Moduli (GPa) = 8.72800 57.08746 16.63486
#
# Poissons Ratio (x) = -1.34270 1.06526
# Poissons Ratio (y) = -0.20528 0.31646
# Poissons Ratio (z) = 0.55892 1.08604
#
# Static dielectric constant tensor:
#      x y z
#    x 1.853700 -0.022940 -0.054550 
#    y -0.022940 1.891650 0.050760 
#    z -0.054550 0.050760 1.815310 
# 
# From -- ./inp_files/355364.got.cif
#   From: 2010.05.17/outbox.cif.g08.bks.cpg/sg2_178_cif.got.tgz:355364.got - 2010.06.03 11:33:40.
