data_PCOD9026138
_publ_section_title
;
Structure prediction by ZEFSAII (Michael W. Deem and Ramdas Pophale) SiO2 
 PCOD9026138
Probable space group: P -1
;
_chemical_formula_sum "Si O2"
_cell_formula_units_Z 16
_cell_length_a 11.527347
_cell_length_b 9.144158
_cell_length_c 10.613372
_cell_angle_alpha 116.789508
_cell_angle_beta 128.041079
_cell_angle_gamma 54.409344
_cell_volume 709.046781
_symmetry_space_group_name_H-M "P -1"
_symmetry_group_IT_number 2
_symmetry_cell_setting 'triclinic'
loop_
_space_group_symop_operation_xyz
x,y,z
-x,-y,-z
loop_
_atom_site_type_symbol
_atom_site_label
_atom_site_fract_x
_atom_site_fract_y
_atom_site_fract_z
Si Si1 0.105570 0.019410 0.266715
Si Si2 0.488048 0.820209 0.960925
Si Si3 0.423020 0.387668 0.826206
Si Si4 0.216590 0.421953 0.085988
Si Si5 0.190713 0.732725 0.678787
Si Si6 0.678447 0.474228 0.565735
Si Si7 0.530074 0.175456 0.567834
Si Si8 0.048174 0.234393 0.055299
O O1 0.989643 0.140799 0.347091
O O2 0.109656 0.145553 0.199460
O O3 0.287427 0.897159 0.391139
O O4 0.025422 0.893933 0.106459
O O5 0.602572 0.664777 0.881428
O O6 0.310407 0.823356 0.837905
O O7 0.571979 0.761388 0.130359
O O8 0.500000 0.000000 0.000000
O O9 0.254639 0.539913 0.720469
O O10 0.529921 0.280216 0.737633
O O11 0.500000 0.500000 0.000000
O O12 0.209853 0.546810 0.248315
O O13 0.172165 0.265393 0.053250
O O14 0.093546 0.557389 0.953754
O O15 0.232427 0.674280 0.538905
O O16 0.500000 0.500000 0.500000
O O17 0.622564 0.676964 0.551743
O O18 0.500000 0.000000 0.500000
#
# Coordination Sequence:
#
# PCOD9026138 Si02
#       8
#     2   2   2   2   2   2   2   2
#     4  11  23  41  68  91 130 159 222 265 323 375
#     4  11  22  34  64  93 127 160 215 272 310 370
#     4   9  22  39  63  93 128 168 222 256 317 387
#     4  11  22  42  61  93 132 164 216 257 329 378
#     4  10  22  41  62  94 122 172 214 257 323 386
#     4  11  22  42  67  89 129 178 210 253 324 402
#     4  11  25  42  67  96 129 173 217 268 322 387
#     4  10  24  38  65  95 124 168 205 275 319 370
#
# _framework density 22.565508000000001
#
# number of rings (size 3 to 8) (size 9 to 14) (size 15 to 20)
#    0.000    1.500    1.250    3.000   14.000    0.000 
#    0.000   10.625    0.000    0.000    0.000    0.000 
#    0.000    0.000    0.000    0.000    0.000    0.000 
#
# Total GULP energy -89376.064498 kJ/mol
# GULP energy per Si atom -5586.004031 kJ/mol
# Density = 2.251415 g / cm^3
# Si number density = 22.565508 Si / 1000 Ang^3
#
#
#
# Elastic Constant Matrix: (Units=GPa)
#
#
# Indices 1 2 3 4 5 6 
#
# 1 90.8792 43.6650 7.6549 1.2139 0.5471 -14.2877
# 2 43.6650 94.3741 10.4967 3.7721 -8.4743 0.3415
# 3 7.6549 10.4967 34.8145 -5.5986 -3.2561 -10.1262
# 4 1.2139 3.7721 -5.5986 18.0335 5.9647 -4.8605
# 5 0.5471 -8.4743 -3.2561 5.9647 28.3911 2.4148
# 6 -14.2877 0.3415 -10.1262 -4.8605 2.4148 59.3536
#
#
#
# Elastic Compliance Matrix: (Units=1/GPa)
#
#
# Indices 1 2 3 4 5 6 
#
# 1 0.015223 -0.007514 0.000259 0.002886 -0.003464 0.004129
# 2 -0.007514 0.015418 -0.004592 -0.007076 0.006005 -0.003505
# 3 0.000259 -0.004592 0.034247 0.013804 -0.000952 0.007101
# 4 0.002886 -0.007076 0.013804 0.068785 -0.015832 0.009368
# 5 -0.003464 0.006005 -0.000952 -0.015832 0.040637 -0.003981
# 6 0.004129 -0.003505 0.007101 0.009368 -0.003981 0.020003
#
#
# Mechanical properties :
#
#
# Convention : Reuss Voigt Hill
#
# Bulk Modulus (GPa) = 24.27421 38.18898 31.23160
# Shear Modulus (GPa) = 21.57603 31.70572 26.64088
#
# Velocity S-wave (km/s) = 3.09552 3.75247 3.43972
# Velocity P-wave (km/s) = 4.85355 5.97788 5.44481
#
# Compressibility (1/GPa) = 0.04119598
#
# Stress axis : x y z
#
# Youngs Moduli (GPa) = 65.68813 64.85907 29.19930
#
# Poissons Ratio (x) = 0.48734 -0.00757
# Poissons Ratio (y) = 0.49357 0.13409
# Poissons Ratio (z) = -0.01704 0.29784
#
# Static dielectric constant tensor:
#      x y z
#    x 1.878260 0.043660 -0.021650 
#    y 0.043660 1.796050 -0.059980 
#    z -0.021650 -0.059980 1.812120 
# 
# From -- ./inp_files/358754.got.cif
#   From: 2010.05.17/outbox.cif.g08.bks.cpg/sg2_180_cif.got.tgz:358754.got - 2010.06.03 11:33:40.
