data_PCOD9026462
_publ_section_title
;
Structure prediction by ZEFSAII (Michael W. Deem and Ramdas Pophale) SiO2 
 PCOD9026462
Probable space group: P -1
;
_chemical_formula_sum "Si O2"
_cell_formula_units_Z 16
_cell_length_a 7.348394
_cell_length_b 15.815344
_cell_length_c 19.259946
_cell_angle_alpha 154.410571
_cell_angle_beta 133.981234
_cell_angle_gamma 46.338861
_cell_volume 680.716291
_symmetry_space_group_name_H-M "P -1"
_symmetry_group_IT_number 2
_symmetry_cell_setting 'triclinic'
loop_
_space_group_symop_operation_xyz
x,y,z
-x,-y,-z
loop_
_atom_site_type_symbol
_atom_site_label
_atom_site_fract_x
_atom_site_fract_y
_atom_site_fract_z
Si Si1 0.967878 0.233959 0.670315
Si Si2 0.992145 0.834606 0.589083
Si Si3 0.431334 0.433780 0.717089
Si Si4 0.934838 0.215774 0.068817
Si Si5 0.365159 0.482831 0.378567
Si Si6 0.272414 0.871925 0.838377
Si Si7 0.214074 0.550606 0.934583
Si Si8 0.854821 0.260166 0.807335
O O1 0.134237 0.341904 0.744638
O O2 0.672811 0.351290 0.670705
O O3 0.040387 0.258018 0.788890
O O4 0.000000 0.000000 0.500000
O O5 0.200182 0.708183 0.496882
O O6 0.134686 0.883330 0.734023
O O7 0.788163 0.694482 0.447552
O O8 0.848780 0.037215 0.664709
O O9 0.298027 0.668414 0.858844
O O10 0.579782 0.370692 0.783674
O O11 0.835655 0.290478 0.021170
O O12 0.166380 0.334828 0.228481
O O13 0.056463 0.980336 0.917304
O O14 0.500000 0.500000 0.500000
O O15 0.579048 0.361089 0.292331
O O16 0.500000 0.000000 0.000000
O O17 0.500000 0.500000 0.000000
O O18 0.052645 0.642503 0.027812
#
# Coordination Sequence:
#
# PCOD9026462 Si02
#       8
#     2   2   2   2   2   2   2   2
#     4  10  25  37  52  77 123 154 188 232 273 326
#     4  10  17  31  56  80 113 158 185 229 286 328
#     4   9  21  34  50  80 119 150 185 228 271 336
#     4  10  18  31  56  81 108 149 187 225 283 335
#     4   8  17  30  48  78 117 134 184 245 278 321
#     4   9  17  30  49  87 114 137 192 247 277 324
#     4  12  22  36  57  84 119 150 186 228 276 345
#     4  10  21  34  52  79 120 149 190 223 278 333
#
# _framework density 23.504653000000001
#
# number of rings (size 3 to 8) (size 9 to 14) (size 15 to 20)
#    0.750    1.500    2.500    0.750    5.250    0.000 
#    0.000    0.000    0.000    0.000    0.000   28.000 
#    3.750    0.000    0.000    0.000    0.000    0.000 
#
# Total GULP energy -89136.881559 kJ/mol
# GULP energy per Si atom -5571.055097 kJ/mol
# Density = 2.345116 g / cm^3
# Si number density = 23.504653 Si / 1000 Ang^3
#
#
#
# Elastic Constant Matrix: (Units=GPa)
#
#
# Indices 1 2 3 4 5 6 
#
# 1 52.4855 16.3170 15.5073 11.2614 -15.2837 -20.2572
# 2 16.3170 127.3809 50.9114 10.9587 -7.0092 -17.1107
# 3 15.5073 50.9114 100.9413 16.3787 -22.9370 -12.7033
# 4 11.2614 10.9587 16.3787 59.8069 -3.9712 -14.6340
# 5 -15.2837 -7.0092 -22.9370 -3.9712 30.2092 5.6030
# 6 -20.2572 -17.1107 -12.7033 -14.6340 5.6030 34.3229
#
#
#
# Elastic Compliance Matrix: (Units=1/GPa)
#
#
# Indices 1 2 3 4 5 6 
#
# 1 0.028320 -0.001409 0.001039 -0.001148 0.012054 0.013940
# 2 -0.001409 0.010384 -0.005359 0.000371 -0.002878 0.002990
# 3 0.001039 -0.005359 0.015336 -0.002515 0.010440 0.000842
# 4 -0.001148 0.000371 -0.002515 0.019179 -0.001171 0.006945
# 5 0.012054 -0.002878 0.010440 -0.001171 0.046022 0.001531
# 6 0.013940 0.002990 0.000842 0.006945 0.001531 0.041875
#
#
# Mechanical properties :
#
#
# Convention : Reuss Voigt Hill
#
# Bulk Modulus (GPa) = 23.48283 49.58653 36.53468
# Shear Modulus (GPa) = 26.77122 38.07260 32.42191
#
# Velocity S-wave (km/s) = 3.37853 4.02903 3.71803
# Velocity P-wave (km/s) = 5.02312 6.54113 5.83173
#
# Compressibility (1/GPa) = 0.04258431
#
# Stress axis : x y z
#
# Youngs Moduli (GPa) = 35.31036 96.30136 65.20564
#
# Poissons Ratio (x) = 0.13565 -0.06777
# Poissons Ratio (y) = 0.04974 0.34942
# Poissons Ratio (z) = -0.03670 0.51606
#
# Static dielectric constant tensor:
#      x y z
#    x 2.031320 -0.013730 -0.106200 
#    y -0.013730 1.911390 0.016190 
#    z -0.106200 0.016190 1.943910 
# 
# From -- ./inp_files/320574.got.cif
#   From: 2010.05.17/outbox.cif.g08.bks.cpg/sg2_161_cif.got.tgz:320574.got - 2010.06.03 11:33:40.
