data_PCOD9026648
_publ_section_title
;
Structure prediction by ZEFSAII (Michael W. Deem and Ramdas Pophale) SiO2 
 PCOD9026648
Probable space group: P -1
;
_chemical_formula_sum "Si O2"
_cell_formula_units_Z 16
_cell_length_a 26.489421
_cell_length_b 26.224710
_cell_length_c 7.599588
_cell_angle_alpha 137.918081
_cell_angle_beta 138.336939
_cell_angle_gamma 11.440691
_cell_volume 694.107877
_symmetry_space_group_name_H-M "P -1"
_symmetry_group_IT_number 2
_symmetry_cell_setting 'triclinic'
loop_
_space_group_symop_operation_xyz
x,y,z
-x,-y,-z
loop_
_atom_site_type_symbol
_atom_site_label
_atom_site_fract_x
_atom_site_fract_y
_atom_site_fract_z
Si Si1 0.924546 0.346606 0.916328
Si Si2 0.753954 0.681198 0.276252
Si Si3 0.099864 0.487511 0.280693
Si Si4 0.381955 0.053787 0.581213
Si Si5 0.723451 0.225818 0.341586
Si Si6 0.893258 0.359216 0.469050
Si Si7 0.648339 0.184143 0.741944
Si Si8 0.611493 0.198631 0.253781
O O1 0.906750 0.327588 0.628274
O O2 0.201752 0.051995 0.943320
O O3 0.681162 0.546209 0.896905
O O4 0.865949 0.490280 0.087593
O O5 0.507933 0.915874 0.366671
O O6 0.000000 0.500000 0.500000
O O7 0.640562 0.831722 0.194072
O O8 0.394399 0.193275 0.347717
O O9 0.073997 0.582550 0.326763
O O10 0.899403 0.702852 0.466636
O O11 0.000000 0.500000 0.000000
O O12 0.500000 0.500000 0.500000
O O13 0.696266 0.185856 0.316115
O O14 0.691816 0.221540 0.051470
O O15 0.000000 0.000000 0.500000
O O16 0.611743 0.601936 0.306814
O O17 0.122944 0.090170 0.301697
O O18 0.629710 0.201537 0.521524
#
# Coordination Sequence:
#
# PCOD9026648 Si02
#       8
#     2   2   2   2   2   2   2   2
#     4  10  23  41  67  89 129 180 223 276 331 399
#     4  11  24  42  61  87 129 172 232 295 339 398
#     4  12  24  40  60  90 126 172 231 286 335 404
#     4  11  25  38  56  86 120 164 226 288 351 392
#     4  12  26  45  74 106 137 172 212 274 336 412
#     4  10  22  41  65  89 131 182 216 280 343 386
#     4  10  23  45  67 100 138 174 223 269 335 412
#     4  10  24  44  68 103 133 176 225 263 337 413
#
# _framework density 23.051172000000001
#
# number of rings (size 3 to 8) (size 9 to 14) (size 15 to 20)
#    0.000    1.250    1.250    3.375    3.500    6.000 
#    0.000    0.000    0.000    0.000    0.000    0.000 
#    0.000    0.000    0.000    0.000    0.000    0.000 
#
# Total GULP energy -89295.497741 kJ/mol
# GULP energy per Si atom -5580.968609 kJ/mol
# Density = 2.299871 g / cm^3
# Si number density = 23.051172 Si / 1000 Ang^3
#
#
#
# Elastic Constant Matrix: (Units=GPa)
#
#
# Indices 1 2 3 4 5 6 
#
# 1 73.4078 -3.5040 -19.3891 -30.1065 -4.6907 25.9705
# 2 -3.5040 141.5891 12.3122 -15.7041 -0.3293 24.1946
# 3 -19.3891 12.3122 49.0836 -5.1917 1.4297 13.2210
# 4 -30.1065 -15.7041 -5.1917 -9.4866 -9.2344 62.0257
# 5 -4.6907 -0.3293 1.4297 -9.2344 35.3309 11.0101
# 6 25.9705 24.1946 13.2210 62.0257 11.0101 -13.2847
#
#
#
# Elastic Compliance Matrix: (Units=1/GPa)
#
#
# Indices 1 2 3 4 5 6 
#
# 1 0.011161 -0.001199 0.003098 -0.003680 -0.001066 0.004651
# 2 -0.001199 0.006979 -0.002539 -0.001434 -0.000574 0.000668
# 3 0.003098 -0.002539 0.021398 -0.004131 -0.002090 0.001709
# 4 -0.003680 -0.001434 -0.004131 0.006557 -0.003039 0.014177
# 5 -0.001066 -0.000574 -0.002090 -0.003039 0.026618 0.002660
# 6 0.004651 0.000668 0.001709 0.014177 0.002660 0.005134
#
#
# Mechanical properties :
#
#
# Convention : Reuss Voigt Hill
#
# Bulk Modulus (GPa) = 26.13794 26.99098 26.56446
# Shear Modulus (GPa) = 54.41941 20.82269 37.62105
#
# Velocity S-wave (km/s) = 4.86409 3.00880 4.04427
# Velocity P-wave (km/s) = 6.55053 4.87904 5.77558
#
# Compressibility (1/GPa) = 0.03825856
#
# Stress axis : x y z
#
# Youngs Moduli (GPa) = 89.60137 143.28127 46.73373
#
# Poissons Ratio (x) = 0.17175 -0.14479
# Poissons Ratio (y) = 0.10741 0.11866
# Poissons Ratio (z) = -0.27761 0.36380
#
# Static dielectric constant tensor:
#      x y z
#    x 1.872240 -0.006880 -0.102430 
#    y -0.006880 1.880780 0.004350 
#    z -0.102430 0.004350 1.965160 
# 
# From -- ./inp_files/358021.got.cif
#   From: 2010.05.17/outbox.cif.g08.bks.cpg/sg2_180_cif.got.tgz:358021.got - 2010.06.03 11:33:40.
