data_PCOD9026207
_publ_section_title
;
Structure prediction by ZEFSAII (Michael W. Deem and Ramdas Pophale) SiO2 
 PCOD9026207
Probable space group: P -1
;
_chemical_formula_sum "Si O2"
_cell_formula_units_Z 14
_cell_length_a 7.693536
_cell_length_b 8.479566
_cell_length_c 20.371215
_cell_angle_alpha 58.689859
_cell_angle_beta 56.493555
_cell_angle_gamma 37.174398
_cell_volume 661.125541
_symmetry_space_group_name_H-M "P -1"
_symmetry_group_IT_number 2
_symmetry_cell_setting 'triclinic'
loop_
_space_group_symop_operation_xyz
x,y,z
-x,-y,-z
loop_
_atom_site_type_symbol
_atom_site_label
_atom_site_fract_x
_atom_site_fract_y
_atom_site_fract_z
Si Si1 0.586903 0.301853 0.759413
Si Si2 0.816197 0.152707 0.331841
Si Si3 0.568032 0.965110 0.070368
Si Si4 0.108240 0.575733 0.239565
Si Si5 0.762073 0.471541 0.930029
Si Si6 0.520918 0.024810 0.330812
Si Si7 0.661944 0.216272 0.500400
O O1 0.296621 0.578318 0.728316
O O2 0.505572 0.179958 0.847018
O O3 0.737870 0.362505 0.761284
O O4 0.829574 0.094837 0.697903
O O5 0.682006 0.205438 0.420092
O O6 0.671652 0.090229 0.328357
O O7 0.918441 0.782344 0.049963
O O8 0.352448 0.256671 0.081930
O O9 0.500000 0.000000 0.000000
O O10 0.198863 0.549892 0.151677
O O11 0.755129 0.820170 0.270153
O O12 0.227186 0.303927 0.300712
O O13 0.500000 0.500000 0.000000
O O14 0.477773 0.878639 0.418738
O O15 0.500000 0.500000 0.500000
O O16 0.000000 0.000000 0.500000
#
# Coordination Sequence:
#
# PCOD9026207 Si02
#       7
#     2   2   2   2   2   2   2
#     4  10  22  41  65  91 121 160 207 255 307 369
#     4  10  22  41  63  87 121 164 204 248 307 374
#     4  12  26  43  66  95 129 168 208 258 313 373
#     4  10  22  41  65  91 121 160 207 255 307 369
#     4  12  26  43  66  95 129 168 208 258 313 373
#     4  10  22  41  63  87 121 164 204 248 307 374
#     4  12  25  38  59  90 124 158 202 258 305 356
#
# _framework density 21.176006999999998
#
# number of rings (size 3 to 8) (size 9 to 14) (size 15 to 20)
#    0.000    1.143    0.000    5.571    0.000   10.286 
#    0.000    5.714    0.000    0.000    0.000    0.000 
#    0.000    0.000    0.000    0.000    0.000    0.000 
#
# Total GULP energy -78375.553406 kJ/mol
# GULP energy per Si atom -5598.253815 kJ/mol
# Density = 2.112781 g / cm^3
# Si number density = 21.176007 Si / 1000 Ang^3
#
#
#
# Elastic Constant Matrix: (Units=GPa)
#
#
# Indices 1 2 3 4 5 6 
#
# 1 23.0771 26.3827 16.8654 7.6494 9.4795 0.6549
# 2 26.3827 146.3485 40.7084 17.7306 18.0066 12.0754
# 3 16.8654 40.7084 155.0883 13.8441 8.7008 28.0701
# 4 7.6494 17.7306 13.8441 38.2157 5.3289 1.1388
# 5 9.4795 18.0066 8.7008 5.3289 35.8607 0.5828
# 6 0.6549 12.0754 28.0701 1.1388 0.5828 30.4118
#
#
#
# Elastic Compliance Matrix: (Units=1/GPa)
#
#
# Indices 1 2 3 4 5 6 
#
# 1 0.062469 -0.008565 -0.004696 -0.005588 -0.010353 0.006798
# 2 -0.008565 0.009275 -0.000730 -0.001982 -0.001877 -0.002715
# 3 -0.004696 -0.000730 0.008668 -0.001618 -0.000132 -0.007547
# 4 -0.005588 -0.001982 -0.001618 0.028955 -0.001460 0.001345
# 5 -0.010353 -0.001877 -0.000132 -0.001460 0.031805 0.000536
# 6 0.006798 -0.002715 -0.007547 0.001345 0.000536 0.040718
#
#
# Mechanical properties :
#
#
# Convention : Reuss Voigt Hill
#
# Bulk Modulus (GPa) = 19.07275 54.71411 36.89343
# Shear Modulus (GPa) = 21.99260 36.93480 29.46370
#
# Velocity S-wave (km/s) = 3.22617 4.18087 3.73416
# Velocity P-wave (km/s) = 4.78580 7.01428 6.00433
#
# Compressibility (1/GPa) = 0.05243081
#
# Stress axis : x y z
#
# Youngs Moduli (GPa) = 16.00791 107.81500 115.36897
#
# Poissons Ratio (x) = 0.92348 0.54174
# Poissons Ratio (y) = 0.13711 0.08416
# Poissons Ratio (z) = 0.07517 0.07865
#
# Static dielectric constant tensor:
#      x y z
#    x 1.767250 0.005050 0.002920 
#    y 0.005050 1.742370 0.007160 
#    z 0.002920 0.007160 1.873010 
# 
# From -- ./inp_files/98140.got.cif
#   From: 2010.05.17/outbox.cif.g08.bks.cpg/sg2_50_cif.got.tgz:98140.got - 2010.06.03 11:33:40.
