data_PCOD9026823
_publ_section_title
;
Structure prediction by ZEFSAII (Michael W. Deem and Ramdas Pophale) SiO2 
 PCOD9026823
Probable space group: P -1
;
_chemical_formula_sum "Si O2"
_cell_formula_units_Z 14
_cell_length_a 15.454868
_cell_length_b 10.453219
_cell_length_c 15.336651
_cell_angle_alpha 45.156933
_cell_angle_beta 18.758966
_cell_angle_gamma 46.725774
_cell_volume 563.237879
_symmetry_space_group_name_H-M "P -1"
_symmetry_group_IT_number 2
_symmetry_cell_setting 'triclinic'
loop_
_space_group_symop_operation_xyz
x,y,z
-x,-y,-z
loop_
_atom_site_type_symbol
_atom_site_label
_atom_site_fract_x
_atom_site_fract_y
_atom_site_fract_z
Si Si1 0.650493 0.084603 0.233917
Si Si2 0.539056 0.290627 0.597615
Si Si3 0.194084 0.567552 0.993912
Si Si4 0.243678 0.283512 0.395569
Si Si5 0.711492 0.299298 0.807751
Si Si6 0.989068 0.802892 0.926526
Si Si7 0.737054 0.334400 0.576366
O O1 0.812119 0.254407 0.027395
O O2 0.413602 0.164013 0.359485
O O3 0.500000 0.000000 0.500000
O O4 0.857887 0.947113 0.050764
O O5 0.500000 0.500000 0.500000
O O6 0.674132 0.256150 0.579537
O O7 0.729753 0.182935 0.397071
O O8 0.241517 0.224055 0.910807
O O9 0.506525 0.501816 0.718020
O O10 0.052662 0.623057 0.011082
O O11 0.030466 0.408759 0.263228
O O12 0.226422 0.487681 0.352870
O O13 0.955523 0.217815 0.674827
O O14 0.427952 0.287341 0.131375
O O15 0.708037 0.230849 0.744946
#
# Coordination Sequence:
#
# PCOD9026823 Si02
#       7
#     2   2   2   2   2   2   2
#     4  12  27  45  67 103 144 178 212 269 346 423
#     4  12  23  43  64  92 135 180 225 280 321 383
#     4  12  23  39  63  99 135 174 205 273 336 400
#     4  10  23  41  66  93 135 168 217 272 332 397
#     4  10  22  41  65  98 125 173 221 276 329 379
#     4  12  25  41  62  95 137 182 217 259 341 405
#     4  12  23  39  70  95 133 168 225 279 329 379
#
# _framework density 24.856280999999999
#
# number of rings (size 3 to 8) (size 9 to 14) (size 15 to 20)
#    0.000    0.571    4.286    4.286    4.000    3.429 
#    0.000    0.000    0.000    5.143    0.000    0.000 
#    0.000    0.000    0.000    0.000    0.000    0.000 
#
# Total GULP energy -78448.325341 kJ/mol
# GULP energy per Si atom -5603.451810 kJ/mol
# Density = 2.479971 g / cm^3
# Si number density = 24.856281 Si / 1000 Ang^3
#
#
#
# Elastic Constant Matrix: (Units=GPa)
#
#
# Indices 1 2 3 4 5 6 
#
# 1 133.1227 13.1719 23.2188 4.7497 9.7253 -12.8160
# 2 13.1719 43.4433 5.9802 21.9858 -0.0352 -0.6868
# 3 23.2188 5.9802 63.7346 14.3932 -10.9232 7.9097
# 4 4.7497 21.9858 14.3932 35.9212 1.5726 -4.4008
# 5 9.7253 -0.0352 -10.9232 1.5726 45.3910 4.3971
# 6 -12.8160 -0.6868 7.9097 -4.4008 4.3971 35.3581
#
#
#
# Elastic Compliance Matrix: (Units=1/GPa)
#
#
# Indices 1 2 3 4 5 6 
#
# 1 0.009584 -0.004316 -0.005497 0.004452 -0.004084 0.005682
# 2 -0.004316 0.035769 0.004933 -0.024114 0.003499 -0.005409
# 3 -0.005497 0.004933 0.022711 -0.012918 0.008023 -0.009583
# 4 0.004452 -0.024114 -0.012918 0.048828 -0.006835 0.010962
# 5 -0.004084 0.003499 0.008023 -0.006835 0.025780 -0.007264
# 6 0.005682 -0.005409 -0.009583 0.010962 -0.007264 0.034648
#
#
# Mechanical properties :
#
#
# Convention : Reuss Voigt Hill
#
# Bulk Modulus (GPa) = 17.15125 36.11579 26.63352
# Shear Modulus (GPa) = 24.21143 36.52939 30.37041
#
# Velocity S-wave (km/s) = 3.12437 3.83773 3.49928
# Velocity P-wave (km/s) = 4.46439 5.84798 5.20239
#
# Compressibility (1/GPa) = 0.05830479
#
# Stress axis : x y z
#
# Youngs Moduli (GPa) = 104.33858 27.95710 44.03110
#
# Poissons Ratio (x) = 0.12065 0.24204
# Poissons Ratio (y) = 0.45028 -0.21719
# Poissons Ratio (z) = 0.57355 -0.13790
#
# Static dielectric constant tensor:
#      x y z
#    x 1.997230 0.016110 0.015560 
#    y 0.016110 2.000380 -0.033470 
#    z 0.015560 -0.033470 1.914560 
# 
# From -- ./inp_files/521231.got.cif
#   From: 2010.05.17/outbox.cif.g08.bks.cpg/sg2_261_cif.got.tgz:521231.got - 2010.06.03 11:33:40.
