data_PCOD9026479
_publ_section_title
;
Structure prediction by ZEFSAII (Michael W. Deem and Ramdas Pophale) SiO2 
 PCOD9026479
Probable space group: P -1
;
_chemical_formula_sum "Si O2"
_cell_formula_units_Z 16
_cell_length_a 12.912550
_cell_length_b 7.480280
_cell_length_c 11.676907
_cell_angle_alpha 118.759908
_cell_angle_beta 86.915352
_cell_angle_gamma 127.339335
_cell_volume 738.844350
_symmetry_space_group_name_H-M "P -1"
_symmetry_group_IT_number 2
_symmetry_cell_setting 'triclinic'
loop_
_space_group_symop_operation_xyz
x,y,z
-x,-y,-z
loop_
_atom_site_type_symbol
_atom_site_label
_atom_site_fract_x
_atom_site_fract_y
_atom_site_fract_z
Si Si1 0.138663 0.279513 0.627440
Si Si2 0.348784 0.219478 0.845915
Si Si3 0.640145 0.958978 0.669180
Si Si4 0.073167 0.640764 0.657096
Si Si5 0.834652 0.499516 0.074822
Si Si6 0.580152 0.600650 0.358501
Si Si7 0.936930 0.496771 0.847164
Si Si8 0.418420 0.734196 0.095323
O O1 0.135206 0.506365 0.653985
O O2 0.132787 0.290467 0.768517
O O3 0.280122 0.348628 0.610697
O O4 0.000000 0.000000 0.500000
O O5 0.427690 0.370611 0.768031
O O6 0.422563 0.125049 0.874945
O O7 0.198250 0.957396 0.736931
O O8 0.351869 0.420697 0.989344
O O9 0.602204 0.832103 0.505364
O O10 0.550675 0.696352 0.677075
O O11 0.805685 0.169536 0.748868
O O12 0.600112 0.140914 0.756818
O O13 0.000000 0.500000 0.500000
O O14 0.968315 0.588803 0.743180
O O15 0.921523 0.417361 0.086390
O O16 0.889734 0.603542 0.974343
O O17 0.668672 0.262436 0.997236
#
# Coordination Sequence:
#
# PCOD9026479 Si02
#       8
#     2   2   2   2   2   2   2   2
#     4  11  21  38  68  94 124 168 224 271 316 382
#     4  11  23  42  63  96 130 169 216 257 329 389
#     4  10  22  41  64  93 126 167 218 269 319 372
#     4  11  23  40  67  97 133 172 208 270 326 386
#     4   9  18  38  62  89 120 164 210 265 314 365
#     4  11  22  40  66  93 127 167 220 268 313 388
#     4   9  19  39  62  92 125 163 214 262 320 380
#     4  10  22  42  63  91 132 166 214 263 321 390
#
# _framework density 21.655439000000001
#
# number of rings (size 3 to 8) (size 9 to 14) (size 15 to 20)
#    0.000    1.750    1.250    3.750    0.000    1.000 
#   22.500    7.500    2.750    0.000    0.000    0.000 
#    0.000    0.000    0.000    0.000    0.000    0.000 
#
# Total GULP energy -89183.840544 kJ/mol
# GULP energy per Si atom -5573.990034 kJ/mol
# Density = 2.160615 g / cm^3
# Si number density = 21.655439 Si / 1000 Ang^3
#
#
#
# Elastic Constant Matrix: (Units=GPa)
#
#
# Indices 1 2 3 4 5 6 
#
# 1 99.4523 18.5635 50.0697 -0.8092 -0.4242 -2.6625
# 2 18.5635 68.8662 42.7161 -9.7962 5.5496 14.4943
# 3 50.0697 42.7161 172.3192 -7.1918 -14.5135 11.9793
# 4 -0.8092 -9.7962 -7.1918 31.9907 7.2803 -0.5063
# 5 -0.4242 5.5496 -14.5135 7.2803 45.9930 8.1358
# 6 -2.6625 14.4943 11.9793 -0.5063 8.1358 23.8777
#
#
#
# Elastic Compliance Matrix: (Units=1/GPa)
#
#
# Indices 1 2 3 4 5 6 
#
# 1 0.012373 -0.002151 -0.003566 -0.000723 -0.001517 0.004976
# 2 -0.002151 0.020575 -0.003800 0.005903 -0.002920 -0.009703
# 3 -0.003566 -0.003800 0.008330 -0.000286 0.003727 -0.003545
# 4 -0.000723 0.005903 -0.000286 0.034367 -0.006124 -0.000705
# 5 -0.001517 -0.002920 0.003727 -0.006124 0.025854 -0.009206
# 6 0.004976 -0.009703 -0.003545 -0.000705 -0.009206 0.053225
#
#
# Mechanical properties :
#
#
# Convention : Reuss Voigt Hill
#
# Bulk Modulus (GPa) = 44.95824 62.59291 53.77558
# Shear Modulus (GPa) = 27.59795 35.65817 31.62806
#
# Velocity S-wave (km/s) = 3.57376 4.06225 3.82581
# Velocity P-wave (km/s) = 6.15100 7.13928 6.66349
#
# Compressibility (1/GPa) = 0.02224287
#
# Stress axis : x y z
#
# Youngs Moduli (GPa) = 80.82350 48.60222 120.05245
#
# Poissons Ratio (x) = 0.10456 0.42806
# Poissons Ratio (y) = 0.17389 0.45623
# Poissons Ratio (z) = 0.28819 0.18470
#
# Static dielectric constant tensor:
#      x y z
#    x 1.854020 0.001850 0.007750 
#    y 0.001850 1.816800 -0.022470 
#    z 0.007750 -0.022470 1.812730 
# 
# From -- ./inp_files/446327.got.cif
#   From: 2010.05.17/outbox.cif.g08.bks.cpg/sg2_224_cif.got.tgz:446327.got - 2010.06.03 11:33:40.
