data_PCOD9026374
_publ_section_title
;
Structure prediction by ZEFSAII (Michael W. Deem and Ramdas Pophale) SiO2 
 PCOD9026374
Probable space group: P -1
;
_chemical_formula_sum "Si O2"
_cell_formula_units_Z 16
_cell_length_a 11.330357
_cell_length_b 8.027888
_cell_length_c 13.802853
_cell_angle_alpha 57.933037
_cell_angle_beta 91.808671
_cell_angle_gamma 58.160262
_cell_volume 814.769266
_symmetry_space_group_name_H-M "P -1"
_symmetry_group_IT_number 2
_symmetry_cell_setting 'triclinic'
loop_
_space_group_symop_operation_xyz
x,y,z
-x,-y,-z
loop_
_atom_site_type_symbol
_atom_site_label
_atom_site_fract_x
_atom_site_fract_y
_atom_site_fract_z
Si Si1 0.606830 0.773485 0.829128
Si Si2 0.944656 0.980993 0.660307
Si Si3 0.426942 0.516605 0.648194
Si Si4 0.699281 0.870446 0.161460
Si Si5 0.443249 0.623035 0.099351
Si Si6 0.891782 0.364644 0.407843
Si Si7 0.626389 0.125295 0.608161
Si Si8 0.247955 0.486567 0.905006
O O1 0.583415 0.576562 0.855563
O O2 0.455768 0.994151 0.820914
O O3 0.638476 0.883849 0.706900
O O4 0.743762 0.627719 0.956078
O O5 0.979164 0.827641 0.607635
O O6 0.087908 0.767295 0.795770
O O7 0.936680 0.219081 0.556126
O O8 0.780653 0.075576 0.660488
O O9 0.537099 0.365830 0.788556
O O10 0.259402 0.603163 0.636697
O O11 0.491405 0.340222 0.609683
O O12 0.407901 0.761841 0.535927
O O13 0.836834 0.647136 0.303858
O O14 0.714976 0.712399 0.116593
O O15 0.680389 0.107095 0.042002
O O16 0.609758 0.512392 0.096080
#
# Coordination Sequence:
#
# PCOD9026374 Si02
#       8
#     2   2   2   2   2   2   2   2
#     4  11  21  32  50  79 114 136 173 212 262 315
#     4   9  18  30  54  84 104 129 167 230 259 304
#     4  10  18  34  56  80 101 136 181 219 251 301
#     4  10  17  31  56  79 101 129 183 226 248 289
#     4  11  20  32  53  79 106 140 175 217 256 305
#     4   9  16  31  55  82 101 126 176 226 257 289
#     4  10  20  33  54  82 105 134 174 216 265 307
#     4  10  18  33  56  79 103 134 179 221 260 295
#
# _framework density 19.637460000000001
#
# number of rings (size 3 to 8) (size 9 to 14) (size 15 to 20)
#    0.000    2.000    3.750    3.750    0.000    1.000 
#    0.000    0.000    0.000   12.750    0.000    0.000 
#    0.000    0.000    0.000    0.000    0.000    0.000 
#
# Total GULP energy -89103.321447 kJ/mol
# GULP energy per Si atom -5568.957590 kJ/mol
# Density = 1.959276 g / cm^3
# Si number density = 19.637460 Si / 1000 Ang^3
#
#
#
# Elastic Constant Matrix: (Units=GPa)
#
#
# Indices 1 2 3 4 5 6 
#
# 1 30.7889 9.8927 14.1012 -12.5224 -19.6795 0.4983
# 2 9.8927 23.8942 21.3064 -10.1035 2.4595 3.2347
# 3 14.1012 21.3064 118.1755 -37.8193 -30.9169 2.3122
# 4 -12.5224 -10.1035 -37.8193 29.7590 -5.0441 -3.1208
# 5 -19.6795 2.4595 -30.9169 -5.0441 32.0668 -8.2636
# 6 0.4983 3.2347 2.3122 -3.1208 -8.2636 18.9472
#
#
#
# Elastic Compliance Matrix: (Units=1/GPa)
#
#
# Indices 1 2 3 4 5 6 
#
# 1 -0.007593 0.018212 -0.027902 -0.043220 -0.046714 -0.026997
# 2 0.018212 0.036611 0.011955 0.041465 0.029368 0.011450
# 3 -0.027902 0.011955 -0.003547 -0.018773 -0.028656 -0.016464
# 4 -0.043220 0.041465 -0.018773 -0.007029 -0.056500 -0.029451
# 5 -0.046714 0.029368 -0.028656 -0.056500 -0.043627 -0.028622
# 6 -0.026997 0.011450 -0.016464 -0.029451 -0.028622 0.036209
#
#
# Mechanical properties :
#
#
# Convention : Reuss Voigt Hill
#
# Bulk Modulus (GPa) = 33.33295 29.27326 31.30310
# Shear Modulus (GPa) = 303.12561 24.65849 163.89205
#
# Velocity S-wave (km/s) = 12.43768 3.54741 9.14549
# Velocity P-wave (km/s) = 14.94230 5.63188 11.29138
#
# Compressibility (1/GPa) = 0.03000035
#
# Stress axis : x y z
#
# Youngs Moduli (GPa) = -131.69975 27.31422 -281.94830
#
# Poissons Ratio (x) = -0.49743 -7.86691
# Poissons Ratio (y) = 2.39846 3.37069
# Poissons Ratio (z) = -3.67468 -0.32654
#
# Static dielectric constant tensor:
#      x y z
#    x 1.664260 0.017800 -0.026490 
#    y 0.017800 1.684540 -0.025390 
#    z -0.026490 -0.025390 1.811380 
# 
# From -- ./inp_files/278487.got.cif
#   From: 2010.05.17/outbox.cif.g08.bks.cpg/sg2_140_cif.got.tgz:278487.got - 2010.06.03 11:33:40.
