data_PCOD9026999
_publ_section_title
;
Structure prediction by ZEFSAII (Michael W. Deem and Ramdas Pophale) SiO2 
 PCOD9026999
Probable space group: P -1
;
_chemical_formula_sum "Si O2"
_cell_formula_units_Z 16
_cell_length_a 8.817026
_cell_length_b 8.482380
_cell_length_c 19.151723
_cell_angle_alpha 41.629528
_cell_angle_beta 135.320115
_cell_angle_gamma 129.969095
_cell_volume 649.929421
_symmetry_space_group_name_H-M "P -1"
_symmetry_group_IT_number 2
_symmetry_cell_setting 'triclinic'
loop_
_space_group_symop_operation_xyz
x,y,z
-x,-y,-z
loop_
_atom_site_type_symbol
_atom_site_label
_atom_site_fract_x
_atom_site_fract_y
_atom_site_fract_z
Si Si1 0.429175 0.190562 0.518673
Si Si2 0.763311 0.716971 0.440668
Si Si3 0.052439 0.473654 0.703708
Si Si4 0.176333 0.023877 0.154785
Si Si5 0.946397 0.644641 0.747616
Si Si6 0.310780 0.212390 0.278299
Si Si7 0.344335 0.285371 0.751714
Si Si8 0.261458 0.901002 0.079651
O O1 0.591493 0.455782 0.477462
O O2 0.339030 0.124595 0.589916
O O3 0.215996 0.228920 0.393607
O O4 0.568614 0.005828 0.597675
O O5 0.768892 0.777665 0.340727
O O6 0.984980 0.664417 0.564546
O O7 0.197318 0.331873 0.752436
O O8 0.843099 0.249470 0.730588
O O9 0.119525 0.605096 0.757156
O O10 0.301503 0.061237 0.109977
O O11 0.276965 0.215578 0.183268
O O12 0.923839 0.028379 0.051723
O O13 0.929929 0.796593 0.762995
O O14 0.854936 0.368947 0.838378
O O15 0.484038 0.448480 0.285476
O O16 0.507069 0.106571 0.876584
#
# Coordination Sequence:
#
# PCOD9026999 Si02
#       8
#     2   2   2   2   2   2   2   2
#     4  10  17  31  57  81 100 138 185 217 250 307
#     4  10  18  33  55  78 108 141 176 218 255 315
#     4  10  21  37  52  76 112 148 173 209 269 316
#     4  10  20  36  61  80  99 136 187 225 251 314
#     4   9  19  33  52  78 110 139 171 222 263 308
#     4  11  20  32  56  82 104 135 181 220 262 311
#     4  11  22  34  53  80 115 140 168 220 273 314
#     4   9  19  37  58  80 102 135 185 221 259 308
#
# _framework density 24.61806
#
# number of rings (size 3 to 8) (size 9 to 14) (size 15 to 20)
#    0.000    2.000    3.750    1.500    0.000    2.500 
#    0.000    5.000    0.000    7.500    0.000    0.000 
#    0.000    0.000    0.000    0.000    0.000    0.000 
#
# Total GULP energy -89192.870016 kJ/mol
# GULP energy per Si atom -5574.554376 kJ/mol
# Density = 2.456203 g / cm^3
# Si number density = 24.618060 Si / 1000 Ang^3
#
#
#
# Elastic Constant Matrix: (Units=GPa)
#
#
# Indices 1 2 3 4 5 6 
#
# 1 120.3202 22.0120 25.3129 -2.2015 5.8697 -49.8159
# 2 22.0120 54.1686 15.9346 6.1058 -8.4188 -25.6632
# 3 25.3129 15.9346 85.6005 10.9124 -0.5888 -22.2106
# 4 -2.2015 6.1058 10.9124 18.6133 -4.2386 -3.4390
# 5 5.8697 -8.4188 -0.5888 -4.2386 31.3938 -12.2033
# 6 -49.8159 -25.6632 -22.2106 -3.4390 -12.2033 49.3946
#
#
#
# Elastic Compliance Matrix: (Units=1/GPa)
#
#
# Indices 1 2 3 4 5 6 
#
# 1 0.015549 0.003108 -0.001073 0.006288 0.006041 0.018744
# 2 0.003108 0.030927 -0.000405 -0.001557 0.016424 0.022970
# 3 -0.001073 -0.000405 0.014282 -0.007150 0.001322 0.004958
# 4 0.006288 -0.001557 -0.007150 0.063264 0.010429 0.009299
# 5 0.006041 0.016424 0.001322 0.010429 0.047302 0.027633
# 6 0.018744 0.022970 0.004958 0.009299 0.027633 0.060787
#
#
# Mechanical properties :
#
#
# Convention : Reuss Voigt Hill
#
# Bulk Modulus (GPa) = 15.62053 42.95648 29.28851
# Shear Modulus (GPa) = 19.98462 33.00231 26.49347
#
# Velocity S-wave (km/s) = 2.85228 3.66536 3.28408
# Velocity P-wave (km/s) = 4.14804 5.94980 5.12867
#
# Compressibility (1/GPa) = 0.06401830
#
# Stress axis : x y z
#
# Youngs Moduli (GPa) = 64.31100 32.33377 70.01853
#
# Poissons Ratio (x) = -0.10048 0.07513
# Poissons Ratio (y) = -0.19985 0.02834
# Poissons Ratio (z) = 0.06901 0.01309
#
# Static dielectric constant tensor:
#      x y z
#    x 2.081010 -0.014160 0.023360 
#    y -0.014160 2.019710 0.030290 
#    z 0.023360 0.030290 1.933620 
# 
# From -- ./inp_files/169440.got.cif
#   From: 2010.05.17/outbox.cif.g08.bks.cpg/sg2_85_cif.got.tgz:169440.got - 2010.06.03 11:33:40.
