data_PCOD9026501
_publ_section_title
;
Structure prediction by ZEFSAII (Michael W. Deem and Ramdas Pophale) SiO2 
 PCOD9026501
Probable space group: P -1
;
_chemical_formula_sum "Si O2"
_cell_formula_units_Z 15
_cell_length_a 22.162481
_cell_length_b 15.250062
_cell_length_c 6.759536
_cell_angle_alpha 121.750166
_cell_angle_beta 68.121962
_cell_angle_gamma 160.958861
_cell_volume 566.056634
_symmetry_space_group_name_H-M "P -1"
_symmetry_group_IT_number 2
_symmetry_cell_setting 'triclinic'
loop_
_space_group_symop_operation_xyz
x,y,z
-x,-y,-z
loop_
_atom_site_type_symbol
_atom_site_label
_atom_site_fract_x
_atom_site_fract_y
_atom_site_fract_z
Si Si1 0.000000 0.000000 0.000000
Si Si2 0.209761 0.381802 0.902546
Si Si3 0.353447 0.030652 0.858394
Si Si4 0.233749 0.777406 0.324546
Si Si5 0.594726 0.533754 0.848100
Si Si6 0.929408 0.651946 0.254747
Si Si7 0.281819 0.047359 0.343899
Si Si8 0.638647 0.277328 0.507560
O O1 0.821570 0.826372 0.932131
O O2 0.936681 0.932212 0.235376
O O3 0.453989 0.736311 0.993322
O O4 0.118949 0.324892 0.797237
O O5 0.211773 0.422715 0.187331
O O6 0.269060 0.980558 0.062794
O O7 0.463739 0.261442 0.826866
O O8 0.204276 0.737402 0.552455
O O9 0.185895 0.813806 0.323958
O O10 0.474040 0.102688 0.394466
O O11 0.123063 0.522102 0.034564
O O12 0.513830 0.407399 0.570332
O O13 0.500000 0.500000 0.000000
O O14 0.772755 0.418471 0.354068
O O15 0.158591 0.967945 0.419445
O O16 0.500000 0.000000 0.500000
#
# Coordination Sequence:
#
# PCOD9026501 Si02
#       8
#     1   2   2   2   2   2   2   2
#     4  10  24  48  76 102 136 192 242 300 366 412
#     4  10  23  43  68 101 135 184 238 299 348 424
#     4   9  22  43  65  97 136 186 225 291 354 407
#     4  10  22  41  64  93 141 183 226 283 340 426
#     4  10  24  47  71  98 142 183 239 302 353 426
#     4  12  25  38  67 107 137 189 237 283 357 433
#     4  11  25  42  64 103 142 179 229 292 356 426
#     4  11  23  41  68  99 138 184 239 293 343 420
#
# _framework density 26.499113999999999
#
# number of rings (size 3 to 8) (size 9 to 14) (size 15 to 20)
#    0.000    1.600    1.333    2.400    7.467    2.133 
#    0.000    2.000    0.000    0.000    0.000    0.000 
#    0.000    0.000    0.000    0.000    0.000    0.000 
#
# Total GULP energy -83642.304517 kJ/mol
# GULP energy per Si atom -5576.153634 kJ/mol
# Density = 2.643880 g / cm^3
# Si number density = 26.499114 Si / 1000 Ang^3
#
#
#
# Elastic Constant Matrix: (Units=GPa)
#
#
# Indices 1 2 3 4 5 6 
#
# 1 116.8058 49.9484 26.2013 -3.4675 23.1171 29.2669
# 2 49.9484 141.6592 58.3856 -13.6341 16.5018 37.4131
# 3 26.2013 58.3856 116.4346 -18.3330 -3.5733 30.9884
# 4 -3.4675 -13.6341 -18.3330 44.7140 4.0650 5.6064
# 5 23.1171 16.5018 -3.5733 4.0650 37.6435 0.1251
# 6 29.2669 37.4131 30.9884 5.6064 0.1251 54.0341
#
#
#
# Elastic Compliance Matrix: (Units=1/GPa)
#
#
# Indices 1 2 3 4 5 6 
#
# 1 0.012129 -0.001777 -0.000416 0.001508 -0.006854 -0.005241
# 2 -0.001777 0.011320 -0.003604 0.002885 -0.004508 -0.005098
# 3 -0.000416 -0.003604 0.012584 0.004417 0.002570 -0.004960
# 4 0.001508 0.002885 0.004417 0.026607 -0.004618 -0.008098
# 5 -0.006854 -0.004508 0.002570 -0.004618 0.033474 0.005762
# 6 -0.005241 -0.005098 -0.004960 -0.008098 0.005762 0.028547
#
#
# Mechanical properties :
#
#
# Convention : Reuss Voigt Hill
#
# Bulk Modulus (GPa) = 40.91956 71.55226 56.23591
# Shear Modulus (GPa) = 34.62563 43.30259 38.96411
#
# Velocity S-wave (km/s) = 3.61871 4.04680 3.83873
# Velocity P-wave (km/s) = 5.73894 6.99256 6.39654
#
# Compressibility (1/GPa) = 0.02443819
#
# Stress axis : x y z
#
# Youngs Moduli (GPa) = 82.44634 88.33626 79.46782
#
# Poissons Ratio (x) = 0.15700 0.03308
# Poissons Ratio (y) = 0.14654 0.28640
# Poissons Ratio (z) = 0.03432 0.31836
#
# Static dielectric constant tensor:
#      x y z
#    x 2.186410 -0.155290 -0.143630 
#    y -0.155290 2.276680 0.110530 
#    z -0.143630 0.110530 2.240390 
# 
# From -- ./inp_files/124620.got.cif
#   From: 2010.05.17/outbox.cif.g08.bks.cpg/sg2_63_cif.got.tgz:124620.got - 2010.06.03 11:33:40.
