data_PCOD9026189
_publ_section_title
;
Structure prediction by ZEFSAII (Michael W. Deem and Ramdas Pophale) SiO2 
 PCOD9026189
Probable space group: P -1
;
_chemical_formula_sum "Si O2"
_cell_formula_units_Z 16
_cell_length_a 8.978484
_cell_length_b 11.705251
_cell_length_c 15.169922
_cell_angle_alpha 34.611131
_cell_angle_beta 90.334252
_cell_angle_gamma 110.995059
_cell_volume 708.813035
_symmetry_space_group_name_H-M "P -1"
_symmetry_group_IT_number 2
_symmetry_cell_setting 'triclinic'
loop_
_space_group_symop_operation_xyz
x,y,z
-x,-y,-z
loop_
_atom_site_type_symbol
_atom_site_label
_atom_site_fract_x
_atom_site_fract_y
_atom_site_fract_z
Si Si1 0.851338 0.074452 0.817375
Si Si2 0.648976 0.485351 0.956358
Si Si3 0.254763 0.685824 0.697889
Si Si4 0.784599 0.439613 0.494708
Si Si5 0.514642 0.534932 0.209637
Si Si6 0.986974 0.792824 0.894327
Si Si7 0.344081 0.344933 0.520771
Si Si8 0.477807 0.962692 0.371778
O O1 0.811722 0.231568 0.654711
O O2 0.042339 0.311299 0.716689
O O3 0.902365 0.919076 0.861286
O O4 0.670958 0.846106 0.016353
O O5 0.631829 0.537762 0.822875
O O6 0.855721 0.657753 0.892876
O O7 0.500000 0.500000 0.000000
O O8 0.553939 0.190359 0.159733
O O9 0.377439 0.583535 0.741841
O O10 0.357232 0.894059 0.644746
O O11 0.289077 0.841714 0.509839
O O12 0.059373 0.434542 0.896846
O O13 0.777244 0.559699 0.508414
O O14 0.597961 0.281596 0.533580
O O15 0.409516 0.432965 0.366076
O O16 0.204510 0.034387 0.725188
O O17 0.500000 0.500000 0.500000
#
# Coordination Sequence:
#
# PCOD9026189 Si02
#       8
#     2   2   2   2   2   2   2   2
#     4   9  18  33  57  87 104 138 195 243 275 326
#     4  11  17  34  64  88 112 141 186 258 286 326
#     4   9  19  32  59  86 107 143 192 245 278 335
#     4  10  19  34  56  79 115 148 180 238 282 329
#     4  11  20  36  59  86 112 151 193 229 295 341
#     4   9  19  37  59  85 113 146 195 238 287 333
#     4  11  25  39  53  78 124 165 188 222 280 356
#     4  10  17  31  55  87 108 140 186 236 289 322
#
# _framework density 22.572949999999999
#
# number of rings (size 3 to 8) (size 9 to 14) (size 15 to 20)
#    0.000    2.000    5.000    0.750    0.000    2.000 
#    0.000    3.750    0.000   20.250    0.000    0.000 
#    0.000    0.000    0.000    0.000    0.000    0.000 
#
# Total GULP energy -89132.948137 kJ/mol
# GULP energy per Si atom -5570.809259 kJ/mol
# Density = 2.252157 g / cm^3
# Si number density = 22.572950 Si / 1000 Ang^3
#
#
#
# Elastic Constant Matrix: (Units=GPa)
#
#
# Indices 1 2 3 4 5 6 
#
# 1 23.9526 14.7227 21.8058 0.2252 -7.9374 8.1726
# 2 14.7227 127.7198 67.5377 -6.0686 -20.9817 3.5297
# 3 21.8058 67.5377 179.8474 -17.7756 -33.7910 15.7376
# 4 0.2252 -6.0686 -17.7756 51.4875 2.5946 -2.6404
# 5 -7.9374 -20.9817 -33.7910 2.5946 36.4094 -8.4547
# 6 8.1726 3.5297 15.7376 -2.6404 -8.4547 25.2078
#
#
#
# Elastic Compliance Matrix: (Units=1/GPa)
#
#
# Indices 1 2 3 4 5 6 
#
# 1 0.052869 -0.003411 -0.003597 -0.002737 0.003256 -0.013612
# 2 -0.003411 0.010280 -0.003119 0.000138 0.002878 0.002594
# 3 -0.003597 -0.003119 0.008424 0.002227 0.004644 -0.001865
# 4 -0.002737 0.000138 0.002227 0.020284 0.000516 0.001776
# 5 0.003256 0.002878 0.004644 0.000516 0.035904 0.007738
# 6 -0.013612 0.002594 -0.001865 0.001776 0.007738 0.047666
#
#
# Mechanical properties :
#
#
# Convention : Reuss Voigt Hill
#
# Bulk Modulus (GPa) = 19.48643 59.96135 39.72389
# Shear Modulus (GPa) = 23.49745 37.78453 30.64099
#
# Velocity S-wave (km/s) = 3.22989 4.09575 3.68832
# Velocity P-wave (km/s) = 4.74984 6.99914 5.98117
#
# Compressibility (1/GPa) = 0.05131775
#
# Stress axis : x y z
#
# Youngs Moduli (GPa) = 18.91450 97.27559 118.71245
#
# Poissons Ratio (x) = 0.33186 0.42698
# Poissons Ratio (y) = 0.06453 0.37032
# Poissons Ratio (z) = 0.06803 0.30345
#
# Static dielectric constant tensor:
#      x y z
#    x 2.189750 0.009330 -0.025390 
#    y 0.009330 1.837680 0.001630 
#    z -0.025390 0.001630 1.901840 
# 
# From -- ./inp_files/271561.got.cif
#   From: 2010.05.17/outbox.cif.g08.bks.cpg/sg2_136_cif.got.tgz:271561.got - 2010.06.03 11:33:40.
