data_PCOD9026529
_publ_section_title
;
Structure prediction by ZEFSAII (Michael W. Deem and Ramdas Pophale) SiO2 
 PCOD9026529
Probable space group: P -1
;
_chemical_formula_sum "Si O2"
_cell_formula_units_Z 14
_cell_length_a 8.883517
_cell_length_b 8.313238
_cell_length_c 11.498609
_cell_angle_alpha 84.254110
_cell_angle_beta 99.489649
_cell_angle_gamma 135.449320
_cell_volume 587.396952
_symmetry_space_group_name_H-M "P -1"
_symmetry_group_IT_number 2
_symmetry_cell_setting 'triclinic'
loop_
_space_group_symop_operation_xyz
x,y,z
-x,-y,-z
loop_
_atom_site_type_symbol
_atom_site_label
_atom_site_fract_x
_atom_site_fract_y
_atom_site_fract_z
Si Si1 0.984174 0.812574 0.128292
Si Si2 0.572403 0.025585 0.840626
Si Si3 0.007519 0.143173 0.243064
Si Si4 0.595246 0.707318 0.582058
Si Si5 0.666802 0.028691 0.381523
Si Si6 0.191506 0.523017 0.060451
Si Si7 0.243896 0.584883 0.711128
O O1 0.938096 0.668027 0.246795
O O2 0.227900 0.944526 0.116099
O O3 0.814815 0.624883 0.023504
O O4 0.955443 0.975471 0.147542
O O5 0.603663 0.206246 0.911662
O O6 0.556444 0.086124 0.702209
O O7 0.351152 0.757743 0.824305
O O8 0.183420 0.190296 0.343582
O O9 0.115561 0.381521 0.181038
O O10 0.800559 0.027875 0.302952
O O11 0.500000 0.500000 0.500000
O O12 0.427995 0.617377 0.670718
O O13 0.632201 0.897902 0.499493
O O14 0.798986 0.296689 0.388530
O O15 0.000000 0.500000 0.000000
#
# Coordination Sequence:
#
# PCOD9026529 Si02
#       7
#     2   2   2   2   2   2   2
#     4  11  22  43  66  97 133 169 210 271 321 369
#     4   9  21  43  65  92 136 161 224 255 305 391
#     4  12  23  43  65  98 133 164 216 273 318 381
#     4  12  24  42  65  95 133 166 215 270 324 375
#     4  10  22  41  64  95 128 174 210 257 319 379
#     4  10  22  41  68  93 128 175 213 263 320 380
#     4  10  23  42  67  94 131 170 216 254 320 384
#
# _framework density 23.833969
#
# number of rings (size 3 to 8) (size 9 to 14) (size 15 to 20)
#    0.857    0.571    1.429    4.714    0.000    0.571 
#    2.571    3.571    0.000    0.000    0.000    0.000 
#    0.000    0.000    0.000    0.000    0.000    0.000 
#
# Total GULP energy -78200.983186 kJ/mol
# GULP energy per Si atom -5585.784513 kJ/mol
# Density = 2.377972 g / cm^3
# Si number density = 23.833969 Si / 1000 Ang^3
#
#
#
# Elastic Constant Matrix: (Units=GPa)
#
#
# Indices 1 2 3 4 5 6 
#
# 1 73.1736 10.8128 2.3080 11.1749 -12.3678 -4.3091
# 2 10.8128 97.2782 12.8790 2.3464 -6.9305 -23.6549
# 3 2.3080 12.8790 67.7993 -3.8168 11.0108 -1.0166
# 4 11.1749 2.3464 -3.8168 48.1246 -12.6822 -2.3150
# 5 -12.3678 -6.9305 11.0108 -12.6822 40.7752 1.9246
# 6 -4.3091 -23.6549 -1.0166 -2.3150 1.9246 23.5105
#
#
#
# Elastic Compliance Matrix: (Units=1/GPa)
#
#
# Indices 1 2 3 4 5 6 
#
# 1 0.014927 -0.000878 -0.001086 -0.002433 0.003856 0.001250
# 2 -0.000878 0.014313 -0.002846 0.000601 0.002462 0.013975
# 3 -0.001086 -0.002846 0.016124 0.000261 -0.004995 -0.001930
# 4 -0.002433 0.000601 0.000261 0.023113 0.006392 0.001923
# 5 0.003856 0.002462 -0.004995 0.006392 0.029393 0.001191
# 6 0.001250 0.013975 -0.001930 0.001923 0.001191 0.056832
#
#
# Mechanical properties :
#
#
# Convention : Reuss Voigt Hill
#
# Bulk Modulus (GPa) = 27.97554 32.25006 30.11280
# Shear Modulus (GPa) = 28.37100 36.63214 32.50157
#
# Velocity S-wave (km/s) = 3.45390 3.92468 3.69679
# Velocity P-wave (km/s) = 5.26014 5.83935 5.55729
#
# Compressibility (1/GPa) = 0.03574552
#
# Stress axis : x y z
#
# Youngs Moduli (GPa) = 66.99250 69.86526 62.02015
#
# Poissons Ratio (x) = 0.06134 0.06734
# Poissons Ratio (y) = 0.05882 0.17648
# Poissons Ratio (z) = 0.07274 0.19880
#
# Static dielectric constant tensor:
#      x y z
#    x 1.860030 -0.040730 -0.011150 
#    y -0.040730 1.928410 0.009950 
#    z -0.011150 0.009950 1.981950 
# 
# From -- ./inp_files/378359.got.cif
#   From: 2010.05.17/outbox.cif.g08.bks.cpg/sg2_190_cif.got.tgz:378359.got - 2010.06.03 11:33:40.
