data_PCOD9026517
_publ_section_title
;
Structure prediction by ZEFSAII (Michael W. Deem and Ramdas Pophale) SiO2 
 PCOD9026517
Probable space group: P -1
;
_chemical_formula_sum "Si O2"
_cell_formula_units_Z 16
_cell_length_a 8.647948
_cell_length_b 22.879099
_cell_length_c 4.893726
_cell_angle_alpha 66.408969
_cell_angle_beta 60.420000
_cell_angle_gamma 47.019027
_cell_volume 612.944843
_symmetry_space_group_name_H-M "P -1"
_symmetry_group_IT_number 2
_symmetry_cell_setting 'triclinic'
loop_
_space_group_symop_operation_xyz
x,y,z
-x,-y,-z
loop_
_atom_site_type_symbol
_atom_site_label
_atom_site_fract_x
_atom_site_fract_y
_atom_site_fract_z
Si Si1 0.031632 0.848765 0.663536
Si Si2 0.074747 0.424340 0.386628
Si Si3 0.774885 0.065187 0.754246
Si Si4 0.341560 0.325072 0.835097
Si Si5 0.747340 0.280951 0.868580
Si Si6 0.064958 0.270405 0.262390
Si Si7 0.711426 0.411654 0.912226
Si Si8 0.350226 0.982128 0.501453
O O1 0.192025 0.866811 0.349455
O O2 0.166537 0.800216 0.905810
O O3 0.956090 0.796370 0.712685
O O4 0.800035 0.937245 0.703172
O O5 0.180921 0.402400 0.032721
O O6 0.000000 0.500000 0.500000
O O7 0.860482 0.424642 0.565048
O O8 0.266060 0.349283 0.545680
O O9 0.585055 0.084293 0.663568
O O10 0.000000 0.000000 0.500000
O O11 0.755512 0.033333 0.119079
O O12 0.590597 0.295177 0.729426
O O13 0.288021 0.263098 0.075375
O O14 0.972093 0.273531 0.634602
O O15 0.614712 0.365133 0.982229
O O16 0.877643 0.354730 0.118787
O O17 0.500000 0.500000 0.000000
O O18 0.500000 0.000000 0.500000
#
# Coordination Sequence:
#
# PCOD9026517 Si02
#       8
#     2   2   2   2   2   2   2   2
#     4  10  24  42  67  97 134 181 222 276 335 408
#     4  11  23  42  64  95 129 165 223 289 338 407
#     4  10  22  43  70  98 135 178 223 271 333 403
#     4  11  25  44  63  93 130 170 224 277 339 405
#     4  11  24  42  68  92 133 182 224 281 344 406
#     4  10  24  44  63  96 136 175 228 283 333 411
#     4  10  22  41  64  94 130 178 227 282 345 400
#     4  11  24  44  71 107 142 176 228 283 334 402
#
# _framework density 26.103489
#
# number of rings (size 3 to 8) (size 9 to 14) (size 15 to 20)
#    0.000    1.500    1.250    3.000   10.500    2.500 
#    2.250    0.000    0.000    0.000    0.000    0.000 
#    0.000    0.000    0.000    0.000    0.000    0.000 
#
# Total GULP energy -89228.517175 kJ/mol
# GULP energy per Si atom -5576.782323 kJ/mol
# Density = 2.604408 g / cm^3
# Si number density = 26.103489 Si / 1000 Ang^3
#
#
#
# Elastic Constant Matrix: (Units=GPa)
#
#
# Indices 1 2 3 4 5 6 
#
# 1 131.8428 13.7307 3.0127 -1.9692 -16.5373 23.2589
# 2 13.7307 55.1266 8.1253 -13.3379 5.3565 21.6573
# 3 3.0127 8.1253 101.5079 -1.1872 -13.2397 9.3046
# 4 -1.9692 -13.3379 -1.1872 31.1927 4.7667 -1.3462
# 5 -16.5373 5.3565 -13.2397 4.7667 49.5561 3.8358
# 6 23.2589 21.6573 9.3046 -1.3462 3.8358 41.6371
#
#
#
# Elastic Compliance Matrix: (Units=1/GPa)
#
#
# Indices 1 2 3 4 5 6 
#
# 1 0.009024 -0.000840 0.000753 -0.000556 0.003754 -0.005136
# 2 -0.000840 0.026439 -0.001305 0.011224 -0.003615 -0.012295
# 3 0.000753 -0.001305 0.010605 -0.000746 0.003488 -0.002458
# 4 -0.000556 0.011224 -0.000746 0.037385 -0.004908 -0.003700
# 5 0.003754 -0.003615 0.003488 -0.004908 0.023483 -0.003319
# 6 -0.005136 -0.012295 -0.002458 -0.003700 -0.003319 0.034017
#
#
# Mechanical properties :
#
#
# Convention : Reuss Voigt Hill
#
# Bulk Modulus (GPa) = 23.10288 37.57943 30.34116
# Shear Modulus (GPa) = 31.61273 42.05109 36.83191
#
# Velocity S-wave (km/s) = 3.48380 4.01800 3.76040
# Velocity P-wave (km/s) = 5.00521 5.99611 5.52293
#
# Compressibility (1/GPa) = 0.04328464
#
# Stress axis : x y z
#
# Youngs Moduli (GPa) = 110.81860 37.82295 94.29551
#
# Poissons Ratio (x) = 0.03178 -0.07104
# Poissons Ratio (y) = 0.09313 0.12302
# Poissons Ratio (z) = -0.08349 0.04934
#
# Static dielectric constant tensor:
#      x y z
#    x 2.142220 0.079410 -0.006690 
#    y 0.079410 2.351520 0.129260 
#    z -0.006690 0.129260 2.106380 
# 
# From -- ./inp_files/55252.got.cif
#   From: 2010.05.17/outbox.cif.g08.bks.cpg/sg2_28_cif.got.tgz:55252.got - 2010.06.03 11:33:40.
