data_PCOD9026034
_publ_section_title
;
Structure prediction by ZEFSAII (Michael W. Deem and Ramdas Pophale) SiO2 
 PCOD9026034
Probable space group: P -1
;
_chemical_formula_sum "Si O2"
_cell_formula_units_Z 12
_cell_length_a 7.119712
_cell_length_b 12.603742
_cell_length_c 11.081370
_cell_angle_alpha 133.159037
_cell_angle_beta 118.559404
_cell_angle_gamma 45.891092
_cell_volume 520.820299
_symmetry_space_group_name_H-M "P -1"
_symmetry_group_IT_number 2
_symmetry_cell_setting 'triclinic'
loop_
_space_group_symop_operation_xyz
x,y,z
-x,-y,-z
loop_
_atom_site_type_symbol
_atom_site_label
_atom_site_fract_x
_atom_site_fract_y
_atom_site_fract_z
Si Si1 0.083565 0.211260 0.646644
Si Si2 0.406262 0.046296 0.294659
Si Si3 0.846937 0.565359 0.704703
Si Si4 0.851274 0.374081 0.345401
Si Si5 0.105013 0.010367 0.702806
Si Si6 0.647752 0.136026 0.092459
O O1 0.950581 0.407355 0.709289
O O2 0.022956 0.090066 0.455841
O O3 0.398399 0.108586 0.672719
O O4 0.988936 0.195401 0.739796
O O5 0.602107 0.094545 0.344413
O O6 0.130193 0.223960 0.377647
O O7 0.348466 0.959546 0.100034
O O8 0.715458 0.523635 0.522657
O O9 0.640058 0.752184 0.849973
O O10 0.069566 0.568810 0.705253
O O11 0.706899 0.281994 0.201705
O O12 0.143500 0.999535 0.848977
#
# Coordination Sequence:
#
# PCOD9026034 Si02
#       6
#     2   2   2   2   2   2
#     4   9  20  38  63  90 119 159 199 248 299 355
#     4  10  22  41  61  93 120 156 206 247 296 355
#     4  11  23  40  60  90 127 155 201 248 302 352
#     4  11  24  38  63  92 119 162 206 240 296 365
#     4   9  19  39  64  89 114 166 203 236 299 364
#     4  12  22  41  66  88 122 161 200 249 298 356
#
# _framework density 23.040579000000001
#
# number of rings (size 3 to 8) (size 9 to 14) (size 15 to 20)
#    1.000    0.667    3.333    1.500    0.000    1.333 
#    0.000    0.833    0.000    0.000    0.000    0.000 
#    0.000    0.000    0.000    0.000    0.000    0.000 
#
# Total GULP energy -66986.145467 kJ/mol
# GULP energy per Si atom -5582.178789 kJ/mol
# Density = 2.298814 g / cm^3
# Si number density = 23.040579 Si / 1000 Ang^3
#
#
#
# Elastic Constant Matrix: (Units=GPa)
#
#
# Indices 1 2 3 4 5 6 
#
# 1 70.9583 11.3661 11.0707 -8.7720 4.1231 29.5172
# 2 11.3661 104.5113 12.9064 -14.3668 1.5383 35.6204
# 3 11.0707 12.9064 82.3517 -10.3710 8.1246 -1.0585
# 4 -8.7720 -14.3668 -10.3710 27.8586 -8.5997 -2.2499
# 5 4.1231 1.5383 8.1246 -8.5997 29.6704 -0.3345
# 6 29.5172 35.6204 -1.0585 -2.2499 -0.3345 45.9910
#
#
#
# Elastic Compliance Matrix: (Units=1/GPa)
#
#
# Indices 1 2 3 4 5 6 
#
# 1 0.022012 0.004948 -0.003047 0.006690 -0.000742 -0.017708
# 2 0.004948 0.015422 -0.002414 0.007811 0.001271 -0.014785
# 3 -0.003047 -0.002414 0.013529 0.002433 -0.002403 0.004238
# 4 0.006690 0.007811 0.002433 0.045739 0.011167 -0.007968
# 5 -0.000742 0.001271 -0.002403 0.011167 0.037638 0.000256
# 6 -0.017708 -0.014785 0.004238 -0.007968 0.000256 0.044269
#
#
# Mechanical properties :
#
#
# Convention : Reuss Voigt Hill
#
# Bulk Modulus (GPa) = 20.02469 36.50087 28.26278
# Shear Modulus (GPa) = 25.47375 35.53586 30.50481
#
# Velocity S-wave (km/s) = 3.32867 3.93149 3.64257
# Velocity P-wave (km/s) = 4.84596 6.04030 5.47579
#
# Compressibility (1/GPa) = 0.04993834
#
# Stress axis : x y z
#
# Youngs Moduli (GPa) = 45.43042 64.84044 73.91615
#
# Poissons Ratio (x) = -0.32084 0.22519
# Poissons Ratio (y) = -0.22480 0.17843
# Poissons Ratio (z) = 0.13841 0.15652
#
# Static dielectric constant tensor:
#      x y z
#    x 1.914240 0.016330 -0.030610 
#    y 0.016330 1.927670 -0.050620 
#    z -0.030610 -0.050620 1.834470 
# 
# From -- ./inp_files/396419.got.cif
#   From: 2010.05.17/outbox.cif.g08.bks.cpg/sg2_199_cif.got.tgz:396419.got - 2010.06.03 11:33:40.
