data_PCOD9026941
_publ_section_title
;
Structure prediction by ZEFSAII (Michael W. Deem and Ramdas Pophale) SiO2 
 PCOD9026941
Probable space group: P -1
;
_chemical_formula_sum "Si O2"
_cell_formula_units_Z 16
_cell_length_a 12.617860
_cell_length_b 11.150903
_cell_length_c 11.844043
_cell_angle_alpha 93.473342
_cell_angle_beta 144.188061
_cell_angle_gamma 111.435959
_cell_volume 685.543830
_symmetry_space_group_name_H-M "P -1"
_symmetry_group_IT_number 2
_symmetry_cell_setting 'triclinic'
loop_
_space_group_symop_operation_xyz
x,y,z
-x,-y,-z
loop_
_atom_site_type_symbol
_atom_site_label
_atom_site_fract_x
_atom_site_fract_y
_atom_site_fract_z
Si Si1 0.127657 0.812742 0.503015
Si Si2 0.825337 0.321130 0.676413
Si Si3 0.588568 0.586609 0.958659
Si Si4 0.365302 0.254950 0.339167
Si Si5 0.603928 0.389507 0.776999
Si Si6 0.152644 0.884269 0.154483
Si Si7 0.048458 0.411986 0.454233
Si Si8 0.658915 0.166807 0.906281
O O1 0.132833 0.699993 0.417030
O O2 0.044950 0.742481 0.554466
O O3 0.882558 0.770917 0.236322
O O4 0.417225 0.996683 0.754366
O O5 0.630481 0.339355 0.516274
O O6 0.743326 0.160902 0.665064
O O7 0.092814 0.477794 0.975721
O O8 0.580874 0.468407 0.864398
O O9 0.355615 0.557006 0.711468
O O10 0.500000 0.500000 0.000000
O O11 0.438404 0.350048 0.525708
O O12 0.251317 0.067564 0.253852
O O13 0.153936 0.238793 0.097140
O O14 0.531735 0.220884 0.738093
O O15 0.216549 0.859996 0.084023
O O16 0.000000 0.500000 0.500000
O O17 0.876691 0.318447 0.188715
#
# Coordination Sequence:
#
# PCOD9026941 Si02
#       8
#     2   2   2   2   2   2   2   2
#     4  10  22  41  66  91 126 171 208 264 324 380
#     4  11  21  43  61  92 131 171 214 261 320 378
#     4   9  20  42  62  87 121 161 212 258 315 378
#     4  11  22  40  60  94 129 167 216 259 322 379
#     4  11  23  39  65  90 128 170 209 268 318 380
#     4  11  24  39  65  94 130 172 209 270 317 384
#     4  11  23  44  66  93 126 163 214 270 321 382
#     4  12  22  41  66  94 129 168 214 265 327 376
#
# _framework density 23.339136
#
# number of rings (size 3 to 8) (size 9 to 14) (size 15 to 20)
#    0.000    1.250    2.500    4.875    0.000    0.500 
#    9.000    8.125    0.000    0.000    0.000    0.000 
#    0.000    0.000    0.000    0.000    0.000    0.000 
#
# Total GULP energy -89380.521714 kJ/mol
# GULP energy per Si atom -5586.282607 kJ/mol
# Density = 2.328601 g / cm^3
# Si number density = 23.339136 Si / 1000 Ang^3
#
#
#
# Elastic Constant Matrix: (Units=GPa)
#
#
# Indices 1 2 3 4 5 6 
#
# 1 109.6438 10.0369 46.0141 -11.3785 2.8776 -8.1935
# 2 10.0369 53.5420 9.9579 -8.1613 0.1815 5.0799
# 3 46.0141 9.9579 124.9136 -19.3120 6.9712 -14.0018
# 4 -11.3785 -8.1613 -19.3120 35.4197 -6.2836 -1.3443
# 5 2.8776 0.1815 6.9712 -6.2836 49.6677 -9.7188
# 6 -8.1935 5.0799 -14.0018 -1.3443 -9.7188 28.9181
#
#
#
# Elastic Compliance Matrix: (Units=1/GPa)
#
#
# Indices 1 2 3 4 5 6 
#
# 1 0.011007 -0.001363 -0.003540 0.001434 0.000407 0.001848
# 2 -0.001363 0.020058 -0.001043 0.003403 -0.000268 -0.004347
# 3 -0.003540 -0.001043 0.010611 0.004619 0.000204 0.004601
# 4 0.001434 0.003403 0.004619 0.032972 0.004418 0.005063
# 5 0.000407 -0.000268 0.000204 0.004418 0.022192 0.007925
# 6 0.001848 -0.004347 0.004601 0.005063 0.007925 0.040994
#
#
# Mechanical properties :
#
#
# Convention : Reuss Voigt Hill
#
# Bulk Modulus (GPa) = 33.57455 46.67969 40.12712
# Shear Modulus (GPa) = 31.31746 37.60712 34.46229
#
# Velocity S-wave (km/s) = 3.66709 4.01850 3.84681
# Velocity P-wave (km/s) = 5.68743 6.44788 6.07955
#
# Compressibility (1/GPa) = 0.02978447
#
# Stress axis : x y z
#
# Youngs Moduli (GPa) = 90.85122 49.85433 94.24074
#
# Poissons Ratio (x) = 0.06796 0.33360
# Poissons Ratio (y) = 0.12384 0.09831
# Poissons Ratio (z) = 0.32160 0.05201
#
# Static dielectric constant tensor:
#      x y z
#    x 1.887000 0.050530 0.038800 
#    y 0.050530 1.953090 0.041190 
#    z 0.038800 0.041190 1.921440 
# 
# From -- ./inp_files/304527.got.cif
#   From: 2010.05.17/outbox.cif.g08.bks.cpg/sg2_153_cif.got.tgz:304527.got - 2010.06.03 11:33:40.
