data_PCOD9026378
_publ_section_title
;
Structure prediction by ZEFSAII (Michael W. Deem and Ramdas Pophale) SiO2 
 PCOD9026378
Probable space group: P -1
;
_chemical_formula_sum "Si O2"
_cell_formula_units_Z 14
_cell_length_a 15.776864
_cell_length_b 9.494567
_cell_length_c 9.014416
_cell_angle_alpha 131.718626
_cell_angle_beta 142.768770
_cell_angle_gamma 42.854767
_cell_volume 544.576906
_symmetry_space_group_name_H-M "P -1"
_symmetry_group_IT_number 2
_symmetry_cell_setting 'triclinic'
loop_
_space_group_symop_operation_xyz
x,y,z
-x,-y,-z
loop_
_atom_site_type_symbol
_atom_site_label
_atom_site_fract_x
_atom_site_fract_y
_atom_site_fract_z
Si Si1 0.135831 0.836046 0.270867
Si Si2 0.175889 0.091155 0.034315
Si Si3 0.219175 0.575254 0.931931
Si Si4 0.241977 0.344737 0.523475
Si Si5 0.733819 0.642706 0.868688
Si Si6 0.475066 0.649412 0.211843
Si Si7 0.408168 0.963417 0.710952
O O1 0.202288 0.598856 0.264279
O O2 0.262498 0.922850 0.525827
O O3 0.131534 0.788997 0.054636
O O4 0.969196 0.963220 0.205741
O O5 0.133755 0.264105 0.229616
O O6 0.197230 0.211614 0.006671
O O7 0.220986 0.397864 0.921827
O O8 0.337033 0.885282 0.152127
O O9 0.395624 0.552715 0.148268
O O10 0.169726 0.539384 0.673695
O O11 0.356595 0.352216 0.559617
O O12 0.350691 0.154655 0.649751
O O13 0.545086 0.761810 0.679389
O O14 0.500000 0.500000 0.000000
O O15 0.500000 0.000000 0.000000
#
# Coordination Sequence:
#
# PCOD9026378 Si02
#       7
#     2   2   2   2   2   2   2
#     4  10  25  43  69 103 146 180 239 278 368 408
#     4  12  24  43  73 104 145 183 224 304 347 419
#     4   9  22  43  64 101 139 182 232 281 345 418
#     4  11  23  39  70 104 138 179 246 280 352 411
#     4  10  23  43  70  99 137 192 236 275 351 420
#     4  10  22  41  64 103 139 181 236 284 343 411
#     4  12  22  43  72 100 135 191 242 287 333 429
#
# _framework density 25.708030999999998
#
# number of rings (size 3 to 8) (size 9 to 14) (size 15 to 20)
#    0.857    0.571    2.857    2.143    2.000    2.857 
#    2.571    5.000    0.000    0.000    0.000    0.000 
#    0.000    0.000    0.000    0.000    0.000    0.000 
#
# Total GULP energy -78240.386146 kJ/mol
# GULP energy per Si atom -5588.599010 kJ/mol
# Density = 2.564952 g / cm^3
# Si number density = 25.708031 Si / 1000 Ang^3
#
#
#
# Elastic Constant Matrix: (Units=GPa)
#
#
# Indices 1 2 3 4 5 6 
#
# 1 131.0189 38.5275 75.0296 2.2315 18.2684 29.4543
# 2 38.5275 118.6258 25.4208 0.0379 -4.2800 11.4238
# 3 75.0296 25.4208 96.0901 25.0797 15.9731 6.5791
# 4 2.2315 0.0379 25.0797 25.2961 3.9424 -5.1842
# 5 18.2684 -4.2800 15.9731 3.9424 41.9105 1.6453
# 6 29.4543 11.4238 6.5791 -5.1842 1.6453 41.3486
#
#
#
# Elastic Compliance Matrix: (Units=1/GPa)
#
#
# Indices 1 2 3 4 5 6 
#
# 1 0.021622 -0.002109 -0.019183 0.015667 -0.003423 -0.009667
# 2 -0.002109 0.009614 -0.001537 0.001143 0.002413 -0.000862
# 3 -0.019183 -0.001537 0.033714 -0.030399 -0.001981 0.004993
# 4 0.015667 0.001143 -0.030399 0.068977 -0.001697 0.002076
# 5 -0.003423 0.002413 -0.001981 -0.001697 0.026481 0.000820
# 6 -0.009667 -0.000862 0.004993 0.002076 0.000820 0.030742
#
#
# Mechanical properties :
#
#
# Convention : Reuss Voigt Hill
#
# Bulk Modulus (GPa) = 51.83731 69.29896 60.56814
# Shear Modulus (GPa) = 20.55602 35.49484 28.02543
#
# Velocity S-wave (km/s) = 2.83078 3.71980 3.30531
# Velocity P-wave (km/s) = 5.55806 6.74269 6.17883
#
# Compressibility (1/GPa) = 0.01929112
#
# Stress axis : x y z
#
# Youngs Moduli (GPa) = 46.24976 104.01567 29.66155
#
# Poissons Ratio (x) = 0.21938 0.56900
# Poissons Ratio (y) = 0.09755 0.04559
# Poissons Ratio (z) = 0.88721 0.15986
#
# Static dielectric constant tensor:
#      x y z
#    x 2.097880 -0.025310 -0.041620 
#    y -0.025310 2.049580 -0.003920 
#    z -0.041620 -0.003920 2.168150 
# 
# From -- ./inp_files/178793.got.cif
#   From: 2010.05.17/outbox.cif.g08.bks.cpg/sg2_90_cif.got.tgz:178793.got - 2010.06.03 11:33:40.
