data_PCOD9026044
_publ_section_title
;
Structure prediction by ZEFSAII (Michael W. Deem and Ramdas Pophale) SiO2 
 PCOD9026044
Probable space group: P -1
;
_chemical_formula_sum "Si O2"
_cell_formula_units_Z 14
_cell_length_a 7.546658
_cell_length_b 14.418979
_cell_length_c 17.948052
_cell_angle_alpha 157.890671
_cell_angle_beta 92.136952
_cell_angle_gamma 76.624049
_cell_volume 625.983529
_symmetry_space_group_name_H-M "P -1"
_symmetry_group_IT_number 2
_symmetry_cell_setting 'triclinic'
loop_
_space_group_symop_operation_xyz
x,y,z
-x,-y,-z
loop_
_atom_site_type_symbol
_atom_site_label
_atom_site_fract_x
_atom_site_fract_y
_atom_site_fract_z
Si Si1 0.991110 0.151614 0.033774
Si Si2 0.465900 0.731545 0.286442
Si Si3 0.288135 0.827803 0.517044
Si Si4 0.192834 0.828218 0.207137
Si Si5 0.298679 0.308591 0.212946
Si Si6 0.730666 0.455108 0.462449
Si Si7 0.319621 0.268014 0.492709
O O1 0.148467 0.264425 0.125762
O O2 0.772284 0.447415 0.243546
O O3 0.093129 0.882733 0.780825
O O4 0.000000 0.000000 0.000000
O O5 0.355313 0.728270 0.358968
O O6 0.313031 0.774522 0.247607
O O7 0.500000 0.000000 0.500000
O O8 0.681298 0.444742 0.049666
O O9 0.336527 0.548243 0.358074
O O10 0.439419 0.927899 0.627367
O O11 0.046211 0.065851 0.701795
O O12 0.204772 0.094773 0.371925
O O13 0.215357 0.400691 0.363333
O O14 0.500000 0.000000 0.000000
O O15 0.500000 0.500000 0.500000
O O16 0.717473 0.604090 0.495063
#
# Coordination Sequence:
#
# PCOD9026044 Si02
#       7
#     2   2   2   2   2   2   2
#     4  10  22  41  61  93 142 181 233 289 330 409
#     4  11  26  51  77 105 141 179 237 302 365 424
#     4  12  25  47  75 106 141 189 236 289 357 422
#     4  11  26  50  74 106 139 181 236 300 361 422
#     4  12  23  40  66 102 144 188 235 277 345 416
#     4  11  22  39  64  97 140 191 232 284 342 406
#     4  11  23  45  67 102 141 183 240 284 350 427
#
# _framework density 22.364803999999999
#
# number of rings (size 3 to 8) (size 9 to 14) (size 15 to 20)
#    0.000    0.857    5.714    1.286    2.000    4.000 
#    2.571    0.000    0.000    0.000    0.000    0.000 
#    0.000    0.000    0.000    0.000    0.000    0.000 
#
# Total GULP energy -78257.306464 kJ/mol
# GULP energy per Si atom -5589.807605 kJ/mol
# Density = 2.231390 g / cm^3
# Si number density = 22.364804 Si / 1000 Ang^3
#
#
#
# Elastic Constant Matrix: (Units=GPa)
#
#
# Indices 1 2 3 4 5 6 
#
# 1 111.7812 17.5844 37.1482 -3.8943 -31.6728 -7.6512
# 2 17.5844 91.3364 33.3016 -16.1594 -16.7244 6.5657
# 3 37.1482 33.3016 166.2885 -15.9077 -33.9590 -5.3367
# 4 -3.8943 -16.1594 -15.9077 30.2328 -3.3708 -2.3005
# 5 -31.6728 -16.7244 -33.9590 -3.3708 37.6082 0.3361
# 6 -7.6512 6.5657 -5.3367 -2.3005 0.3361 23.5415
#
#
#
# Elastic Compliance Matrix: (Units=1/GPa)
#
#
# Indices 1 2 3 4 5 6 
#
# 1 0.012364 -0.000206 -0.000199 0.002850 0.010360 0.004161
# 2 -0.000206 0.013960 -0.000971 0.007306 0.005844 -0.003550
# 3 -0.000199 -0.000971 0.008279 0.004810 0.007285 0.002449
# 4 0.002850 0.007306 0.004810 0.041700 0.013695 0.003858
# 5 0.010360 0.005844 0.007285 0.013695 0.045683 0.004075
# 6 0.004161 -0.003550 0.002449 0.003858 0.004075 0.045695
#
#
# Mechanical properties :
#
#
# Convention : Reuss Voigt Hill
#
# Bulk Modulus (GPa) = 31.39626 60.60828 46.00227
# Shear Modulus (GPa) = 27.61656 37.03462 32.32559
#
# Velocity S-wave (km/s) = 3.51782 4.07373 3.80594
# Velocity P-wave (km/s) = 5.52890 7.02038 6.31880
#
# Compressibility (1/GPa) = 0.03185093
#
# Stress axis : x y z
#
# Youngs Moduli (GPa) = 80.87961 71.63251 120.78437
#
# Poissons Ratio (x) = 0.01474 0.02405
# Poissons Ratio (y) = 0.01665 0.11732
# Poissons Ratio (z) = 0.01610 0.06958
#
# Static dielectric constant tensor:
#      x y z
#    x 2.018510 -0.018790 -0.161550 
#    y -0.018790 1.856370 0.031530 
#    z -0.161550 0.031530 1.978110 
# 
# From -- ./inp_files/561247.got.cif
#   From: 2010.05.17/outbox.cif.g08.bks.cpg/sg2_281_cif.got.tgz:561247.got - 2010.06.03 11:33:40.
