data_PCOD9026502
_publ_section_title
;
Structure prediction by ZEFSAII (Michael W. Deem and Ramdas Pophale) SiO2 
 PCOD9026502
Probable space group: P -1
;
_chemical_formula_sum "Si O2"
_cell_formula_units_Z 16
_cell_length_a 9.973356
_cell_length_b 8.717386
_cell_length_c 9.619248
_cell_angle_alpha 120.277711
_cell_angle_beta 89.732600
_cell_angle_gamma 106.804545
_cell_volume 681.246546
_symmetry_space_group_name_H-M "P -1"
_symmetry_group_IT_number 2
_symmetry_cell_setting 'triclinic'
loop_
_space_group_symop_operation_xyz
x,y,z
-x,-y,-z
loop_
_atom_site_type_symbol
_atom_site_label
_atom_site_fract_x
_atom_site_fract_y
_atom_site_fract_z
Si Si1 0.625648 0.500153 0.270783
Si Si2 0.557959 0.190621 0.332896
Si Si3 0.511444 0.786668 0.088976
Si Si4 0.223040 0.093793 0.245739
Si Si5 0.627042 0.347080 0.682472
Si Si6 0.209223 0.271956 0.035655
Si Si7 0.908970 0.789953 0.446944
Si Si8 0.972075 0.294415 0.847157
O O1 0.649683 0.384577 0.349084
O O2 0.482530 0.546994 0.316626
O O3 0.752870 0.692036 0.338461
O O4 0.600343 0.351263 0.078026
O O5 0.391368 0.174559 0.317519
O O6 0.621914 0.204441 0.493379
O O7 0.562469 0.009214 0.165266
O O8 0.443008 0.759741 0.227922
O O9 0.647178 0.719028 0.042119
O O10 0.198066 0.132066 0.102192
O O11 0.132063 0.193826 0.385055
O O12 0.172204 0.874374 0.192813
O O13 0.764787 0.520439 0.803758
O O14 0.084000 0.222915 0.902649
O O15 0.997489 0.685142 0.309523
O O16 0.000000 0.000000 0.500000
O O17 0.000000 0.500000 0.000000
#
# Coordination Sequence:
#
# PCOD9026502 Si02
#       8
#     2   2   2   2   2   2   2   2
#     4  11  20  39  65  89 133 166 212 259 315 376
#     4  12  23  38  63 105 131 168 211 256 327 374
#     4  11  24  37  61  99 135 167 205 268 313 383
#     4  11  23  42  66  92 134 169 212 260 314 390
#     4  11  21  38  61  92 131 169 202 262 314 377
#     4  11  23  43  63  94 126 171 217 255 329 369
#     4  10  22  41  64  94 123 173 213 254 316 377
#     4  11  26  45  68  91 122 172 221 269 312 380
#
# _framework density 23.486357000000002
#
# number of rings (size 3 to 8) (size 9 to 14) (size 15 to 20)
#    0.000    1.000    3.750    5.250    3.500    0.000 
#    0.000    0.625    0.000    0.000    0.000    0.000 
#    0.000    0.000    0.000    0.000    0.000    0.000 
#
# Total GULP energy -89324.896763 kJ/mol
# GULP energy per Si atom -5582.806048 kJ/mol
# Density = 2.343290 g / cm^3
# Si number density = 23.486357 Si / 1000 Ang^3
#
#
#
# Elastic Constant Matrix: (Units=GPa)
#
#
# Indices 1 2 3 4 5 6 
#
# 1 53.1824 18.4901 19.9548 1.2068 7.8801 8.5246
# 2 18.4901 54.1085 31.4795 9.5491 1.7803 13.1500
# 3 19.9548 31.4795 124.4952 5.5797 0.0420 4.1612
# 4 1.2068 9.5491 5.5797 48.4948 -0.0450 4.6990
# 5 7.8801 1.7803 0.0420 -0.0450 28.1719 10.6102
# 6 8.5246 13.1500 4.1612 4.6990 10.6102 22.2650
#
#
#
# Elastic Compliance Matrix: (Units=1/GPa)
#
#
# Indices 1 2 3 4 5 6 
#
# 1 0.022806 -0.005944 -0.002111 0.001101 -0.004989 -0.002682
# 2 -0.005944 0.027702 -0.005406 -0.003221 0.005586 -0.015057
# 3 -0.002111 -0.005406 0.009674 -0.000208 0.000091 0.002194
# 4 0.001101 -0.003221 -0.000208 0.021608 0.001311 -0.003665
# 5 -0.004989 0.005586 0.000091 0.001311 0.045306 -0.023273
# 6 -0.002682 -0.015057 0.002194 -0.003665 -0.023273 0.066287
#
#
# Mechanical properties :
#
#
# Convention : Reuss Voigt Hill
#
# Bulk Modulus (GPa) = 30.06601 41.29276 35.67939
# Shear Modulus (GPa) = 21.60862 30.57712 26.09287
#
# Velocity S-wave (km/s) = 3.03652 3.61211 3.33675
# Velocity P-wave (km/s) = 5.01231 5.91745 5.48359
#
# Compressibility (1/GPa) = 0.03326015
#
# Stress axis : x y z
#
# Youngs Moduli (GPa) = 43.84882 36.09896 103.37315
#
# Poissons Ratio (x) = 0.21456 0.21817
# Poissons Ratio (y) = 0.26063 0.55885
# Poissons Ratio (z) = 0.09254 0.19516
#
# Static dielectric constant tensor:
#      x y z
#    x 1.901780 -0.010710 -0.027320 
#    y -0.010710 1.917740 -0.005040 
#    z -0.027320 -0.005040 1.936500 
# 
# From -- ./inp_files/217836.got.cif
#   From: 2010.05.17/outbox.cif.g08.bks.cpg/sg2_109_cif.got.tgz:217836.got - 2010.06.03 11:33:40.
