data_PCOD9026060
_publ_section_title
;
Structure prediction by ZEFSAII (Michael W. Deem and Ramdas Pophale) SiO2 
 PCOD9026060
Probable space group: P -1
;
_chemical_formula_sum "Si O2"
_cell_formula_units_Z 14
_cell_length_a 8.991238
_cell_length_b 12.788342
_cell_length_c 9.338813
_cell_angle_alpha 83.932486
_cell_angle_beta 47.909327
_cell_angle_gamma 61.025420
_cell_volume 656.249765
_symmetry_space_group_name_H-M "P -1"
_symmetry_group_IT_number 2
_symmetry_cell_setting 'triclinic'
loop_
_space_group_symop_operation_xyz
x,y,z
-x,-y,-z
loop_
_atom_site_type_symbol
_atom_site_label
_atom_site_fract_x
_atom_site_fract_y
_atom_site_fract_z
Si Si1 0.012200 0.889050 0.422446
Si Si2 0.898905 0.592523 0.844301
Si Si3 0.079253 0.005571 0.107067
Si Si4 0.643095 0.815201 0.741119
Si Si5 0.809259 0.305019 0.275770
Si Si6 0.479729 0.670680 0.294709
Si Si7 0.633985 0.673250 0.496492
O O1 0.280436 0.769317 0.299072
O O2 0.815892 0.864981 0.608585
O O3 0.983307 0.936490 0.273175
O O4 0.000000 0.000000 0.500000
O O5 0.757157 0.699671 0.798055
O O6 0.023132 0.644416 0.858312
O O7 0.109755 0.459572 0.661330
O O8 0.714479 0.580827 0.062710
O O9 0.964859 0.151615 0.205265
O O10 0.369547 0.924635 0.944240
O O11 0.000000 0.000000 0.000000
O O12 0.638883 0.763831 0.594034
O O13 0.668293 0.369214 0.508074
O O14 0.586054 0.340228 0.312429
O O15 0.558005 0.722065 0.372729
#
# Coordination Sequence:
#
# PCOD9026060 Si02
#       7
#     2   2   2   2   2   2   2
#     4  12  24  43  64  92 130 163 209 260 305 379
#     4  12  22  41  70  89 125 173 208 254 309 370
#     4  12  24  43  65  97 128 161 208 259 319 375
#     4  12  25  41  66  95 127 167 203 262 318 362
#     4  10  23  40  65  94 125 163 211 252 313 366
#     4  10  22  41  61  96 123 163 216 249 306 372
#     4  10  23  45  59  96 132 158 213 260 305 369
#
# _framework density 21.333341999999998
#
# number of rings (size 3 to 8) (size 9 to 14) (size 15 to 20)
#    0.857    0.000    5.714    1.286    2.000    2.857 
#    0.000    0.714    0.000    0.000    0.000    0.000 
#    0.000    0.000    0.000    0.000    0.000    0.000 
#
# Total GULP energy -78079.218516 kJ/mol
# GULP energy per Si atom -5577.087037 kJ/mol
# Density = 2.128479 g / cm^3
# Si number density = 21.333342 Si / 1000 Ang^3
#
#
#
# Elastic Constant Matrix: (Units=GPa)
#
#
# Indices 1 2 3 4 5 6 
#
# 1 50.4581 8.3226 17.7238 6.0700 -3.4590 -9.9545
# 2 8.3226 72.9036 35.4633 11.5399 -12.0525 -9.9935
# 3 17.7238 35.4633 99.9827 15.4169 -25.3055 -8.4323
# 4 6.0700 11.5399 15.4169 39.2846 -18.8492 8.9164
# 5 -3.4590 -12.0525 -25.3055 -18.8492 37.0737 3.3300
# 6 -9.9545 -9.9935 -8.4323 8.9164 3.3300 27.8977
#
#
#
# Elastic Compliance Matrix: (Units=1/GPa)
#
#
# Indices 1 2 3 4 5 6 
#
# 1 0.023539 0.000880 -0.003675 -0.006965 -0.004498 0.010367
# 2 0.000880 0.017839 -0.005354 -0.005401 -0.001143 0.006949
# 3 -0.003675 -0.005354 0.014541 0.000205 0.007933 0.000153
# 4 -0.006965 -0.005401 0.000205 0.043031 0.021470 -0.020673
# 5 -0.004498 -0.001143 0.007933 0.021470 0.043561 -0.011678
# 6 0.010367 0.006949 0.000153 -0.020673 -0.011678 0.050081
#
#
# Mechanical properties :
#
#
# Convention : Reuss Voigt Hill
#
# Bulk Modulus (GPa) = 25.23879 38.48485 31.86182
# Shear Modulus (GPa) = 22.51266 31.64018 27.07642
#
# Velocity S-wave (km/s) = 3.25203 3.85532 3.56646
# Velocity P-wave (km/s) = 5.09483 6.15605 5.65041
#
# Compressibility (1/GPa) = 0.03962155
#
# Stress axis : x y z
#
# Youngs Moduli (GPa) = 42.48306 56.05672 68.76976
#
# Poissons Ratio (x) = -0.04935 0.25275
# Poissons Ratio (y) = -0.03740 0.36819
# Poissons Ratio (z) = 0.15614 0.30013
#
# Static dielectric constant tensor:
#      x y z
#    x 1.688100 0.156130 -0.034950 
#    y 0.156130 1.334400 0.075750 
#    z -0.034950 0.075750 1.794260 
# 
# From -- ./inp_files/201743.got.cif
#   From: 2010.05.17/outbox.cif.g08.bks.cpg/sg2_101_cif.got.tgz:201743.got - 2010.06.03 11:33:40.
