data_PCOD9026841
_publ_section_title
;
Structure prediction by ZEFSAII (Michael W. Deem and Ramdas Pophale) SiO2 
 PCOD9026841
Probable space group: P -1
;
_chemical_formula_sum "Si O2"
_cell_formula_units_Z 13
_cell_length_a 11.888586
_cell_length_b 14.059894
_cell_length_c 5.403419
_cell_angle_alpha 118.211438
_cell_angle_beta 42.785610
_cell_angle_gamma 122.136476
_cell_volume 514.151867
_symmetry_space_group_name_H-M "P -1"
_symmetry_group_IT_number 2
_symmetry_cell_setting 'triclinic'
loop_
_space_group_symop_operation_xyz
x,y,z
-x,-y,-z
loop_
_atom_site_type_symbol
_atom_site_label
_atom_site_fract_x
_atom_site_fract_y
_atom_site_fract_z
Si Si1 0.946165 0.402378 0.249992
Si Si2 0.267577 0.467396 0.421467
Si Si3 0.500000 0.500000 0.500000
Si Si4 0.614200 0.270359 0.133215
Si Si5 0.478823 0.126056 0.672463
Si Si6 0.009050 0.718822 0.569300
Si Si7 0.067574 0.067872 0.226240
O O1 0.762679 0.419108 0.494991
O O2 0.941954 0.282028 0.222480
O O3 0.000000 0.500000 0.500000
O O4 0.107285 0.432168 0.838077
O O5 0.431658 0.453511 0.278433
O O6 0.187688 0.369679 0.228024
O O7 0.551928 0.382362 0.344250
O O8 0.554073 0.192554 0.378076
O O9 0.551594 0.193748 0.892567
O O10 0.825437 0.311092 0.844005
O O11 0.500000 0.000000 0.500000
O O12 0.274182 0.108841 0.961303
O O13 0.001148 0.825778 0.567015
O O14 0.000000 0.000000 0.500000
O O15 0.000000 0.000000 0.000000
#
# Coordination Sequence:
#
# PCOD9026841 Si02
#       7
#     2   2   1   2   2   2   2
#     4   9  19  38  63  92 129 183 237 290 343 436
#     4  10  22  41  65  98 143 189 247 297 358 452
#     4  12  26  44  68 114 160 198 252 304 398 452
#     4  12  28  46  77 112 155 203 244 324 376 457
#     4  12  27  52  78 113 151 195 261 319 383 441
#     4  11  25  44  73 103 142 202 253 299 383 445
#     4  12  27  48  78 110 146 193 252 318 378 452
#
# _framework density 25.28436
#
# number of rings (size 3 to 8) (size 9 to 14) (size 15 to 20)
#    0.000    0.923    0.000    6.923    8.615    0.615 
#    0.000    0.000    0.000    0.000    0.000    0.000 
#    0.000    0.000    0.000    0.000    0.000    0.000 
#
# Total GULP energy -72400.531801 kJ/mol
# GULP energy per Si atom -5569.271677 kJ/mol
# Density = 2.522681 g / cm^3
# Si number density = 25.284360 Si / 1000 Ang^3
#
#
#
# Elastic Constant Matrix: (Units=GPa)
#
#
# Indices 1 2 3 4 5 6 
#
# 1 194.2133 69.7612 26.1150 2.4333 7.7353 -38.6223
# 2 69.7612 158.9250 31.9569 11.4504 -1.6305 -54.1591
# 3 26.1150 31.9569 74.4126 -2.6174 5.7618 -15.0679
# 4 2.4333 11.4504 -2.6174 49.2443 -7.2232 3.4661
# 5 7.7353 -1.6305 5.7618 -7.2232 34.0981 0.9600
# 6 -38.6223 -54.1591 -15.0679 3.4661 0.9600 73.9839
#
#
#
# Elastic Compliance Matrix: (Units=1/GPa)
#
#
# Indices 1 2 3 4 5 6 
#
# 1 0.006407 -0.002053 -0.000918 -0.000226 -0.001492 0.001685
# 2 -0.002053 0.009848 -0.002487 -0.002631 0.000638 0.005746
# 3 -0.000918 -0.002487 0.015199 0.001043 -0.002280 0.000776
# 4 -0.000226 -0.002631 0.001043 0.021844 0.004459 -0.002913
# 5 -0.001492 0.000638 -0.002280 0.004459 0.031065 -0.001388
# 6 0.001685 0.005746 0.000776 -0.002913 -0.001388 0.018915
#
#
# Mechanical properties :
#
#
# Convention : Reuss Voigt Hill
#
# Bulk Modulus (GPa) = 48.69052 75.91301 62.30176
# Shear Modulus (GPa) = 41.30855 51.44643 46.37749
#
# Velocity S-wave (km/s) = 4.04636 4.51567 4.28744
# Velocity P-wave (km/s) = 6.41325 7.56818 7.01452
#
# Compressibility (1/GPa) = 0.02053788
#
# Stress axis : x y z
#
# Youngs Moduli (GPa) = 156.07729 101.54757 65.79214
#
# Poissons Ratio (x) = 0.20844 0.06042
# Poissons Ratio (y) = 0.32036 0.16364
# Poissons Ratio (z) = 0.14332 0.25257
#
# Static dielectric constant tensor:
#      x y z
#    x 0.715890 -0.066490 -0.534260 
#    y -0.066490 2.125060 -0.030830 
#    z -0.534260 -0.030830 1.677610 
# 
# From -- ./inp_files/23621.got.cif
#   From: 2010.05.17/outbox.cif.g08.bks.cpg/sg2_12_cif.got.tgz:23621.got - 2010.06.03 11:33:40.
