data_PCOD9026082
_publ_section_title
;
Structure prediction by ZEFSAII (Michael W. Deem and Ramdas Pophale) SiO2 
 PCOD9026082
Probable space group: P -1
;
_chemical_formula_sum "Si O2"
_cell_formula_units_Z 16
_cell_length_a 10.409388
_cell_length_b 9.313958
_cell_length_c 14.625962
_cell_angle_alpha 48.007845
_cell_angle_beta 140.836580
_cell_angle_gamma 112.771319
_cell_volume 638.864668
_symmetry_space_group_name_H-M "P -1"
_symmetry_group_IT_number 2
_symmetry_cell_setting 'triclinic'
loop_
_space_group_symop_operation_xyz
x,y,z
-x,-y,-z
loop_
_atom_site_type_symbol
_atom_site_label
_atom_site_fract_x
_atom_site_fract_y
_atom_site_fract_z
Si Si1 0.124023 0.372041 0.707947
Si Si2 0.256185 0.612472 0.835044
Si Si3 0.075469 0.284362 0.258131
Si Si4 0.047811 0.955260 0.865568
Si Si5 0.668429 0.930980 0.760224
Si Si6 0.454040 0.322065 0.355526
Si Si7 0.669441 0.965469 0.327899
Si Si8 0.462611 0.268948 0.801854
O O1 0.131974 0.519513 0.731841
O O2 0.030848 0.189793 0.759920
O O3 0.365252 0.270627 0.848007
O O4 0.000000 0.500000 0.500000
O O5 0.155023 0.592387 0.886562
O O6 0.236890 0.847432 0.712727
O O7 0.500000 0.500000 0.000000
O O8 0.217218 0.402248 0.233192
O O9 0.200290 0.182969 0.459930
O O10 0.063839 0.105498 0.259959
O O11 0.920481 0.886628 0.907176
O O12 0.292139 0.839739 0.033717
O O13 0.572231 0.780661 0.711629
O O14 0.577721 0.144842 0.566858
O O15 0.568485 0.950402 0.797006
O O16 0.561795 0.499247 0.333581
O O17 0.663549 0.842095 0.286067
#
# Coordination Sequence:
#
# PCOD9026082 Si02
#       8
#     2   2   2   2   2   2   2   2
#     4  12  24  40  63  86 116 158 202 240 286 351
#     4  12  24  39  61  88 119 152 195 246 294 343
#     4  10  22  41  62  83 116 157 196 236 287 352
#     4  11  23  40  61  88 121 153 192 245 296 346
#     4   9  20  39  62  86 117 155 198 237 284 351
#     4   9  20  39  62  87 116 157 197 236 287 351
#     4  11  23  40  61  86 119 156 195 240 288 349
#     4  12  24  38  60  90 123 152 191 245 299 343
#
# _framework density 25.044428
#
# number of rings (size 3 to 8) (size 9 to 14) (size 15 to 20)
#    0.000    1.250    0.000    6.750    0.000    6.500 
#    0.000    0.000    0.000    0.000    0.000    0.000 
#    0.000    0.000    0.000    0.000    0.000    0.000 
#
# Total GULP energy -89709.588743 kJ/mol
# GULP energy per Si atom -5606.849296 kJ/mol
# Density = 2.498743 g / cm^3
# Si number density = 25.044428 Si / 1000 Ang^3
#
#
#
# Elastic Constant Matrix: (Units=GPa)
#
#
# Indices 1 2 3 4 5 6 
#
# 1 128.9173 54.3697 -0.0886 -1.3039 34.2888 -8.8550
# 2 54.3697 199.8172 8.4614 -2.9017 -13.3033 -1.0496
# 3 -0.0886 8.4614 62.2808 -8.5989 18.6004 4.4403
# 4 -1.3039 -2.9017 -8.5989 24.7318 1.6378 -3.3039
# 5 34.2888 -13.3033 18.6004 1.6378 48.0872 -0.5167
# 6 -8.8550 -1.0496 4.4403 -3.3039 -0.5167 33.2890
#
#
#
# Elastic Compliance Matrix: (Units=1/GPa)
#
#
# Indices 1 2 3 4 5 6 
#
# 1 0.013267 -0.004584 0.004605 0.002979 -0.012580 0.002871
# 2 -0.004584 0.006776 -0.002892 -0.000951 0.006288 -0.000617
# 3 0.004605 -0.002892 0.021426 0.008041 -0.012658 -0.001122
# 4 0.002979 -0.000951 0.008041 0.044267 -0.006963 0.003975
# 5 -0.012580 0.006288 -0.012658 -0.006963 0.036622 -0.001582
# 6 0.002871 -0.000617 -0.001122 0.003975 -0.001582 0.031304
#
#
# Mechanical properties :
#
#
# Convention : Reuss Voigt Hill
#
# Bulk Modulus (GPa) = 27.98986 57.38891 42.68939
# Shear Modulus (GPa) = 29.18641 43.10645 36.14643
#
# Velocity S-wave (km/s) = 3.41748 4.15323 3.80319
# Velocity P-wave (km/s) = 5.17422 6.77966 6.03060
#
# Compressibility (1/GPa) = 0.03572722
#
# Stress axis : x y z
#
# Youngs Moduli (GPa) = 75.37688 147.58128 46.67139
#
# Poissons Ratio (x) = 0.67652 -0.21494
# Poissons Ratio (y) = 0.34553 0.13499
# Poissons Ratio (z) = -0.34715 0.42685
#
# Static dielectric constant tensor:
#      x y z
#    x 1.948720 0.005480 0.084820 
#    y 0.005480 1.897460 -0.017840 
#    z 0.084820 -0.017840 2.087780 
# 
# From -- ./inp_files/174958.got.cif
#   From: 2010.05.17/outbox.cif.g08.bks.cpg/sg2_88_cif.got.tgz:174958.got - 2010.06.03 11:33:40.
