data_PCOD9026515
_publ_section_title
;
Structure prediction by ZEFSAII (Michael W. Deem and Ramdas Pophale) SiO2 
 PCOD9026515
Probable space group: P -1
;
_chemical_formula_sum "Si O2"
_cell_formula_units_Z 14
_cell_length_a 13.026766
_cell_length_b 10.310369
_cell_length_c 10.572853
_cell_angle_alpha 122.382797
_cell_angle_beta 145.842904
_cell_angle_gamma 44.033728
_cell_volume 547.748143
_symmetry_space_group_name_H-M "P -1"
_symmetry_group_IT_number 2
_symmetry_cell_setting 'triclinic'
loop_
_space_group_symop_operation_xyz
x,y,z
-x,-y,-z
loop_
_atom_site_type_symbol
_atom_site_label
_atom_site_fract_x
_atom_site_fract_y
_atom_site_fract_z
Si Si1 0.302662 0.168748 0.797592
Si Si2 0.106096 0.957436 0.402016
Si Si3 0.642189 0.044615 0.872843
Si Si4 0.410064 0.539235 0.574136
Si Si5 0.821398 0.971849 0.745700
Si Si6 0.817578 0.656483 0.805478
Si Si7 0.144440 0.579628 0.902824
O O1 0.174522 0.382462 0.828415
O O2 0.136907 0.106277 0.577452
O O3 0.418702 0.185957 0.798028
O O4 0.500000 0.000000 0.000000
O O5 0.226496 0.765361 0.505657
O O6 0.248432 0.907465 0.390438
O O7 0.854377 0.029619 0.142350
O O8 0.640161 0.054950 0.721351
O O9 0.664819 0.851658 0.822810
O O10 0.500000 0.500000 0.500000
O O11 0.300200 0.427202 0.425599
O O12 0.613253 0.471164 0.843020
O O13 0.980397 0.754567 0.734248
O O14 0.000000 0.000000 0.000000
O O15 0.970927 0.695691 0.900439
O O16 0.000000 0.500000 0.000000
#
# Coordination Sequence:
#
# PCOD9026515 Si02
#       7
#     2   2   2   2   2   2   2
#     4  12  25  40  62  98 134 166 211 261 318 381
#     4  11  23  40  65  91 131 170 208 259 323 375
#     4  10  22  41  64  94 130 165 209 270 315 373
#     4  12  20  34  65  95 121 163 210 269 316 359
#     4   9  21  45  67  91 125 170 213 264 315 375
#     4  11  19  35  62  92 126 157 213 264 318 361
#     4  11  24  41  61  95 130 163 214 262 310 381
#
# _framework density 25.559191999999999
#
# number of rings (size 3 to 8) (size 9 to 14) (size 15 to 20)
#    0.000    1.143    4.286    3.429    0.000    2.857 
#    0.000    7.143    0.000    0.000    0.000    0.000 
#    0.000    0.000    0.000    0.000    0.000    0.000 
#
# Total GULP energy -78069.247248 kJ/mol
# GULP energy per Si atom -5576.374803 kJ/mol
# Density = 2.550102 g / cm^3
# Si number density = 25.559192 Si / 1000 Ang^3
#
#
#
# Elastic Constant Matrix: (Units=GPa)
#
#
# Indices 1 2 3 4 5 6 
#
# 1 77.4365 15.9214 32.9462 -9.7187 5.9750 -9.0848
# 2 15.9214 111.9990 34.0894 10.8995 -3.3512 21.3534
# 3 32.9462 34.0894 176.8501 18.5442 36.7712 16.6307
# 4 -9.7187 10.8995 18.5442 39.9229 9.5538 4.2372
# 5 5.9750 -3.3512 36.7712 9.5538 32.1263 -1.2697
# 6 -9.0848 21.3534 16.6307 4.2372 -1.2697 33.1485
#
#
#
# Elastic Compliance Matrix: (Units=1/GPa)
#
#
# Indices 1 2 3 4 5 6 
#
# 1 0.016954 -0.003398 -0.003734 0.006130 -0.000744 0.007897
# 2 -0.003398 0.011696 -0.001477 -0.003620 0.004338 -0.007096
# 3 -0.003734 -0.001477 0.009325 -0.001991 -0.009733 -0.004869
# 4 0.006130 -0.003620 -0.001991 0.030336 -0.008227 0.000818
# 5 -0.000744 0.004338 -0.009733 -0.008227 0.045490 0.004679
# 6 0.007897 -0.007096 -0.004869 0.000818 0.004679 0.039420
#
#
# Mechanical properties :
#
#
# Convention : Reuss Voigt Hill
#
# Bulk Modulus (GPa) = 48.17371 59.13331 53.65351
# Shear Modulus (GPa) = 28.19155 39.92813 34.05984
#
# Velocity S-wave (km/s) = 3.32473 3.95673 3.65442
# Velocity P-wave (km/s) = 5.79890 6.63780 6.23248
#
# Compressibility (1/GPa) = 0.02075821
#
# Stress axis : x y z
#
# Youngs Moduli (GPa) = 58.98201 85.49869 107.23598
#
# Poissons Ratio (x) = 0.29052 0.40042
# Poissons Ratio (y) = 0.20042 0.15835
# Poissons Ratio (z) = 0.22024 0.12625
#
# Static dielectric constant tensor:
#      x y z
#    x 1.889200 -0.180550 0.004570 
#    y -0.180550 1.769090 0.064310 
#    z 0.004570 0.064310 1.981770 
# 
# From -- ./inp_files/451843.got.cif
#   From: 2010.05.17/outbox.cif.g08.bks.cpg/sg2_226_cif.got.tgz:451843.got - 2010.06.03 11:33:40.
