data_PCOD9026254
_publ_section_title
;
Structure prediction by ZEFSAII (Michael W. Deem and Ramdas Pophale) SiO2 
 PCOD9026254
Probable space group: P -1
;
_chemical_formula_sum "Si O2"
_cell_formula_units_Z 16
_cell_length_a 18.815036
_cell_length_b 15.746236
_cell_length_c 5.089840
_cell_angle_alpha 86.592386
_cell_angle_beta 82.755440
_cell_angle_gamma 28.226039
_cell_volume 703.188206
_symmetry_space_group_name_H-M "P -1"
_symmetry_group_IT_number 2
_symmetry_cell_setting 'triclinic'
loop_
_space_group_symop_operation_xyz
x,y,z
-x,-y,-z
loop_
_atom_site_type_symbol
_atom_site_label
_atom_site_fract_x
_atom_site_fract_y
_atom_site_fract_z
Si Si1 0.046341 0.548807 0.492186
Si Si2 0.836806 0.216381 0.530478
Si Si3 0.449921 0.300731 0.622188
Si Si4 0.262471 0.821127 0.791224
Si Si5 0.211200 0.049512 0.451200
Si Si6 0.992902 0.834673 0.871694
Si Si7 0.574879 0.558698 0.900466
Si Si8 0.178782 0.487457 0.965661
O O1 0.090099 0.528817 0.771845
O O2 0.000000 0.500000 0.500000
O O3 0.903750 0.757706 0.438137
O O4 0.178096 0.435728 0.243888
O O5 0.736315 0.258810 0.390968
O O6 0.732153 0.344980 0.807059
O O7 0.000000 0.000000 0.500000
O O8 0.885960 0.254663 0.373423
O O9 0.428068 0.360035 0.326411
O O10 0.332935 0.354517 0.776667
O O11 0.621081 0.089100 0.624035
O O12 0.434772 0.396524 0.810321
O O13 0.421908 0.665404 0.893166
O O14 0.235069 0.939870 0.633617
O O15 0.104758 0.986071 0.997202
O O16 0.134801 0.089964 0.219710
O O17 0.091161 0.668649 0.034223
#
# Coordination Sequence:
#
# PCOD9026254 Si02
#       8
#     2   2   2   2   2   2   2   2
#     4  11  24  44  71 103 132 162 204 262 321 388
#     4  12  25  38  61  92 129 170 228 276 318 370
#     4  11  23  42  67  93 126 173 217 259 313 383
#     4  11  22  41  59  88 125 175 217 270 323 373
#     4  10  22  41  63  91 127 169 212 257 324 385
#     4  11  21  40  60  93 120 174 216 267 317 377
#     4  11  25  42  60  90 131 175 219 266 321 369
#     4  11  23  41  70  96 132 165 213 255 317 384
#
# _framework density 22.753509000000001
#
# number of rings (size 3 to 8) (size 9 to 14) (size 15 to 20)
#    0.000    1.000    5.000    1.875    3.500    1.000 
#    0.000    3.750    0.000    0.000    0.000    0.000 
#    0.000    0.000    0.000    0.000    0.000    0.000 
#
# Total GULP energy -89486.479477 kJ/mol
# GULP energy per Si atom -5592.904967 kJ/mol
# Density = 2.270172 g / cm^3
# Si number density = 22.753509 Si / 1000 Ang^3
#
#
#
# Elastic Constant Matrix: (Units=GPa)
#
#
# Indices 1 2 3 4 5 6 
#
# 1 78.9776 21.0950 6.5080 2.6400 -0.8119 1.5512
# 2 21.0950 48.7669 7.3023 10.3302 -5.4190 -12.8860
# 3 6.5080 7.3023 69.6604 4.9519 -5.9358 10.0304
# 4 2.6400 10.3302 4.9519 32.3008 -4.6397 -7.5272
# 5 -0.8119 -5.4190 -5.9358 -4.6397 37.3433 1.7091
# 6 1.5512 -12.8860 10.0304 -7.5272 1.7091 29.0206
#
#
#
# Elastic Compliance Matrix: (Units=1/GPa)
#
#
# Indices 1 2 3 4 5 6 
#
# 1 0.014748 -0.007538 -0.000071 0.000195 -0.000576 -0.004026
# 2 -0.007538 0.029072 -0.003723 -0.004697 0.002273 0.013246
# 3 -0.000071 -0.003723 0.016310 -0.002910 0.002063 -0.008163
# 4 0.000195 -0.004697 -0.002910 0.035133 0.002866 0.007853
# 5 -0.000576 0.002273 0.002063 0.002866 0.027806 -0.000567
# 6 -0.004026 0.013246 -0.008163 0.007853 -0.000567 0.045447
#
#
# Mechanical properties :
#
#
# Convention : Reuss Voigt Hill
#
# Bulk Modulus (GPa) = 26.69093 29.69064 28.19079
# Shear Modulus (GPa) = 24.54978 30.56624 27.55801
#
# Velocity S-wave (km/s) = 3.28829 3.66917 3.48394
# Velocity P-wave (km/s) = 5.11596 5.57024 5.34793
#
# Compressibility (1/GPa) = 0.03746590
#
# Stress axis : x y z
#
# Youngs Moduli (GPa) = 67.80709 34.39775 61.31120
#
# Poissons Ratio (x) = 0.25929 0.00434
# Poissons Ratio (y) = 0.51113 0.22826
# Poissons Ratio (z) = 0.00480 0.12806
#
# Static dielectric constant tensor:
#      x y z
#    x 1.836980 -0.018970 -0.047010 
#    y -0.018970 1.861500 -0.007090 
#    z -0.047010 -0.007090 1.960180 
# 
# From -- ./inp_files/37772.got.cif
#   From: 2010.05.17/outbox.cif.g08.bks.cpg/sg2_19_cif.got.tgz:37772.got - 2010.06.03 11:33:40.
