data_PCOD9026366
_publ_section_title
;
Structure prediction by ZEFSAII (Michael W. Deem and Ramdas Pophale) SiO2 
 PCOD9026366
Probable space group: P -1
;
_chemical_formula_sum "Si O2"
_cell_formula_units_Z 14
_cell_length_a 6.113587
_cell_length_b 15.202669
_cell_length_c 9.162133
_cell_angle_alpha 57.570308
_cell_angle_beta 83.049010
_cell_angle_gamma 57.653664
_cell_volume 590.562752
_symmetry_space_group_name_H-M "P -1"
_symmetry_group_IT_number 2
_symmetry_cell_setting 'triclinic'
loop_
_space_group_symop_operation_xyz
x,y,z
-x,-y,-z
loop_
_atom_site_type_symbol
_atom_site_label
_atom_site_fract_x
_atom_site_fract_y
_atom_site_fract_z
Si Si1 0.931565 0.360724 0.614701
Si Si2 0.350505 0.958119 0.894339
Si Si3 0.723053 0.113465 0.355186
Si Si4 0.477232 0.135539 0.632594
Si Si5 0.424572 0.397212 0.092135
Si Si6 0.930708 0.535144 0.224060
Si Si7 0.762710 0.187618 0.770023
O O1 0.194030 0.245985 0.616110
O O2 0.850232 0.471674 0.409119
O O3 0.998307 0.385672 0.747969
O O4 0.730944 0.317516 0.678413
O O5 0.301652 0.926349 0.767247
O O6 0.541761 0.006721 0.816108
O O7 0.414956 0.841424 0.090815
O O8 0.070370 0.077993 0.869224
O O9 0.494791 0.125915 0.466824
O O10 0.667816 0.252337 0.226493
O O11 0.000000 0.000000 0.500000
O O12 0.684027 0.169908 0.632126
O O13 0.203220 0.437122 0.200755
O O14 0.500000 0.500000 0.000000
O O15 0.287187 0.403899 0.941860
#
# Coordination Sequence:
#
# PCOD9026366 Si02
#       7
#     2   2   2   2   2   2   2
#     4  10  23  42  73  99 137 183 238 290 352 415
#     4  10  23  41  62  98 137 180 231 280 349 417
#     4  12  25  46  70 103 141 189 233 284 362 423
#     4  11  22  42  66  99 139 180 232 290 347 422
#     4  11  27  47  73 105 143 183 241 296 351 419
#     4  10  24  48  68 104 138 187 238 291 349 422
#     4  10  22  41  64 101 137 178 229 287 348 416
#
# _framework density 23.706201
#
# number of rings (size 3 to 8) (size 9 to 14) (size 15 to 20)
#    0.000    1.429    2.857    0.857    6.000    0.000 
#    5.143    2.857    0.000    0.000    0.000    0.000 
#    0.000    0.000    0.000    0.000    0.000    0.000 
#
# Total GULP energy -78230.689356 kJ/mol
# GULP energy per Si atom -5587.906383 kJ/mol
# Density = 2.365224 g / cm^3
# Si number density = 23.706201 Si / 1000 Ang^3
#
#
#
# Elastic Constant Matrix: (Units=GPa)
#
#
# Indices 1 2 3 4 5 6 
#
# 1 69.3708 56.8861 46.0147 -21.7828 -6.9565 21.4268
# 2 56.8861 126.4396 58.3053 0.5309 -4.8332 9.8095
# 3 46.0147 58.3053 112.4883 8.6369 -3.8166 16.0532
# 4 -21.7828 0.5309 8.6369 44.7266 6.0818 -5.6689
# 5 -6.9565 -4.8332 -3.8166 6.0818 30.9426 -16.4069
# 6 21.4268 9.8095 16.0532 -5.6689 -16.4069 49.9216
#
#
#
# Elastic Compliance Matrix: (Units=1/GPa)
#
#
# Indices 1 2 3 4 5 6 
#
# 1 0.042590 -0.013666 -0.010603 0.022107 -0.004048 -0.011005
# 2 -0.013666 0.014836 -0.002060 -0.006267 0.002133 0.003602
# 3 -0.010603 -0.002060 0.015033 -0.008182 0.000398 -0.000677
# 4 0.022107 -0.006267 -0.008182 0.035119 -0.005800 -0.003544
# 5 -0.004048 0.002133 0.000398 -0.005800 0.040221 0.013751
# 6 -0.011005 0.003602 -0.000677 -0.003544 0.013751 0.028381
#
#
# Mechanical properties :
#
#
# Convention : Reuss Voigt Hill
#
# Bulk Modulus (GPa) = 50.50172 70.07897 60.29035
# Shear Modulus (GPa) = 21.23706 34.92433 28.08070
#
# Velocity S-wave (km/s) = 2.99631 3.84241 3.44543
# Velocity P-wave (km/s) = 5.77234 7.02219 6.42772
#
# Compressibility (1/GPa) = 0.01980130
#
# Stress axis : x y z
#
# Youngs Moduli (GPa) = 23.47973 67.40542 66.52028
#
# Poissons Ratio (x) = 0.92116 0.70530
# Poissons Ratio (y) = 0.32087 0.13702
# Poissons Ratio (z) = 0.24895 0.13885
#
# Static dielectric constant tensor:
#      x y z
#    x 1.927810 -0.003050 -0.036920 
#    y -0.003050 1.920570 -0.026880 
#    z -0.036920 -0.026880 1.925030 
# 
# From -- ./inp_files/134826.got.cif
#   From: 2010.05.17/outbox.cif.g08.bks.cpg/sg2_68_cif.got.tgz:134826.got - 2010.06.03 11:33:40.
