data_PCOD9026067
_publ_section_title
;
Structure prediction by ZEFSAII (Michael W. Deem and Ramdas Pophale) SiO2 
 PCOD9026067
Probable space group: P -1
;
_chemical_formula_sum "Si O2"
_cell_formula_units_Z 16
_cell_length_a 20.588253
_cell_length_b 11.534937
_cell_length_c 8.238725
_cell_angle_alpha 126.085224
_cell_angle_beta 138.235615
_cell_angle_gamma 33.398909
_cell_volume 714.329377
_symmetry_space_group_name_H-M "P -1"
_symmetry_group_IT_number 2
_symmetry_cell_setting 'triclinic'
loop_
_space_group_symop_operation_xyz
x,y,z
-x,-y,-z
loop_
_atom_site_type_symbol
_atom_site_label
_atom_site_fract_x
_atom_site_fract_y
_atom_site_fract_z
Si Si1 0.348405 0.576547 0.130303
Si Si2 0.018042 0.380507 0.594898
Si Si3 0.414166 0.824014 0.548622
Si Si4 0.654972 0.691051 0.698229
Si Si5 0.572771 0.576489 0.184041
Si Si6 0.872834 0.803586 0.793867
Si Si7 0.116506 0.670392 0.941481
Si Si8 0.719632 0.932982 0.946730
O O1 0.395370 0.690927 0.313769
O O2 0.481758 0.335185 0.243583
O O3 0.214437 0.701380 0.105996
O O4 0.324317 0.546739 0.880610
O O5 0.942033 0.570014 0.737494
O O6 0.000000 0.500000 0.500000
O O7 0.170921 0.175958 0.787965
O O8 0.940901 0.323736 0.333402
O O9 0.499066 0.847548 0.618426
O O10 0.254916 0.055494 0.461527
O O11 0.659773 0.545919 0.473199
O O12 0.766795 0.559946 0.946183
O O13 0.686635 0.800231 0.750785
O O14 0.500000 0.500000 0.000000
O O15 0.434252 0.828903 0.112544
O O16 0.799823 0.910155 0.919398
O O17 0.987842 0.795667 0.935699
#
# Coordination Sequence:
#
# PCOD9026067 Si02
#       8
#     2   2   2   2   2   2   2   2
#     4  10  23  42  65  95 128 183 218 273 336 384
#     4  10  22  41  61  96 137 167 220 271 331 394
#     4  10  22  42  65  94 133 171 229 272 325 393
#     4  11  22  43  64 102 133 170 221 273 330 398
#     4  12  25  43  68  98 137 171 223 279 325 399
#     4  11  22  40  64  95 135 172 214 277 327 395
#     4  10  24  41  67  94 135 174 222 273 329 397
#     4  12  24  40  71 102 133 180 215 274 346 380
#
# _framework density 22.398631000000002
#
# number of rings (size 3 to 8) (size 9 to 14) (size 15 to 20)
#    0.000    1.250    5.000    0.750    5.250    0.500 
#    0.000    3.750    0.000    3.000    0.000    0.000 
#    0.000    0.000    0.000    0.000    0.000    0.000 
#
# Total GULP energy -89201.398991 kJ/mol
# GULP energy per Si atom -5575.087437 kJ/mol
# Density = 2.234765 g / cm^3
# Si number density = 22.398631 Si / 1000 Ang^3
#
#
#
# Elastic Constant Matrix: (Units=GPa)
#
#
# Indices 1 2 3 4 5 6 
#
# 1 119.6962 18.8376 26.8503 -7.2615 14.6961 -19.7124
# 2 18.8376 33.4091 1.6934 -11.1464 7.7741 5.5159
# 3 26.8503 1.6934 93.8675 -10.1061 2.3230 4.4647
# 4 -7.2615 -11.1464 -10.1061 33.6493 -7.1457 0.3111
# 5 14.6961 7.7741 2.3230 -7.1457 31.1806 -5.1421
# 6 -19.7124 5.5159 4.4647 0.3111 -5.1421 31.6097
#
#
#
# Elastic Compliance Matrix: (Units=1/GPa)
#
#
# Indices 1 2 3 4 5 6 
#
# 1 0.012249 -0.008331 -0.003940 -0.001874 -0.002299 0.009293
# 2 -0.008331 0.042351 0.003764 0.012115 -0.006494 -0.014293
# 3 -0.003940 0.003764 0.012393 0.004196 0.000152 -0.004881
# 4 -0.001874 0.012115 0.004196 0.035718 0.005178 -0.003385
# 5 -0.002299 -0.006494 0.000152 0.005178 0.036877 0.005626
# 6 0.009293 -0.014293 -0.004881 -0.003385 0.005626 0.041563
#
#
# Mechanical properties :
#
#
# Convention : Reuss Voigt Hill
#
# Bulk Modulus (GPa) = 20.00900 37.97060 28.98980
# Shear Modulus (GPa) = 23.27482 32.59403 27.93442
#
# Velocity S-wave (km/s) = 3.22703 3.81882 3.53533
# Velocity P-wave (km/s) = 4.77886 6.03602 5.44385
#
# Compressibility (1/GPa) = 0.04997752
#
# Stress axis : x y z
#
# Youngs Moduli (GPa) = 81.64233 23.61206 80.69325
#
# Poissons Ratio (x) = 0.19671 0.31795
# Poissons Ratio (y) = 0.68017 -0.30372
# Poissons Ratio (z) = 0.32169 -0.08887
#
# Static dielectric constant tensor:
#      x y z
#    x 1.855330 -0.015620 -0.018360 
#    y -0.015620 1.842400 0.031970 
#    z -0.018360 0.031970 1.897780 
# 
# From -- ./inp_files/346387.got.cif
#   From: 2010.05.17/outbox.cif.g08.bks.cpg/sg2_174_cif.got.tgz:346387.got - 2010.06.03 11:33:40.
