data_PCOD9026523
_publ_section_title
;
Structure prediction by ZEFSAII (Michael W. Deem and Ramdas Pophale) SiO2 
 PCOD9026523
Probable space group: P -1
;
_chemical_formula_sum "Si O2"
_cell_formula_units_Z 16
_cell_length_a 26.178581
_cell_length_b 5.291850
_cell_length_c 5.761648
_cell_angle_alpha 87.615120
_cell_angle_beta 127.124846
_cell_angle_gamma 96.039453
_cell_volume 632.632493
_symmetry_space_group_name_H-M "P -1"
_symmetry_group_IT_number 2
_symmetry_cell_setting 'triclinic'
loop_
_space_group_symop_operation_xyz
x,y,z
-x,-y,-z
loop_
_atom_site_type_symbol
_atom_site_label
_atom_site_fract_x
_atom_site_fract_y
_atom_site_fract_z
Si Si1 0.366086 0.946306 0.016111
Si Si2 0.834903 0.102392 0.272239
Si Si3 0.282130 0.202706 0.106151
Si Si4 0.513418 0.294526 0.740481
Si Si5 0.247074 0.591253 0.617107
Si Si6 0.072359 0.023740 0.108239
Si Si7 0.121604 0.541012 0.000507
Si Si8 0.604674 0.635065 0.298134
O O1 0.438786 0.881534 0.246694
O O2 0.329764 0.004421 0.149783
O O3 0.317502 0.734194 0.762680
O O4 0.372566 0.190949 0.862476
O O5 0.790111 0.220240 0.332997
O O6 0.881140 0.931401 0.542001
O O7 0.876010 0.335359 0.251373
O O8 0.783185 0.945404 0.966286
O O9 0.330175 0.393218 0.380784
O O10 0.257532 0.350185 0.812574
O O11 0.500000 0.500000 0.500000
O O12 0.445575 0.227286 0.683834
O O13 0.559976 0.400960 0.076920
O O14 0.196736 0.529267 0.276149
O O15 0.086420 0.262832 0.964421
O O16 0.090224 0.757802 0.056816
O O17 0.000000 0.000000 0.000000
#
# Coordination Sequence:
#
# PCOD9026523 Si02
#       8
#     2   2   2   2   2   2   2   2
#     4  11  23  40  62  92 123 169 218 280 350 412
#     4  10  24  42  68 100 138 184 229 289 348 414
#     4  11  23  42  66  94 131 171 224 289 344 415
#     4  11  25  44  60  87 127 169 216 282 350 419
#     4  10  22  41  64  94 135 171 224 283 346 415
#     4  11  25  45  70 107 147 187 239 291 345 419
#     4  11  24  43  72 102 142 192 235 290 351 419
#     4  11  24  39  64  90 121 169 224 275 347 428
#
# _framework density 25.291145
#
# number of rings (size 3 to 8) (size 9 to 14) (size 15 to 20)
#    0.000    1.250    1.250    3.750    1.750    9.000 
#    0.000    0.000    0.000    0.000    0.000    0.000 
#    0.000    0.000    0.000    0.000    0.000    0.000 
#
# Total GULP energy -89519.403352 kJ/mol
# GULP energy per Si atom -5594.962710 kJ/mol
# Density = 2.523358 g / cm^3
# Si number density = 25.291145 Si / 1000 Ang^3
#
#
#
# Elastic Constant Matrix: (Units=GPa)
#
#
# Indices 1 2 3 4 5 6 
#
# 1 116.2110 26.5978 45.4573 8.0543 40.3805 9.1566
# 2 26.5978 85.0246 9.3875 -5.7122 10.9092 5.5888
# 3 45.4573 9.3875 52.7153 -2.7958 14.1350 -10.7710
# 4 8.0543 -5.7122 -2.7958 37.0118 1.4581 -3.1230
# 5 40.3805 10.9092 14.1350 1.4581 37.6231 0.2292
# 6 9.1566 5.5888 -10.7710 -3.1230 0.2292 46.7547
#
#
#
# Elastic Compliance Matrix: (Units=1/GPa)
#
#
# Indices 1 2 3 4 5 6 
#
# 1 0.022886 -0.003029 -0.016665 -0.006735 -0.017112 -0.008325
# 2 -0.003029 0.012978 0.000526 0.002679 -0.000810 -0.000654
# 3 -0.016665 0.000526 0.034866 0.007159 0.004286 0.011690
# 4 -0.006735 0.002679 0.007159 0.029726 0.002582 0.004621
# 5 -0.017112 -0.000810 0.004286 0.002582 0.043443 0.004395
# 6 -0.008325 -0.000654 0.011690 0.004621 0.004395 0.026077
#
#
# Mechanical properties :
#
#
# Convention : Reuss Voigt Hill
#
# Bulk Modulus (GPa) = 30.87035 46.31511 38.59273
# Shear Modulus (GPa) = 22.81967 35.77848 29.29908
#
# Velocity S-wave (km/s) = 3.00705 3.76528 3.40733
# Velocity P-wave (km/s) = 4.92839 6.10374 5.54728
#
# Compressibility (1/GPa) = 0.03239354
#
# Stress axis : x y z
#
# Youngs Moduli (GPa) = 43.69511 77.05635 28.68139
#
# Poissons Ratio (x) = 0.23340 0.47798
# Poissons Ratio (y) = 0.13235 -0.01510
# Poissons Ratio (z) = 0.72819 -0.04056
#
# Static dielectric constant tensor:
#      x y z
#    x 1.989490 -0.062350 -0.035530 
#    y -0.062350 2.072670 0.109890 
#    z -0.035530 0.109890 2.058930 
# 
# From -- ./inp_files/10587.got.cif
#   From: 2010.05.17/outbox.cif.g08.bks.cpg/sg2_6_cif.got.tgz:10587.got - 2010.06.03 11:33:40.
