data_PCOD9026933
_publ_section_title
;
Structure prediction by ZEFSAII (Michael W. Deem and Ramdas Pophale) SiO2 
 PCOD9026933
Probable space group: P -1
;
_chemical_formula_sum "Si O2"
_cell_formula_units_Z 16
_cell_length_a 8.257853
_cell_length_b 11.888388
_cell_length_c 8.727280
_cell_angle_alpha 76.528680
_cell_angle_beta 90.346814
_cell_angle_gamma 53.045516
_cell_volume 653.953605
_symmetry_space_group_name_H-M "P -1"
_symmetry_group_IT_number 2
_symmetry_cell_setting 'triclinic'
loop_
_space_group_symop_operation_xyz
x,y,z
-x,-y,-z
loop_
_atom_site_type_symbol
_atom_site_label
_atom_site_fract_x
_atom_site_fract_y
_atom_site_fract_z
Si Si1 0.033239 0.948313 0.775426
Si Si2 0.597759 0.803688 0.053241
Si Si3 0.151425 0.102722 0.952679
Si Si4 0.523841 0.560917 0.139513
Si Si5 0.243854 0.811934 0.517936
Si Si6 0.919391 0.346062 0.410573
Si Si7 0.168776 0.370295 0.161264
Si Si8 0.316820 0.487382 0.354922
O O1 0.825915 0.058172 0.639507
O O2 0.074387 0.042684 0.849145
O O3 0.216424 0.856555 0.681992
O O4 0.999238 0.852744 0.917026
O O5 0.789943 0.791856 0.133185
O O6 0.558999 0.682960 0.102948
O O7 0.671141 0.777191 0.885812
O O8 0.380603 0.955770 0.045264
O O9 0.730199 0.425172 0.264831
O O10 0.347374 0.601091 0.246516
O O11 0.500000 0.500000 0.000000
O O12 0.065292 0.793763 0.499444
O O13 0.467156 0.659974 0.535069
O O14 0.845190 0.444129 0.531030
O O15 0.089848 0.331328 0.316623
O O16 0.266344 0.436049 0.222832
O O17 0.000000 0.500000 0.000000
#
# Coordination Sequence:
#
# PCOD9026933 Si02
#       8
#     2   2   2   2   2   2   2   2
#     4  10  22  43  66  94 122 176 218 275 322 378
#     4  11  23  42  65  97 134 166 218 273 324 385
#     4  10  24  42  67  95 127 171 228 273 315 382
#     4  11  21  41  67  97 125 177 217 264 332 390
#     4  10  22  41  66  90 132 166 216 262 330 399
#     4  11  24  40  62 100 132 167 217 270 327 395
#     4  12  23  42  63  96 137 171 212 268 331 393
#     4  11  24  41  65  99 130 174 213 267 334 399
#
# _framework density 24.466569
#
# number of rings (size 3 to 8) (size 9 to 14) (size 15 to 20)
#    0.000    1.250    2.500    3.375    5.250    1.000 
#    4.500    0.000    0.000    6.000    0.000    0.000 
#    0.000    0.000    0.000    0.000    0.000    0.000 
#
# Total GULP energy -89316.345426 kJ/mol
# GULP energy per Si atom -5582.271589 kJ/mol
# Density = 2.441088 g / cm^3
# Si number density = 24.466569 Si / 1000 Ang^3
#
#
#
# Elastic Constant Matrix: (Units=GPa)
#
#
# Indices 1 2 3 4 5 6 
#
# 1 84.1161 9.6313 32.1403 6.4813 -8.2555 23.7767
# 2 9.6313 72.8445 26.5447 14.6610 -3.4641 9.0558
# 3 32.1403 26.5447 99.9070 19.0919 -12.0462 -5.1774
# 4 6.4813 14.6610 19.0919 44.1997 -1.7706 -1.7458
# 5 -8.2555 -3.4641 -12.0462 -1.7706 44.2244 9.1790
# 6 23.7767 9.0558 -5.1774 -1.7458 9.1790 33.0902
#
#
#
# Elastic Compliance Matrix: (Units=1/GPa)
#
#
# Indices 1 2 3 4 5 6 
#
# 1 0.020023 0.002703 -0.007172 -0.001214 0.005659 -0.017883
# 2 0.002703 0.017074 -0.004770 -0.004239 0.002066 -0.008158
# 3 -0.007172 -0.004770 0.014716 -0.003372 0.000403 0.008472
# 4 -0.001214 -0.004239 -0.003372 0.025746 -0.001104 0.003170
# 5 0.005659 0.002066 0.000403 -0.001104 0.026375 -0.011943
# 6 -0.017883 -0.008158 0.008472 0.003170 -0.011943 0.050108
#
#
# Mechanical properties :
#
#
# Convention : Reuss Voigt Hill
#
# Bulk Modulus (GPa) = 29.99794 43.72223 36.86008
# Shear Modulus (GPa) = 27.22844 36.87294 32.05069
#
# Velocity S-wave (km/s) = 3.33961 3.88632 3.62329
# Velocity P-wave (km/s) = 5.21134 6.16822 5.70986
#
# Compressibility (1/GPa) = 0.03333563
#
# Stress axis : x y z
#
# Youngs Moduli (GPa) = 49.94214 58.56807 67.95458
#
# Poissons Ratio (x) = -0.15830 0.48737
# Poissons Ratio (y) = -0.13498 0.32411
# Poissons Ratio (z) = 0.35818 0.27934
#
# Static dielectric constant tensor:
#      x y z
#    x 2.067290 0.090650 -0.075890 
#    y 0.090650 2.054720 -0.062160 
#    z -0.075890 -0.062160 1.972810 
# 
# From -- ./inp_files/177692.got.cif
#   From: 2010.05.17/outbox.cif.g08.bks.cpg/sg2_89_cif.got.tgz:177692.got - 2010.06.03 11:33:40.
