data_PCOD9026480
_publ_section_title
;
Structure prediction by ZEFSAII (Michael W. Deem and Ramdas Pophale) SiO2 
 PCOD9026480
Probable space group: P -1
;
_chemical_formula_sum "Si O2"
_cell_formula_units_Z 14
_cell_length_a 17.475902
_cell_length_b 9.859694
_cell_length_c 8.665186
_cell_angle_alpha 47.347799
_cell_angle_beta 111.147052
_cell_angle_gamma 73.774293
_cell_volume 661.187340
_symmetry_space_group_name_H-M "P -1"
_symmetry_group_IT_number 2
_symmetry_cell_setting 'triclinic'
loop_
_space_group_symop_operation_xyz
x,y,z
-x,-y,-z
loop_
_atom_site_type_symbol
_atom_site_label
_atom_site_fract_x
_atom_site_fract_y
_atom_site_fract_z
Si Si1 0.383006 0.216867 0.364035
Si Si2 0.670774 0.183488 0.721745
Si Si3 0.108861 0.674761 0.780219
Si Si4 0.493533 0.208140 0.744530
Si Si5 0.140612 0.303606 0.311208
Si Si6 0.363420 0.830958 0.647415
Si Si7 0.928750 0.733055 0.398695
O O1 0.411478 0.306263 0.455019
O O2 0.500000 0.000000 0.500000
O O3 0.384603 0.002797 0.586040
O O4 0.249367 0.496685 0.967880
O O5 0.617786 0.099638 0.847532
O O6 0.571300 0.522083 0.406713
O O7 0.683018 0.099421 0.617493
O O8 0.804140 0.032532 0.998465
O O9 0.035471 0.675376 0.602276
O O10 0.150336 0.491713 0.105358
O O11 0.000000 0.000000 0.500000
O O12 0.500000 0.000000 0.000000
O O13 0.131633 0.293004 0.493452
O O14 0.245035 0.987508 0.553617
O O15 0.000000 0.500000 0.000000
O O16 0.500000 0.500000 0.000000
O O17 0.000000 0.500000 0.500000
#
# Coordination Sequence:
#
# PCOD9026480 Si02
#       7
#     2   2   2   2   2   2   2
#     4  11  22  40  62  92 132 168 217 272 327 388
#     4  11  24  42  67  97 134 177 219 271 344 390
#     4  10  22  41  64  93 126 172 217 266 323 392
#     4  11  25  41  64  98 139 173 216 276 336 396
#     4   9  21  39  65  89 124 170 215 263 318 392
#     4  11  23  40  67  97 126 170 226 267 329 404
#     4  11  23  42  68  92 129 170 220 276 326 398
#
# _framework density 21.174029999999998
#
# number of rings (size 3 to 8) (size 9 to 14) (size 15 to 20)
#    0.000    1.429    1.429    4.286    8.000    2.286 
#    0.000    2.143    0.000    0.000    0.000    0.000 
#    0.000    0.000    0.000    0.000    0.000    0.000 
#
# Total GULP energy -77957.303999 kJ/mol
# GULP energy per Si atom -5568.378857 kJ/mol
# Density = 2.112584 g / cm^3
# Si number density = 21.174030 Si / 1000 Ang^3
#
#
#
# Elastic Constant Matrix: (Units=GPa)
#
#
# Indices 1 2 3 4 5 6 
#
# 1 73.3432 41.3783 45.8054 -9.0477 17.9792 -13.3158
# 2 41.3783 135.5182 39.3962 -3.9351 13.4990 -15.0092
# 3 45.8054 39.3962 130.7272 -12.9820 32.1912 -11.2361
# 4 -9.0477 -3.9351 -12.9820 46.4219 0.1500 8.5781
# 5 17.9792 13.4990 32.1912 0.1500 38.2407 -0.8100
# 6 -13.3158 -15.0092 -11.2361 8.5781 -0.8100 44.9331
#
#
#
# Elastic Compliance Matrix: (Units=1/GPa)
#
#
# Indices 1 2 3 4 5 6 
#
# 1 0.020648 -0.004168 -0.004424 0.001860 -0.004452 0.003185
# 2 -0.004168 0.009181 -0.001165 -0.000666 -0.000263 0.001663
# 3 -0.004424 -0.001165 0.011618 0.002190 -0.007284 0.000656
# 4 0.001860 -0.000666 0.002190 0.023132 -0.002650 -0.003587
# 5 -0.004452 -0.000263 -0.007284 -0.002650 0.034434 -0.002102
# 6 0.003185 0.001663 0.000656 -0.003587 -0.002102 0.024566
#
#
# Mechanical properties :
#
#
# Convention : Reuss Voigt Hill
#
# Bulk Modulus (GPa) = 45.59240 65.86093 55.72667
# Shear Modulus (GPa) = 33.24380 40.11970 36.68175
#
# Velocity S-wave (km/s) = 3.96666 4.35761 4.16672
# Velocity P-wave (km/s) = 6.52366 7.51601 7.03735
#
# Compressibility (1/GPa) = 0.02193348
#
# Stress axis : x y z
#
# Youngs Moduli (GPa) = 48.43051 108.91522 86.07200
#
# Poissons Ratio (x) = 0.45399 0.38078
# Poissons Ratio (y) = 0.20187 0.10027
# Poissons Ratio (z) = 0.21425 0.12688
#
# Static dielectric constant tensor:
#      x y z
#    x 1.090470 0.894100 -0.115550 
#    y 0.894100 0.652800 0.153730 
#    z -0.115550 0.153730 1.808410 
# 
# From -- ./inp_files/328480.got.cif
#   From: 2010.05.17/outbox.cif.g08.bks.cpg/sg2_165_cif.got.tgz:328480.got - 2010.06.03 11:33:40.
