data_PCOD9026269
_publ_section_title
;
Structure prediction by ZEFSAII (Michael W. Deem and Ramdas Pophale) SiO2 
 PCOD9026269
Probable space group: P -1
;
_chemical_formula_sum "Si O2"
_cell_formula_units_Z 16
_cell_length_a 29.720687
_cell_length_b 5.111130
_cell_length_c 9.650711
_cell_angle_alpha 72.953173
_cell_angle_beta 29.350398
_cell_angle_gamma 71.615747
_cell_volume 681.362399
_symmetry_space_group_name_H-M "P -1"
_symmetry_group_IT_number 2
_symmetry_cell_setting 'triclinic'
loop_
_space_group_symop_operation_xyz
x,y,z
-x,-y,-z
loop_
_atom_site_type_symbol
_atom_site_label
_atom_site_fract_x
_atom_site_fract_y
_atom_site_fract_z
Si Si1 0.284174 0.370769 0.897631
Si Si2 0.586710 0.859976 0.877257
Si Si3 0.975099 0.803857 0.302534
Si Si4 0.085202 0.256239 0.806425
Si Si5 0.443284 0.242217 0.703386
Si Si6 0.679123 0.385388 0.516258
Si Si7 0.832028 0.057698 0.858098
Si Si8 0.142464 0.369678 0.914434
O O1 0.344559 0.314832 0.881095
O O2 0.343884 0.489770 0.594778
O O3 0.246419 0.098292 0.982420
O O4 0.200312 0.618585 0.103558
O O5 0.619383 0.566994 0.763645
O O6 0.662148 0.071188 0.621196
O O7 0.566474 0.833517 0.097802
O O8 0.500000 0.000000 0.000000
O O9 0.896575 0.786334 0.397705
O O10 0.925684 0.960434 0.539337
O O11 0.038731 0.517058 0.202724
O O12 0.046689 0.988309 0.012259
O O13 0.155130 0.340681 0.719455
O O14 0.000000 0.500000 0.000000
O O15 0.500000 0.500000 0.500000
O O16 0.500000 0.000000 0.500000
O O17 0.783208 0.446844 0.255177
O O18 0.843647 0.919672 0.998762
#
# Coordination Sequence:
#
# PCOD9026269 Si02
#       8
#     2   2   2   2   2   2   2   2
#     4  11  25  46  64 102 137 181 216 283 345 394
#     4  12  25  45  73 107 130 177 221 268 335 410
#     4  10  22  41  63  92 130 184 232 284 338 398
#     4   9  21  40  59  89 127 173 234 273 354 384
#     4  12  25  47  75 102 138 176 217 272 339 410
#     4  11  24  44  68  99 140 171 223 280 329 399
#     4  11  25  41  67  95 136 173 234 281 334 398
#     4  10  23  40  66  94 129 181 229 283 341 388
#
# _framework density 23.482367
#
# number of rings (size 3 to 8) (size 9 to 14) (size 15 to 20)
#    0.000    1.250    0.000    5.250    8.750    1.500 
#    9.000    0.000    0.000    0.000    0.000    0.000 
#    0.000    0.000    0.000    0.000    0.000    0.000 
#
# Total GULP energy -89588.892364 kJ/mol
# GULP energy per Si atom -5599.305773 kJ/mol
# Density = 2.342892 g / cm^3
# Si number density = 23.482367 Si / 1000 Ang^3
#
#
#
# Elastic Constant Matrix: (Units=GPa)
#
#
# Indices 1 2 3 4 5 6 
#
# 1 157.3187 28.8653 32.8893 4.4315 15.7663 -22.8672
# 2 28.8653 90.2321 17.4729 6.1335 8.4504 0.4676
# 3 32.8893 17.4729 83.8646 7.9810 28.1981 -11.3895
# 4 4.4315 6.1335 7.9810 46.1382 3.0259 -0.2068
# 5 15.7663 8.4504 28.1981 3.0259 37.0833 0.3448
# 6 -22.8672 0.4676 -11.3895 -0.2068 0.3448 36.5755
#
#
#
# Elastic Compliance Matrix: (Units=1/GPa)
#
#
# Indices 1 2 3 4 5 6 
#
# 1 0.007881 -0.002093 -0.001414 -0.000094 -0.001833 0.004530
# 2 -0.002093 0.012217 -0.001736 -0.001101 -0.000466 -0.002007
# 3 -0.001414 -0.001736 0.017870 -0.001884 -0.012482 0.004810
# 4 -0.000094 -0.001101 -0.001884 0.022158 -0.000080 -0.000505
# 5 -0.001833 -0.000466 -0.012482 -0.000080 0.037400 -0.005380
# 6 0.004530 -0.002007 0.004810 -0.000505 -0.005380 0.031744
#
#
# Mechanical properties :
#
#
# Convention : Reuss Voigt Hill
#
# Bulk Modulus (GPa) = 36.38723 54.43004 45.40864
# Shear Modulus (GPa) = 33.57590 40.77193 37.17391
#
# Velocity S-wave (km/s) = 3.78542 4.17139 3.98308
# Velocity P-wave (km/s) = 5.88515 6.81396 6.36652
#
# Compressibility (1/GPa) = 0.02748217
#
# Stress axis : x y z
#
# Youngs Moduli (GPa) = 126.88735 81.85313 55.96065
#
# Poissons Ratio (x) = 0.17130 0.07914
# Poissons Ratio (y) = 0.26554 0.09714
# Poissons Ratio (z) = 0.17945 0.14208
#
# Static dielectric constant tensor:
#      x y z
#    x 1.925540 0.004220 -0.009430 
#    y 0.004220 1.886700 0.021540 
#    z -0.009430 0.021540 1.894450 
# 
# From -- ./inp_files/358200.got.cif
#   From: 2010.05.17/outbox.cif.g08.bks.cpg/sg2_180_cif.got.tgz:358200.got - 2010.06.03 11:33:40.
