data_PCOD9026790
_publ_section_title
;
Structure prediction by ZEFSAII (Michael W. Deem and Ramdas Pophale) SiO2 
 PCOD9026790
Probable space group: P -1
;
_chemical_formula_sum "Si O2"
_cell_formula_units_Z 14
_cell_length_a 14.591869
_cell_length_b 8.166154
_cell_length_c 13.989512
_cell_angle_alpha 51.333687
_cell_angle_beta 31.234035
_cell_angle_gamma 71.121578
_cell_volume 576.354635
_symmetry_space_group_name_H-M "P -1"
_symmetry_group_IT_number 2
_symmetry_cell_setting 'triclinic'
loop_
_space_group_symop_operation_xyz
x,y,z
-x,-y,-z
loop_
_atom_site_type_symbol
_atom_site_label
_atom_site_fract_x
_atom_site_fract_y
_atom_site_fract_z
Si Si1 0.950094 0.506636 0.286892
Si Si2 0.306565 0.988120 0.226519
Si Si3 0.568308 0.812943 0.470143
Si Si4 0.059196 0.056849 0.781568
Si Si5 0.306816 0.449065 0.976734
Si Si6 0.800070 0.503362 0.220449
Si Si7 0.406444 0.248321 0.236544
O O1 0.009362 0.752673 0.199722
O O2 0.801509 0.476854 0.343191
O O3 0.120591 0.469139 0.096908
O O4 0.870599 0.293761 0.515018
O O5 0.259835 0.187337 0.150605
O O6 0.350634 0.051150 0.276568
O O7 0.500000 0.000000 0.000000
O O8 0.805920 0.949587 0.246004
O O9 0.424958 0.700377 0.544745
O O10 0.500000 0.000000 0.500000
O O11 0.480723 0.560835 0.701164
O O12 0.209870 0.156171 0.516844
O O13 0.866153 0.784184 0.038107
O O14 0.402579 0.660686 0.895534
O O15 0.000000 0.500000 0.000000
O O16 0.500000 0.500000 0.000000
#
# Coordination Sequence:
#
# PCOD9026790 Si02
#       7
#     2   2   2   2   2   2   2
#     4  12  24  42  65  99 138 177 227 284 332 407
#     4  11  23  44  68  96 130 174 230 280 343 409
#     4  11  22  41  71  97 134 183 227 279 343 403
#     4  11  24  44  66 101 144 177 230 280 335 411
#     4  10  22  41  65  96 134 175 224 277 341 399
#     4  12  23  42  69 102 135 182 229 280 346 397
#     4   9  20  41  66  90 130 179 217 274 338 395
#
# _framework density 24.290600999999999
#
# number of rings (size 3 to 8) (size 9 to 14) (size 15 to 20)
#    0.000    1.143    2.857    4.286    2.000    0.571 
#    5.143    3.571    0.000    0.000    0.000    0.000 
#    0.000    0.000    0.000    0.000    0.000    0.000 
#
# Total GULP energy -78091.874241 kJ/mol
# GULP energy per Si atom -5577.991017 kJ/mol
# Density = 2.423531 g / cm^3
# Si number density = 24.290601 Si / 1000 Ang^3
#
#
#
# Elastic Constant Matrix: (Units=GPa)
#
#
# Indices 1 2 3 4 5 6 
#
# 1 98.8941 37.5152 17.9382 1.8332 1.3593 5.7600
# 2 37.5152 169.8654 46.1108 -15.5993 3.7854 -4.0182
# 3 17.9382 46.1108 101.4664 -9.8622 11.2902 -6.9217
# 4 1.8332 -15.5993 -9.8622 53.0686 -3.3350 4.6871
# 5 1.3593 3.7854 11.2902 -3.3350 40.8765 -4.7689
# 6 5.7600 -4.0182 -6.9217 4.6871 -4.7689 24.9596
#
#
#
# Elastic Compliance Matrix: (Units=1/GPa)
#
#
# Indices 1 2 3 4 5 6 
#
# 1 0.011442 -0.002356 -0.001243 -0.001052 -0.000281 -0.003221
# 2 -0.002356 0.007313 -0.002736 0.001683 0.000378 0.000718
# 3 -0.001243 -0.002736 0.011880 0.001066 -0.002615 0.002441
# 4 -0.001052 0.001683 0.001066 0.019872 0.000885 -0.002753
# 5 -0.000281 0.000378 -0.002615 0.000885 0.025717 0.004148
# 6 -0.003221 0.000718 0.002441 -0.002753 0.004148 0.042910
#
#
# Mechanical properties :
#
#
# Convention : Reuss Voigt Hill
#
# Bulk Modulus (GPa) = 55.66576 63.70603 59.68590
# Shear Modulus (GPa) = 36.28651 41.69170 38.98911
#
# Velocity S-wave (km/s) = 3.86923 4.14741 4.01073
# Velocity P-wave (km/s) = 6.55191 7.01557 6.78770
#
# Compressibility (1/GPa) = 0.01796436
#
# Stress axis : x y z
#
# Youngs Moduli (GPa) = 87.39736 136.73691 84.17617
#
# Poissons Ratio (x) = 0.32217 0.10461
# Poissons Ratio (y) = 0.20592 0.23034
# Poissons Ratio (z) = 0.10862 0.37417
#
# Static dielectric constant tensor:
#      x y z
#    x 1.973830 0.087220 0.083870 
#    y 0.087220 2.273610 0.636640 
#    z 0.083870 0.636640 3.245010 
# 
# From -- ./inp_files/529362.got.cif
#   From: 2010.05.17/outbox.cif.g08.bks.cpg/sg2_265_cif.got.tgz:529362.got - 2010.06.03 11:33:40.
