data_PCOD9026488
_publ_section_title
;
Structure prediction by ZEFSAII (Michael W. Deem and Ramdas Pophale) SiO2 
 PCOD9026488
Probable space group: P -1
;
_chemical_formula_sum "Si O2"
_cell_formula_units_Z 14
_cell_length_a 10.527034
_cell_length_b 17.919832
_cell_length_c 15.745320
_cell_angle_alpha 146.470547
_cell_angle_beta 157.971617
_cell_angle_gamma 44.632724
_cell_volume 587.963894
_symmetry_space_group_name_H-M "P -1"
_symmetry_group_IT_number 2
_symmetry_cell_setting 'triclinic'
loop_
_space_group_symop_operation_xyz
x,y,z
-x,-y,-z
loop_
_atom_site_type_symbol
_atom_site_label
_atom_site_fract_x
_atom_site_fract_y
_atom_site_fract_z
Si Si1 0.586596 0.430629 0.687103
Si Si2 0.683456 0.963129 0.201433
Si Si3 0.240245 0.322694 0.538562
Si Si4 0.519310 0.223868 0.307523
Si Si5 0.261407 0.645458 0.596996
Si Si6 0.705068 0.067652 0.910630
Si Si7 0.310903 0.896666 0.359896
O O1 0.454863 0.429080 0.700917
O O2 0.531264 0.278635 0.463740
O O3 0.390419 0.518599 0.592103
O O4 0.000000 0.500000 0.000000
O O5 0.354593 0.968013 0.062019
O O6 0.700360 0.098740 0.283610
O O7 0.559077 0.798592 0.943385
O O8 0.000000 0.000000 0.500000
O O9 0.488564 0.222221 0.616478
O O10 0.088029 0.361086 0.569691
O O11 0.884430 0.235288 0.182479
O O12 0.739924 0.350111 0.501771
O O13 0.103064 0.171947 0.977776
O O14 0.374702 0.995963 0.577714
O O15 0.000000 0.000000 0.000000
O O16 0.500000 0.000000 0.500000
#
# Coordination Sequence:
#
# PCOD9026488 Si02
#       7
#     2   2   2   2   2   2   2
#     4  12  25  46  66  87 125 179 220 255 315 395
#     4  11  22  39  63  92 127 166 207 259 319 379
#     4  10  22  41  64  93 129 172 213 257 316 383
#     4  12  24  42  66  97 128 165 215 268 319 378
#     4  11  24  41  64  97 130 161 210 273 319 366
#     4   9  18  35  59  90 125 164 204 244 307 381
#     4  11  20  36  64  98 131 167 210 266 318 374
#
# _framework density 23.810984000000001
#
# number of rings (size 3 to 8) (size 9 to 14) (size 15 to 20)
#    0.000    1.143    0.000    9.000    0.000    1.143 
#    0.000    4.286    0.000    0.000    0.000    0.000 
#    0.000    0.000    0.000    0.000    0.000    0.000 
#
# Total GULP energy -78136.041214 kJ/mol
# GULP energy per Si atom -5581.145801 kJ/mol
# Density = 2.375679 g / cm^3
# Si number density = 23.810984 Si / 1000 Ang^3
#
#
#
# Elastic Constant Matrix: (Units=GPa)
#
#
# Indices 1 2 3 4 5 6 
#
# 1 111.1920 -5.2275 -2.6578 3.4963 26.1795 3.6293
# 2 -5.2275 99.0082 -5.6218 6.3796 8.8561 1.5705
# 3 -2.6578 -5.6218 84.6177 -11.6964 0.1778 -7.4187
# 4 3.4963 6.3796 -11.6964 28.7742 4.8064 6.4653
# 5 26.1795 8.8561 0.1778 4.8064 35.8233 9.7287
# 6 3.6293 1.5705 -7.4187 6.4653 9.7287 39.9086
#
#
#
# Elastic Compliance Matrix: (Units=1/GPa)
#
#
# Indices 1 2 3 4 5 6 
#
# 1 0.011102 0.001397 0.000531 -0.000252 -0.008756 0.001209
# 2 0.001397 0.010637 0.000566 -0.001862 -0.003604 0.000740
# 3 0.000531 0.000566 0.012715 0.004838 -0.001767 0.001940
# 4 -0.000252 -0.001862 0.004838 0.038727 -0.003365 -0.004458
# 5 -0.008756 -0.003604 -0.001767 -0.003365 0.037857 -0.008074
# 6 0.001209 0.000740 0.001940 -0.004458 -0.008074 0.027969
#
#
# Mechanical properties :
#
#
# Convention : Reuss Voigt Hill
#
# Bulk Modulus (GPa) = 25.35540 29.75596 27.55568
# Shear Modulus (GPa) = 33.97509 41.45620 37.71565
#
# Velocity S-wave (km/s) = 3.78149 4.17712 3.98422
# Velocity P-wave (km/s) = 5.45325 5.98233 5.72391
#
# Compressibility (1/GPa) = 0.03943932
#
# Stress axis : x y z
#
# Youngs Moduli (GPa) = 90.07630 94.01450 78.64965
#
# Poissons Ratio (x) = -0.13129 -0.04177
# Poissons Ratio (y) = -0.12579 -0.04448
# Poissons Ratio (z) = -0.04784 -0.05317
#
# Static dielectric constant tensor:
#      x y z
#    x 2.103830 0.022140 0.071000 
#    y 0.022140 1.955650 0.058000 
#    z 0.071000 0.058000 2.044900 
# 
# From -- ./inp_files/570388.got.cif
#   From: 2010.05.17/outbox.cif.g08.bks.cpg/sg2_286_cif.got.tgz:570388.got - 2010.06.03 11:33:40.
