data_PCOD9026089
_publ_section_title
;
Structure prediction by ZEFSAII (Michael W. Deem and Ramdas Pophale) SiO2 
 PCOD9026089
Probable space group: P -1
;
_chemical_formula_sum "Si O2"
_cell_formula_units_Z 16
_cell_length_a 9.422834
_cell_length_b 14.826109
_cell_length_c 9.163937
_cell_angle_alpha 51.579692
_cell_angle_beta 133.472655
_cell_angle_gamma 107.695687
_cell_volume 710.500282
_symmetry_space_group_name_H-M "P -1"
_symmetry_group_IT_number 2
_symmetry_cell_setting 'triclinic'
loop_
_space_group_symop_operation_xyz
x,y,z
-x,-y,-z
loop_
_atom_site_type_symbol
_atom_site_label
_atom_site_fract_x
_atom_site_fract_y
_atom_site_fract_z
Si Si1 0.959906 0.120600 0.946868
Si Si2 0.041802 0.638026 0.020147
Si Si3 0.247994 0.518068 0.992072
Si Si4 0.752173 0.240213 0.406080
Si Si5 0.322542 0.188570 0.551612
Si Si6 0.449081 0.611108 0.462806
Si Si7 0.599389 0.867411 0.662066
Si Si8 0.078212 0.040084 0.667787
O O1 0.831025 0.214388 0.652451
O O2 0.169832 0.154038 0.104534
O O3 0.873794 0.073134 0.079538
O O4 0.000000 0.000000 0.000000
O O5 0.214238 0.660687 0.224801
O O6 0.898142 0.566265 0.073867
O O7 0.153259 0.566257 0.033012
O O8 0.895562 0.745831 0.730211
O O9 0.247664 0.629683 0.780424
O O10 0.464776 0.439511 0.268305
O O11 0.529773 0.215348 0.269911
O O12 0.903124 0.141978 0.513396
O O13 0.429591 0.288053 0.590049
O O14 0.425938 0.139331 0.523664
O O15 0.272322 0.094271 0.722568
O O16 0.500000 0.500000 0.500000
O O17 0.500000 0.000000 0.500000
O O18 0.000000 0.000000 0.500000
#
# Coordination Sequence:
#
# PCOD9026089 Si02
#       8
#     2   2   2   2   2   2   2   2
#     4  10  22  41  62  87 130 174 218 263 323 395
#     4   9  18  37  61  95 132 159 212 277 322 379
#     4   9  18  36  64  92 126 169 210 268 327 388
#     4  11  23  40  65  93 129 178 215 260 341 394
#     4  11  22  39  67  98 131 173 215 277 329 374
#     4   9  20  38  63 103 133 157 214 278 332 387
#     4  12  23  43  62  89 136 178 216 271 326 387
#     4  11  20  40  66  93 128 170 227 272 317 384
#
# _framework density 22.519345000000001
#
# number of rings (size 3 to 8) (size 9 to 14) (size 15 to 20)
#    0.000    1.750    5.000    0.750    0.000    2.000 
#    6.750    4.375    0.000    4.500    0.000    0.000 
#    0.000    0.000    0.000    0.000    0.000    0.000 
#
# Total GULP energy -89426.647998 kJ/mol
# GULP energy per Si atom -5589.165500 kJ/mol
# Density = 2.246809 g / cm^3
# Si number density = 22.519345 Si / 1000 Ang^3
#
#
#
# Elastic Constant Matrix: (Units=GPa)
#
#
# Indices 1 2 3 4 5 6 
#
# 1 96.7681 60.2119 51.8845 0.3477 -10.9282 26.2117
# 2 60.2119 138.5149 62.4086 8.8142 -14.3097 36.5494
# 3 51.8845 62.4086 152.0162 -2.0987 -3.7507 49.1707
# 4 0.3477 8.8142 -2.0987 39.2277 7.3646 -8.2532
# 5 -10.9282 -14.3097 -3.7507 7.3646 38.7561 -6.3855
# 6 26.2117 36.5494 49.1707 -8.2532 -6.3855 56.9445
#
#
#
# Elastic Compliance Matrix: (Units=1/GPa)
#
#
# Indices 1 2 3 4 5 6 
#
# 1 0.015476 -0.004930 -0.002784 0.000167 0.002028 -0.001304
# 2 -0.004930 0.011812 -0.001869 -0.004092 0.002915 -0.003965
# 3 -0.002784 -0.001869 0.010428 -0.000119 -0.001549 -0.006714
# 4 0.000167 -0.004092 -0.000119 0.028815 -0.005935 0.006163
# 5 0.002028 0.002915 -0.001549 -0.005935 0.028573 0.000878
# 6 -0.001304 -0.003965 -0.006714 0.006163 0.000878 0.027495
#
#
# Mechanical properties :
#
#
# Convention : Reuss Voigt Hill
#
# Bulk Modulus (GPa) = 53.90925 81.81214 67.86070
# Shear Modulus (GPa) = 33.79587 41.17195 37.48391
#
# Velocity S-wave (km/s) = 3.87815 4.28049 4.08428
# Velocity P-wave (km/s) = 6.63660 7.79992 7.24166
#
# Compressibility (1/GPa) = 0.01854969
#
# Stress axis : x y z
#
# Youngs Moduli (GPa) = 64.61672 84.65844 95.90012
#
# Poissons Ratio (x) = 0.41737 0.26699
# Poissons Ratio (y) = 0.31857 0.17922
# Poissons Ratio (z) = 0.17989 0.15821
#
# Static dielectric constant tensor:
#      x y z
#    x 1.903140 -0.036060 0.050380 
#    y -0.036060 1.869820 -0.002840 
#    z 0.050380 -0.002840 1.825910 
# 
# From -- ./inp_files/214593.got.cif
#   From: 2010.05.17/outbox.cif.g08.bks.cpg/sg2_108_cif.got.tgz:214593.got - 2010.06.03 11:33:40.
