data_PCOD9026582
_publ_section_title
;
Structure prediction by ZEFSAII (Michael W. Deem and Ramdas Pophale) SiO2 
 PCOD9026582
Probable space group: P -1
;
_chemical_formula_sum "Si O2"
_cell_formula_units_Z 16
_cell_length_a 8.204870
_cell_length_b 15.578370
_cell_length_c 5.242949
_cell_angle_alpha 76.516170
_cell_angle_beta 83.934485
_cell_angle_gamma 104.717421
_cell_volume 620.529366
_symmetry_space_group_name_H-M "P -1"
_symmetry_group_IT_number 2
_symmetry_cell_setting 'triclinic'
loop_
_space_group_symop_operation_xyz
x,y,z
-x,-y,-z
loop_
_atom_site_type_symbol
_atom_site_label
_atom_site_fract_x
_atom_site_fract_y
_atom_site_fract_z
Si Si1 0.768884 0.043369 0.374545
Si Si2 0.334498 0.782248 0.899756
Si Si3 0.160490 0.589626 0.905167
Si Si4 0.874747 0.934559 0.837888
Si Si5 0.705080 0.754823 0.729665
Si Si6 0.299964 0.549181 0.415918
Si Si7 0.700483 0.642430 0.314260
Si Si8 0.535148 0.908974 0.182632
O O1 0.716916 0.136269 0.294019
O O2 0.925189 0.047136 0.148685
O O3 0.840008 0.022298 0.645941
O O4 0.608771 0.953815 0.408675
O O5 0.178089 0.690165 0.952346
O O6 0.507796 0.761628 0.775216
O O7 0.389025 0.823086 0.148820
O O8 0.211058 0.602454 0.590925
O O9 0.283872 0.558855 0.109323
O O10 0.000000 0.500000 0.000000
O O11 0.838626 0.853498 0.687254
O O12 0.710151 0.891247 0.067524
O O13 0.743792 0.715312 0.483172
O O14 0.729400 0.688264 0.000973
O O15 0.498271 0.593190 0.409927
O O16 0.224972 0.442853 0.586229
O O17 0.500000 0.000000 0.000000
#
# Coordination Sequence:
#
# PCOD9026582 Si02
#       8
#     2   2   2   2   2   2   2   2
#     4  10  22  43  63  92 138 170 225 275 341 402
#     4  10  22  41  64  98 126 180 222 277 332 402
#     4  12  25  45  68  99 141 181 223 280 337 412
#     4  10  23  39  64  96 130 178 215 281 338 400
#     4  11  23  40  69 102 139 172 234 277 335 413
#     4  11  23  43  70  97 133 174 231 282 344 395
#     4  11  22  42  70 101 129 175 225 292 337 393
#     4   9  20  39  64  92 123 167 218 273 325 394
#
# _framework density 25.784435999999999
#
# number of rings (size 3 to 8) (size 9 to 14) (size 15 to 20)
#    0.000    1.500    2.500    1.500    3.500    8.500 
#    6.750    0.000    0.000    0.000    0.000    0.000 
#    0.000    0.000    0.000    0.000    0.000    0.000 
#
# Total GULP energy -89339.254670 kJ/mol
# GULP energy per Si atom -5583.703417 kJ/mol
# Density = 2.572575 g / cm^3
# Si number density = 25.784436 Si / 1000 Ang^3
#
#
#
# Elastic Constant Matrix: (Units=GPa)
#
#
# Indices 1 2 3 4 5 6 
#
# 1 58.8349 42.6260 19.8403 4.8347 -1.1658 6.5416
# 2 42.6260 144.5955 23.3281 -8.9654 10.7988 15.6082
# 3 19.8403 23.3281 84.5735 -2.9095 14.0548 -9.5487
# 4 4.8347 -8.9654 -2.9095 51.7530 -7.0207 6.4335
# 5 -1.1658 10.7988 14.0548 -7.0207 38.8650 -5.7620
# 6 6.5416 15.6082 -9.5487 6.4335 -5.7620 43.3428
#
#
#
# Elastic Compliance Matrix: (Units=1/GPa)
#
#
# Indices 1 2 3 4 5 6 
#
# 1 0.023762 -0.006564 -0.004592 -0.002980 0.003461 -0.001332
# 2 -0.006564 0.009723 -0.001014 0.002311 -0.002622 -0.003426
# 3 -0.004592 -0.001014 0.014338 -0.000001 -0.004505 0.003618
# 4 -0.002980 0.002311 -0.000001 0.020735 0.002552 -0.003121
# 5 0.003461 -0.002622 -0.004505 0.002552 0.029085 0.002917
# 6 -0.001332 -0.003426 0.003618 -0.003121 0.002917 0.026155
#
#
# Mechanical properties :
#
#
# Convention : Reuss Voigt Hill
#
# Bulk Modulus (GPa) = 42.58101 51.06585 46.82343
# Shear Modulus (GPa) = 32.05834 40.27280 36.16557
#
# Velocity S-wave (km/s) = 3.52990 3.95638 3.74921
# Velocity P-wave (km/s) = 5.75879 6.38110 6.07792
#
# Compressibility (1/GPa) = 0.02348465
#
# Stress axis : x y z
#
# Youngs Moduli (GPa) = 42.08374 102.84679 69.74461
#
# Poissons Ratio (x) = 0.67504 0.32027
# Poissons Ratio (y) = 0.27622 0.07070
# Poissons Ratio (z) = 0.19325 0.10425
#
# Static dielectric constant tensor:
#      x y z
#    x 2.080670 -0.044820 -0.021030 
#    y -0.044820 2.059290 0.061450 
#    z -0.021030 0.061450 2.235460 
# 
# From -- ./inp_files/38045.got.cif
#   From: 2010.05.17/outbox.cif.g08.bks.cpg/sg2_20_cif.got.tgz:38045.got - 2010.06.03 11:33:40.
