data_PCOD9026108
_publ_section_title
;
Structure prediction by ZEFSAII (Michael W. Deem and Ramdas Pophale) SiO2 
 PCOD9026108
Probable space group: P -1
;
_chemical_formula_sum "Si O2"
_cell_formula_units_Z 16
_cell_length_a 5.762966
_cell_length_b 6.080242
_cell_length_c 20.208419
_cell_angle_alpha 101.768058
_cell_angle_beta 77.184142
_cell_angle_gamma 106.334578
_cell_volume 654.970335
_symmetry_space_group_name_H-M "P -1"
_symmetry_group_IT_number 2
_symmetry_cell_setting 'triclinic'
loop_
_space_group_symop_operation_xyz
x,y,z
-x,-y,-z
loop_
_atom_site_type_symbol
_atom_site_label
_atom_site_fract_x
_atom_site_fract_y
_atom_site_fract_z
Si Si1 0.110474 0.003009 0.065946
Si Si2 0.532888 0.245647 0.971922
Si Si3 0.574863 0.743328 0.165930
Si Si4 0.375902 0.126183 0.279997
Si Si5 0.128230 0.324158 0.202944
Si Si6 0.770275 0.612099 0.269686
Si Si7 0.457084 0.047842 0.613163
Si Si8 0.714316 0.365259 0.496894
O O1 0.024823 0.152590 0.137575
O O2 0.182167 0.759444 0.060004
O O3 0.401653 0.130494 0.041173
O O4 0.000000 0.000000 0.000000
O O5 0.386291 0.182781 0.907637
O O6 0.500000 0.500000 0.000000
O O7 0.369426 0.501000 0.169365
O O8 0.781005 0.688632 0.196953
O O9 0.490737 0.948554 0.220680
O O10 0.152693 0.153620 0.250802
O O11 0.546693 0.386715 0.282971
O O12 0.367850 0.032546 0.348900
O O13 0.999248 0.505474 0.256973
O O14 0.716114 0.812196 0.330697
O O15 0.616759 0.217817 0.559714
O O16 0.300220 0.820455 0.572473
O O17 0.500000 0.500000 0.500000
O O18 0.000000 0.500000 0.500000
#
# Coordination Sequence:
#
# PCOD9026108 Si02
#       8
#     2   2   2   2   2   2   2   2
#     4  11  26  38  62  94 125 180 243 309 377 444
#     4  11  23  42  61  83 127 177 231 306 370 443
#     4  10  22  41  62  90 132 180 235 296 378 441
#     4  10  22  46  65 100 141 189 238 294 368 446
#     4  11  23  42  64  98 139 181 242 306 376 445
#     4  10  24  43  67 105 141 187 237 308 363 446
#     4  10  24  51  78 119 152 204 253 300 385 450
#     4  11  26  55  87 122 165 207 256 318 373 457
#
# _framework density 24.428585999999999
#
# number of rings (size 3 to 8) (size 9 to 14) (size 15 to 20)
#    0.000    1.500    2.500    0.750    3.500    5.500 
#   29.250    0.000    0.000    0.000    0.000    0.000 
#    0.000    0.000    0.000    0.000    0.000    0.000 
#
# Total GULP energy -89243.226347 kJ/mol
# GULP energy per Si atom -5577.701647 kJ/mol
# Density = 2.437299 g / cm^3
# Si number density = 24.428586 Si / 1000 Ang^3
#
#
#
# Elastic Constant Matrix: (Units=GPa)
#
#
# Indices 1 2 3 4 5 6 
#
# 1 74.5132 52.1454 48.7353 3.9846 8.4727 -5.7237
# 2 52.1454 96.7077 67.3667 9.4418 13.5808 -8.3264
# 3 48.7353 67.3667 173.6878 2.4926 19.7774 -7.1029
# 4 3.9846 9.4418 2.4926 54.2895 -12.1004 10.0928
# 5 8.4727 13.5808 19.7774 -12.1004 26.2897 -1.0447
# 6 -5.7237 -8.3264 -7.1029 10.0928 -1.0447 46.8358
#
#
#
# Elastic Compliance Matrix: (Units=1/GPa)
#
#
# Indices 1 2 3 4 5 6 
#
# 1 0.022148 -0.010413 -0.002155 0.000186 -0.000033 0.000488
# 2 -0.010413 0.020296 -0.004107 -0.004372 -0.005951 0.002522
# 3 -0.002155 -0.004107 0.008388 -0.000380 -0.003658 0.000279
# 4 0.000186 -0.004372 -0.000380 0.023079 0.012889 -0.005498
# 5 -0.000033 -0.005951 -0.003658 0.012889 0.049676 -0.003286
# 6 0.000488 0.002522 0.000279 -0.005498 -0.003286 0.023013
#
#
# Mechanical properties :
#
#
# Convention : Reuss Voigt Hill
#
# Bulk Modulus (GPa) = 57.19719 75.71150 66.45435
# Shear Modulus (GPa) = 26.91403 37.26041 32.08722
#
# Velocity S-wave (km/s) = 3.32285 3.90972 3.62817
# Velocity P-wave (km/s) = 6.17954 7.17227 6.69433
#
# Compressibility (1/GPa) = 0.01748338
#
# Stress axis : x y z
#
# Youngs Moduli (GPa) = 45.15049 49.27175 119.21394
#
# Poissons Ratio (x) = 0.51307 0.25688
# Poissons Ratio (y) = 0.47015 0.48955
# Poissons Ratio (z) = 0.09729 0.20233
#
# Static dielectric constant tensor:
#      x y z
#    x 2.803280 -0.679560 -0.002070 
#    y -0.679560 2.971370 -0.044150 
#    z -0.002070 -0.044150 1.922020 
# 
# From -- ./inp_files/581172.got.cif
#   From: 2010.05.17/outbox.cif.g08.bks.cpg/sg2_291_cif.got.tgz:581172.got - 2010.06.03 11:33:40.
