data_PCOD9026105
_publ_section_title
;
Structure prediction by ZEFSAII (Michael W. Deem and Ramdas Pophale) SiO2 
 PCOD9026105
Probable space group: P -1
;
_chemical_formula_sum "Si O2"
_cell_formula_units_Z 14
_cell_length_a 14.822669
_cell_length_b 13.827576
_cell_length_c 6.299282
_cell_angle_alpha 131.513077
_cell_angle_beta 46.460028
_cell_angle_gamma 140.199483
_cell_volume 573.745292
_symmetry_space_group_name_H-M "P -1"
_symmetry_group_IT_number 2
_symmetry_cell_setting 'triclinic'
loop_
_space_group_symop_operation_xyz
x,y,z
-x,-y,-z
loop_
_atom_site_type_symbol
_atom_site_label
_atom_site_fract_x
_atom_site_fract_y
_atom_site_fract_z
Si Si1 0.741001 0.237764 0.985479
Si Si2 0.657773 0.455423 0.335246
Si Si3 0.078967 0.861814 0.247144
Si Si4 0.184207 0.284889 0.238254
Si Si5 0.929952 0.606009 0.774754
Si Si6 0.673184 0.831806 0.478213
Si Si7 0.441221 0.998814 0.363535
O O1 0.885445 0.252422 0.856294
O O2 0.692798 0.181209 0.739603
O O3 0.724915 0.377038 0.250621
O O4 0.600665 0.084344 0.105599
O O5 0.677843 0.589912 0.650221
O O6 0.481385 0.316863 0.385039
O O7 0.773936 0.523771 0.048890
O O8 0.939617 0.839496 0.572071
O O9 0.220692 0.038884 0.327209
O O10 0.038249 0.780487 0.964906
O O11 0.113376 0.362515 0.336058
O O12 0.234899 0.218483 0.876484
O O13 0.000000 0.500000 0.500000
O O14 0.624939 0.905622 0.478261
O O15 0.500000 0.000000 0.500000
#
# Coordination Sequence:
#
# PCOD9026105 Si02
#       7
#     2   2   2   2   2   2   2
#     4   9  18  35  56  86 120 152 196 256 304 346
#     4  10  22  41  62  90 127 161 208 261 304 367
#     4  10  22  41  62  90 127 161 208 261 304 367
#     4  11  23  41  63  89 128 171 205 248 312 373
#     4  11  24  41  65  93 123 169 213 250 308 371
#     4  10  22  42  65  92 127 164 203 258 316 363
#     4   9  19  35  58  86 117 153 197 250 308 362
#
# _framework density 24.401073
#
# number of rings (size 3 to 8) (size 9 to 14) (size 15 to 20)
#    0.000    2.000    0.000    3.429    0.000    9.143 
#    0.000   13.571    0.000    0.000    0.000    0.000 
#    0.000    0.000    0.000    0.000    0.000    0.000 
#
# Total GULP energy -78085.797956 kJ/mol
# GULP energy per Si atom -5577.556997 kJ/mol
# Density = 2.434553 g / cm^3
# Si number density = 24.401073 Si / 1000 Ang^3
#
#
#
# Elastic Constant Matrix: (Units=GPa)
#
#
# Indices 1 2 3 4 5 6 
#
# 1 86.5524 24.1296 22.8285 10.1885 10.8183 12.6695
# 2 24.1296 107.8596 41.0357 8.8173 19.7384 37.4274
# 3 22.8285 41.0357 101.1511 2.2246 -2.4684 15.7094
# 4 10.1885 8.8173 2.2246 32.3311 5.2801 5.5064
# 5 10.8183 19.7384 -2.4684 5.2801 45.6613 9.8866
# 6 12.6695 37.4274 15.7094 5.5064 9.8866 26.9444
#
#
#
# Elastic Compliance Matrix: (Units=1/GPa)
#
#
# Indices 1 2 3 4 5 6 
#
# 1 0.013352 -0.000454 -0.002369 -0.003088 -0.002119 -0.002858
# 2 -0.000454 0.019860 -0.004399 -0.000396 -0.003602 -0.023406
# 3 -0.002369 -0.004399 0.012496 0.000785 0.003363 -0.001456
# 4 -0.003088 -0.000396 0.000785 0.033035 -0.001898 -0.004510
# 5 -0.002119 -0.003602 0.003363 -0.001898 0.025422 -0.004901
# 6 -0.002858 -0.023406 -0.001456 -0.004510 -0.004901 0.074539
#
#
# Mechanical properties :
#
#
# Convention : Reuss Voigt Hill
#
# Bulk Modulus (GPa) = 31.98456 52.39451 42.18954
# Shear Modulus (GPa) = 24.56178 34.82531 29.69355
#
# Velocity S-wave (km/s) = 3.17612 3.78193 3.49219
# Velocity P-wave (km/s) = 5.15622 6.37099 5.79552
#
# Compressibility (1/GPa) = 0.03126509
#
# Stress axis : x y z
#
# Youngs Moduli (GPa) = 74.89617 50.35344 80.02372
#
# Poissons Ratio (x) = 0.02284 0.18960
# Poissons Ratio (y) = 0.03397 0.35199
# Poissons Ratio (z) = 0.17745 0.22148
#
# Static dielectric constant tensor:
#      x y z
#    x 1.998400 0.010790 0.073520 
#    y 0.010790 2.029870 0.112340 
#    z 0.073520 0.112340 2.197560 
# 
# From -- ./inp_files/77026.got.cif
#   From: 2010.05.17/outbox.cif.g08.bks.cpg/sg2_39_cif.got.tgz:77026.got - 2010.06.03 11:33:40.
