data_PCOD9026802
_publ_section_title
;
Structure prediction by ZEFSAII (Michael W. Deem and Ramdas Pophale) SiO2 
 PCOD9026802
Probable space group: P -1
;
_chemical_formula_sum "Si O2"
_cell_formula_units_Z 14
_cell_length_a 5.141758
_cell_length_b 16.336412
_cell_length_c 8.892387
_cell_angle_alpha 105.969107
_cell_angle_beta 118.360235
_cell_angle_gamma 55.623920
_cell_volume 542.471341
_symmetry_space_group_name_H-M "P -1"
_symmetry_group_IT_number 2
_symmetry_cell_setting 'triclinic'
loop_
_space_group_symop_operation_xyz
x,y,z
-x,-y,-z
loop_
_atom_site_type_symbol
_atom_site_label
_atom_site_fract_x
_atom_site_fract_y
_atom_site_fract_z
Si Si1 0.553597 0.717312 0.083579
Si Si2 0.226598 0.546114 0.637734
Si Si3 0.456894 0.917198 0.068894
Si Si4 0.217776 0.653651 0.399856
Si Si5 0.956193 0.979268 0.711760
Si Si6 0.846326 0.390969 0.035414
Si Si7 0.133631 0.848511 0.405205
O O1 0.377089 0.828014 0.028450
O O2 0.812559 0.706187 0.281898
O O3 0.291410 0.684987 0.050202
O O4 0.820569 0.642092 0.992725
O O5 0.279259 0.610644 0.561218
O O6 0.594716 0.443922 0.703428
O O7 0.044334 0.611628 0.763789
O O8 0.000000 0.500000 0.500000
O O9 0.844532 0.865659 0.210642
O O10 0.321604 0.952604 0.879324
O O11 0.258376 0.000375 0.184557
O O12 0.332493 0.731953 0.433596
O O13 0.013526 0.897739 0.563193
O O14 0.751560 0.081550 0.610165
O O15 0.500000 0.500000 0.000000
#
# Coordination Sequence:
#
# PCOD9026802 Si02
#       7
#     2   2   2   2   2   2   2
#     4  11  26  44  69 100 134 184 229 282 345 412
#     4  11  25  41  66  96 137 178 224 284 345 406
#     4  10  23  41  66  94 136 171 233 278 346 407
#     4  10  24  42  65  96 136 176 228 280 345 415
#     4  10  22  41  67  95 133 176 226 285 348 406
#     4  12  25  43  69  99 136 178 230 283 339 412
#     4  10  22  41  65  97 130 176 223 283 345 412
#
# _framework density 25.807815999999999
#
# number of rings (size 3 to 8) (size 9 to 14) (size 15 to 20)
#    0.000    1.429    1.429    2.143   10.000    1.143 
#    0.000    2.857    0.000    0.000    0.000    0.000 
#    0.000    0.000    0.000    0.000    0.000    0.000 
#
# Total GULP energy -78180.555285 kJ/mol
# GULP energy per Si atom -5584.325377 kJ/mol
# Density = 2.574908 g / cm^3
# Si number density = 25.807816 Si / 1000 Ang^3
#
#
#
# Elastic Constant Matrix: (Units=GPa)
#
#
# Indices 1 2 3 4 5 6 
#
# 1 75.5407 20.6332 30.2646 6.7315 -22.4967 -2.6340
# 2 20.6332 125.4632 65.6910 -9.7262 -37.8322 2.1564
# 3 30.2646 65.6910 103.6975 13.0424 -18.6689 -1.0234
# 4 6.7315 -9.7262 13.0424 40.7284 -10.3074 -8.2891
# 5 -22.4967 -37.8322 -18.6689 -10.3074 42.6826 -2.0723
# 6 -2.6340 2.1564 -1.0234 -8.2891 -2.0723 30.3777
#
#
#
# Elastic Compliance Matrix: (Units=1/GPa)
#
#
# Indices 1 2 3 4 5 6 
#
# 1 0.017636 0.003630 -0.005862 0.003112 0.010829 0.002662
# 2 0.003630 0.020109 -0.012241 0.013289 0.017753 0.003312
# 3 -0.005862 -0.012241 0.018918 -0.010629 -0.008352 -0.002472
# 4 0.003112 0.013289 -0.010629 0.037366 0.018299 0.010413
# 5 0.010829 0.017753 -0.008352 0.018299 0.046004 0.007529
# 6 0.002662 0.003312 -0.002472 0.010413 0.007529 0.036186
#
#
# Mechanical properties :
#
#
# Convention : Reuss Voigt Hill
#
# Bulk Modulus (GPa) = 36.07977 59.76435 47.92206
# Shear Modulus (GPa) = 23.32047 35.29857 29.30952
#
# Velocity S-wave (km/s) = 3.00929 3.70232 3.37365
# Velocity P-wave (km/s) = 5.10734 6.44080 5.81244
#
# Compressibility (1/GPa) = 0.02771636
#
# Stress axis : x y z
#
# Youngs Moduli (GPa) = 56.70366 49.72806 52.86075
#
# Poissons Ratio (x) = -0.18051 0.30987
# Poissons Ratio (y) = -0.20583 0.64707
# Poissons Ratio (z) = 0.33240 0.60872
#
# Static dielectric constant tensor:
#      x y z
#    x 2.138300 0.002300 0.005420 
#    y 0.002300 2.125110 -0.059310 
#    z 0.005420 -0.059310 2.154000 
# 
# From -- ./inp_files/38415.got.cif
#   From: 2010.05.17/outbox.cif.g08.bks.cpg/sg2_20_cif.got.tgz:38415.got - 2010.06.03 11:33:40.
