data_PCOD9026698
_publ_section_title
;
Structure prediction by ZEFSAII (Michael W. Deem and Ramdas Pophale) SiO2 
 PCOD9026698
Probable space group: P -1
;
_chemical_formula_sum "Si O2"
_cell_formula_units_Z 16
_cell_length_a 7.869447
_cell_length_b 20.708534
_cell_length_c 8.968787
_cell_angle_alpha 151.725535
_cell_angle_beta 57.115391
_cell_angle_gamma 124.588369
_cell_volume 566.503675
_symmetry_space_group_name_H-M "P -1"
_symmetry_group_IT_number 2
_symmetry_cell_setting 'triclinic'
loop_
_space_group_symop_operation_xyz
x,y,z
-x,-y,-z
loop_
_atom_site_type_symbol
_atom_site_label
_atom_site_fract_x
_atom_site_fract_y
_atom_site_fract_z
Si Si1 0.966031 0.359851 0.878678
Si Si2 0.677274 0.428284 0.701197
Si Si3 0.736299 0.603519 0.761247
Si Si4 0.105536 0.808250 0.143416
Si Si5 0.193895 0.257122 0.283273
Si Si6 0.742338 0.977753 0.062481
Si Si7 0.840964 0.031496 0.818134
Si Si8 0.607917 0.262610 0.668981
O O1 0.852940 0.252090 0.840509
O O2 0.112995 0.303921 0.575032
O O3 0.783969 0.384179 0.909274
O O4 0.104803 0.482344 0.157797
O O5 0.636673 0.286520 0.526889
O O6 0.500000 0.500000 0.000000
O O7 0.670239 0.457300 0.586270
O O8 0.969172 0.676355 0.850500
O O9 0.603164 0.706641 0.107772
O O10 0.716173 0.620374 0.628043
O O11 0.253603 0.902378 0.142783
O O12 0.964822 0.917544 0.474429
O O13 0.005898 0.158942 0.078267
O O14 0.334177 0.149501 0.046560
O O15 0.663196 0.119764 0.406587
O O16 0.701495 0.951616 0.853769
O O17 0.000000 0.000000 0.000000
#
# Coordination Sequence:
#
# PCOD9026698 Si02
#       8
#     2   2   2   2   2   2   2   2
#     4  11  18  34  64  82 107 146 194 228 274 334
#     4   9  21  40  60  80 111 151 185 230 283 332
#     4   9  21  37  56  82 119 148 183 230 284 328
#     4   9  17  30  55  78 111 153 181 218 282 327
#     4  10  18  33  57  89 112 149 180 232 287 324
#     4  10  17  31  56  84 116 140 181 234 273 323
#     4   9  15  29  51  80 109 147 188 215 264 339
#     4  11  20  36  60  85 108 150 192 230 271 334
#
# _framework density 28.24342
#
# number of rings (size 3 to 8) (size 9 to 14) (size 15 to 20)
#    0.000    2.250    3.750    1.125    0.000    0.500 
#    0.000    3.750   11.000    0.000    0.000    0.000 
#    0.000    0.000    0.000    0.000    0.000    0.000 
#
# Total GULP energy -89408.642646 kJ/mol
# GULP energy per Si atom -5588.040165 kJ/mol
# Density = 2.817914 g / cm^3
# Si number density = 28.243420 Si / 1000 Ang^3
#
#
#
# Elastic Constant Matrix: (Units=GPa)
#
#
# Indices 1 2 3 4 5 6 
#
# 1 87.3836 49.9976 30.5436 17.4643 0.2472 -8.2975
# 2 49.9976 283.1028 44.8461 3.2435 3.0454 -62.6274
# 3 30.5436 44.8461 137.1151 -7.0887 -7.1532 -9.3281
# 4 17.4643 3.2435 -7.0887 33.2889 -8.1234 0.5002
# 5 0.2472 3.0454 -7.1532 -8.1234 44.9674 9.1812
# 6 -8.2975 -62.6274 -9.3281 0.5002 9.1812 41.9238
#
#
#
# Elastic Compliance Matrix: (Units=1/GPa)
#
#
# Indices 1 2 3 4 5 6 
#
# 1 0.015701 -0.002183 -0.003394 -0.009249 -0.002079 -0.000342
# 2 -0.002183 0.006108 -0.001050 -0.000415 -0.002483 0.009008
# 3 -0.003394 -0.001050 0.008683 0.004340 0.002437 -0.000893
# 4 -0.009249 -0.000415 0.004340 0.037963 0.008399 -0.003777
# 5 -0.002079 -0.002483 0.002437 0.008399 0.026248 -0.009426
# 6 -0.000342 0.009008 -0.000893 -0.003777 -0.009426 0.039152
#
#
# Mechanical properties :
#
#
# Convention : Reuss Voigt Hill
#
# Bulk Modulus (GPa) = 58.00421 84.26400 71.13410
# Shear Modulus (GPa) = 32.71113 49.51696 41.11404
#
# Velocity S-wave (km/s) = 3.40690 4.19169 3.81951
# Velocity P-wave (km/s) = 6.00482 7.30251 6.68523
#
# Compressibility (1/GPa) = 0.01724013
#
# Stress axis : x y z
#
# Youngs Moduli (GPa) = 63.69143 163.71501 115.16529
#
# Poissons Ratio (x) = 0.35734 0.39082
# Poissons Ratio (y) = 0.13902 0.12089
# Poissons Ratio (z) = 0.21614 0.17186
#
# Static dielectric constant tensor:
#      x y z
#    x 2.194850 0.044460 -0.023610 
#    y 0.044460 2.317850 0.000260 
#    z -0.023610 0.000260 2.247560 
# 
# From -- ./inp_files/218813.got.cif
#   From: 2010.05.17/outbox.cif.g08.bks.cpg/sg2_110_cif.got.tgz:218813.got - 2010.06.03 11:33:40.
