data_PCOD9026720
_publ_section_title
;
Structure prediction by ZEFSAII (Michael W. Deem and Ramdas Pophale) SiO2 
 PCOD9026720
Probable space group: P -1
;
_chemical_formula_sum "Si O2"
_cell_formula_units_Z 12
_cell_length_a 14.368028
_cell_length_b 15.056455
_cell_length_c 5.310036
_cell_angle_alpha 114.585648
_cell_angle_beta 123.583228
_cell_angle_gamma 28.356429
_cell_volume 447.206226
_symmetry_space_group_name_H-M "P -1"
_symmetry_group_IT_number 2
_symmetry_cell_setting 'triclinic'
loop_
_space_group_symop_operation_xyz
x,y,z
-x,-y,-z
loop_
_atom_site_type_symbol
_atom_site_label
_atom_site_fract_x
_atom_site_fract_y
_atom_site_fract_z
Si Si1 0.439730 0.131846 0.380923
Si Si2 0.333267 0.713597 0.684657
Si Si3 0.803282 0.361274 0.937098
Si Si4 0.930544 0.945199 0.601703
Si Si5 0.841830 0.526687 0.335913
Si Si6 0.839345 0.812845 0.227321
O O1 0.376723 0.267540 0.627562
O O2 0.500000 0.000000 0.500000
O O3 0.632315 0.998566 0.313760
O O4 0.237092 0.232273 0.060030
O O5 0.571031 0.545967 0.959971
O O6 0.288758 0.639956 0.417247
O O7 0.132507 0.867052 0.759425
O O8 0.278705 0.832214 0.519861
O O9 0.839673 0.448249 0.017814
O O10 0.989761 0.167243 0.152543
O O11 0.896616 0.876458 0.278603
O O12 0.000000 0.500000 0.500000
O O13 0.954824 0.374622 0.530225
#
# Coordination Sequence:
#
# PCOD9026720 Si02
#       6
#     2   2   2   2   2   2
#     4  11  23  41  64  93 131 167 213 261 315 387
#     4  10  22  42  66  88 129 168 209 268 316 378
#     4  10  23  42  61  97 125 165 216 259 321 381
#     4  10  22  41  65  94 122 167 215 263 320 378
#     4  11  23  42  66  94 129 171 207 264 323 379
#     4  10  24  42  63  97 127 168 214 260 322 380
#
# _framework density 26.833258000000001
#
# number of rings (size 3 to 8) (size 9 to 14) (size 15 to 20)
#    0.000    1.667    1.667    1.500    4.667    0.000 
#   21.000    0.000    0.000    0.000    0.000    0.000 
#    0.000    0.000    0.000    0.000    0.000    0.000 
#
# Total GULP energy -66891.416508 kJ/mol
# GULP energy per Si atom -5574.284709 kJ/mol
# Density = 2.677218 g / cm^3
# Si number density = 26.833258 Si / 1000 Ang^3
#
#
#
# Elastic Constant Matrix: (Units=GPa)
#
#
# Indices 1 2 3 4 5 6 
#
# 1 91.9266 14.4531 15.0944 -3.4586 18.4840 17.0322
# 2 14.4531 118.0508 37.4887 21.8450 18.4214 28.3710
# 3 15.0944 37.4887 83.7637 10.0608 21.3162 17.0484
# 4 -3.4586 21.8450 10.0608 54.0630 5.3640 19.0297
# 5 18.4840 18.4214 21.3162 5.3640 37.8046 7.0677
# 6 17.0322 28.3710 17.0484 19.0297 7.0677 34.8518
#
#
#
# Elastic Compliance Matrix: (Units=1/GPa)
#
#
# Indices 1 2 3 4 5 6 
#
# 1 0.013662 0.000433 0.000013 0.004134 -0.005974 -0.008081
# 2 0.000433 0.011747 -0.003060 -0.001437 -0.002708 -0.006943
# 3 0.000013 -0.003060 0.015801 0.000408 -0.006715 -0.004106
# 4 0.004134 -0.001437 0.000408 0.024391 -0.002418 -0.013878
# 5 -0.005974 -0.002708 -0.006715 -0.002418 0.034303 0.002772
# 6 -0.008081 -0.006943 -0.004106 -0.013878 0.002772 0.047318
#
#
# Mechanical properties :
#
#
# Convention : Reuss Voigt Hill
#
# Bulk Modulus (GPa) = 27.79330 47.53483 37.66406
# Shear Modulus (GPa) = 30.40525 40.45754 35.43140
#
# Velocity S-wave (km/s) = 3.36983 3.88717 3.63771
# Velocity P-wave (km/s) = 5.05186 6.15631 5.63123
#
# Compressibility (1/GPa) = 0.03597990
#
# Stress axis : x y z
#
# Youngs Moduli (GPa) = 73.19552 85.12834 63.28666
#
# Poissons Ratio (x) = -0.03682 -0.00081
# Poissons Ratio (y) = -0.03166 0.19369
# Poissons Ratio (z) = -0.00094 0.26053
#
# Static dielectric constant tensor:
#      x y z
#    x 3.721480 -1.731650 -0.665720 
#    y -1.731650 3.856820 0.853830 
#    z -0.665720 0.853830 2.146670 
# 
# From -- ./inp_files/33842.got.cif
#   From: 2010.05.17/outbox.cif.g08.bks.cpg/sg2_17_cif.got.tgz:33842.got - 2010.06.03 11:33:40.
