data_PCOD9026536
_publ_section_title
;
Structure prediction by ZEFSAII (Michael W. Deem and Ramdas Pophale) SiO2 
 PCOD9026536
Probable space group: P -1
;
_chemical_formula_sum "Si O2"
_cell_formula_units_Z 16
_cell_length_a 7.054123
_cell_length_b 8.936257
_cell_length_c 18.170308
_cell_angle_alpha 55.365839
_cell_angle_beta 95.220326
_cell_angle_gamma 130.414991
_cell_volume 643.318330
_symmetry_space_group_name_H-M "P -1"
_symmetry_group_IT_number 2
_symmetry_cell_setting 'triclinic'
loop_
_space_group_symop_operation_xyz
x,y,z
-x,-y,-z
loop_
_atom_site_type_symbol
_atom_site_label
_atom_site_fract_x
_atom_site_fract_y
_atom_site_fract_z
Si Si1 0.365464 0.728188 0.757334
Si Si2 0.869950 0.604719 0.023013
Si Si3 0.325741 0.160504 0.036798
Si Si4 0.500482 0.095984 0.881933
Si Si5 0.306300 0.372056 0.254243
Si Si6 0.650957 0.890458 0.378446
Si Si7 0.569396 0.479498 0.393227
Si Si8 0.942629 0.281489 0.746952
O O1 0.193606 0.593970 0.864231
O O2 0.592212 0.725596 0.764427
O O3 0.154758 0.531908 0.739190
O O4 0.488096 0.011652 0.668677
O O5 0.633313 0.422485 0.003553
O O6 0.808679 0.751427 0.022796
O O7 0.175620 0.830684 0.938525
O O8 0.354014 0.979866 0.052541
O O9 0.129405 0.968611 0.153041
O O10 0.568451 0.344723 0.843220
O O11 0.655402 0.185995 0.782156
O O12 0.421789 0.408934 0.329644
O O13 0.977215 0.152907 0.306056
O O14 0.570554 0.669775 0.383799
O O15 0.584799 0.774190 0.490523
O O16 0.881902 0.625599 0.346140
#
# Coordination Sequence:
#
# PCOD9026536 Si02
#       8
#     2   2   2   2   2   2   2   2
#     4  11  25  42  65 100 132 175 227 278 325 394
#     4  11  22  39  64  95 133 178 223 271 319 401
#     4   9  22  40  60  94 131 175 221 266 331 382
#     4  10  22  41  64  95 132 177 221 258 339 390
#     4  11  24  44  69 101 138 176 221 276 335 399
#     4  11  24  48  68 104 129 176 227 273 343 398
#     4  10  24  45  74  96 138 171 221 284 334 406
#     4   9  21  43  62  96 132 175 211 279 330 383
#
# _framework density 24.871046
#
# number of rings (size 3 to 8) (size 9 to 14) (size 15 to 20)
#    0.750    1.000    1.250    2.250    3.500    5.500 
#    4.500    1.250    0.000    0.000    0.000    0.000 
#    0.000    0.000    0.000    0.000    0.000    0.000 
#
# Total GULP energy -89486.894591 kJ/mol
# GULP energy per Si atom -5592.930912 kJ/mol
# Density = 2.481444 g / cm^3
# Si number density = 24.871046 Si / 1000 Ang^3
#
#
#
# Elastic Constant Matrix: (Units=GPa)
#
#
# Indices 1 2 3 4 5 6 
#
# 1 121.7639 6.9985 49.6993 -13.8171 9.9951 -35.3597
# 2 6.9985 69.3724 12.3971 -5.8356 17.0272 -14.0307
# 3 49.6993 12.3971 109.9781 -21.1351 9.2935 -18.2135
# 4 -13.8171 -5.8356 -21.1351 37.8714 -5.8980 4.1159
# 5 9.9951 17.0272 9.2935 -5.8980 36.4112 -8.6589
# 6 -35.3597 -14.0307 -18.2135 4.1159 -8.6589 35.9497
#
#
#
# Elastic Compliance Matrix: (Units=1/GPa)
#
#
# Indices 1 2 3 4 5 6 
#
# 1 0.013289 0.001968 -0.003966 0.001600 -0.000559 0.011511
# 2 0.001968 0.017451 -0.001003 0.001095 -0.006724 0.006494
# 3 -0.003966 -0.001003 0.012198 0.005003 -0.000459 0.001204
# 4 0.001600 0.001095 0.005003 0.030235 0.003103 0.001822
# 5 -0.000559 -0.006724 -0.000459 0.003103 0.032339 0.004027
# 6 0.011511 0.006494 0.001204 0.001822 0.004027 0.043045
#
#
# Mechanical properties :
#
#
# Convention : Reuss Voigt Hill
#
# Bulk Modulus (GPa) = 27.07294 48.81156 37.94225
# Shear Modulus (GPa) = 29.96343 37.51443 33.73893
#
# Velocity S-wave (km/s) = 3.47472 3.88797 3.68714
# Velocity P-wave (km/s) = 5.19684 6.31059 5.78060
#
# Compressibility (1/GPa) = 0.03693726
#
# Stress axis : x y z
#
# Youngs Moduli (GPa) = 75.25285 57.30206 81.98291
#
# Poissons Ratio (x) = -0.11278 0.32513
# Poissons Ratio (y) = -0.14811 0.08219
# Poissons Ratio (z) = 0.29844 0.05745
#
# Static dielectric constant tensor:
#      x y z
#    x 2.015860 -0.035190 -0.020310 
#    y -0.035190 2.021290 0.039970 
#    z -0.020310 0.039970 1.956170 
# 
# From -- ./inp_files/557007.got.cif
#   From: 2010.05.17/outbox.cif.g08.bks.cpg/sg2_279_cif.got.tgz:557007.got - 2010.06.03 11:33:40.
