data_PCOD9026352
_publ_section_title
;
Structure prediction by ZEFSAII (Michael W. Deem and Ramdas Pophale) SiO2 
 PCOD9026352
Probable space group: P -1
;
_chemical_formula_sum "Si O2"
_cell_formula_units_Z 14
_cell_length_a 6.174798
_cell_length_b 15.713969
_cell_length_c 6.437570
_cell_angle_alpha 87.641234
_cell_angle_beta 102.767124
_cell_angle_gamma 97.223280
_cell_volume 604.305262
_symmetry_space_group_name_H-M "P -1"
_symmetry_group_IT_number 2
_symmetry_cell_setting 'triclinic'
loop_
_space_group_symop_operation_xyz
x,y,z
-x,-y,-z
loop_
_atom_site_type_symbol
_atom_site_label
_atom_site_fract_x
_atom_site_fract_y
_atom_site_fract_z
Si Si1 0.915861 0.892803 0.594261
Si Si2 0.486123 0.693306 0.219251
Si Si3 0.709476 0.966701 0.176614
Si Si4 0.352973 0.190926 0.118849
Si Si5 0.096985 0.369343 0.494293
Si Si6 0.143436 0.529052 0.223536
Si Si7 0.756336 0.214183 0.494641
O O1 0.715177 0.932025 0.423555
O O2 0.833155 0.816250 0.742258
O O3 0.068473 0.854567 0.456478
O O4 0.073852 0.962177 0.758844
O O5 0.709844 0.685567 0.394029
O O6 0.347062 0.599748 0.201848
O O7 0.343359 0.758047 0.309272
O O8 0.568977 0.725763 0.007987
O O9 0.729666 0.882914 0.053039
O O10 0.500000 0.000000 0.000000
O O11 0.569751 0.174885 0.298482
O O12 0.196839 0.440532 0.345430
O O13 0.014669 0.424579 0.660625
O O14 0.878101 0.302606 0.410841
O O15 0.000000 0.500000 0.000000
#
# Coordination Sequence:
#
# PCOD9026352 Si02
#       7
#     2   2   2   2   2   2   2
#     4  11  26  47  73 102 141 182 232 296 343 416
#     4  11  25  43  68 100 140 182 226 286 349 417
#     4  11  24  49  72 104 136 184 235 289 352 415
#     4  12  24  43  68 104 137 182 230 283 357 412
#     4  10  22  41  64 100 134 178 232 286 336 408
#     4  10  22  41  67  96 134 179 228 283 346 406
#     4  11  23  43  67  99 139 183 231 284 344 414
#
# _framework density 23.167102
#
# number of rings (size 3 to 8) (size 9 to 14) (size 15 to 20)
#    0.000    1.143    1.429    4.286    0.000    6.857 
#   10.286    0.000    0.000    0.000    0.000    0.000 
#    0.000    0.000    0.000    0.000    0.000    0.000 
#
# Total GULP energy -78098.554237 kJ/mol
# GULP energy per Si atom -5578.468160 kJ/mol
# Density = 2.311437 g / cm^3
# Si number density = 23.167102 Si / 1000 Ang^3
#
#
#
# Elastic Constant Matrix: (Units=GPa)
#
#
# Indices 1 2 3 4 5 6 
#
# 1 67.7424 29.8295 41.9026 -9.8880 8.3574 17.3694
# 2 29.8295 61.9948 42.6737 -7.4243 -0.7033 27.4676
# 3 41.9026 42.6737 115.7298 -9.3594 24.0365 25.0231
# 4 -9.8880 -7.4243 -9.3594 48.3551 20.6716 0.4859
# 5 8.3574 -0.7033 24.0365 20.6716 31.5615 -6.8169
# 6 17.3694 27.4676 25.0231 0.4859 -6.8169 37.1839
#
#
#
# Elastic Compliance Matrix: (Units=1/GPa)
#
#
# Indices 1 2 3 4 5 6 
#
# 1 0.023142 -0.005776 -0.000563 0.009916 -0.014247 -0.008906
# 2 -0.005776 0.029875 -0.006476 0.000803 0.003495 -0.014383
# 3 -0.000563 -0.006476 0.022957 0.017365 -0.032432 -0.016575
# 4 0.009916 0.000803 0.017365 0.049692 -0.054323 -0.027520
# 5 -0.014247 0.003495 -0.032432 -0.054323 0.105748 0.045995
# 6 -0.008906 -0.014383 -0.016575 -0.027520 0.045995 0.061624
#
#
# Mechanical properties :
#
#
# Convention : Reuss Voigt Hill
#
# Bulk Modulus (GPa) = 19.86289 52.69763 36.28026
# Shear Modulus (GPa) = 14.90545 32.15751 23.53148
#
# Velocity S-wave (km/s) = 2.53926 3.72972 3.19051
# Velocity P-wave (km/s) = 4.14602 6.42992 5.40987
#
# Compressibility (1/GPa) = 0.05034515
#
# Stress axis : x y z
#
# Youngs Moduli (GPa) = 43.21202 33.47251 43.56050
#
# Poissons Ratio (x) = 0.19332 0.02451
# Poissons Ratio (y) = 0.24958 0.28209
# Poissons Ratio (z) = 0.02432 0.21676
#
# Static dielectric constant tensor:
#      x y z
#    x 1.966680 0.147390 -0.083820 
#    y 0.147390 2.173240 -0.173140 
#    z -0.083820 -0.173140 1.915840 
# 
# From -- ./inp_files/7481.got.cif
#   From: 2010.05.17/outbox.cif.g08.bks.cpg/sg2_4_cif.got.tgz:7481.got - 2010.06.03 11:33:40.
