data_PCOD9026320
_publ_section_title
;
Structure prediction by ZEFSAII (Michael W. Deem and Ramdas Pophale) SiO2 
 PCOD9026320
Probable space group: P -1
;
_chemical_formula_sum "Si O2"
_cell_formula_units_Z 14
_cell_length_a 12.805323
_cell_length_b 8.735892
_cell_length_c 27.336125
_cell_angle_alpha 153.706553
_cell_angle_beta 154.149612
_cell_angle_gamma 36.480922
_cell_volume 590.571047
_symmetry_space_group_name_H-M "P -1"
_symmetry_group_IT_number 2
_symmetry_cell_setting 'triclinic'
loop_
_space_group_symop_operation_xyz
x,y,z
-x,-y,-z
loop_
_atom_site_type_symbol
_atom_site_label
_atom_site_fract_x
_atom_site_fract_y
_atom_site_fract_z
Si Si1 0.274472 0.650752 0.916568
Si Si2 0.877594 0.608465 0.893194
Si Si3 0.464211 0.282604 0.312193
Si Si4 0.215630 0.759572 0.405790
Si Si5 0.431434 0.487958 0.086669
Si Si6 0.238772 0.407696 0.547805
Si Si7 0.476983 0.629015 0.255715
O O1 0.400764 0.727461 0.939801
O O2 0.057174 0.365642 0.738356
O O3 0.500000 0.500000 0.000000
O O4 0.148940 0.997506 0.984026
O O5 0.736123 0.631198 0.788555
O O6 0.783441 0.344521 0.821112
O O7 0.145325 0.487413 0.958762
O O8 0.373496 0.429055 0.366953
O O9 0.703956 0.462866 0.444232
O O10 0.501144 0.881045 0.215026
O O11 0.251964 0.996651 0.440010
O O12 0.348650 0.031611 0.575818
O O13 0.477876 0.455668 0.154460
O O14 0.417169 0.577332 0.712087
O O15 0.000000 0.500000 0.500000
#
# Coordination Sequence:
#
# PCOD9026320 Si02
#       7
#     2   2   2   2   2   2   2
#     4  12  24  40  68  96 125 164 218 263 308 374
#     4  11  23  44  63  95 126 168 213 262 309 378
#     4  11  20  39  66  94 122 167 216 257 313 370
#     4  10  22  41  63  96 125 163 214 255 317 374
#     4  12  23  42  66  93 129 169 209 262 321 368
#     4   9  20  39  60  92 125 162 207 259 305 375
#     4   9  25  41  64  90 133 165 207 262 321 373
#
# _framework density 23.705869
#
# number of rings (size 3 to 8) (size 9 to 14) (size 15 to 20)
#    0.857    0.571    2.857    3.000    2.000    1.714 
#    0.000    0.000    0.000    0.000    0.000    0.000 
#    0.000    0.000    0.000    0.000    0.000    0.000 
#
# Total GULP energy -77969.172606 kJ/mol
# GULP energy per Si atom -5569.226615 kJ/mol
# Density = 2.365191 g / cm^3
# Si number density = 23.705869 Si / 1000 Ang^3
#
#
#
# Elastic Constant Matrix: (Units=GPa)
#
#
# Indices 1 2 3 4 5 6 
#
# 1 86.6715 8.8167 5.7354 -0.3255 24.3823 15.8688
# 2 8.8167 21.5652 13.2860 3.9175 8.3236 11.1302
# 3 5.7354 13.2860 56.8437 21.4497 36.1744 35.6383
# 4 -0.3255 3.9175 21.4497 11.0836 -11.0195 -2.2814
# 5 24.3823 8.3236 36.1744 -11.0195 39.4308 -13.9217
# 6 15.8688 11.1302 35.6383 -2.2814 -13.9217 9.5228
#
#
#
# Elastic Compliance Matrix: (Units=1/GPa)
#
#
# Indices 1 2 3 4 5 6 
#
# 1 0.012264 -0.004534 -0.003792 0.009071 -0.000372 0.000682
# 2 -0.004534 0.057253 -0.013036 0.005972 0.002312 -0.005763
# 3 -0.003792 -0.013036 0.004952 0.005290 0.007330 0.015007
# 4 0.009071 0.005972 0.005290 0.061183 -0.008765 -0.040051
# 5 -0.000372 0.002312 0.007330 -0.008765 0.009850 -0.017216
# 6 0.000682 -0.005763 0.015007 -0.040051 -0.017216 0.019683
#
#
# Mechanical properties :
#
#
# Convention : Reuss Voigt Hill
#
# Bulk Modulus (GPa) = 31.50161 24.52851 28.01506
# Shear Modulus (GPa) = 22.88434 21.15693 22.02064
#
# Velocity S-wave (km/s) = 3.11037 2.99068 3.05111
# Velocity P-wave (km/s) = 5.12021 4.72176 4.92502
#
# Compressibility (1/GPa) = 0.03174441
#
# Stress axis : x y z
#
# Youngs Moduli (GPa) = 81.54103 17.46626 201.94619
#
# Poissons Ratio (x) = 0.07920 0.76568
# Poissons Ratio (y) = 0.36974 2.63263
# Poissons Ratio (z) = 0.30916 0.22770
#
# Static dielectric constant tensor:
#      x y z
#    x 2.037420 -0.268740 -0.000720 
#    y -0.268740 2.086330 -0.289580 
#    z -0.000720 -0.289580 1.791470 
# 
# From -- ./inp_files/618237.got.cif
#   From: 2010.05.17/outbox.cif.g08.bks.cpg/sg2_310_cif.got.tgz:618237.got - 2010.06.03 11:33:40.
