data_PCOD9026568
_publ_section_title
;
Structure prediction by ZEFSAII (Michael W. Deem and Ramdas Pophale) SiO2 
 PCOD9026568
Probable space group: P -1
;
_chemical_formula_sum "Si O2"
_cell_formula_units_Z 16
_cell_length_a 5.694552
_cell_length_b 15.267358
_cell_length_c 9.153843
_cell_angle_alpha 113.221451
_cell_angle_beta 108.142228
_cell_angle_gamma 74.466119
_cell_volume 685.358325
_symmetry_space_group_name_H-M "P -1"
_symmetry_group_IT_number 2
_symmetry_cell_setting 'triclinic'
loop_
_space_group_symop_operation_xyz
x,y,z
-x,-y,-z
loop_
_atom_site_type_symbol
_atom_site_label
_atom_site_fract_x
_atom_site_fract_y
_atom_site_fract_z
Si Si1 0.816199 0.432814 0.355835
Si Si2 0.573908 0.313352 0.426816
Si Si3 0.583022 0.609658 0.260650
Si Si4 0.140903 0.261581 0.133658
Si Si5 0.795439 0.131673 0.462464
Si Si6 0.356250 0.058466 0.143316
Si Si7 0.742998 0.027454 0.646791
Si Si8 0.993048 0.615734 0.100513
O O1 0.661247 0.408008 0.448065
O O2 0.661378 0.496407 0.242299
O O3 0.000000 0.500000 0.500000
O O4 0.950273 0.332458 0.246231
O O5 0.400268 0.331722 0.547300
O O6 0.418314 0.278537 0.242886
O O7 0.808967 0.236101 0.471956
O O8 0.285224 0.624878 0.184936
O O9 0.780374 0.636759 0.199777
O O10 0.156210 0.147787 0.099566
O O11 0.092860 0.307919 0.995473
O O12 0.550407 0.104537 0.315404
O O13 0.777544 0.124115 0.629637
O O14 0.026907 0.054192 0.406818
O O15 0.268489 0.981432 0.187653
O O16 0.500000 0.000000 0.000000
O O17 0.500000 0.000000 0.500000
O O18 0.000000 0.500000 0.000000
#
# Coordination Sequence:
#
# PCOD9026568 Si02
#       8
#     2   2   2   2   2   2   2   2
#     4  12  23  41  70 100 134 177 235 285 346 404
#     4  11  24  41  67  99 131 174 238 283 337 415
#     4  12  26  44  67  99 136 187 228 289 336 414
#     4  11  25  42  68  96 135 185 231 285 347 415
#     4   9  20  40  65  95 125 172 217 278 340 401
#     4  10  22  41  64  97 131 173 220 278 341 407
#     4   9  18  39  65  90 124 167 216 278 340 397
#     4  12  26  46  65  98 143 186 232 282 356 413
#
# _framework density 23.345451000000001
#
# number of rings (size 3 to 8) (size 9 to 14) (size 15 to 20)
#    0.000    1.250    2.500    3.000    1.750    1.500 
#    6.750    0.000    0.000    0.000    0.000    0.000 
#    0.000    0.000    0.000    0.000    0.000    0.000 
#
# Total GULP energy -89315.631894 kJ/mol
# GULP energy per Si atom -5582.226993 kJ/mol
# Density = 2.329232 g / cm^3
# Si number density = 23.345451 Si / 1000 Ang^3
#
#
#
# Elastic Constant Matrix: (Units=GPa)
#
#
# Indices 1 2 3 4 5 6 
#
# 1 109.3964 45.3434 56.5257 -33.7862 -7.8444 -0.3936
# 2 45.3434 156.7256 73.8117 -50.3704 -6.3381 -19.8476
# 3 56.5257 73.8117 115.5562 -41.5811 -32.9030 7.1736
# 4 -33.7862 -50.3704 -41.5811 47.2448 6.7839 0.1344
# 5 -7.8444 -6.3381 -32.9030 6.7839 46.2260 -6.1902
# 6 -0.3936 -19.8476 7.1736 0.1344 -6.1902 33.2065
#
#
#
# Elastic Compliance Matrix: (Units=1/GPa)
#
#
# Indices 1 2 3 4 5 6 
#
# 1 0.013379 0.000711 -0.005733 0.005613 -0.002355 0.001360
# 2 0.000711 0.013445 -0.007206 0.008946 -0.003279 0.008954
# 3 -0.005733 -0.007206 0.022002 0.005891 0.011907 -0.006932
# 4 0.005613 0.008946 0.005891 0.039733 0.001102 0.004185
# 5 -0.002355 -0.003279 0.011907 0.001102 0.029215 0.000882
# 6 0.001360 0.008954 -0.006932 0.004185 0.000882 0.037128
#
#
# Mechanical properties :
#
#
# Convention : Reuss Voigt Hill
#
# Bulk Modulus (GPa) = 41.03751 81.44886 61.24319
# Shear Modulus (GPa) = 26.66919 39.06862 32.86890
#
# Velocity S-wave (km/s) = 3.38357 4.09528 3.75632
# Velocity P-wave (km/s) = 5.73422 7.57140 6.71592
#
# Compressibility (1/GPa) = 0.02436795
#
# Stress axis : x y z
#
# Youngs Moduli (GPa) = 74.74620 74.37495 45.45081
#
# Poissons Ratio (x) = -0.05285 0.26058
# Poissons Ratio (y) = -0.05311 0.32753
# Poissons Ratio (z) = 0.42854 0.53597
#
# Static dielectric constant tensor:
#      x y z
#    x 1.898390 0.013990 0.013080 
#    y 0.013990 1.939430 -0.013220 
#    z 0.013080 -0.013220 1.912200 
# 
# From -- ./inp_files/135541.got.cif
#   From: 2010.05.17/outbox.cif.g08.bks.cpg/sg2_68_cif.got.tgz:135541.got - 2010.06.03 11:33:40.
