data_PCOD9026156
_publ_section_title
;
Structure prediction by ZEFSAII (Michael W. Deem and Ramdas Pophale) SiO2 
 PCOD9026156
Probable space group: P -1
;
_chemical_formula_sum "Si O2"
_cell_formula_units_Z 14
_cell_length_a 16.956468
_cell_length_b 7.943961
_cell_length_c 8.936324
_cell_angle_alpha 113.409878
_cell_angle_beta 48.510594
_cell_angle_gamma 138.379592
_cell_volume 587.179222
_symmetry_space_group_name_H-M "P -1"
_symmetry_group_IT_number 2
_symmetry_cell_setting 'triclinic'
loop_
_space_group_symop_operation_xyz
x,y,z
-x,-y,-z
loop_
_atom_site_type_symbol
_atom_site_label
_atom_site_fract_x
_atom_site_fract_y
_atom_site_fract_z
Si Si1 0.222905 0.324372 0.125743
Si Si2 0.271943 0.019975 0.473939
Si Si3 0.645911 0.548276 0.675524
Si Si4 0.957430 0.746738 0.912607
Si Si5 0.910335 0.524540 0.514517
Si Si6 0.148963 0.517316 0.741231
Si Si7 0.338516 0.114206 0.748182
O O1 0.338689 0.455336 0.165229
O O2 0.089612 0.262291 0.362377
O O3 0.196073 0.428168 0.052512
O O4 0.237037 0.146719 0.964361
O O5 0.318270 0.201330 0.339923
O O6 0.367965 0.186067 0.559014
O O7 0.253108 0.777093 0.383759
O O8 0.106092 0.868553 0.683757
O O9 0.760364 0.552016 0.448939
O O10 0.486578 0.297555 0.723756
O O11 0.932219 0.610240 0.047996
O O12 0.000000 0.000000 0.000000
O O13 0.956134 0.578069 0.303600
O O14 0.000000 0.500000 0.500000
O O15 0.259239 0.821462 0.736190
#
# Coordination Sequence:
#
# PCOD9026156 Si02
#       7
#     2   2   2   2   2   2   2
#     4  11  24  41  64  95 130 163 212 266 317 369
#     4  11  23  41  67  93 127 169 212 258 315 382
#     4  11  23  43  65  93 128 171 211 261 311 370
#     4  12  22  42  64  97 129 161 214 260 320 377
#     4  10  22  41  62  95 131 163 205 259 324 379
#     4  10  24  41  68  93 126 172 208 260 314 379
#     4  11  23  43  65  94 126 169 217 255 309 380
#
# _framework density 23.842806
#
# number of rings (size 3 to 8) (size 9 to 14) (size 15 to 20)
#    0.000    1.143    4.286    1.286    0.000    5.143 
#    0.000    1.429    0.000    0.000    0.000    0.000 
#    0.000    0.000    0.000    0.000    0.000    0.000 
#
# Total GULP energy -77972.958548 kJ/mol
# GULP energy per Si atom -5569.497039 kJ/mol
# Density = 2.378854 g / cm^3
# Si number density = 23.842806 Si / 1000 Ang^3
#
#
#
# Elastic Constant Matrix: (Units=GPa)
#
#
# Indices 1 2 3 4 5 6 
#
# 1 145.8522 8.7873 16.6585 -10.5925 42.7388 34.7852
# 2 8.7873 29.8041 8.1014 5.7252 10.0019 4.3515
# 3 16.6585 8.1014 49.9713 15.1790 12.2878 1.0702
# 4 -10.5925 5.7252 15.1790 35.7647 -5.1275 1.2676
# 5 42.7388 10.0019 12.2878 -5.1275 36.7624 13.4097
# 6 34.7852 4.3515 1.0702 1.2676 13.4097 47.9583
#
#
#
# Elastic Compliance Matrix: (Units=1/GPa)
#
#
# Indices 1 2 3 4 5 6 
#
# 1 0.011749 0.000999 -0.002206 0.002918 -0.010729 -0.005640
# 2 0.000999 0.039165 -0.001591 -0.006995 -0.012005 -0.000701
# 3 -0.002206 -0.001591 0.027378 -0.013537 -0.009561 0.004165
# 4 0.002918 -0.006995 -0.013537 0.037307 0.010055 -0.004977
# 5 -0.010729 -0.012005 -0.009561 0.010055 0.049357 -0.004982
# 6 -0.005640 -0.000701 0.004165 -0.004977 -0.004982 0.026438
#
#
# Mechanical properties :
#
#
# Convention : Reuss Voigt Hill
#
# Bulk Modulus (GPa) = 13.75553 32.52465 23.14009
# Shear Modulus (GPa) = 22.60169 36.90243 29.75206
#
# Velocity S-wave (km/s) = 3.08221 3.93840 3.53631
# Velocity P-wave (km/s) = 4.29517 5.86108 5.13813
#
# Compressibility (1/GPa) = 0.07269801
#
# Stress axis : x y z
#
# Youngs Moduli (GPa) = 85.11299 25.53283 36.52505
#
# Poissons Ratio (x) = -0.02551 0.08057
# Poissons Ratio (y) = -0.08505 0.05811
# Poissons Ratio (z) = 0.18774 0.04062
#
# Static dielectric constant tensor:
#      x y z
#    x 2.037240 0.025370 0.012710 
#    y 0.025370 2.024750 0.081840 
#    z 0.012710 0.081840 1.967250 
# 
# From -- ./inp_files/326410.got.cif
#   From: 2010.05.17/outbox.cif.g08.bks.cpg/sg2_164_cif.got.tgz:326410.got - 2010.06.03 11:33:40.
