data_PCOD9026954
_publ_section_title
;
Structure prediction by ZEFSAII (Michael W. Deem and Ramdas Pophale) SiO2 
 PCOD9026954
Probable space group: P -1
;
_chemical_formula_sum "Si O2"
_cell_formula_units_Z 16
_cell_length_a 18.124855
_cell_length_b 9.148056
_cell_length_c 17.995788
_cell_angle_alpha 47.545350
_cell_angle_beta 21.746035
_cell_angle_gamma 47.291967
_cell_volume 801.154863
_symmetry_space_group_name_H-M "P -1"
_symmetry_group_IT_number 2
_symmetry_cell_setting 'triclinic'
loop_
_space_group_symop_operation_xyz
x,y,z
-x,-y,-z
loop_
_atom_site_type_symbol
_atom_site_label
_atom_site_fract_x
_atom_site_fract_y
_atom_site_fract_z
Si Si1 0.695247 0.395074 0.307407
Si Si2 0.081571 0.717102 0.583901
Si Si3 0.190091 0.099618 0.812184
Si Si4 0.308078 0.050061 0.216300
Si Si5 0.386033 0.041696 0.495136
Si Si6 0.109746 0.373844 0.552956
Si Si7 0.003236 0.454673 0.117871
Si Si8 0.288628 0.438869 0.203097
O O1 0.500000 0.500000 0.500000
O O2 0.883006 0.352226 0.203971
O O3 0.647670 0.187811 0.391774
O O4 0.770747 0.534598 0.125620
O O5 0.137490 0.534635 0.535494
O O6 0.880781 0.858547 0.691056
O O7 0.026995 0.638280 0.742102
O O8 0.254830 0.852673 0.373938
O O9 0.304019 0.140513 0.615891
O O10 0.105336 0.310185 0.858078
O O11 0.372416 0.965428 0.734632
O O12 0.000000 0.000000 0.000000
O O13 0.320476 0.224841 0.204379
O O14 0.500000 0.000000 0.000000
O O15 0.240709 0.161732 0.528159
O O16 0.193259 0.427369 0.377386
O O17 0.868190 0.402952 0.754545
O O18 0.500000 0.500000 0.000000
#
# Coordination Sequence:
#
# PCOD9026954 Si02
#       8
#     2   2   2   2   2   2   2   2
#     4  11  24  42  62  90 135 168 216 267 323 387
#     4  10  22  42  66  89 125 165 217 264 319 385
#     4  11  22  41  64  93 126 165 216 267 316 382
#     4  10  22  42  64  95 128 165 209 265 321 388
#     4  11  23  40  65  93 126 171 212 270 322 383
#     4  10  22  41  66  92 125 165 213 266 323 376
#     4  11  23  42  64  91 126 175 211 272 324 384
#     4  10  22  42  64  95 128 164 210 268 322 385
#
# _framework density 19.971170999999998
#
# number of rings (size 3 to 8) (size 9 to 14) (size 15 to 20)
#    0.000    1.500    3.750    0.750    1.750    3.000 
#    2.250    0.000    0.000    0.000    0.000    0.000 
#    0.000    0.000    0.000    0.000    0.000    0.000 
#
# Total GULP energy -89283.325271 kJ/mol
# GULP energy per Si atom -5580.207829 kJ/mol
# Density = 1.992572 g / cm^3
# Si number density = 19.971171 Si / 1000 Ang^3
#
#
#
# Elastic Constant Matrix: (Units=GPa)
#
#
# Indices 1 2 3 4 5 6 
#
# 1 106.5671 37.4235 54.7563 -12.1470 3.6931 2.8430
# 2 37.4235 56.7505 54.8521 1.2458 -3.8003 -5.6481
# 3 54.7563 54.8521 153.6200 -0.5749 -3.1468 1.3277
# 4 -12.1470 1.2458 -0.5749 23.2171 7.9910 2.1441
# 5 3.6931 -3.8003 -3.1468 7.9910 46.9641 0.4496
# 6 2.8430 -5.6481 1.3277 2.1441 0.4496 28.8263
#
#
#
# Elastic Compliance Matrix: (Units=1/GPa)
#
#
# Indices 1 2 3 4 5 6 
#
# 1 0.014847 -0.008386 -0.002304 0.009747 -0.003624 -0.003670
# 2 -0.008386 0.032930 -0.008788 -0.008549 0.004111 0.008256
# 3 -0.002304 -0.008788 0.010489 -0.000382 0.000257 -0.001953
# 4 0.009747 -0.008549 -0.000382 0.052791 -0.010405 -0.006383
# 5 -0.003624 0.004111 0.000257 -0.010405 0.023683 0.001556
# 6 -0.003670 0.008256 -0.001953 -0.006383 0.001556 0.037211
#
#
# Mechanical properties :
#
#
# Convention : Reuss Voigt Hill
#
# Bulk Modulus (GPa) = 51.78516 67.88906 59.83711
# Shear Modulus (GPa) = 23.00516 31.12854 27.06685
#
# Velocity S-wave (km/s) = 3.39767 3.95229 3.68543
# Velocity P-wave (km/s) = 6.43261 7.40910 6.93806
#
# Compressibility (1/GPa) = 0.01931055
#
# Stress axis : x y z
#
# Youngs Moduli (GPa) = 67.35467 30.36787 95.33477
#
# Poissons Ratio (x) = 0.25465 0.21963
# Poissons Ratio (y) = 0.56481 0.83781
# Poissons Ratio (z) = 0.15517 0.26688
#
# Static dielectric constant tensor:
#      x y z
#    x 1.711450 -0.016260 -0.017310 
#    y -0.016260 1.708130 0.021930 
#    z -0.017310 0.021930 1.750500 
# 
# From -- ./inp_files/81086.got.cif
#   From: 2010.05.17/outbox.cif.g08.bks.cpg/sg2_41_cif.got.tgz:81086.got - 2010.06.03 11:33:40.
