data_PCOD9026612
_publ_section_title
;
Structure prediction by ZEFSAII (Michael W. Deem and Ramdas Pophale) SiO2 
 PCOD9026612
Probable space group: P -1
;
_chemical_formula_sum "Si O2"
_cell_formula_units_Z 14
_cell_length_a 8.833849
_cell_length_b 7.388188
_cell_length_c 14.523351
_cell_angle_alpha 125.461379
_cell_angle_beta 62.987647
_cell_angle_gamma 128.218649
_cell_volume 599.812266
_symmetry_space_group_name_H-M "P -1"
_symmetry_group_IT_number 2
_symmetry_cell_setting 'triclinic'
loop_
_space_group_symop_operation_xyz
x,y,z
-x,-y,-z
loop_
_atom_site_type_symbol
_atom_site_label
_atom_site_fract_x
_atom_site_fract_y
_atom_site_fract_z
Si Si1 0.192654 0.329325 0.023622
Si Si2 0.409317 0.935304 0.109012
Si Si3 0.283688 0.294020 0.789667
Si Si4 0.008467 0.475901 0.623843
Si Si5 0.271285 0.289942 0.195222
Si Si6 0.269680 0.881342 0.537809
Si Si7 0.813418 0.338131 0.176722
O O1 0.263661 0.264110 0.079005
O O2 0.969267 0.256806 0.076968
O O3 0.310121 0.638407 0.071461
O O4 0.225623 0.213500 0.887263
O O5 0.259558 0.046995 0.178702
O O6 0.591904 0.107835 0.175447
O O7 0.500000 0.000000 0.000000
O O8 0.515564 0.476812 0.773673
O O9 0.190599 0.468541 0.839603
O O10 0.231371 0.072664 0.666442
O O11 0.177018 0.618606 0.544052
O O12 0.108080 0.510496 0.704916
O O13 0.886735 0.628029 0.710730
O O14 0.851051 0.199341 0.547908
O O15 0.500000 0.000000 0.500000
#
# Coordination Sequence:
#
# PCOD9026612 Si02
#       7
#     2   2   2   2   2   2   2
#     4  11  23  42  65  98 143 170 211 270 326 398
#     4  11  23  37  63  95 139 173 211 264 324 388
#     4  11  22  40  67  92 132 173 213 264 329 381
#     4  10  24  44  66  94 127 165 227 271 325 391
#     4  10  22  41  65 100 129 174 218 258 333 400
#     4  11  24  43  69  90 125 173 221 277 322 382
#     4  10  24  41  63 102 130 166 220 266 326 403
#
# _framework density 23.340634000000001
#
# number of rings (size 3 to 8) (size 9 to 14) (size 15 to 20)
#    0.000    1.429    4.286    0.857    4.000    0.571 
#    0.000    3.571    0.000    0.000    0.000    0.000 
#    0.000    0.000    0.000    0.000    0.000    0.000 
#
# Total GULP energy -78412.459328 kJ/mol
# GULP energy per Si atom -5600.889952 kJ/mol
# Density = 2.328751 g / cm^3
# Si number density = 23.340634 Si / 1000 Ang^3
#
#
#
# Elastic Constant Matrix: (Units=GPa)
#
#
# Indices 1 2 3 4 5 6 
#
# 1 126.4391 42.3576 31.0129 9.4884 20.0967 9.3808
# 2 42.3576 115.0620 27.4850 11.7560 13.0643 20.9479
# 3 31.0129 27.4850 114.5684 25.4240 29.3980 11.0592
# 4 9.4884 11.7560 25.4240 40.8070 9.7295 1.3357
# 5 20.0967 13.0643 29.3980 9.7295 37.6955 8.4485
# 6 9.3808 20.9479 11.0592 1.3357 8.4485 27.0011
#
#
#
# Elastic Compliance Matrix: (Units=1/GPa)
#
#
# Indices 1 2 3 4 5 6 
#
# 1 0.009685 -0.003015 -0.001093 0.000092 -0.003397 0.000481
# 2 -0.003015 0.011542 -0.000929 -0.001923 0.000531 -0.007598
# 3 -0.001093 -0.000929 0.012413 -0.005488 -0.007019 -0.001516
# 4 0.000092 -0.001923 -0.005488 0.029153 -0.003371 0.003321
# 5 -0.003397 0.000531 -0.007019 -0.003371 0.036183 -0.007511
# 6 0.000481 -0.007598 -0.001516 0.003321 -0.007511 0.045570
#
#
# Mechanical properties :
#
#
# Convention : Reuss Voigt Hill
#
# Bulk Modulus (GPa) = 42.43678 61.97563 52.20621
# Shear Modulus (GPa) = 30.77400 38.11499 34.44449
#
# Velocity S-wave (km/s) = 3.63502 4.04541 3.84569
# Velocity P-wave (km/s) = 5.98655 6.95922 6.49113
#
# Compressibility (1/GPa) = 0.02356446
#
# Stress axis : x y z
#
# Youngs Moduli (GPa) = 103.25676 86.63804 80.56356
#
# Poissons Ratio (x) = 0.26124 0.08809
# Poissons Ratio (y) = 0.31135 0.07483
# Poissons Ratio (z) = 0.11290 0.08047
#
# Static dielectric constant tensor:
#      x y z
#    x 1.878730 0.015170 0.008870 
#    y 0.015170 1.920100 0.029370 
#    z 0.008870 0.029370 1.908940 
# 
# From -- ./inp_files/400068.got.cif
#   From: 2010.05.17/outbox.cif.g08.bks.cpg/sg2_201_cif.got.tgz:400068.got - 2010.06.03 11:33:40.
