data_PCOD9026624
_publ_section_title
;
Structure prediction by ZEFSAII (Michael W. Deem and Ramdas Pophale) SiO2 
 PCOD9026624
Probable space group: P -1
;
_chemical_formula_sum "Si O2"
_cell_formula_units_Z 16
_cell_length_a 21.164164
_cell_length_b 12.221959
_cell_length_c 9.866461
_cell_angle_alpha 47.461420
_cell_angle_beta 151.727004
_cell_angle_gamma 139.704168
_cell_volume 781.742980
_symmetry_space_group_name_H-M "P -1"
_symmetry_group_IT_number 2
_symmetry_cell_setting 'triclinic'
loop_
_space_group_symop_operation_xyz
x,y,z
-x,-y,-z
loop_
_atom_site_type_symbol
_atom_site_label
_atom_site_fract_x
_atom_site_fract_y
_atom_site_fract_z
Si Si1 0.916108 0.560587 0.898400
Si Si2 0.827529 0.027261 0.536796
Si Si3 0.920195 0.069103 0.989573
Si Si4 0.694183 0.474704 0.124391
Si Si5 0.398254 0.231913 0.296065
Si Si6 0.495341 0.173303 0.819119
Si Si7 0.596685 0.403774 0.290299
Si Si8 0.041012 0.611659 0.619734
O O1 0.754056 0.520877 0.565693
O O2 0.018700 0.756254 0.963466
O O3 0.897045 0.461315 0.085454
O O4 0.000000 0.500000 0.000000
O O5 0.843445 0.193238 0.354716
O O6 0.661584 0.865909 0.367581
O O7 0.875658 0.081545 0.738926
O O8 0.946757 0.980443 0.732658
O O9 0.770864 0.923875 0.898818
O O10 0.640771 0.371985 0.250826
O O11 0.876067 0.586403 0.375344
O O12 0.621741 0.600022 0.866370
O O13 0.634651 0.336559 0.009332
O O14 0.475240 0.205057 0.597846
O O15 0.495075 0.253060 0.326406
O O16 0.500000 0.000000 0.000000
O O17 0.500000 0.500000 0.000000
O O18 0.000000 0.500000 0.500000
#
# Coordination Sequence:
#
# PCOD9026624 Si02
#       8
#     2   2   2   2   2   2   2   2
#     4  12  26  45  70 100 137 181 223 286 344 401
#     4  10  22  41  65 102 133 175 221 282 338 400
#     4  10  22  43  68  99 134 170 231 278 334 411
#     4  11  23  45  64  96 137 177 226 276 334 411
#     4  10  23  44  69  96 129 182 227 276 339 404
#     4  11  25  39  65 102 139 171 226 286 341 394
#     4  10  25  46  67  95 135 181 227 271 335 408
#     4  12  23  41  70  98 135 173 224 281 342 398
#
# _framework density 20.467085999999998
#
# number of rings (size 3 to 8) (size 9 to 14) (size 15 to 20)
#    0.000    1.250    3.750    1.125    8.750    0.000 
#    2.250    4.375    0.000    0.000    0.000    0.000 
#    0.000    0.000    0.000    0.000    0.000    0.000 
#
# Total GULP energy -89434.054980 kJ/mol
# GULP energy per Si atom -5589.628436 kJ/mol
# Density = 2.042050 g / cm^3
# Si number density = 20.467086 Si / 1000 Ang^3
#
#
#
# Elastic Constant Matrix: (Units=GPa)
#
#
# Indices 1 2 3 4 5 6 
#
# 1 97.0546 32.2833 13.6252 -4.8114 -6.4228 17.5895
# 2 32.2833 108.3286 28.1154 -2.6727 -9.1943 7.8948
# 3 13.6252 28.1154 94.4907 -5.5015 -8.3285 2.1514
# 4 -4.8114 -2.6727 -5.5015 27.3030 13.3195 -2.7493
# 5 -6.4228 -9.1943 -8.3285 13.3195 26.1846 -0.4686
# 6 17.5895 7.8948 2.1514 -2.7493 -0.4686 37.2797
#
#
#
# Elastic Compliance Matrix: (Units=1/GPa)
#
#
# Indices 1 2 3 4 5 6 
#
# 1 0.012455 -0.003044 -0.000616 0.000568 0.001410 -0.005137
# 2 -0.003044 0.011116 -0.002669 -0.001582 0.003097 -0.000842
# 3 -0.000616 -0.002669 0.011705 0.000970 0.002147 0.000279
# 4 0.000568 -0.001582 0.000970 0.049380 -0.025166 0.003336
# 5 0.001410 0.003097 0.002147 -0.025166 0.053061 -0.002634
# 6 -0.005137 -0.000842 0.000279 0.003336 -0.002634 0.029623
#
#
# Mechanical properties :
#
#
# Convention : Reuss Voigt Hill
#
# Bulk Modulus (GPa) = 44.21000 49.76908 46.98954
# Shear Modulus (GPa) = 26.66152 33.21012 29.93582
#
# Velocity S-wave (km/s) = 3.61314 4.03253 3.82859
# Velocity P-wave (km/s) = 6.24931 6.78610 6.52323
#
# Compressibility (1/GPa) = 0.02261931
#
# Stress axis : x y z
#
# Youngs Moduli (GPa) = 80.29029 89.95991 85.43198
#
# Poissons Ratio (x) = 0.27382 0.05263
# Poissons Ratio (y) = 0.24439 0.22798
# Poissons Ratio (z) = 0.04946 0.24006
#
# Static dielectric constant tensor:
#      x y z
#    x 1.744710 0.018460 0.024660 
#    y 0.018460 1.685140 -0.009990 
#    z 0.024660 -0.009990 1.743660 
# 
# From -- ./inp_files/205397.got.cif
#   From: 2010.05.17/outbox.cif.g08.bks.cpg/sg2_103_cif.got.tgz:205397.got - 2010.06.03 11:33:40.
