data_PCOD9026791
_publ_section_title
;
Structure prediction by ZEFSAII (Michael W. Deem and Ramdas Pophale) SiO2 
 PCOD9026791
Probable space group: P -1
;
_chemical_formula_sum "Si O2"
_cell_formula_units_Z 16
_cell_length_a 11.710857
_cell_length_b 11.029999
_cell_length_c 5.102469
_cell_angle_alpha 81.044676
_cell_angle_beta 102.703571
_cell_angle_gamma 98.404155
_cell_volume 630.819628
_symmetry_space_group_name_H-M "P -1"
_symmetry_group_IT_number 2
_symmetry_cell_setting 'triclinic'
loop_
_space_group_symop_operation_xyz
x,y,z
-x,-y,-z
loop_
_atom_site_type_symbol
_atom_site_label
_atom_site_fract_x
_atom_site_fract_y
_atom_site_fract_z
Si Si1 0.536169 0.645451 0.495082
Si Si2 0.021025 0.654457 0.248229
Si Si3 0.404431 0.716597 0.907523
Si Si4 0.809941 0.003208 0.964268
Si Si5 0.633890 0.041021 0.480690
Si Si6 0.151086 0.580613 0.825486
Si Si7 0.248686 0.190044 0.620506
Si Si8 0.976833 0.869979 0.776382
O O1 0.500000 0.500000 0.500000
O O2 0.501544 0.685693 0.753816
O O3 0.670396 0.686968 0.461797
O O4 0.459519 0.712806 0.223397
O O5 0.087844 0.663917 0.555822
O O6 0.904047 0.556550 0.238490
O O7 0.107419 0.602045 0.091763
O O8 0.988299 0.775460 0.049748
O O9 0.365367 0.847691 0.758772
O O10 0.290048 0.615430 0.865683
O O11 0.755174 0.865953 0.070347
O O12 0.905887 0.980253 0.802930
O O13 0.888303 0.071030 0.213531
O O14 0.713772 0.078191 0.762431
O O15 0.500000 0.000000 0.500000
O O16 0.687317 0.919646 0.445792
O O17 0.114007 0.193060 0.461190
#
# Coordination Sequence:
#
# PCOD9026791 Si02
#       8
#     2   2   2   2   2   2   2   2
#     4  12  29  48  70 103 139 184 242 284 344 422
#     4  10  22  41  65  96 135 175 228 278 339 407
#     4  12  26  46  74 101 138 183 230 290 357 406
#     4  10  23  41  65 102 135 176 236 278 353 419
#     4  11  23  42  69 101 140 177 232 289 351 415
#     4  10  23  41  65 100 131 175 230 280 339 405
#     4  11  25  42  69  98 139 183 235 288 351 414
#     4  10  23  40  65  96 136 181 226 284 351 408
#
# _framework density 25.363824999999999
#
# number of rings (size 3 to 8) (size 9 to 14) (size 15 to 20)
#    0.000    1.250    1.250    3.000    8.750    2.000 
#    0.000    0.000    0.000    0.000    0.000    0.000 
#    0.000    0.000    0.000    0.000    0.000    0.000 
#
# Total GULP energy -89576.344356 kJ/mol
# GULP energy per Si atom -5598.521522 kJ/mol
# Density = 2.530610 g / cm^3
# Si number density = 25.363825 Si / 1000 Ang^3
#
#
#
# Elastic Constant Matrix: (Units=GPa)
#
#
# Indices 1 2 3 4 5 6 
#
# 1 97.4119 14.9512 25.7646 2.5727 16.0579 27.8094
# 2 14.9512 90.0147 9.6718 -19.9781 1.0944 22.7238
# 3 25.7646 9.6718 87.6220 -14.0678 0.7724 19.0309
# 4 2.5727 -19.9781 -14.0678 36.5317 3.6421 -2.4936
# 5 16.0579 1.0944 0.7724 3.6421 32.6623 6.5896
# 6 27.8094 22.7238 19.0309 -2.4936 6.5896 45.4312
#
#
#
# Elastic Compliance Matrix: (Units=1/GPa)
#
#
# Indices 1 2 3 4 5 6 
#
# 1 0.013887 -0.000930 -0.003005 -0.002546 -0.005198 -0.006162
# 2 -0.000930 0.014675 0.001478 0.008138 0.000437 -0.007007
# 3 -0.003005 0.001478 0.014099 0.005994 0.001369 -0.004675
# 4 -0.002546 0.008138 0.005994 0.034364 -0.002433 -0.002784
# 5 -0.005198 0.000437 0.001369 -0.002433 0.033934 -0.002666
# 6 -0.006162 -0.007007 -0.004675 -0.002784 -0.002666 0.031480
#
#
# Mechanical properties :
#
#
# Convention : Reuss Voigt Hill
#
# Bulk Modulus (GPa) = 26.49294 41.75821 34.12557
# Shear Modulus (GPa) = 31.26298 37.90244 34.58271
#
# Velocity S-wave (km/s) = 3.51462 3.86988 3.69652
# Velocity P-wave (km/s) = 5.19018 6.03882 5.63051
#
# Compressibility (1/GPa) = 0.03774591
#
# Stress axis : x y z
#
# Youngs Moduli (GPa) = 72.01238 68.14520 70.92796
#
# Poissons Ratio (x) = 0.06337 0.21315
# Poissons Ratio (y) = 0.06697 -0.10484
# Poissons Ratio (z) = 0.21641 -0.10073
#
# Static dielectric constant tensor:
#      x y z
#    x 2.000110 -0.020950 -0.058470 
#    y -0.020950 2.057100 0.059990 
#    z -0.058470 0.059990 2.036610 
# 
# From -- ./inp_files/69389.got.cif
#   From: 2010.05.17/outbox.cif.g08.bks.cpg/sg2_35_cif.got.tgz:69389.got - 2010.06.03 11:33:40.
