data_PCOD9026911
_publ_section_title
;
Structure prediction by ZEFSAII (Michael W. Deem and Ramdas Pophale) SiO2 
 PCOD9026911
Probable space group: P -1
;
_chemical_formula_sum "Si O2"
_cell_formula_units_Z 13
_cell_length_a 8.306385
_cell_length_b 14.834384
_cell_length_c 6.474162
_cell_angle_alpha 124.943473
_cell_angle_beta 95.447871
_cell_angle_gamma 56.939041
_cell_volume 519.852918
_symmetry_space_group_name_H-M "P -1"
_symmetry_group_IT_number 2
_symmetry_cell_setting 'triclinic'
loop_
_space_group_symop_operation_xyz
x,y,z
-x,-y,-z
loop_
_atom_site_type_symbol
_atom_site_label
_atom_site_fract_x
_atom_site_fract_y
_atom_site_fract_z
Si Si1 0.069188 0.455621 0.680765
Si Si2 0.710124 0.281869 0.192115
Si Si3 0.414077 0.878189 0.227626
Si Si4 0.154876 0.266907 0.743818
Si Si5 0.121156 0.086276 0.784443
Si Si6 0.500000 0.000000 0.000000
Si Si7 0.554012 0.548631 0.269461
O O1 0.084649 0.322205 0.576389
O O2 0.290526 0.415678 0.697725
O O3 0.000000 0.500000 0.500000
O O4 0.912397 0.594539 0.968118
O O5 0.669971 0.417308 0.265009
O O6 0.644069 0.322160 0.473186
O O7 0.560540 0.255474 0.030502
O O8 0.930310 0.145006 0.985368
O O9 0.606269 0.838127 0.333824
O O10 0.227306 0.957312 0.471073
O O11 0.404559 0.958458 0.127971
O O12 0.054432 0.208310 0.773240
O O13 0.299812 0.059783 0.914221
O O14 0.500000 0.500000 0.000000
#
# Coordination Sequence:
#
# PCOD9026911 Si02
#       7
#     2   2   2   2   2   1   2
#     4  11  23  42  73 103 137 184 240 297 350 420
#     4  11  25  45  69 102 143 184 242 283 362 432
#     4  11  24  44  71 104 144 187 236 295 353 429
#     4  10  22  41  66 105 137 181 234 289 356 418
#     4  11  24  46  68 106 142 191 233 296 354 427
#     4  10  24  42  70 102 142 188 240 288 350 414
#     4  11  25  46  70 102 145 189 231 302 358 426
#
# _framework density 25.007073999999999
#
# number of rings (size 3 to 8) (size 9 to 14) (size 15 to 20)
#    0.000    1.231    1.538    4.154    0.000   14.154 
#    2.769    0.000    0.000    0.000    0.000    0.000 
#    0.000    0.000    0.000    0.000    0.000    0.000 
#
# Total GULP energy -72465.525335 kJ/mol
# GULP energy per Si atom -5574.271180 kJ/mol
# Density = 2.495016 g / cm^3
# Si number density = 25.007074 Si / 1000 Ang^3
#
#
#
# Elastic Constant Matrix: (Units=GPa)
#
#
# Indices 1 2 3 4 5 6 
#
# 1 71.8254 -17.9730 34.8018 -1.6322 -25.5294 -12.5268
# 2 -17.9730 85.4687 15.8140 -22.3525 -2.6417 6.7641
# 3 34.8018 15.8140 143.1237 7.7787 -30.5379 -9.5215
# 4 -1.6322 -22.3525 7.7787 32.5232 -2.2545 3.5523
# 5 -25.5294 -2.6417 -30.5379 -2.2545 42.5205 5.6617
# 6 -12.5268 6.7641 -9.5215 3.5523 5.6617 30.1328
#
#
#
# Elastic Compliance Matrix: (Units=1/GPa)
#
#
# Indices 1 2 3 4 5 6 
#
# 1 0.022499 0.007601 -0.004172 0.007743 0.010948 0.003359
# 2 0.007601 0.018463 -0.004126 0.014875 0.004179 -0.004827
# 3 -0.004172 -0.004126 0.009663 -0.005347 0.003602 0.002199
# 4 0.007743 0.014875 -0.005347 0.043860 0.005116 -0.007941
# 5 0.010948 0.004179 0.003602 0.005116 0.033495 -0.002145
# 6 0.003359 -0.004827 0.002199 -0.007941 -0.002145 0.037700
#
#
# Mechanical properties :
#
#
# Convention : Reuss Voigt Hill
#
# Bulk Modulus (GPa) = 20.31278 40.63370 30.47324
# Shear Modulus (GPa) = 27.25011 38.88698 33.06855
#
# Velocity S-wave (km/s) = 3.30464 3.94768 3.64038
# Velocity P-wave (km/s) = 4.76458 6.08794 5.46646
#
# Compressibility (1/GPa) = 0.04923009
#
# Stress axis : x y z
#
# Youngs Moduli (GPa) = 44.44609 54.16125 103.48939
#
# Poissons Ratio (x) = -0.41167 0.43178
# Poissons Ratio (y) = -0.33783 0.42702
# Poissons Ratio (z) = 0.18544 0.22348
#
# Static dielectric constant tensor:
#      x y z
#    x 1.984410 0.041840 -0.042250 
#    y 0.041840 2.049650 -0.025420 
#    z -0.042250 -0.025420 2.081400 
# 
# From -- ./inp_files/36540.got.cif
#   From: 2010.05.17/outbox.cif.g08.bks.cpg/sg2_19_cif.got.tgz:36540.got - 2010.06.03 11:33:40.
