data_PCOD9026787
_publ_section_title
;
Structure prediction by ZEFSAII (Michael W. Deem and Ramdas Pophale) SiO2 
 PCOD9026787
Probable space group: P -1
;
_chemical_formula_sum "Si O2"
_cell_formula_units_Z 16
_cell_length_a 5.831503
_cell_length_b 4.943920
_cell_length_c 28.109284
_cell_angle_alpha 88.528021
_cell_angle_beta 127.316607
_cell_angle_gamma 84.264907
_cell_volume 637.464518
_symmetry_space_group_name_H-M "P -1"
_symmetry_group_IT_number 2
_symmetry_cell_setting 'triclinic'
loop_
_space_group_symop_operation_xyz
x,y,z
-x,-y,-z
loop_
_atom_site_type_symbol
_atom_site_label
_atom_site_fract_x
_atom_site_fract_y
_atom_site_fract_z
Si Si1 0.525136 0.962584 0.221302
Si Si2 0.481545 0.473370 0.146257
Si Si3 0.084524 0.550750 0.313241
Si Si4 0.226146 0.067360 0.569235
Si Si5 0.300411 0.648610 0.433839
Si Si6 0.320217 0.041400 0.299160
Si Si7 0.877601 0.732278 0.047582
Si Si8 0.329938 0.766037 0.921512
O O1 0.526422 0.742058 0.179630
O O2 0.812598 0.790731 0.283626
O O3 0.450666 0.248955 0.183073
O O4 0.337935 0.029306 0.245169
O O5 0.696716 0.311072 0.135972
O O6 0.200965 0.591253 0.077934
O O7 0.194366 0.463887 0.379855
O O8 0.059390 0.278839 0.281554
O O9 0.295994 0.729912 0.311745
O O10 0.482349 0.178027 0.569143
O O11 0.991891 0.232418 0.575228
O O12 0.416926 0.881177 0.634389
O O13 0.000000 0.000000 0.500000
O O14 0.500000 0.500000 0.500000
O O15 0.739619 0.498990 0.058747
O O16 0.878248 0.977818 0.084019
O O17 0.654951 0.828768 0.976562
#
# Coordination Sequence:
#
# PCOD9026787 Si02
#       8
#     2   2   2   2   2   2   2   2
#     4  12  26  44  63  98 130 180 224 284 332 420
#     4  12  25  40  68  96 132 174 232 274 338 404
#     4  11  25  46  68  94 134 179 224 285 350 420
#     4  11  23  43  69 107 141 183 237 298 370 442
#     4  11  23  43  69 107 141 183 237 298 370 442
#     4  11  25  46  68  94 134 179 224 285 350 420
#     4  10  22  41  65  96 134 173 218 277 339 401
#     4  10  22  41  65  96 134 173 218 277 339 401
#
# _framework density 25.099433000000001
#
# number of rings (size 3 to 8) (size 9 to 14) (size 15 to 20)
#    0.000    1.000    1.250    4.875    0.000    8.000 
#    2.250    5.000    0.000    0.000    0.000    0.000 
#    0.000    0.000    0.000    0.000    0.000    0.000 
#
# Total GULP energy -89105.914932 kJ/mol
# GULP energy per Si atom -5569.119683 kJ/mol
# Density = 2.504231 g / cm^3
# Si number density = 25.099433 Si / 1000 Ang^3
#
#
#
# Elastic Constant Matrix: (Units=GPa)
#
#
# Indices 1 2 3 4 5 6 
#
# 1 89.6308 25.6616 27.4597 1.8946 -22.9436 -33.2481
# 2 25.6616 89.1690 -16.9085 -7.4471 -0.5732 -30.0168
# 3 27.4597 -16.9085 99.1119 -2.6157 -20.4422 -10.4779
# 4 1.8946 -7.4471 -2.6157 46.5445 -12.5101 -8.6565
# 5 -22.9436 -0.5732 -20.4422 -12.5101 54.4118 -1.8937
# 6 -33.2481 -30.0168 -10.4779 -8.6565 -1.8937 42.9969
#
#
#
# Elastic Compliance Matrix: (Units=1/GPa)
#
#
# Indices 1 2 3 4 5 6 
#
# 1 0.020157 -0.000191 -0.001817 0.004629 0.009448 0.016359
# 2 -0.000191 0.018424 0.006036 0.007505 0.004660 0.015901
# 3 -0.001817 0.006036 0.013722 0.004739 0.005798 0.007362
# 4 0.004629 0.007505 0.004739 0.028736 0.010983 0.016242
# 5 0.009448 0.004660 0.005798 0.010983 0.027651 0.015402
# 6 0.016359 0.015901 0.007362 0.016242 0.015402 0.052750
#
#
# Mechanical properties :
#
#
# Convention : Reuss Voigt Hill
#
# Bulk Modulus (GPa) = 16.56754 38.92637 27.74696
# Shear Modulus (GPa) = 28.81759 44.90389 36.86074
#
# Velocity S-wave (km/s) = 3.39209 4.23429 3.83637
# Velocity P-wave (km/s) = 4.68581 6.28078 5.54098
#
# Compressibility (1/GPa) = 0.06035898
#
# Stress axis : x y z
#
# Youngs Moduli (GPa) = 49.60988 54.27741 72.87461
#
# Poissons Ratio (x) = 0.01039 0.13242
# Poissons Ratio (y) = 0.00950 -0.43990
# Poissons Ratio (z) = 0.09014 -0.32764
#
# Static dielectric constant tensor:
#      x y z
#    x 2.064100 0.045180 0.158840 
#    y 0.045180 1.946750 -0.003350 
#    z 0.158840 -0.003350 2.064040 
# 
# From -- ./inp_files/14991.got.cif
#   From: 2010.05.17/outbox.cif.g08.bks.cpg/sg2_8_cif.got.tgz:14991.got - 2010.06.03 11:33:40.
