data_PCOD9026764
_publ_section_title
;
Structure prediction by ZEFSAII (Michael W. Deem and Ramdas Pophale) SiO2 
 PCOD9026764
Probable space group: P -1
;
_chemical_formula_sum "Si O2"
_cell_formula_units_Z 14
_cell_length_a 12.189106
_cell_length_b 11.787588
_cell_length_c 11.510020
_cell_angle_alpha 38.925152
_cell_angle_beta 124.312597
_cell_angle_gamma 143.682794
_cell_volume 606.468788
_symmetry_space_group_name_H-M "P -1"
_symmetry_group_IT_number 2
_symmetry_cell_setting 'triclinic'
loop_
_space_group_symop_operation_xyz
x,y,z
-x,-y,-z
loop_
_atom_site_type_symbol
_atom_site_label
_atom_site_fract_x
_atom_site_fract_y
_atom_site_fract_z
Si Si1 0.721779 0.254523 0.943332
Si Si2 0.969731 0.068931 0.049852
Si Si3 0.282815 0.833258 0.471430
Si Si4 0.761724 0.886017 0.294456
Si Si5 0.650843 0.565053 0.697047
Si Si6 0.660705 0.695516 0.850178
Si Si7 0.886901 0.380176 0.701127
O O1 0.737350 0.452179 0.868880
O O2 0.806923 0.392335 0.759105
O O3 0.500000 0.000000 0.000000
O O4 0.807924 0.145744 0.122666
O O5 0.180619 0.299452 0.034689
O O6 0.874358 0.899076 0.245242
O O7 0.854196 0.136682 0.900143
O O8 0.000000 0.000000 0.000000
O O9 0.223944 0.684564 0.432191
O O10 0.109982 0.615602 0.626433
O O11 0.500000 0.000000 0.500000
O O12 0.266646 0.034202 0.295104
O O13 0.774836 0.800005 0.494139
O O14 0.545499 0.663428 0.302091
O O15 0.607746 0.631168 0.735774
O O16 0.500000 0.500000 0.000000
#
# Coordination Sequence:
#
# PCOD9026764 Si02
#       7
#     2   2   2   2   2   2   2
#     4   9  20  39  69  94 131 183 224 278 344 413
#     4  11  21  41  68  91 132 177 222 278 339 407
#     4  11  25  43  68 101 137 179 229 288 345 416
#     4   9  21  40  64  96 127 181 223 270 349 405
#     4  10  22  41  65  95 133 174 222 282 340 408
#     4  12  26  42  66 100 133 174 230 287 345 410
#     4  10  23  45  67  99 137 182 231 280 350 409
#
# _framework density 23.084453
#
# number of rings (size 3 to 8) (size 9 to 14) (size 15 to 20)
#    0.000    1.714    1.429    1.714    6.000    4.000 
#    2.571    1.429    0.000    0.000    0.000    0.000 
#    0.000    0.000    0.000    0.000    0.000    0.000 
#
# Total GULP energy -78122.774994 kJ/mol
# GULP energy per Si atom -5580.198214 kJ/mol
# Density = 2.303191 g / cm^3
# Si number density = 23.084453 Si / 1000 Ang^3
#
#
#
# Elastic Constant Matrix: (Units=GPa)
#
#
# Indices 1 2 3 4 5 6 
#
# 1 105.5363 28.1805 43.4511 -1.0640 -30.2831 -8.3513
# 2 28.1805 68.8809 26.3484 7.1103 -8.1738 13.6861
# 3 43.4511 26.3484 110.7166 -6.5537 -33.8576 -12.0062
# 4 -1.0640 7.1103 -6.5537 16.9781 2.6614 2.6153
# 5 -30.2831 -8.1738 -33.8576 2.6614 46.7872 -3.2965
# 6 -8.3513 13.6861 -12.0062 2.6153 -3.2965 46.1336
#
#
#
# Elastic Compliance Matrix: (Units=1/GPa)
#
#
# Indices 1 2 3 4 5 6 
#
# 1 0.013881 -0.005119 -0.001533 0.000655 0.007234 0.004112
# 2 -0.005119 0.020918 -0.005570 -0.009363 -0.003743 -0.008318
# 3 -0.001533 -0.005570 0.014514 0.005652 0.008600 0.005446
# 4 0.000655 -0.009363 0.005652 0.065069 -0.000779 0.000623
# 5 0.007234 -0.003743 0.008600 -0.000779 0.032163 0.007001
# 6 0.004112 -0.008318 0.005446 0.000623 0.007001 0.026771
#
#
# Mechanical properties :
#
#
# Convention : Reuss Voigt Hill
#
# Bulk Modulus (GPa) = 40.20936 53.45487 46.83211
# Shear Modulus (GPa) = 24.26602 34.45671 29.36136
#
# Velocity S-wave (km/s) = 3.24572 3.86766 3.57025
# Velocity P-wave (km/s) = 5.61270 6.56898 6.10958
#
# Compressibility (1/GPa) = 0.02486983
#
# Stress axis : x y z
#
# Youngs Moduli (GPa) = 72.04105 47.80598 68.89728
#
# Poissons Ratio (x) = 0.24472 0.10560
# Poissons Ratio (y) = 0.36878 0.38376
# Poissons Ratio (z) = 0.11041 0.26628
#
# Static dielectric constant tensor:
#      x y z
#    x 1.943990 0.005020 -0.045990 
#    y 0.005020 1.864100 0.021390 
#    z -0.045990 0.021390 1.977880 
# 
# From -- ./inp_files/416032.got.cif
#   From: 2010.05.17/outbox.cif.g08.bks.cpg/sg2_209_cif.got.tgz:416032.got - 2010.06.03 11:33:40.
