data_PCOD9026365
_publ_section_title
;
Structure prediction by ZEFSAII (Michael W. Deem and Ramdas Pophale) SiO2 
 PCOD9026365
Probable space group: P -1
;
_chemical_formula_sum "Si O2"
_cell_formula_units_Z 14
_cell_length_a 13.666070
_cell_length_b 13.810867
_cell_length_c 7.980358
_cell_angle_alpha 47.443970
_cell_angle_beta 31.722255
_cell_angle_gamma 48.658496
_cell_volume 569.064885
_symmetry_space_group_name_H-M "P -1"
_symmetry_group_IT_number 2
_symmetry_cell_setting 'triclinic'
loop_
_space_group_symop_operation_xyz
x,y,z
-x,-y,-z
loop_
_atom_site_type_symbol
_atom_site_label
_atom_site_fract_x
_atom_site_fract_y
_atom_site_fract_z
Si Si1 0.930037 0.214510 0.456589
Si Si2 0.075462 0.600710 0.078350
Si Si3 0.260186 0.338860 0.273659
Si Si4 0.739765 0.192435 0.234247
Si Si5 0.724626 0.020671 0.783820
Si Si6 0.640380 0.967806 0.494695
Si Si7 0.408608 0.649205 0.009829
O O1 0.820219 0.096420 0.701643
O O2 0.813832 0.300321 0.676910
O O3 0.928613 0.319836 0.182394
O O4 0.142385 0.125503 0.278460
O O5 0.195893 0.446603 0.093839
O O6 0.865869 0.599436 0.454003
O O7 0.158415 0.688683 0.996078
O O8 0.244068 0.184782 0.474559
O O9 0.480244 0.325069 0.015986
O O10 0.717911 0.122313 0.522225
O O11 0.790479 0.062753 0.187701
O O12 0.559233 0.267550 0.299238
O O13 0.517061 0.010398 0.155706
O O14 0.500000 0.000000 0.500000
O O15 0.500000 0.500000 0.000000
#
# Coordination Sequence:
#
# PCOD9026365 Si02
#       7
#     2   2   2   2   2   2   2
#     4  10  22  42  68  95 133 177 219 272 335 387
#     4  10  24  44  68  92 134 180 221 271 329 398
#     4  11  23  43  67  95 136 175 222 267 337 390
#     4  11  24  41  68  97 131 174 222 275 325 394
#     4  10  22  41  64 101 136 168 222 275 332 391
#     4  12  22  39  68 100 135 172 215 277 334 390
#     4  12  24  43  68  98 133 176 225 273 328 398
#
# _framework density 24.601765
#
# number of rings (size 3 to 8) (size 9 to 14) (size 15 to 20)
#    0.000    1.143    4.286    1.286    0.000    6.286 
#    0.000    0.714    0.000    0.000    0.000    0.000 
#    0.000    0.000    0.000    0.000    0.000    0.000 
#
# Total GULP energy -78103.801827 kJ/mol
# GULP energy per Si atom -5578.842988 kJ/mol
# Density = 2.454577 g / cm^3
# Si number density = 24.601765 Si / 1000 Ang^3
#
#
#
# Elastic Constant Matrix: (Units=GPa)
#
#
# Indices 1 2 3 4 5 6 
#
# 1 54.4468 27.2484 12.4129 -5.6225 18.2509 -7.2550
# 2 27.2484 202.9987 37.4804 -18.4611 13.8636 -25.5394
# 3 12.4129 37.4804 50.8602 -8.0080 16.5673 -17.2376
# 4 -5.6225 -18.4611 -8.0080 46.8848 -3.5643 0.8681
# 5 18.2509 13.8636 16.5673 -3.5643 39.4746 -9.8230
# 6 -7.2550 -25.5394 -17.2376 0.8681 -9.8230 43.9525
#
#
#
# Elastic Compliance Matrix: (Units=1/GPa)
#
#
# Indices 1 2 3 4 5 6 
#
# 1 0.022898 -0.002192 -0.000711 0.001045 -0.009398 0.000106
# 2 -0.002192 0.006189 -0.003360 0.001631 0.000917 0.002090
# 3 -0.000711 -0.003360 0.027727 0.002578 -0.008171 0.006927
# 4 0.001045 0.001631 0.002578 0.022530 0.000335 0.001761
# 5 -0.009398 0.000917 -0.008171 0.000335 0.033633 0.003287
# 6 0.000106 0.002090 0.006927 0.001761 0.003287 0.027400
#
#
# Mechanical properties :
#
#
# Convention : Reuss Voigt Hill
#
# Bulk Modulus (GPa) = 22.57977 51.39879 36.98928
# Shear Modulus (GPa) = 29.82119 41.47333 35.64726
#
# Velocity S-wave (km/s) = 3.48538 4.11029 3.81067
# Velocity P-wave (km/s) = 5.03937 6.59269 5.86766
#
# Compressibility (1/GPa) = 0.04428743
#
# Stress axis : x y z
#
# Youngs Moduli (GPa) = 43.67207 161.56825 36.06632
#
# Poissons Ratio (x) = 0.35417 0.02566
# Poissons Ratio (y) = 0.09573 0.12117
# Poissons Ratio (z) = 0.03107 0.54283
#
# Static dielectric constant tensor:
#      x y z
#    x 2.080490 0.035090 -0.046570 
#    y 0.035090 2.021910 -0.054490 
#    z -0.046570 -0.054490 1.959670 
# 
# From -- ./inp_files/207962.got.cif
#   From: 2010.05.17/outbox.cif.g08.bks.cpg/sg2_104_cif.got.tgz:207962.got - 2010.06.03 11:33:40.
