data_PCOD9026225
_publ_section_title
;
Structure prediction by ZEFSAII (Michael W. Deem and Ramdas Pophale) SiO2 
 PCOD9026225
Probable space group: P -1
;
_chemical_formula_sum "Si O2"
_cell_formula_units_Z 13
_cell_length_a 17.375768
_cell_length_b 4.995556
_cell_length_c 19.959108
_cell_angle_alpha 78.720433
_cell_angle_beta 160.475526
_cell_angle_gamma 94.505653
_cell_volume 537.435036
_symmetry_space_group_name_H-M "P -1"
_symmetry_group_IT_number 2
_symmetry_cell_setting 'triclinic'
loop_
_space_group_symop_operation_xyz
x,y,z
-x,-y,-z
loop_
_atom_site_type_symbol
_atom_site_label
_atom_site_fract_x
_atom_site_fract_y
_atom_site_fract_z
Si Si1 0.547170 0.634250 0.768609
Si Si2 0.664003 0.173194 0.655170
Si Si3 0.966644 0.841855 0.564823
Si Si4 0.796637 0.077339 0.923931
Si Si5 0.977700 0.270509 0.663051
Si Si6 0.474834 0.788588 0.110318
Si Si7 0.500000 0.500000 0.000000
O O1 0.635772 0.907584 0.836012
O O2 0.273256 0.729333 0.509668
O O3 0.540297 0.461419 0.839565
O O4 0.728754 0.398992 0.881094
O O5 0.500000 0.500000 0.500000
O O6 0.500000 0.000000 0.500000
O O7 0.728090 0.092751 0.788944
O O8 0.918862 0.094801 0.828997
O O9 0.976378 0.597357 0.641663
O O10 0.717792 0.865316 0.321735
O O11 0.963061 0.135427 0.583662
O O12 0.214051 0.689087 0.736084
O O13 0.234515 0.065660 0.909954
O O14 0.472924 0.691366 0.037060
#
# Coordination Sequence:
#
# PCOD9026225 Si02
#       7
#     2   2   2   2   2   2   1
#     4  11  23  42  66  95 134 173 213 270 325 379
#     4  11  24  45  72 101 134 174 213 258 317 381
#     4  10  22  41  63  89 122 164 216 276 332 385
#     4  11  25  44  68 101 135 169 217 263 313 389
#     4  10  23  41  62  91 125 166 216 266 326 393
#     4  10  23  42  65  92 130 172 219 274 332 382
#     4  10  22  42  66  92 124 172 226 274 326 392
#
# _framework density 24.188970000000001
#
# number of rings (size 3 to 8) (size 9 to 14) (size 15 to 20)
#    0.000    1.538    0.000    4.154    0.000   16.000 
#    0.000   18.462    0.000    0.000    0.000    0.000 
#    0.000    0.000    0.000    0.000    0.000    0.000 
#
# Total GULP energy -72591.782750 kJ/mol
# GULP energy per Si atom -5583.983288 kJ/mol
# Density = 2.413391 g / cm^3
# Si number density = 24.188970 Si / 1000 Ang^3
#
#
#
# Elastic Constant Matrix: (Units=GPa)
#
#
# Indices 1 2 3 4 5 6 
#
# 1 50.4959 5.2664 32.0515 -1.2339 0.0216 -6.8050
# 2 5.2664 78.4783 29.6613 1.4172 -3.1460 0.3350
# 3 32.0515 29.6613 212.7549 -5.9519 22.6679 -0.5003
# 4 -1.2339 1.4172 -5.9519 32.1267 -15.8926 7.6507
# 5 0.0216 -3.1460 22.6679 -15.8926 45.4271 -2.3394
# 6 -6.8050 0.3350 -0.5003 7.6507 -2.3394 40.2727
#
#
#
# Elastic Compliance Matrix: (Units=1/GPa)
#
#
# Indices 1 2 3 4 5 6 
#
# 1 0.022622 -0.000096 -0.003599 0.000326 0.002090 0.003838
# 2 -0.000096 0.013621 -0.002096 0.000000 0.001987 -0.000040
# 3 -0.003599 -0.002096 0.005868 -0.000417 -0.003250 -0.000627
# 4 0.000326 0.000000 -0.000417 0.039395 0.013648 -0.006641
# 5 0.002090 0.001987 -0.003250 0.013648 0.028513 -0.000640
# 6 0.003838 -0.000040 -0.000627 -0.006641 -0.000640 0.026696
#
#
# Mechanical properties :
#
#
# Convention : Reuss Voigt Hill
#
# Bulk Modulus (GPa) = 32.75709 52.85417 42.80563
# Shear Modulus (GPa) = 31.55064 41.88196 36.71630
#
# Velocity S-wave (km/s) = 3.61548 4.16558 3.90024
# Velocity P-wave (km/s) = 5.56781 6.71074 6.16582
#
# Compressibility (1/GPa) = 0.03052774
#
# Stress axis : x y z
#
# Youngs Moduli (GPa) = 44.20381 73.41611 170.42115
#
# Poissons Ratio (x) = 0.00707 0.61338
# Poissons Ratio (y) = 0.00425 0.35726
# Poissons Ratio (z) = 0.15910 0.15390
#
# Static dielectric constant tensor:
#      x y z
#    x 1.934670 0.043450 0.003400 
#    y 0.043450 1.848180 0.008740 
#    z 0.003400 0.008740 1.934300 
# 
# From -- ./inp_files/598782.got.cif
#   From: 2010.05.17/outbox.cif.g08.bks.cpg/sg2_300_cif.got.tgz:598782.got - 2010.06.03 11:33:40.
