data_PCOD9026252
_publ_section_title
;
Structure prediction by ZEFSAII (Michael W. Deem and Ramdas Pophale) SiO2 
 PCOD9026252
Probable space group: P -1
;
_chemical_formula_sum "Si O2"
_cell_formula_units_Z 16
_cell_length_a 13.311599
_cell_length_b 22.616692
_cell_length_c 9.550137
_cell_angle_alpha 119.098299
_cell_angle_beta 144.937592
_cell_angle_gamma 35.551466
_cell_volume 809.646054
_symmetry_space_group_name_H-M "P -1"
_symmetry_group_IT_number 2
_symmetry_cell_setting 'triclinic'
loop_
_space_group_symop_operation_xyz
x,y,z
-x,-y,-z
loop_
_atom_site_type_symbol
_atom_site_label
_atom_site_fract_x
_atom_site_fract_y
_atom_site_fract_z
Si Si1 0.640958 0.000719 0.282192
Si Si2 0.413218 0.705174 0.284516
Si Si3 0.219891 0.288034 0.363592
Si Si4 0.710971 0.883746 0.697330
Si Si5 0.388848 0.464529 0.895593
Si Si6 0.337352 0.360502 0.196862
Si Si7 0.755615 0.759207 0.979574
Si Si8 0.795573 0.275430 0.393807
O O1 0.978777 0.861195 0.537730
O O2 0.414785 0.066110 0.231689
O O3 0.576222 0.097363 0.264538
O O4 0.500000 0.000000 0.000000
O O5 0.490900 0.753970 0.368659
O O6 0.627595 0.583430 0.305298
O O7 0.481175 0.686114 0.504557
O O8 0.062856 0.793198 0.970260
O O9 0.303149 0.192473 0.429030
O O10 0.123325 0.299420 0.106178
O O11 0.936803 0.417072 0.263067
O O12 0.500000 0.000000 0.500000
O O13 0.500000 0.500000 0.000000
O O14 0.635396 0.356918 0.166465
O O15 0.294830 0.293481 0.053526
O O16 0.526002 0.335852 0.260090
O O17 0.000000 0.500000 0.000000
O O18 0.991920 0.735038 0.298878
#
# Coordination Sequence:
#
# PCOD9026252 Si02
#       8
#     2   2   2   2   2   2   2   2
#     4   9  19  38  61  88 120 156 203 256 306 362
#     4  11  23  43  63  90 130 163 205 268 312 372
#     4  10  22  41  63  91 125 166 209 258 315 370
#     4  11  22  40  64  89 123 168 215 250 311 380
#     4  12  25  40  63  93 129 170 205 259 327 369
#     4  11  24  40  67  95 123 167 213 251 313 377
#     4   9  21  40  65  92 122 163 210 259 309 369
#     4  11  23  41  64  91 126 163 208 261 310 372
#
# _framework density 19.761721999999999
#
# number of rings (size 3 to 8) (size 9 to 14) (size 15 to 20)
#    0.000    1.500    1.250    4.875    1.750    2.000 
#    0.000    5.000    0.000    0.000    0.000    0.000 
#    0.000    0.000    0.000    0.000    0.000    0.000 
#
# Total GULP energy -89327.635508 kJ/mol
# GULP energy per Si atom -5582.977219 kJ/mol
# Density = 1.971674 g / cm^3
# Si number density = 19.761722 Si / 1000 Ang^3
#
#
#
# Elastic Constant Matrix: (Units=GPa)
#
#
# Indices 1 2 3 4 5 6 
#
# 1 109.1334 44.7718 43.4403 -11.3954 16.8877 23.5658
# 2 44.7718 101.3208 26.7883 -19.5918 18.4971 6.5701
# 3 43.4403 26.7883 2.2610 -7.3034 10.8158 19.0089
# 4 -11.3954 -19.5918 -7.3034 31.7972 9.1557 -1.1367
# 5 16.8877 18.4971 10.8158 9.1557 18.1685 -1.1222
# 6 23.5658 6.5701 19.0089 -1.1367 -1.1222 45.8607
#
#
#
# Elastic Compliance Matrix: (Units=1/GPa)
#
#
# Indices 1 2 3 4 5 6 
#
# 1 0.013100 -0.000530 0.009847 0.013417 -0.024940 -0.011015
# 2 -0.000530 0.019758 -0.001258 0.019989 -0.029085 -0.002253
# 3 0.009847 -0.001258 -0.046937 -0.015836 0.028970 0.014892
# 4 0.013417 0.019989 -0.015836 0.060380 -0.054009 -0.003019
# 5 -0.024940 -0.029085 0.028970 -0.054009 0.118208 0.006529
# 6 -0.011015 -0.002253 0.014892 -0.003019 0.006529 0.021700
#
#
# Mechanical properties :
#
#
# Convention : Reuss Voigt Hill
#
# Bulk Modulus (GPa) = 490.68901 49.19068 269.93984
# Shear Modulus (GPa) = 29.27893 25.67958 27.47926
#
# Velocity S-wave (km/s) = 3.85333 3.60871 3.73303
# Velocity P-wave (km/s) = 16.39022 6.50459 12.46894
#
# Compressibility (1/GPa) = 0.00203795
#
# Stress axis : x y z
#
# Youngs Moduli (GPa) = 76.33677 50.61313 -21.30522
#
# Poissons Ratio (x) = 0.02684 0.20980
# Poissons Ratio (y) = 0.04048 -0.02681
# Poissons Ratio (z) = -0.75170 0.06368
#
# Static dielectric constant tensor:
#      x y z
#    x 1.683050 0.012940 -0.024110 
#    y 0.012940 1.724790 -0.001700 
#    z -0.024110 -0.001700 1.632760 
# 
# From -- ./inp_files/283147.got.cif
#   From: 2010.05.17/outbox.cif.g08.bks.cpg/sg2_142_cif.got.tgz:283147.got - 2010.06.03 11:33:40.
