data_PCOD9026690
_publ_section_title
;
Structure prediction by ZEFSAII (Michael W. Deem and Ramdas Pophale) SiO2 
 PCOD9026690
Probable space group: P -1
;
_chemical_formula_sum "Si O2"
_cell_formula_units_Z 15
_cell_length_a 8.277970
_cell_length_b 9.644327
_cell_length_c 17.892371
_cell_angle_alpha 42.439860
_cell_angle_beta 43.497907
_cell_angle_gamma 51.305518
_cell_volume 650.978619
_symmetry_space_group_name_H-M "P -1"
_symmetry_group_IT_number 2
_symmetry_cell_setting 'triclinic'
loop_
_space_group_symop_operation_xyz
x,y,z
-x,-y,-z
loop_
_atom_site_type_symbol
_atom_site_label
_atom_site_fract_x
_atom_site_fract_y
_atom_site_fract_z
Si Si1 0.500000 0.500000 0.500000
Si Si2 0.496249 0.449597 0.693022
Si Si3 0.259929 0.168520 0.516816
Si Si4 0.881312 0.189395 0.760231
Si Si5 0.908226 0.111631 0.061745
Si Si6 0.612831 0.704068 0.861920
Si Si7 0.001714 0.556156 0.889868
Si Si8 0.956576 0.626179 0.635918
O O1 0.473061 0.392531 0.637256
O O2 0.767781 0.364983 0.452428
O O3 0.677332 0.612136 0.563660
O O4 0.621905 0.263890 0.779827
O O5 0.258784 0.576264 0.763308
O O6 0.156614 0.206834 0.454019
O O7 0.066853 0.120325 0.658629
O O8 0.500000 0.000000 0.500000
O O9 0.941572 0.396188 0.699211
O O10 0.942170 0.008686 0.872600
O O11 0.620274 0.129844 0.152493
O O12 0.963167 0.342328 0.949319
O O13 0.000000 0.000000 0.000000
O O14 0.800040 0.661415 0.748605
O O15 0.776775 0.731081 0.868300
O O16 0.500000 0.500000 0.000000
O O17 0.000000 0.500000 0.000000
#
# Coordination Sequence:
#
# PCOD9026690 Si02
#       8
#     1   2   2   2   2   2   2   2
#     4  12  20  42  66  98 124 170 222 264 334 388
#     4  11  24  42  69  92 133 172 216 276 336 400
#     4  11  23  40  65  94 126 170 217 267 328 396
#     4  11  22  41  64  95 127 171 220 267 328 396
#     4  11  26  44  67  98 131 178 228 274 326 403
#     4  10  22  41  65  92 127 179 217 267 332 401
#     4  11  26  43  67  98 134 178 219 277 340 392
#     4  11  21  41  67  92 131 173 219 270 334 402
#
# _framework density 23.042231000000001
#
# number of rings (size 3 to 8) (size 9 to 14) (size 15 to 20)
#    0.000    1.067    4.000    3.200   11.200    0.533 
#    0.000    2.000    0.000    0.000    0.000    0.000 
#    0.000    0.000    0.000    0.000    0.000    0.000 
#
# Total GULP energy -83577.729092 kJ/mol
# GULP energy per Si atom -5571.848606 kJ/mol
# Density = 2.298979 g / cm^3
# Si number density = 23.042231 Si / 1000 Ang^3
#
#
#
# Elastic Constant Matrix: (Units=GPa)
#
#
# Indices 1 2 3 4 5 6 
#
# 1 61.5785 27.6603 24.6314 0.1781 22.3005 -29.5869
# 2 27.6603 80.7704 8.5486 9.6732 6.7536 -31.5515
# 3 24.6314 8.5486 93.5259 23.6768 24.7540 -10.7863
# 4 0.1781 9.6732 23.6768 47.3641 -8.2563 5.3786
# 5 22.3005 6.7536 24.7540 -8.2563 39.2656 -3.4295
# 6 -29.5869 -31.5515 -10.7863 5.3786 -3.4295 51.5729
#
#
#
# Elastic Compliance Matrix: (Units=1/GPa)
#
#
# Indices 1 2 3 4 5 6 
#
# 1 0.030937 -0.002851 -0.001089 -0.003457 -0.015803 0.015086
# 2 -0.002851 0.018489 0.003311 -0.007395 -0.004255 0.010857
# 3 -0.001089 0.003311 0.018147 -0.012750 -0.013581 0.005623
# 4 -0.003457 -0.007395 -0.012750 0.033327 0.017276 -0.011501
# 5 -0.015803 -0.004255 -0.013581 0.017276 0.046213 -0.013238
# 6 0.015086 0.010857 0.005623 -0.011501 -0.013238 0.036182
#
#
# Mechanical properties :
#
#
# Convention : Reuss Voigt Hill
#
# Bulk Modulus (GPa) = 15.07938 39.72838 27.40388
# Shear Modulus (GPa) = 24.19452 39.30947 31.75200
#
# Velocity S-wave (km/s) = 3.24390 4.13483 3.71616
# Velocity P-wave (km/s) = 4.53750 6.33046 5.50743
#
# Compressibility (1/GPa) = 0.06631570
#
# Stress axis : x y z
#
# Youngs Moduli (GPa) = 32.32366 54.08615 55.10483
#
# Poissons Ratio (x) = 0.15419 0.06004
# Poissons Ratio (y) = 0.09215 -0.18247
# Poissons Ratio (z) = 0.03522 -0.17910
#
# Static dielectric constant tensor:
#      x y z
#    x 1.959860 -0.012400 -0.021570 
#    y -0.012400 1.863140 -0.033750 
#    z -0.021570 -0.033750 1.820540 
# 
# From -- ./inp_files/259298.got.cif
#   From: 2010.05.17/outbox.cif.g08.bks.cpg/sg2_130_cif.got.tgz:259298.got - 2010.06.03 11:33:40.
