data_PCOD9026025
_publ_section_title
;
Structure prediction by ZEFSAII (Michael W. Deem and Ramdas Pophale) SiO2 
 PCOD9026025
Probable space group: P -1
;
_chemical_formula_sum "Si O2"
_cell_formula_units_Z 16
_cell_length_a 25.738984
_cell_length_b 4.873838
_cell_length_c 5.501322
_cell_angle_alpha 101.124076
_cell_angle_beta 66.796496
_cell_angle_gamma 106.559760
_cell_volume 605.442932
_symmetry_space_group_name_H-M "P -1"
_symmetry_group_IT_number 2
_symmetry_cell_setting 'triclinic'
loop_
_space_group_symop_operation_xyz
x,y,z
-x,-y,-z
loop_
_atom_site_type_symbol
_atom_site_label
_atom_site_fract_x
_atom_site_fract_y
_atom_site_fract_z
Si Si1 0.458837 0.193570 0.716218
Si Si2 0.934058 0.529544 0.929704
Si Si3 0.730673 0.009353 0.671912
Si Si4 0.174241 0.891472 0.865009
Si Si5 0.234850 0.474098 0.936742
Si Si6 0.958472 0.713929 0.418500
Si Si7 0.668763 0.425645 0.602521
Si Si8 0.433423 0.320220 0.289188
O O1 0.415359 0.200975 0.573691
O O2 0.500339 0.506828 0.749959
O O3 0.500000 0.000000 0.500000
O O4 0.432769 0.114605 0.020308
O O5 0.915673 0.599604 0.702162
O O6 0.999842 0.503493 0.753178
O O7 0.894292 0.220471 0.024901
O O8 0.932312 0.733098 0.200868
O O9 0.790218 0.996312 0.423539
O O10 0.686113 0.135111 0.601668
O O11 0.696846 0.697380 0.772365
O O12 0.749126 0.267981 0.864227
O O13 0.195058 0.602542 0.842054
O O14 0.199734 0.163347 0.036307
O O15 0.294403 0.467908 0.689943
O O16 0.000000 0.000000 0.500000
O O17 0.603791 0.451509 0.679954
#
# Coordination Sequence:
#
# PCOD9026025 Si02
#       8
#     2   2   2   2   2   2   2   2
#     4  10  22  41  62  89 130 160 216 263 317 380
#     4  10  23  39  62  94 123 165 216 256 323 378
#     4  10  22  41  61  91 126 161 210 267 314 388
#     4  10  23  39  62  94 121 167 210 263 316 386
#     4  10  22  42  62  90 129 158 215 262 320 379
#     4  10  22  42  61  92 128 164 211 268 311 384
#     4  10  23  39  62  94 123 163 215 258 323 382
#     4  10  23  39  62  94 121 168 211 262 319 385
#
# _framework density 26.426929000000001
#
# number of rings (size 3 to 8) (size 9 to 14) (size 15 to 20)
#    0.000    2.000    0.000    1.500    7.000    1.000 
#    0.000    0.000    0.000    0.000    0.000    0.000 
#    0.000    0.000    0.000    0.000    0.000    0.000 
#
# Total GULP energy -89323.001511 kJ/mol
# GULP energy per Si atom -5582.687594 kJ/mol
# Density = 2.636678 g / cm^3
# Si number density = 26.426929 Si / 1000 Ang^3
#
#
#
# Elastic Constant Matrix: (Units=GPa)
#
#
# Indices 1 2 3 4 5 6 
#
# 1 66.0546 16.0793 38.2265 -1.5179 -2.5833 -5.2829
# 2 16.0793 106.4857 24.0615 10.9307 5.4113 -7.3741
# 3 38.2265 24.0615 173.9883 8.1016 30.9517 6.0998
# 4 -1.5179 10.9307 8.1016 37.2648 7.1721 0.3844
# 5 -2.5833 5.4113 30.9517 7.1721 40.3285 3.6055
# 6 -5.2829 -7.3741 6.0998 0.3844 3.6055 46.8955
#
#
#
# Elastic Compliance Matrix: (Units=1/GPa)
#
#
# Indices 1 2 3 4 5 6 
#
# 1 0.018810 -0.001996 -0.004841 0.001470 0.004743 0.002058
# 2 -0.001996 0.010303 -0.000817 -0.002842 -0.000518 0.001565
# 3 -0.004841 -0.000817 0.008097 -0.000509 -0.006213 -0.001245
# 4 0.001470 -0.002842 -0.000509 0.028652 -0.004218 -0.000126
# 5 0.004743 -0.000518 -0.006213 -0.004218 0.030784 -0.001071
# 6 0.002058 0.001565 -0.001245 -0.000126 -0.001071 0.022047
#
#
# Mechanical properties :
#
#
# Convention : Reuss Voigt Hill
#
# Bulk Modulus (GPa) = 45.65601 55.91813 50.78707
# Shear Modulus (GPa) = 35.38521 42.77518 39.08020
#
# Velocity S-wave (km/s) = 3.66318 4.02757 3.84969
# Velocity P-wave (km/s) = 5.93344 6.54476 6.24658
#
# Compressibility (1/GPa) = 0.02190292
#
# Stress axis : x y z
#
# Youngs Moduli (GPa) = 53.16245 97.05633 123.50761
#
# Poissons Ratio (x) = 0.19371 0.59791
# Poissons Ratio (y) = 0.10610 0.10088
# Poissons Ratio (z) = 0.25736 0.07927
#
# Static dielectric constant tensor:
#      x y z
#    x 2.169970 -0.014030 0.108750 
#    y -0.014030 2.179660 0.001430 
#    z 0.108750 0.001430 2.211360 
# 
# From -- ./inp_files/13084.got.cif
#   From: 2010.05.17/outbox.cif.g08.bks.cpg/sg2_7_cif.got.tgz:13084.got - 2010.06.03 11:33:40.
