data_PCOD9026303
_publ_section_title
;
Structure prediction by ZEFSAII (Michael W. Deem and Ramdas Pophale) SiO2 
 PCOD9026303
Probable space group: P -1
;
_chemical_formula_sum "Si O2"
_cell_formula_units_Z 16
_cell_length_a 14.984649
_cell_length_b 7.815752
_cell_length_c 10.099488
_cell_angle_alpha 137.938650
_cell_angle_beta 90.716188
_cell_angle_gamma 70.591579
_cell_volume 694.130725
_symmetry_space_group_name_H-M "P -1"
_symmetry_group_IT_number 2
_symmetry_cell_setting 'triclinic'
loop_
_space_group_symop_operation_xyz
x,y,z
-x,-y,-z
loop_
_atom_site_type_symbol
_atom_site_label
_atom_site_fract_x
_atom_site_fract_y
_atom_site_fract_z
Si Si1 0.805417 0.104405 0.429391
Si Si2 0.161014 0.544005 0.943006
Si Si3 0.385577 0.366033 0.185625
Si Si4 0.891431 0.505394 0.364911
Si Si5 0.004087 0.115739 0.395259
Si Si6 0.485740 0.352048 0.632574
Si Si7 0.391826 0.269298 0.828288
Si Si8 0.307202 0.386747 0.463826
O O1 0.829169 0.775361 0.226621
O O2 0.714397 0.311885 0.645302
O O3 0.758271 0.274447 0.387521
O O4 0.905625 0.134918 0.475987
O O5 0.119610 0.645666 0.853140
O O6 0.274379 0.494134 0.930770
O O7 0.083755 0.782293 0.177546
O O8 0.479231 0.411619 0.261709
O O9 0.354443 0.235359 0.235964
O O10 0.408314 0.232111 0.964057
O O11 0.940893 0.709107 0.447709
O O12 0.775662 0.692538 0.525152
O O13 0.959073 0.279568 0.348154
O O14 0.460990 0.360931 0.793053
O O15 0.391986 0.363997 0.554712
O O16 0.579619 0.041722 0.414895
#
# Coordination Sequence:
#
# PCOD9026303 Si02
#       8
#     2   2   2   2   2   2   2   2
#     4   9  22  42  64  96 134 167 217 273 320 391
#     4  12  22  41  66  96 131 172 221 270 325 390
#     4  10  22  41  63  94 135 167 216 267 324 389
#     4  10  22  44  64  95 130 171 222 270 319 397
#     4  10  23  42  67  95 128 177 216 271 330 382
#     4  11  21  43  65  94 134 174 214 274 323 382
#     4  11  24  38  65  99 130 172 221 262 330 392
#     4   9  20  42  70  91 134 177 212 269 332 378
#
# _framework density 23.050415000000001
#
# number of rings (size 3 to 8) (size 9 to 14) (size 15 to 20)
#    0.750    1.000    2.500    1.500    1.750    1.000 
#    4.500    3.750    0.000    0.000    0.000    0.000 
#    0.000    0.000    0.000    0.000    0.000    0.000 
#
# Total GULP energy -89352.314187 kJ/mol
# GULP energy per Si atom -5584.519637 kJ/mol
# Density = 2.299795 g / cm^3
# Si number density = 23.050415 Si / 1000 Ang^3
#
#
#
# Elastic Constant Matrix: (Units=GPa)
#
#
# Indices 1 2 3 4 5 6 
#
# 1 98.9726 12.6356 41.8376 -0.7845 -21.5839 -8.2141
# 2 12.6356 63.0988 32.3812 -13.2483 -6.9731 -2.6453
# 3 41.8376 32.3812 89.3906 -8.6271 -22.7243 -6.1686
# 4 -0.7845 -13.2483 -8.6271 32.2378 -2.7038 1.7159
# 5 -21.5839 -6.9731 -22.7243 -2.7038 19.6576 1.0409
# 6 -8.2141 -2.6453 -6.1686 1.7159 1.0409 37.3711
#
#
#
# Elastic Compliance Matrix: (Units=1/GPa)
#
#
# Indices 1 2 3 4 5 6 
#
# 1 0.014328 0.000517 -0.003784 0.000393 0.011477 0.002224
# 2 0.000517 0.020810 -0.006882 0.006794 0.000922 0.000113
# 3 -0.003784 -0.006882 0.020342 0.003908 0.017384 0.001375
# 4 0.000393 0.006794 0.003908 0.035944 0.012344 -0.000782
# 5 0.011477 0.000922 0.017384 0.012344 0.085461 0.002510
# 6 0.002224 0.000113 0.001375 -0.000782 0.002510 0.027448
#
#
# Mechanical properties :
#
#
# Convention : Reuss Voigt Hill
#
# Bulk Modulus (GPa) = 28.42451 47.24119 37.83285
# Shear Modulus (GPa) = 21.15418 28.82713 24.99066
#
# Velocity S-wave (km/s) = 3.03270 3.54024 3.29625
# Velocity P-wave (km/s) = 4.96198 6.10330 5.56199
#
# Compressibility (1/GPa) = 0.03518090
#
# Stress axis : x y z
#
# Youngs Moduli (GPa) = 69.79297 48.05476 49.15835
#
# Poissons Ratio (x) = -0.02483 0.18603
# Poissons Ratio (y) = -0.03607 0.33832
# Poissons Ratio (z) = 0.26411 0.33072
#
# Static dielectric constant tensor:
#      x y z
#    x 1.864580 -0.001200 -0.017040 
#    y -0.001200 1.912750 0.003880 
#    z -0.017040 0.003880 1.826950 
# 
# From -- ./inp_files/448351.got.cif
#   From: 2010.05.17/outbox.cif.g08.bks.cpg/sg2_225_cif.got.tgz:448351.got - 2010.06.03 11:33:40.
