data_PCOD9026019
_publ_section_title
;
Structure prediction by ZEFSAII (Michael W. Deem and Ramdas Pophale) SiO2 
 PCOD9026019
Probable space group: P -1
;
_chemical_formula_sum "Si O2"
_cell_formula_units_Z 14
_cell_length_a 14.285749
_cell_length_b 9.634048
_cell_length_c 14.620151
_cell_angle_alpha 103.493855
_cell_angle_beta 144.102923
_cell_angle_gamma 48.472190
_cell_volume 637.660015
_symmetry_space_group_name_H-M "P -1"
_symmetry_group_IT_number 2
_symmetry_cell_setting 'triclinic'
loop_
_space_group_symop_operation_xyz
x,y,z
-x,-y,-z
loop_
_atom_site_type_symbol
_atom_site_label
_atom_site_fract_x
_atom_site_fract_y
_atom_site_fract_z
Si Si1 0.460047 0.487670 0.071971
Si Si2 0.393724 0.834779 0.126767
Si Si3 0.153069 0.381530 0.423110
Si Si4 0.197447 0.641566 0.181854
Si Si5 0.382990 0.416351 0.485005
Si Si6 0.487130 0.171248 0.980585
Si Si7 0.916698 0.812478 0.798261
O O1 0.553394 0.561693 0.210761
O O2 0.500000 0.500000 0.000000
O O3 0.569302 0.241778 0.125110
O O4 0.130916 0.723415 0.880439
O O5 0.587912 0.803492 0.329537
O O6 0.364376 0.908274 0.010653
O O7 0.082870 0.059837 0.962659
O O8 0.155896 0.532985 0.397990
O O9 0.194235 0.243810 0.350115
O O10 0.858292 0.557429 0.265018
O O11 0.262462 0.496194 0.299039
O O12 0.479732 0.530625 0.379325
O O13 0.104465 0.643642 0.012143
O O14 0.657192 0.108872 0.662428
O O15 0.500000 0.000000 0.000000
#
# Coordination Sequence:
#
# PCOD9026019 Si02
#       7
#     2   2   2   2   2   2   2
#     4   9  20  38  67  84 117 170 204 251 310 370
#     4  11  20  40  65  88 123 170 210 249 314 372
#     4  11  23  38  63  87 125 166 205 256 312 371
#     4  11  23  37  65  91 123 168 202 262 303 369
#     4  11  22  38  59  94 122 161 213 247 313 369
#     4  10  22  41  61  90 125 160 210 264 311 363
#     4  11  21  41  59  91 128 161 206 254 311 365
#
# _framework density 21.955272000000001
#
# number of rings (size 3 to 8) (size 9 to 14) (size 15 to 20)
#    0.000    1.429    2.857    3.000    0.000    0.571 
#    5.143    0.714    0.000    0.000    0.000    0.000 
#    0.000    0.000    0.000    0.000    0.000    0.000 
#
# Total GULP energy -78028.981335 kJ/mol
# GULP energy per Si atom -5573.498667 kJ/mol
# Density = 2.190530 g / cm^3
# Si number density = 21.955272 Si / 1000 Ang^3
#
#
#
# Elastic Constant Matrix: (Units=GPa)
#
#
# Indices 1 2 3 4 5 6 
#
# 1 82.3608 16.4777 6.1583 9.8127 8.6695 -12.3434
# 2 16.4777 57.6247 14.3021 18.5556 -12.3659 9.1951
# 3 6.1583 14.3021 71.7422 17.4705 -18.4897 -6.3970
# 4 9.8127 18.5556 17.4705 27.2963 0.6378 1.9262
# 5 8.6695 -12.3659 -18.4897 0.6378 32.9315 -4.9103
# 6 -12.3434 9.1951 -6.3970 1.9262 -4.9103 29.2751
#
#
#
# Elastic Compliance Matrix: (Units=1/GPa)
#
#
# Indices 1 2 3 4 5 6 
#
# 1 0.015266 -0.006159 -0.000494 -0.001382 -0.005473 0.007436
# 2 -0.006159 0.028377 0.001738 -0.017923 0.012427 -0.007866
# 3 -0.000494 0.001738 0.021919 -0.015902 0.014518 0.007517
# 4 -0.001382 -0.017923 -0.015902 0.060270 -0.017250 -0.005287
# 5 -0.005473 0.012427 0.014518 -0.017250 0.045821 0.005782
# 6 0.007436 -0.007866 0.007517 -0.005287 0.005782 0.042725
#
#
# Mechanical properties :
#
#
# Convention : Reuss Voigt Hill
#
# Bulk Modulus (GPa) = 17.94279 31.73377 24.83828
# Shear Modulus (GPa) = 20.59436 29.55324 25.07380
#
# Velocity S-wave (km/s) = 3.06602 3.67286 3.38307
# Velocity P-wave (km/s) = 4.55238 5.69840 5.15732
#
# Compressibility (1/GPa) = 0.05573268
#
# Stress axis : x y z
#
# Youngs Moduli (GPa) = 65.50495 35.24002 45.62211
#
# Poissons Ratio (x) = 0.21703 0.02251
# Poissons Ratio (y) = 0.40343 -0.07927
# Poissons Ratio (z) = 0.03233 -0.06123
#
# Static dielectric constant tensor:
#      x y z
#    x 1.817290 0.036260 0.012550 
#    y 0.036260 1.869080 0.020920 
#    z 0.012550 0.020920 1.792450 
# 
# From -- ./inp_files/161145.got.cif
#   From: 2010.05.17/outbox.cif.g08.bks.cpg/sg2_81_cif.got.tgz:161145.got - 2010.06.03 11:33:40.
