data_PCOD9026984
_publ_section_title
;
Structure prediction by ZEFSAII (Michael W. Deem and Ramdas Pophale) SiO2 
 PCOD9026984
Probable space group: P -1
;
_chemical_formula_sum "Si O2"
_cell_formula_units_Z 14
_cell_length_a 22.608863
_cell_length_b 10.978295
_cell_length_c 7.004201
_cell_angle_alpha 107.087766
_cell_angle_beta 71.533239
_cell_angle_gamma 161.975646
_cell_volume 510.065571
_symmetry_space_group_name_H-M "P -1"
_symmetry_group_IT_number 2
_symmetry_cell_setting 'triclinic'
loop_
_space_group_symop_operation_xyz
x,y,z
-x,-y,-z
loop_
_atom_site_type_symbol
_atom_site_label
_atom_site_fract_x
_atom_site_fract_y
_atom_site_fract_z
Si Si1 0.544688 0.430423 0.596918
Si Si2 0.137382 0.381776 0.316039
Si Si3 0.045850 0.735126 0.559867
Si Si4 0.071981 0.517083 0.046433
Si Si5 0.705905 0.479353 0.435869
Si Si6 0.352834 0.859376 0.922792
Si Si7 0.483504 0.355937 0.177978
O O1 0.550815 0.290818 0.552932
O O2 0.504241 0.374216 0.389578
O O3 0.449797 0.364578 0.783536
O O4 0.774721 0.895398 0.588366
O O5 0.215570 0.434956 0.413898
O O6 0.126244 0.508832 0.448212
O O7 0.259102 0.626515 0.110010
O O8 0.904944 0.906955 0.320304
O O9 0.000000 0.500000 0.500000
O O10 0.079469 0.823691 0.795288
O O11 0.258133 0.921758 0.160278
O O12 0.173208 0.589897 0.881280
O O13 0.000000 0.500000 0.000000
O O14 0.609331 0.192161 0.260688
O O15 0.518826 0.288282 0.998624
#
# Coordination Sequence:
#
# PCOD9026984 Si02
#       7
#     2   2   2   2   2   2   2
#     4  10  19  36  55  82 111 148 183 226 287 331
#     4   9  19  33  51  84 115 138 186 234 276 324
#     4  10  17  31  57  80 101 143 184 225 267 325
#     4   9  19  32  53  80 105 139 182 225 271 321
#     4  10  20  31  58  82 109 148 185 228 277 336
#     4   9  19  36  54  79 111 146 182 232 275 325
#     4   9  20  36  55  78 115 147 179 233 285 326
#
# _framework density 27.447452999999999
#
# number of rings (size 3 to 8) (size 9 to 14) (size 15 to 20)
#    0.857    1.714    1.429    0.429    2.000    1.714 
#    0.000    1.429    0.000    1.714    0.000    0.000 
#    0.000    0.000    0.000    0.000    0.000    0.000 
#
# Total GULP energy -78036.911347 kJ/mol
# GULP energy per Si atom -5574.065096 kJ/mol
# Density = 2.738498 g / cm^3
# Si number density = 27.447453 Si / 1000 Ang^3
#
#
#
# Elastic Constant Matrix: (Units=GPa)
#
#
# Indices 1 2 3 4 5 6 
#
# 1 211.4805 23.6284 62.8332 8.3484 3.1571 -12.2380
# 2 23.6284 62.8958 14.3584 -16.3400 -10.0422 -9.9440
# 3 62.8332 14.3584 121.8759 11.1263 -28.1610 -13.8388
# 4 8.3484 -16.3400 11.1263 27.9399 -15.7892 3.5826
# 5 3.1571 -10.0422 -28.1610 -15.7892 54.9096 9.1936
# 6 -12.2380 -9.9440 -13.8388 3.5826 9.1936 46.2261
#
#
#
# Elastic Compliance Matrix: (Units=1/GPa)
#
#
# Indices 1 2 3 4 5 6 
#
# 1 0.006470 -0.003604 -0.003312 -0.005427 -0.004502 0.001262
# 2 -0.003604 0.024796 -0.000542 0.021761 0.010652 0.000413
# 3 -0.003312 -0.000542 0.011492 -0.001006 0.005455 0.001440
# 4 -0.005427 0.021761 -0.001006 0.064688 0.023507 -0.006745
# 5 -0.004502 0.010652 0.005455 0.023507 0.030851 -0.005225
# 6 0.001262 0.000413 0.001440 -0.006745 -0.005225 0.024049
#
#
# Mechanical properties :
#
#
# Convention : Reuss Voigt Hill
#
# Bulk Modulus (GPa) = 35.91590 66.43248 51.17419
# Shear Modulus (GPa) = 26.80356 45.51061 36.15708
#
# Velocity S-wave (km/s) = 3.12836 4.07639 3.63343
# Velocity P-wave (km/s) = 5.11493 6.81264 6.02389
#
# Compressibility (1/GPa) = 0.02784282
#
# Stress axis : x y z
#
# Youngs Moduli (GPa) = 154.56356 40.32872 87.01419
#
# Poissons Ratio (x) = 0.14533 0.28823
# Poissons Ratio (y) = 0.55699 0.04714
# Poissons Ratio (z) = 0.51198 0.02185
#
# Static dielectric constant tensor:
#      x y z
#    x 2.301840 -0.070630 -0.122160 
#    y -0.070630 2.267150 -0.077830 
#    z -0.122160 -0.077830 2.358120 
# 
# From -- ./inp_files/353126.got.cif
#   From: 2010.05.17/outbox.cif.g08.bks.cpg/sg2_177_cif.got.tgz:353126.got - 2010.06.03 11:33:40.
