data_PCOD9026683
_publ_section_title
;
Structure prediction by ZEFSAII (Michael W. Deem and Ramdas Pophale) SiO2 
 PCOD9026683
Probable space group: P -1
;
_chemical_formula_sum "Si O2"
_cell_formula_units_Z 16
_cell_length_a 7.703440
_cell_length_b 21.709191
_cell_length_c 12.857272
_cell_angle_alpha 157.076803
_cell_angle_beta 116.349451
_cell_angle_gamma 57.193587
_cell_volume 693.850151
_symmetry_space_group_name_H-M "P -1"
_symmetry_group_IT_number 2
_symmetry_cell_setting 'triclinic'
loop_
_space_group_symop_operation_xyz
x,y,z
-x,-y,-z
loop_
_atom_site_type_symbol
_atom_site_label
_atom_site_fract_x
_atom_site_fract_y
_atom_site_fract_z
Si Si1 0.204850 0.167033 0.611579
Si Si2 0.872213 0.176158 0.682759
Si Si3 0.025011 0.165793 0.358227
Si Si4 0.646856 0.426999 0.594563
Si Si5 0.456170 0.482058 0.838955
Si Si6 0.521768 0.190762 0.892809
Si Si7 0.467862 0.877156 0.980264
Si Si8 0.665062 0.113456 0.322163
O O1 0.131953 0.239578 0.591798
O O2 0.406448 0.178118 0.735868
O O3 0.027395 0.244725 0.769572
O O4 0.251815 0.962180 0.296977
O O5 0.743554 0.132950 0.489119
O O6 0.728484 0.340624 0.965363
O O7 0.000000 0.000000 0.500000
O O8 0.892577 0.310068 0.465263
O O9 0.850849 0.110496 0.288017
O O10 0.222929 0.008131 0.121856
O O11 0.633605 0.464951 0.774460
O O12 0.529929 0.610176 0.797056
O O13 0.529873 0.303545 0.337674
O O14 0.460269 0.290604 0.530419
O O15 0.500000 0.500000 0.000000
O O16 0.451965 0.135460 0.898374
O O17 0.597623 0.953643 0.060757
#
# Coordination Sequence:
#
# PCOD9026683 Si02
#       8
#     2   2   2   2   2   2   2   2
#     4   9  19  35  56  82 113 151 194 239 297 350
#     4  10  17  31  56  84 114 146 187 243 296 342
#     4   9  21  38  59  88 116 152 200 248 293 346
#     4  11  22  38  59  86 121 156 198 247 294 355
#     4   9  20  35  55  84 115 151 191 243 301 341
#     4  10  21  37  58  87 119 155 199 244 297 359
#     4  11  22  39  62  85 119 168 199 233 297 355
#     4   9  20  38  58  83 119 155 197 241 287 355
#
# _framework density 23.059733000000001
#
# number of rings (size 3 to 8) (size 9 to 14) (size 15 to 20)
#    0.000    2.250    0.000    3.000    0.000    8.500 
#    0.000    1.250    0.000   12.000    0.000    0.000 
#    0.000    0.000    0.000    0.000    0.000    0.000 
#
# Total GULP energy -89091.538725 kJ/mol
# GULP energy per Si atom -5568.221170 kJ/mol
# Density = 2.300725 g / cm^3
# Si number density = 23.059733 Si / 1000 Ang^3
#
#
#
# Elastic Constant Matrix: (Units=GPa)
#
#
# Indices 1 2 3 4 5 6 
#
# 1 39.5136 -5.0930 7.5832 5.5109 -2.7976 -5.3137
# 2 -5.0930 77.3436 13.9318 -2.5882 -1.0331 2.3410
# 3 7.5832 13.9318 82.2691 22.2079 2.7040 -16.8121
# 4 5.5109 -2.5882 22.2079 37.4602 3.6016 -8.5868
# 5 -2.7976 -1.0331 2.7040 3.6016 21.6793 2.1729
# 6 -5.3137 2.3410 -16.8121 -8.5868 2.1729 23.2386
#
#
#
# Elastic Compliance Matrix: (Units=1/GPa)
#
#
# Indices 1 2 3 4 5 6 
#
# 1 0.026945 0.001910 -0.001532 -0.002466 0.003809 0.003593
# 2 0.001910 0.013912 -0.003760 0.002084 0.001337 -0.003040
# 3 -0.001532 -0.003760 0.017078 -0.007715 -0.002201 0.009739
# 4 -0.002466 0.002084 -0.007715 0.033837 -0.005546 0.006666
# 5 0.003809 0.001337 -0.002201 -0.005546 0.048625 -0.007452
# 6 0.003593 -0.003040 0.009739 0.006666 -0.007452 0.054365
#
#
# Mechanical properties :
#
#
# Convention : Reuss Voigt Hill
#
# Bulk Modulus (GPa) = 19.54231 25.77447 22.65839
# Shear Modulus (GPa) = 22.87460 28.65590 25.76525
#
# Velocity S-wave (km/s) = 3.15297 3.52899 3.34627
# Velocity P-wave (km/s) = 4.66348 5.27319 4.97768
#
# Compressibility (1/GPa) = 0.05117102
#
# Stress axis : x y z
#
# Youngs Moduli (GPa) = 37.11292 71.88102 58.55393
#
# Poissons Ratio (x) = -0.13729 0.08972
# Poissons Ratio (y) = -0.07088 0.22014
# Poissons Ratio (z) = 0.05687 0.27024
#
# Static dielectric constant tensor:
#      x y z
#    x 1.902610 0.006020 0.033990 
#    y 0.006020 1.944310 0.001270 
#    z 0.033990 0.001270 1.913990 
# 
# From -- ./inp_files/341821.got.cif
#   From: 2010.05.17/outbox.cif.g08.bks.cpg/sg2_171_cif.got.tgz:341821.got - 2010.06.03 11:33:40.
