data_PCOD9026028
_publ_section_title
;
Structure prediction by ZEFSAII (Michael W. Deem and Ramdas Pophale) SiO2 
 PCOD9026028
Probable space group: P -1
;
_chemical_formula_sum "Si O2"
_cell_formula_units_Z 16
_cell_length_a 12.559058
_cell_length_b 12.949029
_cell_length_c 13.360708
_cell_angle_alpha 146.967789
_cell_angle_beta 48.494370
_cell_angle_gamma 145.568508
_cell_volume 666.770814
_symmetry_space_group_name_H-M "P -1"
_symmetry_group_IT_number 2
_symmetry_cell_setting 'triclinic'
loop_
_space_group_symop_operation_xyz
x,y,z
-x,-y,-z
loop_
_atom_site_type_symbol
_atom_site_label
_atom_site_fract_x
_atom_site_fract_y
_atom_site_fract_z
Si Si1 0.621750 0.291000 0.671209
Si Si2 0.377936 0.239357 0.422520
Si Si3 0.130247 0.926027 0.136383
Si Si4 0.840182 0.722915 0.763482
Si Si5 0.272452 0.287427 0.743852
Si Si6 0.606374 0.775326 0.058461
Si Si7 0.084198 0.738532 0.494511
Si Si8 0.293311 0.768938 0.757410
O O1 0.674893 0.422946 0.638029
O O2 0.500497 0.304659 0.835234
O O3 0.815226 0.375955 0.664629
O O4 0.500000 0.000000 0.500000
O O5 0.500000 0.500000 0.500000
O O6 0.304578 0.277297 0.598800
O O7 0.515911 0.183330 0.311342
O O8 0.215377 0.034650 0.280836
O O9 0.904706 0.734643 0.134926
O O10 0.173308 0.139430 0.206533
O O11 0.224466 0.826872 0.944988
O O12 0.026809 0.764217 0.661410
O O13 0.789993 0.799441 0.956384
O O14 0.211026 0.021645 0.603684
O O15 0.453005 0.547961 0.892823
O O16 0.667663 0.034038 0.189471
O O17 0.880677 0.525359 0.397509
#
# Coordination Sequence:
#
# PCOD9026028 Si02
#       8
#     2   2   2   2   2   2   2   2
#     4  12  24  40  66 100 130 172 219 267 327 390
#     4  12  23  41  68  97 131 175 217 266 330 391
#     4  10  23  40  62  94 132 173 220 272 320 380
#     4  10  22  41  61  91 132 170 214 263 320 381
#     4  11  23  43  66  96 132 173 217 269 327 387
#     4  11  23  43  67  95 133 173 215 271 325 387
#     4  11  23  43  67  95 133 173 215 271 325 387
#     4  11  23  43  66  96 132 173 217 269 327 387
#
# _framework density 23.996252999999999
#
# number of rings (size 3 to 8) (size 9 to 14) (size 15 to 20)
#    0.000    1.000    0.000    8.250    0.000    0.000 
#    0.000   11.250    0.000    0.000    0.000    0.000 
#    0.000    0.000    0.000    0.000    0.000    0.000 
#
# Total GULP energy -89464.660098 kJ/mol
# GULP energy per Si atom -5591.541256 kJ/mol
# Density = 2.394164 g / cm^3
# Si number density = 23.996253 Si / 1000 Ang^3
#
#
#
# Elastic Constant Matrix: (Units=GPa)
#
#
# Indices 1 2 3 4 5 6 
#
# 1 39.9151 13.4730 5.8532 -11.7742 -0.4572 6.5629
# 2 13.4730 139.4302 37.1281 -25.2139 5.4058 -14.3016
# 3 5.8532 37.1281 128.6831 -23.8691 6.1856 -10.8499
# 4 -11.7742 -25.2139 -23.8691 62.2787 4.3038 1.5731
# 5 -0.4572 5.4058 6.1856 4.3038 49.1045 -2.0767
# 6 6.5629 -14.3016 -10.8499 1.5731 -2.0767 37.5899
#
#
#
# Elastic Compliance Matrix: (Units=1/GPa)
#
#
# Indices 1 2 3 4 5 6 
#
# 1 0.028237 -0.002491 -0.000266 0.004388 -0.000074 -0.006142
# 2 -0.002491 0.008628 -0.001633 0.002376 -0.000844 0.003100
# 3 -0.000266 -0.001633 0.008975 0.002759 -0.001117 0.001838
# 4 0.004388 0.002376 0.002759 0.019060 -0.002238 0.000013
# 5 -0.000074 -0.000844 -0.001117 -0.002238 0.020820 0.000613
# 6 -0.006142 0.003100 0.001838 0.000013 0.000613 0.029419
#
#
# Mechanical properties :
#
#
# Convention : Reuss Voigt Hill
#
# Bulk Modulus (GPa) = 26.98459 46.77080 36.87769
# Shear Modulus (GPa) = 36.69127 46.56625 41.62876
#
# Velocity S-wave (km/s) = 3.91454 4.40996 4.16961
# Velocity P-wave (km/s) = 5.63038 6.74267 6.21147
#
# Compressibility (1/GPa) = 0.03705819
#
# Stress axis : x y z
#
# Youngs Moduli (GPa) = 35.41515 115.89972 111.42257
#
# Poissons Ratio (x) = 0.28874 0.02964
# Poissons Ratio (y) = 0.08823 0.18199
# Poissons Ratio (z) = 0.00942 0.18931
#
# Static dielectric constant tensor:
#      x y z
#    x 2.055140 0.117340 -0.045380 
#    y 0.117340 1.961870 0.000430 
#    z -0.045380 0.000430 2.076420 
# 
# From -- ./inp_files/534554.got.cif
#   From: 2010.05.17/outbox.cif.g08.bks.cpg/sg2_268_cif.got.tgz:534554.got - 2010.06.03 11:33:40.
