data_PCOD9026524
_publ_section_title
;
Structure prediction by ZEFSAII (Michael W. Deem and Ramdas Pophale) SiO2 
 PCOD9026524
Probable space group: P -1
;
_chemical_formula_sum "Si O2"
_cell_formula_units_Z 16
_cell_length_a 9.976177
_cell_length_b 8.247430
_cell_length_c 12.422581
_cell_angle_alpha 107.492739
_cell_angle_beta 52.702852
_cell_angle_gamma 119.008634
_cell_volume 711.048815
_symmetry_space_group_name_H-M "P -1"
_symmetry_group_IT_number 2
_symmetry_cell_setting 'triclinic'
loop_
_space_group_symop_operation_xyz
x,y,z
-x,-y,-z
loop_
_atom_site_type_symbol
_atom_site_label
_atom_site_fract_x
_atom_site_fract_y
_atom_site_fract_z
Si Si1 0.325025 0.114246 0.733635
Si Si2 0.206614 0.065789 0.535327
Si Si3 0.657266 0.430603 0.613294
Si Si4 0.254839 0.455271 0.939765
Si Si5 0.891043 0.293930 0.199349
Si Si6 0.981012 0.278765 0.589756
Si Si7 0.768550 0.506570 0.806759
Si Si8 0.435936 0.642843 0.683233
O O1 0.250925 0.074552 0.640716
O O2 0.547009 0.210893 0.634093
O O3 0.274882 0.271206 0.848104
O O4 0.233843 0.921021 0.801067
O O5 0.078737 0.179560 0.598156
O O6 0.395220 0.172732 0.397923
O O7 0.102650 0.864166 0.495063
O O8 0.862601 0.531868 0.493412
O O9 0.671096 0.513360 0.744385
O O10 0.527117 0.492584 0.611922
O O11 0.351935 0.618397 0.839978
O O12 0.331259 0.507529 0.033973
O O13 0.036777 0.393646 0.054459
O O14 0.743495 0.384949 0.304828
O O15 0.035082 0.322183 0.232270
O O16 0.828196 0.333269 0.730640
#
# Coordination Sequence:
#
# PCOD9026524 Si02
#       8
#     2   2   2   2   2   2   2   2
#     4  11  23  39  67  99 127 160 217 265 315 363
#     4  10  24  40  67  94 133 163 208 271 314 374
#     4  10  23  39  66  93 130 168 205 266 316 375
#     4   9  23  41  68  89 129 171 212 254 317 377
#     4  10  23  40  66  93 127 166 210 261 309 380
#     4  10  22  43  63  95 129 173 208 251 330 379
#     4  10  23  40  67  88 127 174 209 252 316 384
#     4  10  22  41  64  95 125 163 218 260 310 368
#
# _framework density 22.501971999999999
#
# number of rings (size 3 to 8) (size 9 to 14) (size 15 to 20)
#    0.750    1.250    0.000    1.875    7.000    5.000 
#    0.000    0.625    2.750    0.000    0.000    0.000 
#    0.000    0.000    0.000    0.000    0.000    0.000 
#
# Total GULP energy -89228.299830 kJ/mol
# GULP energy per Si atom -5576.768739 kJ/mol
# Density = 2.245076 g / cm^3
# Si number density = 22.501972 Si / 1000 Ang^3
#
#
#
# Elastic Constant Matrix: (Units=GPa)
#
#
# Indices 1 2 3 4 5 6 
#
# 1 101.8059 18.5676 24.9665 -4.6271 -3.9719 10.2321
# 2 18.5676 77.3436 42.7797 -1.2347 1.5844 11.6892
# 3 24.9665 42.7797 130.9110 1.1861 7.8200 0.6277
# 4 -4.6271 -1.2347 1.1861 33.7611 2.3595 1.3216
# 5 -3.9719 1.5844 7.8200 2.3595 37.4354 5.5505
# 6 10.2321 11.6892 0.6277 1.3216 5.5505 19.4068
#
#
#
# Elastic Compliance Matrix: (Units=1/GPa)
#
#
# Indices 1 2 3 4 5 6 
#
# 1 0.011253 -0.000623 -0.002076 0.001666 0.002485 -0.006314
# 2 -0.000623 0.017917 -0.005809 0.001065 0.001938 -0.010902
# 3 -0.002076 -0.005809 0.010083 -0.000857 -0.002786 0.005122
# 4 0.001666 0.001065 -0.000857 0.030121 -0.001109 -0.003226
# 5 0.002485 0.001938 -0.002786 -0.001109 0.029124 -0.010642
# 6 -0.006314 -0.010902 0.005122 -0.003226 -0.010642 0.064522
#
#
# Mechanical properties :
#
#
# Convention : Reuss Voigt Hill
#
# Bulk Modulus (GPa) = 44.97228 53.63200 49.30214
# Shear Modulus (GPa) = 26.67406 33.03711 29.85559
#
# Velocity S-wave (km/s) = 3.44671 3.83585 3.64648
# Velocity P-wave (km/s) = 5.98908 6.59579 6.29974
#
# Compressibility (1/GPa) = 0.02223592
#
# Stress axis : x y z
#
# Youngs Moduli (GPa) = 88.86817 55.81238 99.18023
#
# Poissons Ratio (x) = 0.03479 0.20586
# Poissons Ratio (y) = 0.05539 0.57617
# Poissons Ratio (z) = 0.18445 0.32423
#
# Static dielectric constant tensor:
#      x y z
#    x 1.888620 -0.016670 -0.006610 
#    y -0.016670 1.829440 -0.017280 
#    z -0.006610 -0.017280 1.866000 
# 
# From -- ./inp_files/419597.got.cif
#   From: 2010.05.17/outbox.cif.g08.bks.cpg/sg2_210_cif.got.tgz:419597.got - 2010.06.03 11:33:40.
