data_PCOD9026483
_publ_section_title
;
Structure prediction by ZEFSAII (Michael W. Deem and Ramdas Pophale) SiO2 
 PCOD9026483
Probable space group: P -1
;
_chemical_formula_sum "Si O2"
_cell_formula_units_Z 16
_cell_length_a 19.820931
_cell_length_b 7.868888
_cell_length_c 11.178441
_cell_angle_alpha 107.055892
_cell_angle_beta 30.987808
_cell_angle_gamma 88.972595
_cell_volume 718.245199
_symmetry_space_group_name_H-M "P -1"
_symmetry_group_IT_number 2
_symmetry_cell_setting 'triclinic'
loop_
_space_group_symop_operation_xyz
x,y,z
-x,-y,-z
loop_
_atom_site_type_symbol
_atom_site_label
_atom_site_fract_x
_atom_site_fract_y
_atom_site_fract_z
Si Si1 0.687109 0.884828 0.691377
Si Si2 0.257459 0.748517 0.249493
Si Si3 0.720150 0.842639 0.365444
Si Si4 0.474983 0.304434 0.491266
Si Si5 0.809720 0.046420 0.845577
Si Si6 0.565791 0.709639 0.173124
Si Si7 0.949738 0.828188 0.823212
Si Si8 0.130448 0.365259 0.410692
O O1 0.780239 0.702607 0.611377
O O2 0.709826 0.074944 0.728279
O O3 0.758693 0.785809 0.433126
O O4 0.500000 0.000000 0.000000
O O5 0.126239 0.773051 0.545118
O O6 0.189382 0.804708 0.227399
O O7 0.408332 0.509390 0.960784
O O8 0.670738 0.691804 0.346437
O O9 0.564808 0.080980 0.651906
O O10 0.847665 0.862862 0.102145
O O11 0.500000 0.500000 0.500000
O O12 0.478799 0.246815 0.611462
O O13 0.627216 0.128866 0.150703
O O14 0.863506 0.017792 0.895708
O O15 0.904977 0.811793 0.598346
O O16 0.737069 0.664109 0.886454
O O17 0.984059 0.603312 0.677452
#
# Coordination Sequence:
#
# PCOD9026483 Si02
#       8
#     2   2   2   2   2   2   2   2
#     4  11  23  45  71  90 125 174 221 263 315 378
#     4  10  24  41  65  98 131 166 216 265 312 383
#     4  12  24  42  68  94 130 176 209 262 332 371
#     4  12  23  39  66 104 130 159 217 278 311 379
#     4  11  19  40  66  91 134 170 209 258 328 374
#     4  11  20  39  66  95 130 161 210 273 311 372
#     4  11  24  40  62  99 131 170 208 261 330 387
#     4  10  22  41  64  93 128 169 216 260 311 388
#
# _framework density 22.276516999999998
#
# number of rings (size 3 to 8) (size 9 to 14) (size 15 to 20)
#    0.000    1.000    5.000    2.625    0.000    2.500 
#    4.500    0.000    0.000    0.000    0.000    0.000 
#    0.000    0.000    0.000    0.000    0.000    0.000 
#
# Total GULP energy -89288.770113 kJ/mol
# GULP energy per Si atom -5580.548132 kJ/mol
# Density = 2.222581 g / cm^3
# Si number density = 22.276517 Si / 1000 Ang^3
#
#
#
# Elastic Constant Matrix: (Units=GPa)
#
#
# Indices 1 2 3 4 5 6 
#
# 1 76.6003 29.1958 17.8746 -21.6496 4.3111 -6.9563
# 2 29.1958 89.2693 20.3840 -2.3400 3.0993 0.2339
# 3 17.8746 20.3840 97.8041 -28.7976 1.3628 -1.6848
# 4 -21.6496 -2.3400 -28.7976 46.9608 -3.7232 9.0610
# 5 4.3111 3.0993 1.3628 -3.7232 15.9874 -2.1454
# 6 -6.9563 0.2339 -1.6848 9.0610 -2.1454 33.8229
#
#
#
# Elastic Compliance Matrix: (Units=1/GPa)
#
#
# Indices 1 2 3 4 5 6 
#
# 1 0.017449 -0.005503 0.000206 0.007466 -0.001712 0.001528
# 2 -0.005503 0.013633 -0.002905 -0.003688 -0.001837 -0.000499
# 3 0.000206 -0.002905 0.013236 0.008441 0.001148 -0.001467
# 4 0.007466 -0.003688 0.008441 0.031260 0.004442 -0.006111
# 5 -0.001712 -0.001837 0.001148 0.004442 0.064657 0.002629
# 6 0.001528 -0.000499 -0.001467 -0.006111 0.002629 0.031614
#
#
# Mechanical properties :
#
#
# Convention : Reuss Voigt Hill
#
# Bulk Modulus (GPa) = 35.82058 44.28693 40.05375
# Shear Modulus (GPa) = 25.30897 32.43552 28.87225
#
# Velocity S-wave (km/s) = 3.37431 3.81995 3.60402
# Velocity P-wave (km/s) = 5.59430 6.27533 5.94457
#
# Compressibility (1/GPa) = 0.02791691
#
# Stress axis : x y z
#
# Youngs Moduli (GPa) = 57.30888 73.34896 75.54919
#
# Poissons Ratio (x) = 0.40363 -0.01559
# Poissons Ratio (y) = 0.31536 0.21945
# Poissons Ratio (z) = -0.01183 0.21306
#
# Static dielectric constant tensor:
#      x y z
#    x 1.866540 0.014450 0.010740 
#    y 0.014450 1.887010 0.014970 
#    z 0.010740 0.014970 1.812610 
# 
# From -- ./inp_files/471004.got.cif
#   From: 2010.05.17/outbox.cif.g08.bks.cpg/sg2_236_cif.got.tgz:471004.got - 2010.06.03 11:33:40.
