data_PCOD9026056
_publ_section_title
;
Structure prediction by ZEFSAII (Michael W. Deem and Ramdas Pophale) SiO2 
 PCOD9026056
Probable space group: P -1
;
_chemical_formula_sum "Si O2"
_cell_formula_units_Z 14
_cell_length_a 10.375406
_cell_length_b 5.097451
_cell_length_c 20.966603
_cell_angle_alpha 81.237215
_cell_angle_beta 141.020733
_cell_angle_gamma 72.826799
_cell_volume 514.608222
_symmetry_space_group_name_H-M "P -1"
_symmetry_group_IT_number 2
_symmetry_cell_setting 'triclinic'
loop_
_space_group_symop_operation_xyz
x,y,z
-x,-y,-z
loop_
_atom_site_type_symbol
_atom_site_label
_atom_site_fract_x
_atom_site_fract_y
_atom_site_fract_z
Si Si1 0.152205 0.358594 0.142981
Si Si2 0.139620 0.871544 0.655490
Si Si3 0.637091 0.450453 0.955536
Si Si4 0.827891 0.952881 0.156643
Si Si5 0.113679 0.432041 0.389732
Si Si6 0.685982 0.092885 0.662036
Si Si7 0.445151 0.610251 0.263564
O O1 0.214010 0.610590 0.147800
O O2 0.213380 0.246131 0.245572
O O3 0.373804 0.977575 0.206533
O O4 0.864522 0.460792 0.017698
O O5 0.414074 0.564115 0.813752
O O6 0.923209 0.827943 0.587424
O O7 0.269132 0.740483 0.639989
O O8 0.032775 0.241199 0.628424
O O9 0.463617 0.750455 0.932556
O O10 0.773868 0.079153 0.057693
O O11 0.958552 0.589956 0.256384
O O12 0.056161 0.975062 0.264250
O O13 0.429522 0.248274 0.514102
O O14 0.574117 0.368159 0.668080
#
# Coordination Sequence:
#
# PCOD9026056 Si02
#       7
#     2   2   2   2   2   2   2
#     4   9  21  39  62  93 121 164 197 252 304 362
#     4  11  25  41  62  95 122 166 203 253 303 366
#     4   9  20  41  66  90 128 155 209 250 312 360
#     4   9  19  44  63  94 120 165 200 260 303 365
#     4  11  24  41  64  91 126 161 208 249 307 359
#     4   9  22  41  64  93 124 162 203 253 304 366
#     4  10  22  41  61  95 124 159 209 243 314 356
#
# _framework density 27.205162999999999
#
# number of rings (size 3 to 8) (size 9 to 14) (size 15 to 20)
#    0.857    1.429    0.000    1.286    2.000    5.143 
#   12.857    3.571    0.000    0.000    0.000    0.000 
#    0.000    0.000    0.000    0.000    0.000    0.000 
#
# Total GULP energy -78335.012923 kJ/mol
# GULP energy per Si atom -5595.358066 kJ/mol
# Density = 2.714324 g / cm^3
# Si number density = 27.205163 Si / 1000 Ang^3
#
#
#
# Elastic Constant Matrix: (Units=GPa)
#
#
# Indices 1 2 3 4 5 6 
#
# 1 42.7601 42.4638 10.9954 6.8153 7.8154 -2.1819
# 2 42.4638 134.3197 13.3576 14.7525 0.3706 -8.9074
# 3 10.9954 13.3576 139.9610 -6.9343 5.8784 2.6103
# 4 6.8153 14.7525 -6.9343 18.0828 12.6798 3.7846
# 5 7.8154 0.3706 5.8784 12.6798 37.7879 -4.9499
# 6 -2.1819 -8.9074 2.6103 3.7846 -4.9499 45.5627
#
#
#
# Elastic Compliance Matrix: (Units=1/GPa)
#
#
# Indices 1 2 3 4 5 6 
#
# 1 0.036380 -0.011518 -0.001374 0.000791 -0.007637 -0.001326
# 2 -0.011518 0.012814 -0.001304 -0.012412 0.007126 0.003833
# 3 -0.001374 -0.001304 0.007946 0.007629 -0.003737 -0.001816
# 4 0.000791 -0.012412 0.007629 0.095881 -0.035317 -0.014627
# 5 -0.007637 0.007126 -0.003737 -0.035317 0.041543 0.008688
# 6 -0.001326 0.003833 -0.001816 -0.014627 0.008688 0.024897
#
#
# Mechanical properties :
#
#
# Convention : Reuss Voigt Hill
#
# Bulk Modulus (GPa) = 34.78562 50.07495 42.43028
# Shear Modulus (GPa) = 19.42237 36.96830 28.19533
#
# Velocity S-wave (km/s) = 2.67483 3.69029 3.22280
# Velocity P-wave (km/s) = 4.72798 6.05012 5.42945
#
# Compressibility (1/GPa) = 0.02874751
#
# Stress axis : x y z
#
# Youngs Moduli (GPa) = 27.48752 78.04117 125.84944
#
# Poissons Ratio (x) = 0.89890 0.17293
# Poissons Ratio (y) = 0.31661 0.16408
# Poissons Ratio (z) = 0.03777 0.10175
#
# Static dielectric constant tensor:
#      x y z
#    x 2.158800 -0.072530 -0.049050 
#    y -0.072530 2.092450 -0.040090 
#    z -0.049050 -0.040090 2.083110 
# 
# From -- ./inp_files/409051.got.cif
#   From: 2010.05.17/outbox.cif.g08.bks.cpg/sg2_205_cif.got.tgz:409051.got - 2010.06.03 11:33:40.
