data_PCOD9026657
_publ_section_title
;
Structure prediction by ZEFSAII (Michael W. Deem and Ramdas Pophale) SiO2 
 PCOD9026657
Probable space group: P -1
;
_chemical_formula_sum "Si O2"
_cell_formula_units_Z 16
_cell_length_a 15.863835
_cell_length_b 11.845890
_cell_length_c 8.356084
_cell_angle_alpha 96.468681
_cell_angle_beta 96.862822
_cell_angle_gamma 28.587104
_cell_volume 745.890250
_symmetry_space_group_name_H-M "P -1"
_symmetry_group_IT_number 2
_symmetry_cell_setting 'triclinic'
loop_
_space_group_symop_operation_xyz
x,y,z
-x,-y,-z
loop_
_atom_site_type_symbol
_atom_site_label
_atom_site_fract_x
_atom_site_fract_y
_atom_site_fract_z
Si Si1 0.086437 0.340974 0.652014
Si Si2 0.724163 0.805072 0.759919
Si Si3 0.673855 0.305729 0.790679
Si Si4 0.955918 0.132774 0.661096
Si Si5 0.291892 0.839062 0.871292
Si Si6 0.373816 0.002773 0.894605
Si Si7 0.355455 0.338330 0.354192
Si Si8 0.675017 0.074838 0.565721
O O1 0.253983 0.199817 0.758631
O O2 0.000000 0.500000 0.500000
O O3 0.929026 0.528482 0.773502
O O4 0.173766 0.125488 0.563348
O O5 0.648698 0.791174 0.632669
O O6 0.708680 0.944417 0.693416
O O7 0.633793 0.921689 0.929837
O O8 0.827630 0.211757 0.762442
O O9 0.479788 0.588728 0.792957
O O10 0.674294 0.201770 0.649424
O O11 0.704485 0.217562 0.959078
O O12 0.834003 0.382945 0.626612
O O13 0.000000 0.000000 0.500000
O O14 0.131747 0.969318 0.761526
O O15 0.284065 0.984845 0.902557
O O16 0.564799 0.754191 0.822743
O O17 0.491134 0.251505 0.475528
#
# Coordination Sequence:
#
# PCOD9026657 Si02
#       8
#     2   2   2   2   2   2   2   2
#     4   9  21  37  60  89 129 165 216 268 328 395
#     4  11  21  40  63  96 125 175 222 268 333 396
#     4  11  24  46  70  96 136 176 228 273 343 393
#     4  12  27  42  69 104 130 176 225 276 341 403
#     4  11  24  45  70  96 136 177 222 284 328 404
#     4  11  21  41  65  93 131 178 217 275 339 386
#     4  11  24  40  62  96 135 167 224 277 327 407
#     4  10  22  41  65  90 131 177 211 276 337 389
#
# _framework density 21.450876000000001
#
# number of rings (size 3 to 8) (size 9 to 14) (size 15 to 20)
#    0.000    1.250    2.500    3.000    5.250    1.000 
#    0.000    0.000    0.000    0.000    0.000    0.000 
#    0.000    0.000    0.000    0.000    0.000    0.000 
#
# Total GULP energy -89372.966381 kJ/mol
# GULP energy per Si atom -5585.810399 kJ/mol
# Density = 2.140205 g / cm^3
# Si number density = 21.450876 Si / 1000 Ang^3
#
#
#
# Elastic Constant Matrix: (Units=GPa)
#
#
# Indices 1 2 3 4 5 6 
#
# 1 84.9231 15.7615 3.2887 -4.5292 13.4003 -3.9196
# 2 15.7615 118.9452 43.7374 0.8398 6.8268 -14.4423
# 3 3.2887 43.7374 84.2981 10.9494 11.7491 1.1241
# 4 -4.5292 0.8398 10.9494 32.0977 -6.9264 -0.1960
# 5 13.4003 6.8268 11.7491 -6.9264 37.9230 8.1494
# 6 -3.9196 -14.4423 1.1241 -0.1960 8.1494 34.4908
#
#
#
# Elastic Compliance Matrix: (Units=1/GPa)
#
#
# Indices 1 2 3 4 5 6 
#
# 1 0.012912 -0.001516 0.000870 0.000523 -0.004885 0.001962
# 2 -0.001516 0.011460 -0.006088 0.001501 -0.000427 0.004934
# 3 0.000870 -0.006088 0.016571 -0.006492 -0.005142 -0.001812
# 4 0.000523 0.001501 -0.006492 0.035159 0.008156 -0.000828
# 5 -0.004885 -0.000427 -0.005142 0.008156 0.033044 -0.008328
# 6 0.001962 0.004934 -0.001812 -0.000828 -0.008328 0.033304
#
#
# Mechanical properties :
#
#
# Convention : Reuss Voigt Hill
#
# Bulk Modulus (GPa) = 36.39669 45.97129 41.18399
# Shear Modulus (GPa) = 30.28882 35.92755 33.10818
#
# Velocity S-wave (km/s) = 3.76175 4.09696 3.93293
# Velocity P-wave (km/s) = 5.98932 6.62251 6.31386
#
# Compressibility (1/GPa) = 0.02747503
#
# Stress axis : x y z
#
# Youngs Moduli (GPa) = 77.44555 87.26236 60.34528
#
# Poissons Ratio (x) = 0.13228 -0.05247
# Poissons Ratio (y) = 0.11740 0.36737
# Poissons Ratio (z) = -0.06734 0.53124
#
# Static dielectric constant tensor:
#      x y z
#    x 1.819750 -0.004260 -0.039460 
#    y -0.004260 1.780300 -0.011820 
#    z -0.039460 -0.011820 1.773050 
# 
# From -- ./inp_files/269897.got.cif
#   From: 2010.05.17/outbox.cif.g08.bks.cpg/sg2_135_cif.got.tgz:269897.got - 2010.06.03 11:33:40.
