data_PCOD9026021
_publ_section_title
;
Structure prediction by ZEFSAII (Michael W. Deem and Ramdas Pophale) SiO2 
 PCOD9026021
Probable space group: P -1
;
_chemical_formula_sum "Si O2"
_cell_formula_units_Z 16
_cell_length_a 20.911996
_cell_length_b 7.263804
_cell_length_c 8.912346
_cell_angle_alpha 69.990250
_cell_angle_beta 138.513227
_cell_angle_gamma 82.592994
_cell_volume 661.890225
_symmetry_space_group_name_H-M "P -1"
_symmetry_group_IT_number 2
_symmetry_cell_setting 'triclinic'
loop_
_space_group_symop_operation_xyz
x,y,z
-x,-y,-z
loop_
_atom_site_type_symbol
_atom_site_label
_atom_site_fract_x
_atom_site_fract_y
_atom_site_fract_z
Si Si1 0.262097 0.471312 0.721442
Si Si2 0.633600 0.319680 0.712029
Si Si3 0.526458 0.125849 0.383915
Si Si4 0.717324 0.936145 0.537543
Si Si5 0.961576 0.450017 0.212910
Si Si6 0.226400 0.079024 0.693424
Si Si7 0.775887 0.273786 0.717119
Si Si8 0.024656 0.786033 0.392650
O O1 0.260324 0.237949 0.795320
O O2 0.236937 0.548653 0.482283
O O3 0.150529 0.693718 0.561600
O O4 0.394595 0.377786 0.034573
O O5 0.500000 0.500000 0.500000
O O6 0.617891 0.155045 0.621568
O O7 0.684290 0.414791 0.657876
O O8 0.729551 0.149100 0.057433
O O9 0.500000 0.000000 0.500000
O O10 0.598931 0.990669 0.395526
O O11 0.706391 0.995182 0.326334
O O12 0.745809 0.111676 0.615444
O O13 0.833680 0.648842 0.851063
O O14 0.079135 0.261290 0.368000
O O15 0.989905 0.622387 0.297245
O O16 0.957382 0.293123 0.380409
O O17 0.911934 0.071068 0.079315
#
# Coordination Sequence:
#
# PCOD9026021 Si02
#       8
#     2   2   2   2   2   2   2   2
#     4  11  23  36  64  88 125 154 197 245 297 348
#     4  11  25  41  64  85 121 158 200 244 297 350
#     4  11  23  42  60  89 120 159 202 237 296 361
#     4  10  23  36  64  89 121 154 202 243 293 350
#     4   9  17  35  63  88 117 152 199 246 291 347
#     4  11  22  40  62  92 116 157 201 246 293 350
#     4  10  22  41  61  91 118 157 198 246 295 353
#     4   9  17  35  62  89 116 156 197 241 295 351
#
# _framework density 24.173193999999999
#
# number of rings (size 3 to 8) (size 9 to 14) (size 15 to 20)
#    0.000    1.750    2.500    1.500    7.000    2.500 
#    0.000    0.000    0.000    2.250    0.000    0.000 
#    0.000    0.000    0.000    0.000    0.000    0.000 
#
# Total GULP energy -89510.935500 kJ/mol
# GULP energy per Si atom -5594.433469 kJ/mol
# Density = 2.411817 g / cm^3
# Si number density = 24.173194 Si / 1000 Ang^3
#
#
#
# Elastic Constant Matrix: (Units=GPa)
#
#
# Indices 1 2 3 4 5 6 
#
# 1 167.9659 4.5031 47.2227 -5.8956 -0.9190 -29.9331
# 2 4.5031 48.0159 -1.2251 9.3150 -1.3698 -3.1099
# 3 47.2227 -1.2251 104.6070 -3.7022 -4.9034 -4.1451
# 4 -5.8956 9.3150 -3.7022 27.3291 -2.2974 2.4047
# 5 -0.9190 -1.3698 -4.9034 -2.2974 41.6838 -3.2955
# 6 -29.9331 -3.1099 -4.1451 2.4047 -3.2955 31.5326
#
#
#
# Elastic Compliance Matrix: (Units=1/GPa)
#
#
# Indices 1 2 3 4 5 6 
#
# 1 0.008260 -0.000551 -0.003395 0.000899 0.000392 0.007313
# 2 -0.000551 0.022599 0.000352 -0.007942 0.000525 0.002413
# 3 -0.003395 0.000352 0.011116 0.000898 0.001162 -0.001674
# 4 0.000899 -0.007942 0.000898 0.040005 0.001858 -0.002668
# 5 0.000392 0.000525 0.001162 0.001858 0.024492 0.002995
# 6 0.007313 0.002413 -0.001674 -0.002668 0.002995 0.039189
#
#
# Mechanical properties :
#
#
# Convention : Reuss Voigt Hill
#
# Bulk Modulus (GPa) = 28.74552 46.84333 37.79443
# Shear Modulus (GPa) = 30.40547 38.11498 34.26023
#
# Velocity S-wave (km/s) = 3.55042 3.97513 3.76876
# Velocity P-wave (km/s) = 5.35953 6.36311 5.88276
#
# Compressibility (1/GPa) = 0.03478803
#
# Stress axis : x y z
#
# Youngs Moduli (GPa) = 121.06870 44.24953 89.95797
#
# Poissons Ratio (x) = 0.02438 0.30542
# Poissons Ratio (y) = 0.06670 -0.03171
# Poissons Ratio (z) = 0.41105 -0.01560
#
# Static dielectric constant tensor:
#      x y z
#    x 1.969620 -0.023650 0.003990 
#    y -0.023650 2.047220 0.004690 
#    z 0.003990 0.004690 1.857940 
# 
# From -- ./inp_files/180741.got.cif
#   From: 2010.05.17/outbox.cif.g08.bks.cpg/sg2_91_cif.got.tgz:180741.got - 2010.06.03 11:33:40.
