data_PCOD9026512
_publ_section_title
;
Structure prediction by ZEFSAII (Michael W. Deem and Ramdas Pophale) SiO2 
 PCOD9026512
Probable space group: P -1
;
_chemical_formula_sum "Si O2"
_cell_formula_units_Z 14
_cell_length_a 7.599111
_cell_length_b 19.313583
_cell_length_c 7.126316
_cell_angle_alpha 133.340810
_cell_angle_beta 56.532087
_cell_angle_gamma 121.445739
_cell_volume 616.616631
_symmetry_space_group_name_H-M "P -1"
_symmetry_group_IT_number 2
_symmetry_cell_setting 'triclinic'
loop_
_space_group_symop_operation_xyz
x,y,z
-x,-y,-z
loop_
_atom_site_type_symbol
_atom_site_label
_atom_site_fract_x
_atom_site_fract_y
_atom_site_fract_z
Si Si1 0.943784 0.938396 0.108028
Si Si2 0.366275 0.982240 0.353329
Si Si3 0.702987 0.395444 0.395262
Si Si4 0.960450 0.594494 0.468662
Si Si5 0.650855 0.725397 0.878877
Si Si6 0.626752 0.137130 0.203631
Si Si7 0.412731 0.649484 0.245819
O O1 0.745811 0.841548 0.040240
O O2 0.149268 0.894614 0.950381
O O3 0.873402 0.013491 0.433748
O O4 0.000000 0.000000 0.000000
O O5 0.451557 0.067737 0.310861
O O6 0.500000 0.000000 0.500000
O O7 0.405510 0.888885 0.044804
O O8 0.782919 0.494386 0.416015
O O9 0.561676 0.312733 0.193425
O O10 0.549996 0.403769 0.681593
O O11 0.921494 0.381573 0.349161
O O12 0.844737 0.675753 0.611394
O O13 0.172129 0.591236 0.214584
O O14 0.585421 0.677761 0.034207
O O15 0.622300 0.245689 0.464813
#
# Coordination Sequence:
#
# PCOD9026512 Si02
#       7
#     2   2   2   2   2   2   2
#     4  12  24  42  62  94 127 170 220 258 319 383
#     4  11  24  40  65  87 120 167 215 262 317 373
#     4   9  22  44  65  95 134 160 209 272 313 384
#     4   9  21  46  62  99 132 158 214 266 316 388
#     4  12  23  41  69  92 129 174 213 259 325 379
#     4  11  23  42  62  88 128 164 208 272 310 373
#     4  10  22  41  64  94 128 164 213 257 321 387
#
# _framework density 22.704546000000001
#
# number of rings (size 3 to 8) (size 9 to 14) (size 15 to 20)
#    0.857    0.571    4.286    0.857    2.000    1.143 
#    5.143    0.000    0.000    0.000    0.000    0.000 
#    0.000    0.000    0.000    0.000    0.000    0.000 
#
# Total GULP energy -78040.506186 kJ/mol
# GULP energy per Si atom -5574.321870 kJ/mol
# Density = 2.265287 g / cm^3
# Si number density = 22.704546 Si / 1000 Ang^3
#
#
#
# Elastic Constant Matrix: (Units=GPa)
#
#
# Indices 1 2 3 4 5 6 
#
# 1 63.0759 -8.2625 7.9477 0.6666 13.0176 0.5042
# 2 -8.2625 98.0824 4.5206 -16.8136 8.6238 15.2672
# 3 7.9477 4.5206 72.9929 -27.5167 6.6315 7.5321
# 4 0.6666 -16.8136 -27.5167 35.3189 1.5163 -6.9174
# 5 13.0176 8.6238 6.6315 1.5163 31.7956 0.9384
# 6 0.5042 15.2672 7.5321 -6.9174 0.9384 25.1743
#
#
#
# Elastic Compliance Matrix: (Units=1/GPa)
#
#
# Indices 1 2 3 4 5 6 
#
# 1 0.017932 0.002407 -0.001333 -0.000131 -0.007676 -0.001170
# 2 0.002407 0.013005 0.002839 0.007294 -0.005258 -0.006585
# 3 -0.001333 0.002839 0.021024 0.017397 -0.005350 -0.003006
# 4 -0.000131 0.007294 0.017397 0.046346 -0.007864 0.003402
# 5 -0.007676 -0.005258 -0.005350 -0.007864 0.037470 0.001386
# 6 -0.001170 -0.006585 -0.003006 0.003402 0.001386 0.045522
#
#
# Mechanical properties :
#
#
# Convention : Reuss Voigt Hill
#
# Bulk Modulus (GPa) = 16.72606 26.95143 21.83874
# Shear Modulus (GPa) = 25.85296 33.78745 29.82020
#
# Velocity S-wave (km/s) = 3.37808 3.86182 3.62802
# Velocity P-wave (km/s) = 4.75374 5.63748 5.21436
#
# Compressibility (1/GPa) = 0.05978695
#
# Stress axis : x y z
#
# Youngs Moduli (GPa) = 55.76655 76.89378 47.56496
#
# Poissons Ratio (x) = -0.18505 0.06339
# Poissons Ratio (y) = -0.13420 -0.13505
# Poissons Ratio (z) = 0.07432 -0.21833
#
# Static dielectric constant tensor:
#      x y z
#    x 1.444910 -0.107890 -0.251790 
#    y -0.107890 1.847180 -0.079190 
#    z -0.251790 -0.079190 1.705520 
# 
# From -- ./inp_files/50789.got.cif
#   From: 2010.05.17/outbox.cif.g08.bks.cpg/sg2_26_cif.got.tgz:50789.got - 2010.06.03 11:33:40.
