data_PCOD9026373
_publ_section_title
;
Structure prediction by ZEFSAII (Michael W. Deem and Ramdas Pophale) SiO2 
 PCOD9026373
Probable space group: P -1
;
_chemical_formula_sum "Si O2"
_cell_formula_units_Z 14
_cell_length_a 6.582023
_cell_length_b 15.333481
_cell_length_c 14.600943
_cell_angle_alpha 32.864329
_cell_angle_beta 133.169081
_cell_angle_gamma 121.968157
_cell_volume 579.400027
_symmetry_space_group_name_H-M "P -1"
_symmetry_group_IT_number 2
_symmetry_cell_setting 'triclinic'
loop_
_space_group_symop_operation_xyz
x,y,z
-x,-y,-z
loop_
_atom_site_type_symbol
_atom_site_label
_atom_site_fract_x
_atom_site_fract_y
_atom_site_fract_z
Si Si1 0.741169 0.559110 0.587332
Si Si2 0.378968 0.603970 0.959634
Si Si3 0.092750 0.321835 0.646928
Si Si4 0.758650 0.704019 0.727797
Si Si5 0.429873 0.845984 0.352078
Si Si6 0.119944 0.252911 0.058536
Si Si7 0.400794 0.912028 0.957474
O O1 0.500000 0.500000 0.500000
O O2 0.912688 0.658192 0.481887
O O3 0.594887 0.681361 0.507271
O O4 0.935764 0.413791 0.821367
O O5 0.588191 0.740433 0.910579
O O6 0.057046 0.680709 0.787908
O O7 0.500000 0.500000 0.000000
O O8 0.369705 0.468489 0.154964
O O9 0.000000 0.500000 0.500000
O O10 0.890146 0.187999 0.728531
O O11 0.402595 0.258326 0.833207
O O12 0.540434 0.839535 0.495405
O O13 0.827788 0.740228 0.822629
O O14 0.526953 0.988453 0.196356
O O15 0.922121 0.113306 0.106772
O O16 0.500000 0.000000 0.000000
#
# Coordination Sequence:
#
# PCOD9026373 Si02
#       7
#     2   2   2   2   2   2   2
#     4  12  21  41  67 100 136 175 233 290 336 405
#     4   9  18  37  66  96 136 173 228 285 337 390
#     4  12  25  44  74 104 130 184 241 284 345 406
#     4  10  22  41  64 103 132 177 235 287 338 405
#     4  12  24  43  69  96 144 183 226 287 352 412
#     4  11  23  42  69  99 138 181 230 283 341 414
#     4  12  26  49  66 100 149 184 222 289 352 415
#
# _framework density 24.162925000000001
#
# number of rings (size 3 to 8) (size 9 to 14) (size 15 to 20)
#    0.000    0.857    4.286    3.857    0.000    2.857 
#    2.571    0.714    0.000    0.000    0.000    0.000 
#    0.000    0.000    0.000    0.000    0.000    0.000 
#
# Total GULP energy -78350.869086 kJ/mol
# GULP energy per Si atom -5596.490649 kJ/mol
# Density = 2.410793 g / cm^3
# Si number density = 24.162925 Si / 1000 Ang^3
#
#
#
# Elastic Constant Matrix: (Units=GPa)
#
#
# Indices 1 2 3 4 5 6 
#
# 1 116.5067 49.5810 15.5680 3.9553 -7.2172 46.7652
# 2 49.5810 110.0627 30.8715 8.5871 -12.0408 36.0700
# 3 15.5680 30.8715 105.7671 13.8500 -19.6132 12.0344
# 4 3.9553 8.5871 13.8500 31.2926 -0.4167 -3.4033
# 5 -7.2172 -12.0408 -19.6132 -0.4167 39.9163 -5.6879
# 6 46.7652 36.0700 12.0344 -3.4033 -5.6879 60.9560
#
#
#
# Elastic Compliance Matrix: (Units=1/GPa)
#
#
# Indices 1 2 3 4 5 6 
#
# 1 0.013394 -0.003109 0.000218 -0.001862 0.000353 -0.008550
# 2 -0.003109 0.013101 -0.002143 -0.002770 0.001603 -0.004949
# 3 0.000218 -0.002143 0.011689 -0.004657 0.004945 -0.001005
# 4 -0.001862 -0.002770 -0.004657 0.035610 -0.002267 0.005764
# 5 0.000353 0.001603 0.004945 -0.002267 0.028048 0.000295
# 6 -0.008550 -0.004949 -0.001005 0.005764 0.000295 0.026441
#
#
# Mechanical properties :
#
#
# Convention : Reuss Voigt Hill
#
# Bulk Modulus (GPa) = 35.56666 58.26416 46.91541
# Shear Modulus (GPa) = 33.84703 42.18737 38.01720
#
# Velocity S-wave (km/s) = 3.74676 4.18300 3.97088
# Velocity P-wave (km/s) = 5.78525 6.89168 6.36256
#
# Compressibility (1/GPa) = 0.02811622
#
# Stress axis : x y z
#
# Youngs Moduli (GPa) = 74.65876 76.33127 85.54828
#
# Poissons Ratio (x) = 0.23731 -0.01866
# Poissons Ratio (y) = 0.23211 0.18335
# Poissons Ratio (z) = -0.01628 0.16359
#
# Static dielectric constant tensor:
#      x y z
#    x 1.979030 -0.006950 0.004020 
#    y -0.006950 2.017160 -0.002150 
#    z 0.004020 -0.002150 1.921130 
# 
# From -- ./inp_files/485191.got.cif
#   From: 2010.05.17/outbox.cif.g08.bks.cpg/sg2_243_cif.got.tgz:485191.got - 2010.06.03 11:33:40.
