data_PCOD9026579
_publ_section_title
;
Structure prediction by ZEFSAII (Michael W. Deem and Ramdas Pophale) SiO2 
 PCOD9026579
Probable space group: P -1
;
_chemical_formula_sum "Si O2"
_cell_formula_units_Z 16
_cell_length_a 16.342517
_cell_length_b 22.043560
_cell_length_c 11.409924
_cell_angle_alpha 146.296471
_cell_angle_beta 132.503212
_cell_angle_gamma 22.343975
_cell_volume 776.609842
_symmetry_space_group_name_H-M "P -1"
_symmetry_group_IT_number 2
_symmetry_cell_setting 'triclinic'
loop_
_space_group_symop_operation_xyz
x,y,z
-x,-y,-z
loop_
_atom_site_type_symbol
_atom_site_label
_atom_site_fract_x
_atom_site_fract_y
_atom_site_fract_z
Si Si1 0.277545 0.963810 0.422485
Si Si2 0.794602 0.782996 0.667636
Si Si3 0.049623 0.386998 0.983098
Si Si4 0.694552 0.646174 0.460881
Si Si5 0.517374 0.814134 0.171736
Si Si6 0.503850 0.337869 0.298666
Si Si7 0.896502 0.128763 0.233211
Si Si8 0.459511 0.172784 0.153088
O O1 0.157872 0.175186 0.707969
O O2 0.095731 0.022984 0.326352
O O3 0.519972 0.721870 0.339402
O O4 0.355243 0.930465 0.313167
O O5 0.778055 0.668223 0.487901
O O6 0.062813 0.596764 0.624967
O O7 0.620421 0.976988 0.707753
O O8 0.688307 0.920669 0.907617
O O9 0.232430 0.299821 0.095173
O O10 0.000000 0.500000 0.000000
O O11 0.786018 0.609191 0.140588
O O12 0.531607 0.832905 0.709099
O O13 0.554803 0.678614 0.902930
O O14 0.774274 0.142611 0.218740
O O15 0.324433 0.594788 0.557622
O O16 0.459392 0.293559 0.290764
O O17 0.000000 0.000000 0.000000
#
# Coordination Sequence:
#
# PCOD9026579 Si02
#       8
#     2   2   2   2   2   2   2   2
#     4  12  25  40  63  97 125 166 211 262 317 367
#     4  10  23  39  57  89 130 173 207 241 307 382
#     4  12  22  36  61  97 126 160 211 258 312 373
#     4  11  25  39  57  91 134 176 204 246 310 387
#     4  11  23  38  63  95 124 161 213 266 302 373
#     4  10  22  41  64  98 117 161 214 258 324 366
#     4  11  22  41  68  94 124 154 211 277 318 355
#     4  11  23  41  62  88 134 173 200 254 319 377
#
# _framework density 20.602364000000001
#
# number of rings (size 3 to 8) (size 9 to 14) (size 15 to 20)
#    0.000    1.000    6.250    0.375    7.000    1.000 
#    0.000    0.625    0.000    5.250    0.000    0.000 
#    0.000    0.000    0.000    0.000    0.000    0.000 
#
# Total GULP energy -89336.310363 kJ/mol
# GULP energy per Si atom -5583.519398 kJ/mol
# Density = 2.055547 g / cm^3
# Si number density = 20.602364 Si / 1000 Ang^3
#
#
#
# Elastic Constant Matrix: (Units=GPa)
#
#
# Indices 1 2 3 4 5 6 
#
# 1 94.9074 46.7746 28.8809 -12.2230 -6.8274 -14.4782
# 2 46.7746 95.0792 40.5165 -8.6329 -7.3227 -22.4208
# 3 28.8809 40.5165 74.4398 -5.0837 -4.9191 0.2014
# 4 -12.2230 -8.6329 -5.0837 33.3697 -0.8429 -1.3188
# 5 -6.8274 -7.3227 -4.9191 -0.8429 28.9669 -8.0416
# 6 -14.4782 -22.4208 0.2014 -1.3188 -8.0416 35.1940
#
#
#
# Elastic Compliance Matrix: (Units=1/GPa)
#
#
# Indices 1 2 3 4 5 6 
#
# 1 0.015069 -0.004583 -0.002870 0.004142 0.003186 0.004179
# 2 -0.004583 0.020107 -0.008602 0.002859 0.006087 0.012471
# 3 -0.002870 -0.008602 0.019094 -0.000692 -0.001618 -0.007165
# 4 0.004142 0.002859 -0.000692 0.032447 0.004104 0.005683
# 5 0.003186 0.006087 -0.001618 0.004104 0.040726 0.014658
# 6 0.004179 0.012471 -0.007165 0.005683 0.014658 0.041681
#
#
# Mechanical properties :
#
#
# Convention : Reuss Voigt Hill
#
# Bulk Modulus (GPa) = 45.12562 55.19670 50.16116
# Shear Modulus (GPa) = 23.96678 29.38973 26.67826
#
# Velocity S-wave (km/s) = 3.41442 3.78103 3.60239
# Velocity P-wave (km/s) = 6.12332 6.77578 6.45780
#
# Compressibility (1/GPa) = 0.02216036
#
# Stress axis : x y z
#
# Youngs Moduli (GPa) = 66.36163 49.73284 52.37181
#
# Poissons Ratio (x) = 0.22795 0.15028
# Poissons Ratio (y) = 0.30417 0.45051
# Poissons Ratio (z) = 0.19043 0.42781
#
# Static dielectric constant tensor:
#      x y z
#    x 1.743930 -0.040380 0.017050 
#    y -0.040380 1.775270 0.019530 
#    z 0.017050 0.019530 1.766240 
# 
# From -- ./inp_files/467477.got.cif
#   From: 2010.05.17/outbox.cif.g08.bks.cpg/sg2_234_cif.got.tgz:467477.got - 2010.06.03 11:33:40.
