data_PCOD9026272
_publ_section_title
;
Structure prediction by ZEFSAII (Michael W. Deem and Ramdas Pophale) SiO2 
 PCOD9026272
Probable space group: P -1
;
_chemical_formula_sum "Si O2"
_cell_formula_units_Z 15
_cell_length_a 9.550170
_cell_length_b 13.761952
_cell_length_c 17.109172
_cell_angle_alpha 22.861232
_cell_angle_beta 48.226964
_cell_angle_gamma 53.081354
_cell_volume 650.846958
_symmetry_space_group_name_H-M "P -1"
_symmetry_group_IT_number 2
_symmetry_cell_setting 'triclinic'
loop_
_space_group_symop_operation_xyz
x,y,z
-x,-y,-z
loop_
_atom_site_type_symbol
_atom_site_label
_atom_site_fract_x
_atom_site_fract_y
_atom_site_fract_z
Si Si1 0.226351 0.087382 0.690455
Si Si2 0.755287 0.446162 0.216293
Si Si3 0.773942 0.053790 0.637221
Si Si4 0.216112 0.604337 0.233424
Si Si5 0.900209 0.170737 0.231531
Si Si6 0.501570 0.914994 0.973624
Si Si7 0.000000 0.000000 0.000000
Si Si8 0.503193 0.694946 0.924308
O O1 0.225683 0.380366 0.455433
O O2 0.419650 0.959718 0.734178
O O3 0.167436 0.960685 0.724409
O O4 0.095171 0.022781 0.860208
O O5 0.768517 0.274476 0.414201
O O6 0.594695 0.644728 0.136764
O O7 0.743203 0.278094 0.266898
O O8 0.948825 0.611137 0.011902
O O9 0.979751 0.015608 0.622718
O O10 0.699957 0.791436 0.817805
O O11 0.630566 0.080394 0.743720
O O12 0.293406 0.872564 0.044799
O O13 0.013348 0.684619 0.224127
O O14 0.359393 0.576031 0.130099
O O15 0.500000 0.000000 0.000000
O O16 0.500000 0.500000 0.000000
#
# Coordination Sequence:
#
# PCOD9026272 Si02
#       8
#     2   2   2   2   2   2   1   2
#     4  11  24  43  67  95 127 175 208 264 329 374
#     4  10  22  41  63  92 132 161 208 269 310 378
#     4  10  22  42  63  94 125 167 211 264 312 378
#     4  10  23  43  65  92 130 162 213 268 313 384
#     4  10  24  39  66  97 127 163 213 263 320 376
#     4  10  23  42  63  93 123 168 214 259 310 378
#     4  10  24  44  62  94 130 160 218 262 310 390
#     4  10  24  39  64  97 130 166 212 257 319 389
#
# _framework density 23.046890999999999
#
# number of rings (size 3 to 8) (size 9 to 14) (size 15 to 20)
#    0.000    1.867    0.000    1.600   13.067    3.200 
#    2.400    0.000    0.000    0.000    0.000    0.000 
#    0.000    0.000    0.000    0.000    0.000    0.000 
#
# Total GULP energy -83623.075165 kJ/mol
# GULP energy per Si atom -5574.871678 kJ/mol
# Density = 2.299444 g / cm^3
# Si number density = 23.046891 Si / 1000 Ang^3
#
#
#
# Elastic Constant Matrix: (Units=GPa)
#
#
# Indices 1 2 3 4 5 6 
#
# 1 47.0255 20.6646 3.3944 7.4846 11.0487 11.8264
# 2 20.6646 133.0847 30.5320 22.2699 8.3534 20.5030
# 3 3.3944 30.5320 134.6673 17.0382 45.9854 -5.4966
# 4 7.4846 22.2699 17.0382 21.6949 1.6324 16.4807
# 5 11.0487 8.3534 45.9854 1.6324 30.0264 -1.2574
# 6 11.8264 20.5030 -5.4966 16.4807 -1.2574 38.3785
#
#
#
# Elastic Compliance Matrix: (Units=1/GPa)
#
#
# Indices 1 2 3 4 5 6 
#
# 1 0.029991 -0.003120 0.009579 -0.011160 -0.024324 -0.002208
# 2 -0.003120 0.009634 -0.002096 -0.005864 0.001917 -0.001904
# 3 0.009579 -0.002096 0.024916 -0.026895 -0.039136 0.012004
# 4 -0.011160 -0.005864 -0.026895 0.105476 0.039465 -0.041281
# 5 -0.024324 0.001917 -0.039136 0.039465 0.098975 -0.012838
# 6 -0.002208 -0.001904 0.012004 -0.041281 -0.012838 0.046780
#
#
# Mechanical properties :
#
#
# Convention : Reuss Voigt Hill
#
# Bulk Modulus (GPa) = 13.64864 47.10664 30.37764
# Shear Modulus (GPa) = 15.08445 35.36571 25.22508
#
# Velocity S-wave (km/s) = 2.56112 3.92153 3.31193
# Velocity P-wave (km/s) = 3.83154 6.40222 5.27585
#
# Compressibility (1/GPa) = 0.07326739
#
# Stress axis : x y z
#
# Youngs Moduli (GPa) = 33.34319 103.80249 40.13476
#
# Poissons Ratio (x) = 0.32389 -0.38447
# Poissons Ratio (y) = 0.10404 0.08412
# Poissons Ratio (z) = -0.31941 0.21756
#
# Static dielectric constant tensor:
#      x y z
#    x 1.214010 0.208950 -0.253910 
#    y 0.208950 1.759580 0.048810 
#    z -0.253910 0.048810 1.763730 
# 
# From -- ./inp_files/517425.got.cif
#   From: 2010.05.17/outbox.cif.g08.bks.cpg/sg2_259_cif.got.tgz:517425.got - 2010.06.03 11:33:40.
