data_PCOD9026398
_publ_section_title
;
Structure prediction by ZEFSAII (Michael W. Deem and Ramdas Pophale) SiO2 
 PCOD9026398
Probable space group: P -1
;
_chemical_formula_sum "Si O2"
_cell_formula_units_Z 16
_cell_length_a 20.866688
_cell_length_b 6.307149
_cell_length_c 8.941076
_cell_angle_alpha 122.737698
_cell_angle_beta 141.260548
_cell_angle_gamma 67.881763
_cell_volume 617.106146
_symmetry_space_group_name_H-M "P -1"
_symmetry_group_IT_number 2
_symmetry_cell_setting 'triclinic'
loop_
_space_group_symop_operation_xyz
x,y,z
-x,-y,-z
loop_
_atom_site_type_symbol
_atom_site_label
_atom_site_fract_x
_atom_site_fract_y
_atom_site_fract_z
Si Si1 0.193834 0.555981 0.575935
Si Si2 0.424261 0.817392 0.387116
Si Si3 0.858085 0.027097 0.752435
Si Si4 0.337732 0.782958 0.676736
Si Si5 0.200308 0.789926 0.993491
Si Si6 0.922913 0.663712 0.317837
Si Si7 0.983082 0.200972 0.777357
Si Si8 0.467152 0.311116 0.157510
O O1 0.182855 0.258378 0.475784
O O2 0.292213 0.669753 0.705703
O O3 0.097198 0.583022 0.303224
O O4 0.177961 0.734037 0.757990
O O5 0.315006 0.916947 0.258164
O O6 0.405206 0.553039 0.163304
O O7 0.480509 0.760559 0.619813
O O8 0.500000 0.000000 0.500000
O O9 0.761535 0.191618 0.599167
O O10 0.868611 0.047424 0.961875
O O11 0.956258 0.139867 0.880880
O O12 0.432800 0.627256 0.740563
O O13 0.393459 0.066825 0.888115
O O14 0.183654 0.506093 0.921105
O O15 0.000000 0.500000 0.500000
O O16 0.941961 0.706271 0.191355
O O17 0.931308 0.935170 0.512050
#
# Coordination Sequence:
#
# PCOD9026398 Si02
#       8
#     2   2   2   2   2   2   2   2
#     4  11  23  43  66  98 136 175 220 274 336 397
#     4  11  24  41  60 101 136 171 226 277 326 396
#     4  11  23  43  65 101 136 167 232 271 327 408
#     4  10  22  41  65  92 128 183 220 276 334 390
#     4  12  24  43  70  97 135 179 221 278 334 393
#     4  11  22  45  73 100 135 174 224 273 338 402
#     4  10  22  44  71  97 135 175 216 278 334 401
#     4  10  22  41  64  89 133 175 225 277 331 392
#
# _framework density 25.927471000000001
#
# number of rings (size 3 to 8) (size 9 to 14) (size 15 to 20)
#    0.000    1.250    3.750    1.500    3.500    0.500 
#    4.500    5.625    0.000    0.000    0.000    0.000 
#    0.000    0.000    0.000    0.000    0.000    0.000 
#
# Total GULP energy -89370.484080 kJ/mol
# GULP energy per Si atom -5585.655255 kJ/mol
# Density = 2.586846 g / cm^3
# Si number density = 25.927471 Si / 1000 Ang^3
#
#
#
# Elastic Constant Matrix: (Units=GPa)
#
#
# Indices 1 2 3 4 5 6 
#
# 1 209.5706 33.4485 28.9843 5.7058 6.1900 52.6078
# 2 33.4485 66.8937 17.5709 -4.6957 -2.3484 28.2087
# 3 28.9843 17.5709 73.1084 2.6366 -1.7504 22.7216
# 4 5.7058 -4.6957 2.6366 44.2562 10.9982 -9.4258
# 5 6.1900 -2.3484 -1.7504 10.9982 51.2013 5.3120
# 6 52.6078 28.2087 22.7216 -9.4258 5.3120 49.4383
#
#
#
# Elastic Compliance Matrix: (Units=1/GPa)
#
#
# Indices 1 2 3 4 5 6 
#
# 1 0.006791 -0.000355 -0.000170 -0.002624 0.000499 -0.007500
# 2 -0.000355 0.020060 -0.001235 -0.000604 0.002176 -0.010850
# 3 -0.000170 -0.001235 0.016551 -0.003200 0.002000 -0.007547
# 4 -0.002624 -0.000604 -0.003200 0.026954 -0.006695 0.010466
# 5 0.000499 0.002176 0.002000 -0.006695 0.021731 -0.006303
# 6 -0.007500 -0.010850 -0.007547 0.010466 -0.006303 0.040540
#
#
# Mechanical properties :
#
#
# Convention : Reuss Voigt Hill
#
# Bulk Modulus (GPa) = 25.07288 56.62002 40.84645
# Shear Modulus (GPa) = 33.45826 46.95044 40.20435
#
# Velocity S-wave (km/s) = 3.59619 4.26001 3.94210
# Velocity P-wave (km/s) = 5.18988 6.78839 6.04223
#
# Compressibility (1/GPa) = 0.03988374
#
# Stress axis : x y z
#
# Youngs Moduli (GPa) = 147.24901 49.84984 60.41916
#
# Poissons Ratio (x) = 0.01771 0.01024
# Poissons Ratio (y) = 0.05231 0.07459
# Poissons Ratio (z) = 0.02496 0.06154
#
# Static dielectric constant tensor:
#      x y z
#    x 2.108560 -0.038400 0.005020 
#    y -0.038400 2.037880 -0.081070 
#    z 0.005020 -0.081070 2.118450 
# 
# From -- ./inp_files/46974.got.cif
#   From: 2010.05.17/outbox.cif.g08.bks.cpg/sg2_24_cif.got.tgz:46974.got - 2010.06.03 11:33:40.
