data_PCOD9026158
_publ_section_title
;
Structure prediction by ZEFSAII (Michael W. Deem and Ramdas Pophale) SiO2 
 PCOD9026158
Probable space group: P -1
;
_chemical_formula_sum "Si O2"
_cell_formula_units_Z 14
_cell_length_a 12.313070
_cell_length_b 5.020396
_cell_length_c 16.460148
_cell_angle_alpha 99.866549
_cell_angle_beta 140.850883
_cell_angle_gamma 100.265789
_cell_volume 548.043506
_symmetry_space_group_name_H-M "P -1"
_symmetry_group_IT_number 2
_symmetry_cell_setting 'triclinic'
loop_
_space_group_symop_operation_xyz
x,y,z
-x,-y,-z
loop_
_atom_site_type_symbol
_atom_site_label
_atom_site_fract_x
_atom_site_fract_y
_atom_site_fract_z
Si Si1 0.542074 0.144742 0.773799
Si Si2 0.725339 0.287020 0.153397
Si Si3 0.923680 0.140014 0.031794
Si Si4 0.787207 0.466103 0.371068
Si Si5 0.643187 0.074518 0.510963
Si Si6 0.133881 0.353663 0.915441
Si Si7 0.119054 0.244685 0.394082
O O1 0.358366 0.885959 0.703074
O O2 0.492698 0.146240 0.652060
O O3 0.702049 0.031327 0.869385
O O4 0.658234 0.474534 0.902567
O O5 0.739023 0.490838 0.251163
O O6 0.790711 0.493510 0.120665
O O7 0.893746 0.184937 0.259422
O O8 0.500000 0.000000 0.000000
O O9 0.996660 0.504352 0.112008
O O10 0.943365 0.997519 0.120387
O O11 0.000000 0.000000 0.000000
O O12 0.803904 0.700708 0.464021
O O13 0.000000 0.500000 0.500000
O O14 0.743162 0.426855 0.554298
O O15 0.823383 0.002230 0.621580
O O16 0.500000 0.000000 0.500000
#
# Coordination Sequence:
#
# PCOD9026158 Si02
#       7
#     2   2   2   2   2   2   2
#     4   9  22  39  66  93 134 170 232 275 341 412
#     4  11  21  45  73 106 148 189 231 297 355 419
#     4  10  22  41  62  95 133 178 220 281 353 403
#     4   9  19  42  68  98 137 186 225 282 350 409
#     4  11  24  46  71 101 135 188 235 301 350 413
#     4  10  23  39  64  99 134 172 228 276 337 421
#     4  10  25  44  71 105 142 179 245 285 349 438
#
# _framework density 25.545418000000002
#
# number of rings (size 3 to 8) (size 9 to 14) (size 15 to 20)
#    0.857    1.143    1.429    0.857    4.000    3.429 
#    0.000   30.000    0.000    0.000    0.000    0.000 
#    0.000    0.000    0.000    0.000    0.000    0.000 
#
# Total GULP energy -78271.903046 kJ/mol
# GULP energy per Si atom -5590.850218 kJ/mol
# Density = 2.548728 g / cm^3
# Si number density = 25.545418 Si / 1000 Ang^3
#
#
#
# Elastic Constant Matrix: (Units=GPa)
#
#
# Indices 1 2 3 4 5 6 
#
# 1 160.6702 53.8810 34.6460 -7.3376 0.7022 8.5894
# 2 53.8810 70.5204 32.8748 -19.4624 8.4485 -3.0282
# 3 34.6460 32.8748 106.2896 -21.5871 -2.1271 15.5979
# 4 -7.3376 -19.4624 -21.5871 42.1270 9.1594 -9.0550
# 5 0.7022 8.4485 -2.1271 9.1594 38.7672 -6.9572
# 6 8.5894 -3.0282 15.5979 -9.0550 -6.9572 42.7413
#
#
#
# Elastic Compliance Matrix: (Units=1/GPa)
#
#
# Indices 1 2 3 4 5 6 
#
# 1 0.008956 -0.007709 -0.000817 -0.003345 0.001822 -0.002460
# 2 -0.007709 0.026493 -0.004391 0.011625 -0.007496 0.006271
# 3 -0.000817 -0.004391 0.012267 0.003236 0.000179 -0.003909
# 4 -0.003345 0.011625 0.003236 0.033441 -0.009135 0.005912
# 5 0.001822 -0.007496 0.000179 -0.009135 0.029918 0.001972
# 6 -0.002460 0.006271 -0.003909 0.005912 0.001972 0.027335
#
#
# Mechanical properties :
#
#
# Convention : Reuss Voigt Hill
#
# Bulk Modulus (GPa) = 45.69826 64.47599 55.08712
# Shear Modulus (GPa) = 29.14814 39.13232 34.14023
#
# Velocity S-wave (km/s) = 3.38158 3.91816 3.65972
# Velocity P-wave (km/s) = 5.75974 6.76490 6.28246
#
# Compressibility (1/GPa) = 0.02188267
#
# Stress axis : x y z
#
# Youngs Moduli (GPa) = 111.65495 37.74603 81.51974
#
# Poissons Ratio (x) = 0.29099 0.06659
# Poissons Ratio (y) = 0.86078 0.35792
# Poissons Ratio (z) = 0.09120 0.16573
#
# Static dielectric constant tensor:
#      x y z
#    x 2.083770 -0.020570 -0.114890 
#    y -0.020570 1.935140 0.010120 
#    z -0.114890 0.010120 2.165210 
# 
# From -- ./inp_files/518037.got.cif
#   From: 2010.05.17/outbox.cif.g08.bks.cpg/sg2_260_cif.got.tgz:518037.got - 2010.06.03 11:33:40.
