data_PCOD9026424
_publ_section_title
;
Structure prediction by ZEFSAII (Michael W. Deem and Ramdas Pophale) SiO2 
 PCOD9026424
Probable space group: P -1
;
_chemical_formula_sum "Si O2"
_cell_formula_units_Z 14
_cell_length_a 8.732227
_cell_length_b 12.372012
_cell_length_c 24.474325
_cell_angle_alpha 31.739301
_cell_angle_beta 37.725629
_cell_angle_gamma 31.595927
_cell_volume 707.172703
_symmetry_space_group_name_H-M "P -1"
_symmetry_group_IT_number 2
_symmetry_cell_setting 'triclinic'
loop_
_space_group_symop_operation_xyz
x,y,z
-x,-y,-z
loop_
_atom_site_type_symbol
_atom_site_label
_atom_site_fract_x
_atom_site_fract_y
_atom_site_fract_z
Si Si1 0.816183 0.096369 0.455133
Si Si2 0.267127 0.022053 0.894084
Si Si3 0.936688 0.480334 0.205930
Si Si4 0.118251 0.488773 0.032754
Si Si5 0.166907 0.228185 0.618789
Si Si6 0.855174 0.785268 0.486697
Si Si7 0.353075 0.844852 0.827166
O O1 0.828594 0.309086 0.330478
O O2 0.474377 0.197811 0.524751
O O3 0.974959 0.862454 0.469766
O O4 0.000000 0.000000 0.500000
O O5 0.577696 0.779150 0.929769
O O6 0.250344 0.017413 0.835363
O O7 0.235469 0.260118 0.826185
O O8 0.000000 0.000000 0.000000
O O9 0.916259 0.516106 0.130557
O O10 0.287705 0.343406 0.184337
O O11 0.202711 0.689395 0.932273
O O12 0.000000 0.500000 0.000000
O O13 0.038997 0.197056 0.611273
O O14 0.946505 0.504678 0.585359
O O15 0.261208 0.015135 0.726857
O O16 0.500000 0.000000 0.500000
#
# Coordination Sequence:
#
# PCOD9026424 Si02
#       7
#     2   2   2   2   2   2   2
#     4  11  23  39  63  95 128 161 207 260 310 377
#     4  11  21  43  66  88 124 170 210 255 316 381
#     4  11  23  43  64  93 126 167 209 258 317 379
#     4  11  25  43  64  96 128 161 212 269 317 373
#     4  10  22  41  64  91 125 170 209 254 320 374
#     4   9  22  43  59  86 131 169 208 257 311 373
#     4  11  22  40  68  90 123 165 210 260 318 379
#
# _framework density 19.797143999999999
#
# number of rings (size 3 to 8) (size 9 to 14) (size 15 to 20)
#    0.000    1.429    4.286    0.857    4.000    3.429 
#    5.143    0.000    0.000    0.000    0.000    0.000 
#    0.000    0.000    0.000    0.000    0.000    0.000 
#
# Total GULP energy -78144.854555 kJ/mol
# GULP energy per Si atom -5581.775325 kJ/mol
# Density = 1.975209 g / cm^3
# Si number density = 19.797144 Si / 1000 Ang^3
#
#
#
# Elastic Constant Matrix: (Units=GPa)
#
#
# Indices 1 2 3 4 5 6 
#
# 1 112.1238 36.6856 34.4690 -3.3330 33.3912 40.3571
# 2 36.6856 102.1400 41.1885 -17.5530 0.9638 36.4672
# 3 34.4690 41.1885 128.1821 -0.0365 24.6548 25.3338
# 4 -3.3330 -17.5530 -0.0365 26.6135 -1.7778 -7.1153
# 5 33.3912 0.9638 24.6548 -1.7778 30.3163 2.0099
# 6 40.3571 36.4672 25.3338 -7.1153 2.0099 37.6891
#
#
#
# Elastic Compliance Matrix: (Units=1/GPa)
#
#
# Indices 1 2 3 4 5 6 
#
# 1 0.031939 -0.002760 0.006887 -0.010028 -0.038895 -0.035978
# 2 -0.002760 0.017494 -0.004336 0.009066 0.007187 -0.009729
# 3 0.006887 -0.004336 0.013186 -0.006457 -0.017733 -0.012315
# 4 -0.010028 0.009066 -0.006457 0.047300 0.017834 0.014285
# 5 -0.038895 0.007187 -0.017733 0.017834 0.088062 0.045285
# 6 -0.035978 -0.009729 -0.012315 0.014285 0.045285 0.083031
#
#
# Mechanical properties :
#
#
# Convention : Reuss Voigt Hill
#
# Bulk Modulus (GPa) = 16.07694 63.01471 39.54583
# Shear Modulus (GPa) = 16.54737 34.26395 25.40566
#
# Velocity S-wave (km/s) = 2.89424 4.16474 3.58620
# Velocity P-wave (km/s) = 4.39401 7.41796 6.09645
#
# Compressibility (1/GPa) = 0.06220088
#
# Stress axis : x y z
#
# Youngs Moduli (GPa) = 31.30954 57.16296 75.83951
#
# Poissons Ratio (x) = 0.15776 -0.52231
# Poissons Ratio (y) = 0.08641 0.32885
# Poissons Ratio (z) = -0.21563 0.24786
#
# Static dielectric constant tensor:
#      x y z
#    x 1.858440 0.023480 0.003330 
#    y 0.023480 1.720120 0.019830 
#    z 0.003330 0.019830 1.680640 
# 
# From -- ./inp_files/27043.got.cif
#   From: 2010.05.17/outbox.cif.g08.bks.cpg/sg2_14_cif.got.tgz:27043.got - 2010.06.03 11:33:40.
