data_PCOD9026851
_publ_section_title
;
Structure prediction by ZEFSAII (Michael W. Deem and Ramdas Pophale) SiO2 
 PCOD9026851
Probable space group: P -1
;
_chemical_formula_sum "Si O2"
_cell_formula_units_Z 16
_cell_length_a 11.915565
_cell_length_b 16.038792
_cell_length_c 8.922528
_cell_angle_alpha 87.354864
_cell_angle_beta 60.491281
_cell_angle_gamma 35.985334
_cell_volume 631.829434
_symmetry_space_group_name_H-M "P -1"
_symmetry_group_IT_number 2
_symmetry_cell_setting 'triclinic'
loop_
_space_group_symop_operation_xyz
x,y,z
-x,-y,-z
loop_
_atom_site_type_symbol
_atom_site_label
_atom_site_fract_x
_atom_site_fract_y
_atom_site_fract_z
Si Si1 0.704870 0.558966 0.416160
Si Si2 0.598006 0.084976 0.060180
Si Si3 0.333847 0.221191 0.532738
Si Si4 0.970723 0.766855 0.620973
Si Si5 0.794272 0.131407 0.830345
Si Si6 0.640947 0.307343 0.629050
Si Si7 0.832646 0.218470 0.071711
Si Si8 0.960110 0.771027 0.268416
O O1 0.714431 0.653271 0.410337
O O2 0.990600 0.345124 0.317506
O O3 0.635796 0.565969 0.294838
O O4 0.437679 0.673532 0.681925
O O5 0.682460 0.979788 0.870430
O O6 0.539411 0.213290 0.034172
O O7 0.910139 0.911838 0.966390
O O8 0.371567 0.190104 0.330058
O O9 0.087614 0.297524 0.737117
O O10 0.646776 0.003904 0.417217
O O11 0.253133 0.662210 0.487466
O O12 0.988531 0.758081 0.430292
O O13 0.650945 0.281901 0.800334
O O14 0.928722 0.098118 0.888606
O O15 0.070807 0.918593 0.595022
O O16 0.796146 0.324675 0.988708
#
# Coordination Sequence:
#
# PCOD9026851 Si02
#       8
#     2   2   2   2   2   2   2   2
#     4  12  23  37  62  92 122 160 193 243 299 365
#     4  10  20  34  62  91 117 153 197 254 294 346
#     4  10  23  42  65  87 114 159 211 241 292 350
#     4  11  23  37  58  91 127 156 189 247 310 348
#     4  10  17  31  56  92 111 154 190 254 285 339
#     4  10  20  32  56  88 126 148 194 242 308 341
#     4  11  19  34  60  88 123 148 203 240 298 342
#     4  10  23  41  62  88 119 160 199 252 288 352
#
# _framework density 25.323287000000001
#
# number of rings (size 3 to 8) (size 9 to 14) (size 15 to 20)
#    0.000    1.500    5.000    2.250    3.500    1.500 
#    0.000    0.000    0.000    6.750    0.000    0.000 
#    0.000    0.000    0.000    0.000    0.000    0.000 
#
# Total GULP energy -89479.472063 kJ/mol
# GULP energy per Si atom -5592.467004 kJ/mol
# Density = 2.526565 g / cm^3
# Si number density = 25.323287 Si / 1000 Ang^3
#
#
#
# Elastic Constant Matrix: (Units=GPa)
#
#
# Indices 1 2 3 4 5 6 
#
# 1 121.6889 46.9184 42.1276 -13.4228 -3.6247 24.2441
# 2 46.9184 131.9352 17.7491 -31.2480 3.3779 25.3437
# 3 42.1276 17.7491 90.7846 -19.3644 -3.5412 9.1745
# 4 -13.4228 -31.2480 -19.3644 30.7569 -5.7265 -3.0080
# 5 -3.6247 3.3779 -3.5412 -5.7265 33.3218 -21.1524
# 6 24.2441 25.3437 9.1745 -3.0080 -21.1524 45.9097
#
#
#
# Elastic Compliance Matrix: (Units=1/GPa)
#
#
# Indices 1 2 3 4 5 6 
#
# 1 0.011724 -0.002990 -0.004864 -0.001868 -0.002265 -0.004735
# 2 -0.002990 0.012386 0.001862 0.011128 -0.003649 -0.006583
# 3 -0.004864 0.001862 0.015070 0.009847 0.002900 0.000510
# 4 -0.001868 0.011128 0.009847 0.050805 0.008532 0.000136
# 5 -0.002265 -0.003649 0.002900 0.008532 0.047961 0.025288
# 6 -0.004735 -0.006583 0.000510 0.000136 0.025288 0.039474
#
#
# Mechanical properties :
#
#
# Convention : Reuss Voigt Hill
#
# Bulk Modulus (GPa) = 36.76952 61.99987 49.38470
# Shear Modulus (GPa) = 25.19285 37.83861 31.51573
#
# Velocity S-wave (km/s) = 3.15754 3.86971 3.53162
# Velocity P-wave (km/s) = 5.27684 6.67103 6.01447
#
# Compressibility (1/GPa) = 0.02719644
#
# Stress axis : x y z
#
# Youngs Moduli (GPa) = 85.29344 80.73812 66.35627
#
# Poissons Ratio (x) = 0.24140 0.32278
# Poissons Ratio (y) = 0.25502 -0.12359
# Poissons Ratio (z) = 0.41490 -0.15037
#
# Static dielectric constant tensor:
#      x y z
#    x 2.028310 0.010510 -0.033590 
#    y 0.010510 2.052450 0.054120 
#    z -0.033590 0.054120 2.062710 
# 
# From -- ./inp_files/259133.got.cif
#   From: 2010.05.17/outbox.cif.g08.bks.cpg/sg2_130_cif.got.tgz:259133.got - 2010.06.03 11:33:40.
