data_PCOD9026733
_publ_section_title
;
Structure prediction by ZEFSAII (Michael W. Deem and Ramdas Pophale) SiO2 
 PCOD9026733
Probable space group: P -1
;
_chemical_formula_sum "Si O2"
_cell_formula_units_Z 14
_cell_length_a 6.281061
_cell_length_b 18.075956
_cell_length_c 5.358031
_cell_angle_alpha 102.126539
_cell_angle_beta 88.705353
_cell_angle_gamma 115.625640
_cell_volume 534.645240
_symmetry_space_group_name_H-M "P -1"
_symmetry_group_IT_number 2
_symmetry_cell_setting 'triclinic'
loop_
_space_group_symop_operation_xyz
x,y,z
-x,-y,-z
loop_
_atom_site_type_symbol
_atom_site_label
_atom_site_fract_x
_atom_site_fract_y
_atom_site_fract_z
Si Si1 0.210281 0.022198 0.315089
Si Si2 0.502755 0.282744 0.217510
Si Si3 0.408090 0.403690 0.695162
Si Si4 0.931573 0.312281 0.958569
Si Si5 0.173663 0.464546 0.374044
Si Si6 0.028301 0.132882 0.088391
Si Si7 0.691714 0.172365 0.487536
O O1 0.464591 0.082952 0.461180
O O2 0.160207 0.078944 0.151279
O O3 0.000000 0.000000 0.500000
O O4 0.167663 0.933230 0.136228
O O5 0.461998 0.345636 0.451428
O O6 0.609540 0.230751 0.353009
O O7 0.249875 0.218647 0.061220
O O8 0.687507 0.324885 0.015820
O O9 0.320865 0.466743 0.612534
O O10 0.672040 0.474234 0.808527
O O11 0.175591 0.347842 0.818142
O O12 0.797054 0.219399 0.777871
O O13 0.052043 0.366028 0.240538
O O14 0.000000 0.500000 0.500000
O O15 0.891688 0.157851 0.322038
#
# Coordination Sequence:
#
# PCOD9026733 Si02
#       7
#     2   2   2   2   2   2   2
#     4  10  22  41  65  94 131 175 217 261 324 388
#     4  11  24  44  65  98 136 166 220 274 318 387
#     4  11  25  47  66  96 132 170 221 270 326 388
#     4  12  24  42  70  95 129 176 213 267 333 383
#     4  11  25  47  67  96 133 171 219 274 322 390
#     4  10  22  42  64  93 136 169 214 275 314 380
#     4  11  24  42  65 100 131 172 220 267 326 388
#
# _framework density 26.185586000000001
#
# number of rings (size 3 to 8) (size 9 to 14) (size 15 to 20)
#    0.000    1.143    2.857    2.571    0.000    3.429 
#    0.000    0.000    0.000    0.000    0.000    0.000 
#    0.000    0.000    0.000    0.000    0.000    0.000 
#
# Total GULP energy -78011.456926 kJ/mol
# GULP energy per Si atom -5572.246923 kJ/mol
# Density = 2.612599 g / cm^3
# Si number density = 26.185586 Si / 1000 Ang^3
#
#
#
# Elastic Constant Matrix: (Units=GPa)
#
#
# Indices 1 2 3 4 5 6 
#
# 1 108.7548 52.1683 37.6599 1.7517 -30.4627 22.2556
# 2 52.1683 124.4767 35.8177 6.7178 11.3151 24.9229
# 3 37.6599 35.8177 112.0151 30.1616 -25.0076 6.9695
# 4 1.7517 6.7178 30.1616 36.0696 8.7053 -1.3772
# 5 -30.4627 11.3151 -25.0076 8.7053 46.8584 1.6854
# 6 22.2556 24.9229 6.9695 -1.3772 1.6854 76.3528
#
#
#
# Elastic Compliance Matrix: (Units=1/GPa)
#
#
# Indices 1 2 3 4 5 6 
#
# 1 0.017618 -0.008366 0.001485 -0.004314 0.015174 -0.002953
# 2 -0.008366 0.014561 -0.006498 0.006350 -0.013555 -0.001307
# 3 0.001485 -0.006498 0.019346 -0.019033 0.016423 -0.000784
# 4 -0.004314 0.006350 -0.019033 0.048445 -0.023579 0.002316
# 5 0.015174 -0.013555 0.016423 -0.023579 0.047731 -0.002976
# 6 -0.002953 -0.001307 -0.000784 0.002316 -0.002976 0.014564
#
#
# Mechanical properties :
#
#
# Convention : Reuss Voigt Hill
#
# Bulk Modulus (GPa) = 40.37737 66.28205 53.32971
# Shear Modulus (GPa) = 25.34483 46.49620 35.92051
#
# Velocity S-wave (km/s) = 3.11447 4.21841 3.70775
# Velocity P-wave (km/s) = 5.32789 7.00671 6.22416
#
# Compressibility (1/GPa) = 0.02476635
#
# Stress axis : x y z
#
# Youngs Moduli (GPa) = 56.76007 68.67659 51.69039
#
# Poissons Ratio (x) = 0.57457 -0.07675
# Poissons Ratio (y) = 0.47487 0.33588
# Poissons Ratio (z) = -0.08428 0.44625
#
# Static dielectric constant tensor:
#      x y z
#    x 2.123940 0.100060 0.053410 
#    y 0.100060 2.261680 -0.110520 
#    z 0.053410 -0.110520 2.117610 
# 
# From -- ./inp_files/7681.got.cif
#   From: 2010.05.17/outbox.cif.g08.bks.cpg/sg2_4_cif.got.tgz:7681.got - 2010.06.03 11:33:40.
