data_PCOD9026808
_publ_section_title
;
Structure prediction by ZEFSAII (Michael W. Deem and Ramdas Pophale) SiO2 
 PCOD9026808
Probable space group: P -1
;
_chemical_formula_sum "Si O2"
_cell_formula_units_Z 14
_cell_length_a 7.075238
_cell_length_b 18.490566
_cell_length_c 8.250183
_cell_angle_alpha 121.164118
_cell_angle_beta 124.715626
_cell_angle_gamma 41.742115
_cell_volume 582.168918
_symmetry_space_group_name_H-M "P -1"
_symmetry_group_IT_number 2
_symmetry_cell_setting 'triclinic'
loop_
_space_group_symop_operation_xyz
x,y,z
-x,-y,-z
loop_
_atom_site_type_symbol
_atom_site_label
_atom_site_fract_x
_atom_site_fract_y
_atom_site_fract_z
Si Si1 0.225452 0.361887 0.867888
Si Si2 0.681610 0.889818 0.352580
Si Si3 0.785283 0.130922 0.908570
Si Si4 0.291552 0.996658 0.772360
Si Si5 0.329836 0.529222 0.122375
Si Si6 0.873407 0.793419 0.669086
Si Si7 0.126193 0.551891 0.531124
O O1 0.525595 0.244694 0.823377
O O2 0.025210 0.366073 0.917229
O O3 0.998840 0.426301 0.684240
O O4 0.331097 0.429616 0.047103
O O5 0.426763 0.891274 0.144649
O O6 0.874460 0.797139 0.477094
O O7 0.500000 0.000000 0.500000
O O8 0.840340 0.905978 0.310176
O O9 0.016210 0.030585 0.784961
O O10 0.955023 0.161938 0.133678
O O11 0.528320 0.880455 0.663737
O O12 0.500000 0.000000 0.000000
O O13 0.523151 0.531788 0.354020
O O14 0.500000 0.500000 0.000000
O O15 0.012768 0.673323 0.664099
O O16 0.000000 0.500000 0.500000
#
# Coordination Sequence:
#
# PCOD9026808 Si02
#       7
#     2   2   2   2   2   2   2
#     4  11  24  43  68  97 133 180 220 285 337 401
#     4  10  22  41  65  97 132 175 224 272 337 393
#     4  11  22  44  69  96 140 174 223 277 337 407
#     4   9  22  42  68  99 136 174 224 273 331 406
#     4  11  24  45  68  93 133 175 230 280 341 400
#     4  10  22  42  66  99 137 180 225 276 337 401
#     4  12  23  44  70 102 137 179 232 284 339 405
#
# _framework density 24.048000999999999
#
# number of rings (size 3 to 8) (size 9 to 14) (size 15 to 20)
#    0.000    1.429    4.286    0.429    0.000    8.571 
#    0.000    2.857    3.143    0.000    0.000    0.000 
#    0.000    0.000    0.000    0.000    0.000    0.000 
#
# Total GULP energy -78106.593114 kJ/mol
# GULP energy per Si atom -5579.042365 kJ/mol
# Density = 2.399327 g / cm^3
# Si number density = 24.048001 Si / 1000 Ang^3
#
#
#
# Elastic Constant Matrix: (Units=GPa)
#
#
# Indices 1 2 3 4 5 6 
#
# 1 92.1169 37.9808 30.1566 -13.7655 11.5043 -9.8322
# 2 37.9808 90.8789 14.8220 -0.6263 -2.6773 -4.3634
# 3 30.1566 14.8220 106.0697 -8.6681 21.6576 -0.8457
# 4 -13.7655 -0.6263 -8.6681 35.9391 3.1865 3.3938
# 5 11.5043 -2.6773 21.6576 3.1865 45.8562 -0.5933
# 6 -9.8322 -4.3634 -0.8457 3.3938 -0.5933 38.9681
#
#
#
# Elastic Compliance Matrix: (Units=1/GPa)
#
#
# Indices 1 2 3 4 5 6 
#
# 1 0.015693 -0.006097 -0.002439 0.005370 -0.003479 0.002703
# 2 -0.006097 0.013801 -0.001022 -0.002632 0.003004 0.000260
# 3 -0.002439 -0.001022 0.011478 0.002335 -0.005041 -0.000761
# 4 0.005370 -0.002632 0.002335 0.030979 -0.004778 -0.001660
# 5 -0.003479 0.003004 -0.005041 -0.004778 0.025570 0.000155
# 6 0.002703 0.000260 -0.000761 -0.001660 0.000155 0.026504
#
#
# Mechanical properties :
#
#
# Convention : Reuss Voigt Hill
#
# Bulk Modulus (GPa) = 45.75006 50.55381 48.15194
# Shear Modulus (GPa) = 33.23887 37.89308 35.56598
#
# Velocity S-wave (km/s) = 3.72181 3.97385 3.84989
# Velocity P-wave (km/s) = 6.12658 6.49022 6.31102
#
# Compressibility (1/GPa) = 0.02185789
#
# Stress axis : x y z
#
# Youngs Moduli (GPa) = 63.72083 72.45821 87.12329
#
# Poissons Ratio (x) = 0.44175 0.21250
# Poissons Ratio (y) = 0.38848 0.08901
# Poissons Ratio (z) = 0.15542 0.07402
#
# Static dielectric constant tensor:
#      x y z
#    x 1.967800 -0.005730 -0.008250 
#    y -0.005730 2.025790 0.024840 
#    z -0.008250 0.024840 1.967220 
# 
# From -- ./inp_files/139408.got.cif
#   From: 2010.05.17/outbox.cif.g08.bks.cpg/sg2_70_cif.got.tgz:139408.got - 2010.06.03 11:33:40.
