data_PCOD9026160
_publ_section_title
;
Structure prediction by ZEFSAII (Michael W. Deem and Ramdas Pophale) SiO2 
 PCOD9026160
Probable space group: P -1
;
_chemical_formula_sum "Si O2"
_cell_formula_units_Z 12
_cell_length_a 8.439220
_cell_length_b 19.164385
_cell_length_c 5.487725
_cell_angle_alpha 100.401239
_cell_angle_beta 56.761805
_cell_angle_gamma 130.873559
_cell_volume 538.596496
_symmetry_space_group_name_H-M "P -1"
_symmetry_group_IT_number 2
_symmetry_cell_setting 'triclinic'
loop_
_space_group_symop_operation_xyz
x,y,z
-x,-y,-z
loop_
_atom_site_type_symbol
_atom_site_label
_atom_site_fract_x
_atom_site_fract_y
_atom_site_fract_z
Si Si1 0.159003 0.848201 0.285068
Si Si2 0.173838 0.588257 0.723925
Si Si3 0.419731 0.280736 0.210019
Si Si4 0.373230 0.053605 0.350287
Si Si5 0.660583 0.470500 0.841096
Si Si6 0.427095 0.140387 0.862635
O O1 0.281004 0.814968 0.319439
O O2 0.855621 0.774070 0.476816
O O3 0.245797 0.944255 0.395183
O O4 0.321946 0.883371 0.919260
O O5 0.364207 0.690331 0.760437
O O6 0.342901 0.572700 0.434788
O O7 0.959790 0.563563 0.704609
O O8 0.000000 0.500000 0.000000
O O9 0.534922 0.382609 0.075844
O O10 0.404254 0.218134 0.972336
O O11 0.330179 0.086575 0.652881
O O12 0.293283 0.072077 0.175001
O O13 0.500000 0.500000 0.000000
#
# Coordination Sequence:
#
# PCOD9026160 Si02
#       6
#     2   2   2   2   2   2
#     4   9  22  39  64  95 131 175 223 267 322 393
#     4   9  22  43  62  88 129 160 213 266 338 388
#     4  11  24  39  64 100 123 173 221 272 324 396
#     4   9  21  44  63  91 139 181 211 273 332 375
#     4  10  23  43  66  92 126 172 209 272 334 399
#     4  10  22  41  62  95 135 175 217 277 319 386
#
# _framework density 22.280132999999999
#
# number of rings (size 3 to 8) (size 9 to 14) (size 15 to 20)
#    1.000    1.333    0.000    0.500    2.333   10.667 
#    0.000    0.000    0.000    0.000    0.000    0.000 
#    0.000    0.000    0.000    0.000    0.000    0.000 
#
# Total GULP energy -66935.908860 kJ/mol
# GULP energy per Si atom -5577.992405 kJ/mol
# Density = 2.222942 g / cm^3
# Si number density = 22.280133 Si / 1000 Ang^3
#
#
#
# Elastic Constant Matrix: (Units=GPa)
#
#
# Indices 1 2 3 4 5 6 
#
# 1 50.4027 36.8916 35.4788 6.6018 -9.0180 -9.4524
# 2 36.8916 65.8182 52.7781 1.9434 -12.4796 -2.5264
# 3 35.4788 52.7781 106.5753 13.6570 1.2188 21.6651
# 4 6.6018 1.9434 13.6570 38.1798 7.7015 -4.0578
# 5 -9.0180 -12.4796 1.2188 7.7015 29.0024 5.5831
# 6 -9.4524 -2.5264 21.6651 -4.0578 5.5831 33.2117
#
#
#
# Elastic Compliance Matrix: (Units=1/GPa)
#
#
# Indices 1 2 3 4 5 6 
#
# 1 0.040739 -0.013065 -0.010179 -0.002006 0.004893 0.016173
# 2 -0.013065 0.038814 -0.017698 0.005637 0.010002 0.009787
# 3 -0.010179 -0.017698 0.027141 -0.008285 -0.005478 -0.022039
# 4 -0.002006 0.005637 -0.008285 0.032034 -0.008395 0.010587
# 5 0.004893 0.010002 -0.005478 -0.008395 0.043260 -0.002571
# 6 0.016173 0.009787 -0.022039 0.010587 -0.002571 0.051560
#
#
# Mechanical properties :
#
#
# Convention : Reuss Voigt Hill
#
# Bulk Modulus (GPa) = 40.30636 52.56592 46.43614
# Shear Modulus (GPa) = 15.44641 26.58862 21.01751
#
# Velocity S-wave (km/s) = 2.63588 3.45828 3.07470
# Velocity P-wave (km/s) = 5.23391 6.29211 5.78725
#
# Compressibility (1/GPa) = 0.02480998
#
# Stress axis : x y z
#
# Youngs Moduli (GPa) = 24.54665 25.76406 36.84519
#
# Poissons Ratio (x) = 0.33660 0.37503
# Poissons Ratio (y) = 0.32069 0.65210
# Poissons Ratio (z) = 0.24985 0.45598
#
# Static dielectric constant tensor:
#      x y z
#    x 1.974290 0.067980 0.095230 
#    y 0.067980 1.846320 0.008800 
#    z 0.095230 0.008800 1.855640 
# 
# From -- ./inp_files/48158.got.cif
#   From: 2010.05.17/outbox.cif.g08.bks.cpg/sg2_25_cif.got.tgz:48158.got - 2010.06.03 11:33:40.
