data_PCOD9026673
_publ_section_title
;
Structure prediction by ZEFSAII (Michael W. Deem and Ramdas Pophale) SiO2 
 PCOD9026673
Probable space group: P -1
;
_chemical_formula_sum "Si O2"
_cell_formula_units_Z 16
_cell_length_a 9.451434
_cell_length_b 5.304281
_cell_length_c 13.839496
_cell_angle_alpha 99.618826
_cell_angle_beta 93.294835
_cell_angle_gamma 74.251379
_cell_volume 658.329872
_symmetry_space_group_name_H-M "P -1"
_symmetry_group_IT_number 2
_symmetry_cell_setting 'triclinic'
loop_
_space_group_symop_operation_xyz
x,y,z
-x,-y,-z
loop_
_atom_site_type_symbol
_atom_site_label
_atom_site_fract_x
_atom_site_fract_y
_atom_site_fract_z
Si Si1 0.406685 0.966149 0.388975
Si Si2 0.486784 0.746973 0.745930
Si Si3 0.108568 0.435739 0.907265
Si Si4 0.164281 0.992098 0.541220
Si Si5 0.006894 0.015298 0.117871
Si Si6 0.298298 0.443994 0.625699
Si Si7 0.677200 0.312122 0.822301
Si Si8 0.566613 0.804140 0.077253
O O1 0.266369 0.008099 0.453901
O O2 0.550316 0.753855 0.423837
O O3 0.358696 0.840896 0.282095
O O4 0.468670 0.196556 0.357526
O O5 0.370809 0.567650 0.726122
O O6 0.639963 0.609052 0.798342
O O7 0.417527 0.010455 0.819305
O O8 0.274402 0.394227 0.945828
O O9 0.049786 0.673173 0.845365
O O10 0.095294 0.153033 0.852761
O O11 0.000000 0.500000 0.000000
O O12 0.224070 0.706476 0.577820
O O13 0.191411 0.246258 0.619306
O O14 0.000000 0.000000 0.500000
O O15 0.167576 0.856017 0.145906
O O16 0.000000 0.000000 0.000000
O O17 0.556603 0.331248 0.901228
O O18 0.500000 0.000000 0.000000
#
# Coordination Sequence:
#
# PCOD9026673 Si02
#       8
#     2   2   2   2   2   2   2   2
#     4  10  23  45  73 106 141 193 240 290 358 428
#     4  10  24  43  73 107 143 191 256 297 367 416
#     4  10  23  41  63  94 128 172 230 285 365 415
#     4  12  26  44  76 115 146 185 235 293 361 436
#     4  10  22  41  65  91 135 180 228 284 362 424
#     4  11  23  47  75 103 149 189 239 291 350 443
#     4  10  24  42  69 100 142 183 246 305 350 430
#     4  11  24  42  71 101 139 186 253 310 352 424
#
# _framework density 24.303926000000001
#
# number of rings (size 3 to 8) (size 9 to 14) (size 15 to 20)
#    0.000    1.500    1.250    2.625   12.250    0.500 
#    2.250    0.000    0.000    0.000    0.000    0.000 
#    0.000    0.000    0.000    0.000    0.000    0.000 
#
# Total GULP energy -89330.225137 kJ/mol
# GULP energy per Si atom -5583.139071 kJ/mol
# Density = 2.424861 g / cm^3
# Si number density = 24.303926 Si / 1000 Ang^3
#
#
#
# Elastic Constant Matrix: (Units=GPa)
#
#
# Indices 1 2 3 4 5 6 
#
# 1 186.6239 76.8088 47.6781 -15.5104 23.0606 -21.5424
# 2 76.8088 174.6594 30.0576 -42.4804 6.5286 2.5685
# 3 47.6781 30.0576 79.9940 -21.7616 5.1615 -7.6148
# 4 -15.5104 -42.4804 -21.7616 42.8170 -4.8671 15.5923
# 5 23.0606 6.5286 5.1615 -4.8671 33.5743 -5.1909
# 6 -21.5424 2.5685 -7.6148 15.5923 -5.1909 52.4094
#
#
#
# Elastic Compliance Matrix: (Units=1/GPa)
#
#
# Indices 1 2 3 4 5 6 
#
# 1 0.008942 -0.004402 -0.004458 -0.005541 -0.004720 0.004425
# 2 -0.004402 0.010211 0.001246 0.011297 0.001661 -0.005325
# 3 -0.004458 0.001246 0.016888 0.009080 0.001227 -0.002019
# 4 -0.005541 0.011297 0.009080 0.042677 0.004268 -0.013786
# 5 -0.004720 0.001661 0.001227 0.004268 0.033160 0.000171
# 6 0.004425 -0.005325 -0.002019 -0.013786 0.000171 0.024985
#
#
# Mechanical properties :
#
#
# Convention : Reuss Voigt Hill
#
# Bulk Modulus (GPa) = 48.04264 83.37402 65.70833
# Shear Modulus (GPa) = 31.44104 44.87566 38.15835
#
# Velocity S-wave (km/s) = 3.60065 4.30168 3.96668
# Velocity P-wave (km/s) = 6.09070 7.68452 6.93356
#
# Compressibility (1/GPa) = 0.02081484
#
# Stress axis : x y z
#
# Youngs Moduli (GPa) = 111.82879 97.93719 59.21304
#
# Poissons Ratio (x) = 0.43109 0.26394
# Poissons Ratio (y) = 0.49224 -0.07379
# Poissons Ratio (z) = 0.49848 -0.12204
#
# Static dielectric constant tensor:
#      x y z
#    x 1.961700 0.060390 0.035030 
#    y 0.060390 2.071000 0.012730 
#    z 0.035030 0.012730 2.008030 
# 
# From -- ./inp_files/488431.got.cif
#   From: 2010.05.17/outbox.cif.g08.bks.cpg/sg2_245_cif.got.tgz:488431.got - 2010.06.03 11:33:40.
