data_PCOD9026195
_publ_section_title
;
Structure prediction by ZEFSAII (Michael W. Deem and Ramdas Pophale) SiO2 
 PCOD9026195
Probable space group: P -1
;
_chemical_formula_sum "Si O2"
_cell_formula_units_Z 14
_cell_length_a 6.236600
_cell_length_b 11.414519
_cell_length_c 12.442211
_cell_angle_alpha 51.277924
_cell_angle_beta 114.163285
_cell_angle_gamma 118.891823
_cell_volume 597.545278
_symmetry_space_group_name_H-M "P -1"
_symmetry_group_IT_number 2
_symmetry_cell_setting 'triclinic'
loop_
_space_group_symop_operation_xyz
x,y,z
-x,-y,-z
loop_
_atom_site_type_symbol
_atom_site_label
_atom_site_fract_x
_atom_site_fract_y
_atom_site_fract_z
Si Si1 0.664466 0.194210 0.708963
Si Si2 0.959277 0.656595 0.946020
Si Si3 0.154289 0.181418 0.554094
Si Si4 0.730369 0.866641 0.640614
Si Si5 0.767619 0.317876 0.418178
Si Si6 0.822670 0.652249 0.161161
Si Si7 0.490620 0.112722 0.033457
O O1 0.393404 0.213363 0.659819
O O2 0.744500 0.268493 0.566040
O O3 0.889493 0.276193 0.786855
O O4 0.616335 0.006476 0.820491
O O5 0.230982 0.782146 0.945388
O O6 0.812090 0.730165 0.791307
O O7 0.000000 0.500000 0.000000
O O8 0.817730 0.625906 0.047804
O O9 0.230258 0.139097 0.476316
O O10 0.043648 0.324844 0.438364
O O11 0.920704 0.030980 0.627662
O O12 0.432784 0.815899 0.617516
O O13 0.720816 0.483628 0.295851
O O14 0.677980 0.776098 0.085709
O O15 0.500000 0.000000 0.000000
#
# Coordination Sequence:
#
# PCOD9026195 Si02
#       7
#     2   2   2   2   2   2   2
#     4  11  25  45  73 105 134 188 240 299 351 428
#     4  12  26  45  74 105 151 190 238 297 366 428
#     4  10  22  42  69  99 141 184 240 290 356 422
#     4  10  22  41  63 102 136 191 237 285 347 431
#     4  11  25  43  69 103 145 183 233 299 360 429
#     4  12  28  46  72 109 149 189 239 298 366 428
#     4  12  27  49  75 105 144 193 249 299 355 430
#
# _framework density 23.429186000000001
#
# number of rings (size 3 to 8) (size 9 to 14) (size 15 to 20)
#    0.000    0.857    2.857    3.000    4.000    5.143 
#    0.000    0.000    0.000    0.000    0.000    0.000 
#    0.000    0.000    0.000    0.000    0.000    0.000 
#
# Total GULP energy -78356.601572 kJ/mol
# GULP energy per Si atom -5596.900112 kJ/mol
# Density = 2.337586 g / cm^3
# Si number density = 23.429186 Si / 1000 Ang^3
#
#
#
# Elastic Constant Matrix: (Units=GPa)
#
#
# Indices 1 2 3 4 5 6 
#
# 1 92.6543 30.4803 30.7194 0.7141 35.4575 -0.3185
# 2 30.4803 71.6435 27.6472 -6.3235 9.8467 -5.2632
# 3 30.7194 27.6472 108.6461 -23.3467 10.8066 3.2324
# 4 0.7141 -6.3235 -23.3467 33.8019 4.9470 14.3232
# 5 35.4575 9.8467 10.8066 4.9470 55.4195 4.1671
# 6 -0.3185 -5.2632 3.2324 14.3232 4.1671 34.4910
#
#
#
# Elastic Compliance Matrix: (Units=1/GPa)
#
#
# Indices 1 2 3 4 5 6 
#
# 1 0.017102 -0.004789 -0.003449 -0.003214 -0.009298 0.002208
# 2 -0.004789 0.017390 -0.003239 -0.000189 0.000401 0.002943
# 3 -0.003449 -0.003239 0.013812 0.011920 -0.000471 -0.006714
# 4 -0.003214 -0.000189 0.011920 0.046871 -0.002893 -0.020291
# 5 -0.009298 0.000401 -0.000471 -0.002893 0.024402 -0.001727
# 6 0.002208 0.002943 -0.006714 -0.020291 -0.001727 0.038727
#
#
# Mechanical properties :
#
#
# Convention : Reuss Voigt Hill
#
# Bulk Modulus (GPa) = 39.44698 50.07088 44.75893
# Shear Modulus (GPa) = 26.35664 37.01560 31.68612
#
# Velocity S-wave (km/s) = 3.35766 3.97910 3.68152
# Velocity P-wave (km/s) = 5.64846 6.52139 6.10056
#
# Compressibility (1/GPa) = 0.02535048
#
# Stress axis : x y z
#
# Youngs Moduli (GPa) = 58.47269 57.50532 72.40304
#
# Poissons Ratio (x) = 0.27538 0.24968
# Poissons Ratio (y) = 0.28001 0.23453
# Poissons Ratio (z) = 0.20164 0.18627
#
# Static dielectric constant tensor:
#      x y z
#    x 1.914720 0.015520 -0.018250 
#    y 0.015520 1.908890 -0.027040 
#    z -0.018250 -0.027040 1.870090 
# 
# From -- ./inp_files/363757.got.cif
#   From: 2010.05.17/outbox.cif.g08.bks.cpg/sg2_182_cif.got.tgz:363757.got - 2010.06.03 11:33:40.
