data_PCOD9026029
_publ_section_title
;
Structure prediction by ZEFSAII (Michael W. Deem and Ramdas Pophale) SiO2 
 PCOD9026029
Probable space group: P -1
;
_chemical_formula_sum "Si O2"
_cell_formula_units_Z 14
_cell_length_a 12.131450
_cell_length_b 6.867768
_cell_length_c 11.513097
_cell_angle_alpha 57.870653
_cell_angle_beta 117.588623
_cell_angle_gamma 135.068338
_cell_volume 567.663959
_symmetry_space_group_name_H-M "P -1"
_symmetry_group_IT_number 2
_symmetry_cell_setting 'triclinic'
loop_
_space_group_symop_operation_xyz
x,y,z
-x,-y,-z
loop_
_atom_site_type_symbol
_atom_site_label
_atom_site_fract_x
_atom_site_fract_y
_atom_site_fract_z
Si Si1 0.852827 0.670882 0.805372
Si Si2 0.928094 0.168094 0.341544
Si Si3 0.169017 0.450910 0.541728
Si Si4 0.167599 0.040954 0.987515
Si Si5 0.384229 0.582822 0.806928
Si Si6 0.286976 0.009796 0.285084
Si Si7 0.255177 0.631815 0.931253
O O1 0.781407 0.845776 0.726910
O O2 0.909108 0.692159 0.695447
O O3 0.741231 0.382182 0.923140
O O4 0.022220 0.833526 0.900116
O O5 0.833294 0.252934 0.200556
O O6 0.990822 0.306232 0.456721
O O7 0.828691 0.819416 0.403162
O O8 0.236138 0.519889 0.682972
O O9 0.271606 0.759618 0.428519
O O10 0.326523 0.264584 0.919561
O O11 0.158056 0.287016 0.960196
O O12 0.190202 0.899366 0.151307
O O13 0.534701 0.746590 0.747077
O O14 0.402878 0.753414 0.879686
#
# Coordination Sequence:
#
# PCOD9026029 Si02
#       7
#     2   2   2   2   2   2   2
#     4  11  20  37  65  93 116 153 205 251 293 343
#     4  11  22  39  56  93 124 159 195 241 297 363
#     4  11  24  38  62  87 126 161 195 243 299 354
#     4   9  19  37  65  90 110 152 205 255 283 335
#     4  10  22  41  61  92 118 155 203 246 300 344
#     4  11  22  39  64  92 119 153 201 252 296 350
#     4   9  20  35  63  86 119 152 197 252 291 343
#
# _framework density 24.662481
#
# number of rings (size 3 to 8) (size 9 to 14) (size 15 to 20)
#    0.857    0.857    1.429    4.714    0.000    3.429 
#    0.000    2.857    0.000    3.429    0.000    0.000 
#    0.000    0.000    0.000    0.000    0.000    0.000 
#
# Total GULP energy -78081.031055 kJ/mol
# GULP energy per Si atom -5577.216504 kJ/mol
# Density = 2.460635 g / cm^3
# Si number density = 24.662481 Si / 1000 Ang^3
#
#
#
# Elastic Constant Matrix: (Units=GPa)
#
#
# Indices 1 2 3 4 5 6 
#
# 1 117.8718 34.7384 56.5861 -0.9679 -1.9408 4.9029
# 2 34.7384 53.2999 27.3149 -17.8718 3.4928 4.4423
# 3 56.5861 27.3149 181.0271 -32.3871 -2.5018 -6.2854
# 4 -0.9679 -17.8718 -32.3871 40.2101 0.6459 -3.0903
# 5 -1.9408 3.4928 -2.5018 0.6459 29.3621 -1.7233
# 6 4.9029 4.4423 -6.2854 -3.0903 -1.7233 19.6934
#
#
#
# Elastic Compliance Matrix: (Units=1/GPa)
#
#
# Indices 1 2 3 4 5 6 
#
# 1 0.013169 -0.008636 -0.004213 -0.007221 0.001482 -0.003679
# 2 -0.008636 0.028983 0.000491 0.012941 -0.004413 -0.002586
# 3 -0.004213 0.000491 0.008203 0.007078 0.000483 0.004709
# 4 -0.007221 0.012941 0.007078 0.036696 -0.001825 0.006736
# 5 0.001482 -0.004413 0.000483 -0.001825 0.034970 0.003554
# 6 -0.003679 -0.002586 0.004709 0.006736 0.003554 0.055149
#
#
# Mechanical properties :
#
#
# Convention : Reuss Voigt Hill
#
# Bulk Modulus (GPa) = 39.00174 65.49751 52.24962
# Shear Modulus (GPa) = 23.76059 33.42376 28.59218
#
# Velocity S-wave (km/s) = 3.10729 3.68536 3.40860
# Velocity P-wave (km/s) = 5.35931 6.68763 6.05997
#
# Compressibility (1/GPa) = 0.02563988
#
# Stress axis : x y z
#
# Youngs Moduli (GPa) = 75.93383 34.50314 121.90243
#
# Poissons Ratio (x) = 0.29797 0.51352
# Poissons Ratio (y) = 0.65577 -0.05983
# Poissons Ratio (z) = 0.31988 -0.01693
#
# Static dielectric constant tensor:
#      x y z
#    x 2.091590 -0.017740 -0.075230 
#    y -0.017740 1.990420 0.003920 
#    z -0.075230 0.003920 1.987010 
# 
# From -- ./inp_files/527168.got.cif
#   From: 2010.05.17/outbox.cif.g08.bks.cpg/sg2_264_cif.got.tgz:527168.got - 2010.06.03 11:33:40.
