data_PCOD9026257
_publ_section_title
;
Structure prediction by ZEFSAII (Michael W. Deem and Ramdas Pophale) SiO2 
 PCOD9026257
Probable space group: P -1
;
_chemical_formula_sum "Si O2"
_cell_formula_units_Z 16
_cell_length_a 13.456979
_cell_length_b 25.101077
_cell_length_c 8.761365
_cell_angle_alpha 132.203976
_cell_angle_beta 150.501932
_cell_angle_gamma 32.355939
_cell_volume 756.914401
_symmetry_space_group_name_H-M "P -1"
_symmetry_group_IT_number 2
_symmetry_cell_setting 'triclinic'
loop_
_space_group_symop_operation_xyz
x,y,z
-x,-y,-z
loop_
_atom_site_type_symbol
_atom_site_label
_atom_site_fract_x
_atom_site_fract_y
_atom_site_fract_z
Si Si1 0.122187 0.656610 0.761588
Si Si2 0.706357 0.120149 0.312110
Si Si3 0.028529 0.143494 0.983416
Si Si4 0.271255 0.458116 0.178072
Si Si5 0.930435 0.101714 0.095759
Si Si6 0.375220 0.509604 0.104162
Si Si7 0.545014 0.741934 0.044773
Si Si8 0.418301 0.052300 0.830380
O O1 0.396808 0.593141 0.893015
O O2 0.874204 0.681669 0.380135
O O3 0.185473 0.594509 0.879999
O O4 0.012626 0.762028 0.869446
O O5 0.770333 0.175152 0.599159
O O6 0.632549 0.163109 0.126345
O O7 0.453864 0.129152 0.035244
O O8 0.000000 0.000000 0.500000
O O9 0.016004 0.108267 0.059779
O O10 0.336550 0.042989 0.134341
O O11 0.223600 0.504319 0.031420
O O12 0.445236 0.472932 0.536814
O O13 0.460956 0.338874 0.170059
O O14 0.000000 0.500000 0.000000
O O15 0.115759 0.100243 0.461672
O O16 0.601030 0.204344 0.885795
O O17 0.000000 0.000000 0.000000
O O18 0.500000 0.000000 0.000000
#
# Coordination Sequence:
#
# PCOD9026257 Si02
#       8
#     2   2   2   2   2   2   2   2
#     4  11  23  44  67 103 132 180 227 286 353 411
#     4  10  22  41  63  91 129 173 223 276 328 399
#     4  11  22  40  62  94 128 170 228 275 341 410
#     4  11  23  47  70 104 134 181 231 285 346 413
#     4  12  23  39  62  95 134 173 224 283 341 401
#     4  10  24  46  72  96 144 175 227 295 347 408
#     4  12  24  42  68  97 134 180 228 274 346 411
#     4  11  22  40  62  87 130 176 221 278 332 399
#
# _framework density 21.138455
#
# number of rings (size 3 to 8) (size 9 to 14) (size 15 to 20)
#    0.000    1.000    1.250    7.125    0.000    0.500 
#    6.750    0.000    0.000    0.000    0.000    0.000 
#    0.000    0.000    0.000    0.000    0.000    0.000 
#
# Total GULP energy -89358.507617 kJ/mol
# GULP energy per Si atom -5584.906726 kJ/mol
# Density = 2.109034 g / cm^3
# Si number density = 21.138455 Si / 1000 Ang^3
#
#
#
# Elastic Constant Matrix: (Units=GPa)
#
#
# Indices 1 2 3 4 5 6 
#
# 1 140.1060 20.3618 -1.1800 -20.0081 6.0091 21.2197
# 2 20.3618 68.6013 -6.4154 2.0161 7.2367 2.6862
# 3 -1.1800 -6.4154 70.4773 3.1609 0.1170 14.0474
# 4 -20.0081 2.0161 3.1609 30.6114 4.2958 -4.1682
# 5 6.0091 7.2367 0.1170 4.2958 34.8530 -2.0255
# 6 21.2197 2.6862 14.0474 -4.1682 -2.0255 31.9311
#
#
#
# Elastic Compliance Matrix: (Units=1/GPa)
#
#
# Indices 1 2 3 4 5 6 
#
# 1 0.009253 -0.002387 0.000826 0.005641 -0.002130 -0.005711
# 2 -0.002387 0.015837 0.001720 -0.002548 -0.002627 -0.001002
# 3 0.000826 0.001720 0.016076 -0.002232 -0.000750 -0.008105
# 4 0.005641 -0.002548 -0.002232 0.037730 -0.004967 0.002057
# 5 -0.002130 -0.002627 -0.000750 -0.004967 0.030408 0.003247
# 6 -0.005711 -0.001002 -0.008105 0.002057 0.003247 0.039237
#
#
# Mechanical properties :
#
#
# Convention : Reuss Voigt Hill
#
# Bulk Modulus (GPa) = 24.10417 33.85751 28.98084
# Shear Modulus (GPa) = 30.85449 37.24030 34.04739
#
# Velocity S-wave (km/s) = 3.82467 4.20185 4.01769
# Velocity P-wave (km/s) = 5.56164 6.29226 5.93820
#
# Compressibility (1/GPa) = 0.04148659
#
# Stress axis : x y z
#
# Youngs Moduli (GPa) = 108.07176 63.14135 62.20370
#
# Poissons Ratio (x) = 0.15070 -0.05141
# Poissons Ratio (y) = 0.25793 -0.10700
# Poissons Ratio (z) = -0.08931 -0.10861
#
# Static dielectric constant tensor:
#      x y z
#    x 1.764070 -0.004600 0.020450 
#    y -0.004600 1.744030 -0.017150 
#    z 0.020450 -0.017150 1.802690 
# 
# From -- ./inp_files/283303.got.cif
#   From: 2010.05.17/outbox.cif.g08.bks.cpg/sg2_142_cif.got.tgz:283303.got - 2010.06.03 11:33:40.
