data_PCOD9026100
_publ_section_title
;
Structure prediction by ZEFSAII (Michael W. Deem and Ramdas Pophale) SiO2 
 PCOD9026100
Probable space group: P -1
;
_chemical_formula_sum "Si O2"
_cell_formula_units_Z 15
_cell_length_a 7.491453
_cell_length_b 11.331011
_cell_length_c 14.351811
_cell_angle_alpha 56.202275
_cell_angle_beta 50.854793
_cell_angle_gamma 38.730828
_cell_volume 586.008371
_symmetry_space_group_name_H-M "P -1"
_symmetry_group_IT_number 2
_symmetry_cell_setting 'triclinic'
loop_
_space_group_symop_operation_xyz
x,y,z
-x,-y,-z
loop_
_atom_site_type_symbol
_atom_site_label
_atom_site_fract_x
_atom_site_fract_y
_atom_site_fract_z
Si Si1 0.344023 0.713771 0.147570
Si Si2 0.731888 0.934803 0.546277
Si Si3 0.586339 0.285614 0.514997
Si Si4 0.500000 0.500000 0.000000
Si Si5 0.714754 0.964764 0.030528
Si Si6 0.577413 0.774921 0.808344
Si Si7 0.087083 0.627888 0.416240
Si Si8 0.770510 0.636980 0.211813
O O1 0.511457 0.587629 0.056681
O O2 0.155089 0.663422 0.277535
O O3 0.571996 0.671501 0.173042
O O4 0.153121 0.934794 0.086804
O O5 0.545128 0.891035 0.680617
O O6 0.061076 0.816528 0.542971
O O7 0.844694 0.829569 0.457192
O O8 0.592802 0.147683 0.504995
O O9 0.391668 0.491863 0.441600
O O10 0.430467 0.290919 0.659553
O O11 0.571513 0.318803 0.110959
O O12 0.513448 0.094725 0.128953
O O13 0.896096 0.748059 0.101003
O O14 0.500000 0.000000 0.000000
O O15 0.936173 0.582387 0.780177
O O16 0.000000 0.500000 0.500000
#
# Coordination Sequence:
#
# PCOD9026100 Si02
#       8
#     2   2   2   1   2   2   2   2
#     4  10  22  41  62  89 130 164 212 263 314 381
#     4  11  22  40  69  97 132 164 213 273 324 378
#     4  11  23  39  67 105 126 166 215 272 325 381
#     4  10  24  42  58  90 126 172 212 246 320 384
#     4   9  21  37  59  91 125 157 211 263 308 369
#     4  11  21  39  66  90 127 171 204 265 319 381
#     4  12  24  41  65  96 135 172 210 261 329 393
#     4  11  20  40  69  96 123 160 222 266 322 375
#
# _framework density 25.596903999999999
#
# number of rings (size 3 to 8) (size 9 to 14) (size 15 to 20)
#    0.000    1.333    4.000    2.000    0.000    5.333 
#    0.000    6.667    0.000    0.000    0.000    0.000 
#    0.000    0.000    0.000    0.000    0.000    0.000 
#
# Total GULP energy -83797.414503 kJ/mol
# GULP energy per Si atom -5586.494300 kJ/mol
# Density = 2.553864 g / cm^3
# Si number density = 25.596904 Si / 1000 Ang^3
#
#
#
# Elastic Constant Matrix: (Units=GPa)
#
#
# Indices 1 2 3 4 5 6 
#
# 1 86.3577 30.9963 20.1538 -7.0316 4.2210 15.5262
# 2 30.9963 157.8741 54.0216 -18.1782 15.0704 28.2329
# 3 20.1538 54.0216 165.0380 -24.9153 -13.2991 13.0131
# 4 -7.0316 -18.1782 -24.9153 46.3561 9.8222 3.7619
# 5 4.2210 15.0704 -13.2991 9.8222 47.6310 -7.5120
# 6 15.5262 28.2329 13.0131 3.7619 -7.5120 42.3752
#
#
#
# Elastic Compliance Matrix: (Units=1/GPa)
#
#
# Indices 1 2 3 4 5 6 
#
# 1 0.013218 -0.001108 -0.000779 0.001964 -0.002140 -0.004420
# 2 -0.001108 0.009471 -0.002283 0.003988 -0.005385 -0.006512
# 3 -0.000779 -0.002283 0.007498 0.002553 0.002309 -0.000313
# 4 0.001964 0.003988 0.002553 0.027046 -0.007546 -0.007899
# 5 -0.002140 -0.005385 0.002309 -0.007546 0.026514 0.009033
# 6 -0.004420 -0.006512 -0.000313 -0.007899 0.009033 0.031955
#
#
# Mechanical properties :
#
#
# Convention : Reuss Voigt Hill
#
# Bulk Modulus (GPa) = 45.77330 68.84589 57.30959
# Shear Modulus (GPa) = 38.07374 47.54567 42.80970
#
# Velocity S-wave (km/s) = 3.86091 4.31452 4.09400
# Velocity P-wave (km/s) = 6.14790 7.19546 6.69221
#
# Compressibility (1/GPa) = 0.02184680
#
# Stress axis : x y z
#
# Youngs Moduli (GPa) = 75.65250 105.58912 133.37234
#
# Poissons Ratio (x) = 0.11697 0.10390
# Poissons Ratio (y) = 0.08381 0.30451
# Poissons Ratio (z) = 0.05894 0.24108
#
# Static dielectric constant tensor:
#      x y z
#    x 2.382560 -0.181540 -0.121780 
#    y -0.181540 2.022880 0.024140 
#    z -0.121780 0.024140 1.951130 
# 
# From -- ./inp_files/276190.got.cif
#   From: 2010.05.17/outbox.cif.g08.bks.cpg/sg2_139_cif.got.tgz:276190.got - 2010.06.03 11:33:40.
