data_PCOD9026873
_publ_section_title
;
Structure prediction by ZEFSAII (Michael W. Deem and Ramdas Pophale) SiO2 
 PCOD9026873
Probable space group: P -1
;
_chemical_formula_sum "Si O2"
_cell_formula_units_Z 14
_cell_length_a 21.395184
_cell_length_b 12.294649
_cell_length_c 6.332169
_cell_angle_alpha 121.055008
_cell_angle_beta 51.767318
_cell_angle_gamma 150.979713
_cell_volume 633.318981
_symmetry_space_group_name_H-M "P -1"
_symmetry_group_IT_number 2
_symmetry_cell_setting 'triclinic'
loop_
_space_group_symop_operation_xyz
x,y,z
-x,-y,-z
loop_
_atom_site_type_symbol
_atom_site_label
_atom_site_fract_x
_atom_site_fract_y
_atom_site_fract_z
Si Si1 0.351117 0.013764 0.858535
Si Si2 0.096958 0.074527 0.560230
Si Si3 0.403208 0.585607 0.923132
Si Si4 0.350585 0.286890 0.987813
Si Si5 0.430258 0.025604 0.299375
Si Si6 0.871523 0.664628 0.898190
Si Si7 0.149500 0.647319 0.254039
O O1 0.410659 0.986164 0.548857
O O2 0.212915 0.787344 0.045934
O O3 0.476971 0.216449 0.960428
O O4 0.317060 0.094127 0.871573
O O5 0.235332 0.202931 0.291106
O O6 0.127014 0.223824 0.816928
O O7 0.000000 0.000000 0.500000
O O8 0.010738 0.856730 0.656584
O O9 0.472678 0.723324 0.697867
O O10 0.362188 0.384929 0.846877
O O11 0.260053 0.478261 0.123418
O O12 0.500000 0.500000 0.000000
O O13 0.274764 0.841898 0.350450
O O14 0.500000 0.000000 0.000000
O O15 0.858248 0.514785 0.893469
O O16 0.000000 0.500000 0.500000
#
# Coordination Sequence:
#
# PCOD9026873 Si02
#       7
#     2   2   2   2   2   2   2
#     4  10  25  43  67 100 137 173 224 278 329 397
#     4  11  24  42  66 100 130 170 226 272 329 403
#     4  10  22  41  66 101 125 176 217 278 331 389
#     4  10  22  42  64  96 132 171 217 270 340 391
#     4  11  24  43  67 102 129 174 234 267 327 406
#     4  11  24  42  68  97 131 174 223 274 331 391
#     4  11  25  45  67  98 137 176 219 275 338 397
#
# _framework density 22.105765000000002
#
# number of rings (size 3 to 8) (size 9 to 14) (size 15 to 20)
#    0.000    1.429    2.857    0.857    4.000    6.857 
#    5.143    0.000    0.000    0.000    0.000    0.000 
#    0.000    0.000    0.000    0.000    0.000    0.000 
#
# Total GULP energy -78206.685561 kJ/mol
# GULP energy per Si atom -5586.191826 kJ/mol
# Density = 2.205545 g / cm^3
# Si number density = 22.105765 Si / 1000 Ang^3
#
#
#
# Elastic Constant Matrix: (Units=GPa)
#
#
# Indices 1 2 3 4 5 6 
#
# 1 99.9494 49.2263 45.1859 -24.0485 -19.1953 -20.9279
# 2 49.2263 117.2662 52.4618 -40.5470 -6.0448 -24.1256
# 3 45.1859 52.4618 127.2616 -31.0642 -4.9284 -3.4591
# 4 -24.0485 -40.5470 -31.0642 34.7454 4.3585 -0.5641
# 5 -19.1953 -6.0448 -4.9284 4.3585 25.8845 -13.0742
# 6 -20.9279 -24.1256 -3.4591 -0.5641 -13.0742 49.5292
#
#
#
# Elastic Compliance Matrix: (Units=1/GPa)
#
#
# Indices 1 2 3 4 5 6 
#
# 1 0.020625 -0.000138 -0.004132 0.008128 0.020050 0.013744
# 2 -0.000138 0.018814 -0.002542 0.019005 0.006031 0.010737
# 3 -0.004132 -0.002542 0.011283 0.004698 -0.003904 -0.003174
# 4 0.008128 0.019005 0.004698 0.059861 0.009463 0.016200
# 5 0.020050 0.006031 -0.003904 0.009463 0.067214 0.028987
# 6 0.013744 0.010737 -0.003174 0.016200 0.028987 0.038842
#
#
# Mechanical properties :
#
#
# Convention : Reuss Voigt Hill
#
# Bulk Modulus (GPa) = 26.95669 70.91392 48.93530
# Shear Modulus (GPa) = 20.60755 35.20537 27.90646
#
# Velocity S-wave (km/s) = 3.05655 3.99505 3.55689
# Velocity P-wave (km/s) = 4.96765 7.30956 6.24929
#
# Compressibility (1/GPa) = 0.03709654
#
# Stress axis : x y z
#
# Youngs Moduli (GPa) = 48.48445 53.15223 88.63244
#
# Poissons Ratio (x) = 0.00732 0.36626
# Poissons Ratio (y) = 0.00668 0.22535
# Poissons Ratio (z) = 0.20035 0.13514
#
# Static dielectric constant tensor:
#      x y z
#    x 1.843100 -0.041210 0.020800 
#    y -0.041210 1.827050 -0.001610 
#    z 0.020800 -0.001610 1.835980 
# 
# From -- ./inp_files/118775.got.cif
#   From: 2010.05.17/outbox.cif.g08.bks.cpg/sg2_60_cif.got.tgz:118775.got - 2010.06.03 11:33:40.
