data_PCOD9026294
_publ_section_title
;
Structure prediction by ZEFSAII (Michael W. Deem and Ramdas Pophale) SiO2 
 PCOD9026294
Probable space group: P -1
;
_chemical_formula_sum "Si O2"
_cell_formula_units_Z 16
_cell_length_a 9.874987
_cell_length_b 10.662496
_cell_length_c 8.215518
_cell_angle_alpha 77.052330
_cell_angle_beta 112.893673
_cell_angle_gamma 116.928938
_cell_volume 709.273008
_symmetry_space_group_name_H-M "P -1"
_symmetry_group_IT_number 2
_symmetry_cell_setting 'triclinic'
loop_
_space_group_symop_operation_xyz
x,y,z
-x,-y,-z
loop_
_atom_site_type_symbol
_atom_site_label
_atom_site_fract_x
_atom_site_fract_y
_atom_site_fract_z
Si Si1 0.663038 0.130402 0.075499
Si Si2 0.032761 0.973272 0.341322
Si Si3 0.038494 0.876709 0.968089
Si Si4 0.837878 0.528194 0.707535
Si Si5 0.460845 0.713806 0.263238
Si Si6 0.361378 0.986046 0.564841
Si Si7 0.116420 0.424219 0.905320
Si Si8 0.764188 0.666133 0.318232
O O1 0.794344 0.094120 0.050245
O O2 0.680567 0.130294 0.277456
O O3 0.637935 0.258592 0.942200
O O4 0.500000 0.000000 0.000000
O O5 0.874177 0.829831 0.272966
O O6 0.195538 0.952062 0.404280
O O7 0.000000 0.000000 0.500000
O O8 0.069606 0.126698 0.235804
O O9 0.004098 0.740793 0.095234
O O10 0.000000 0.000000 0.000000
O O11 0.676962 0.384735 0.650653
O O12 0.835703 0.626428 0.527489
O O13 0.006506 0.509787 0.795120
O O14 0.819460 0.559245 0.882657
O O15 0.572307 0.862666 0.356276
O O16 0.584834 0.650611 0.278363
O O17 0.500000 0.000000 0.500000
O O18 0.229385 0.429702 0.804258
#
# Coordination Sequence:
#
# PCOD9026294 Si02
#       8
#     2   2   2   2   2   2   2   2
#     4  10  22  41  63  93 137 178 213 282 346 404
#     4  12  22  41  67 103 136 169 225 287 348 409
#     4  12  23  40  71  98 133 174 224 292 345 406
#     4  11  26  49  69  97 143 183 238 280 338 417
#     4  11  24  46  66  96 141 182 229 283 342 414
#     4  11  26  40  66 105 138 179 223 282 361 410
#     4  11  26  45  72 102 131 186 236 284 348 408
#     4  12  25  45  72 102 137 183 233 288 342 410
#
# _framework density 22.558308
#
# number of rings (size 3 to 8) (size 9 to 14) (size 15 to 20)
#    0.000    0.750    5.000    2.250    5.250    0.500 
#    2.250    0.000    0.000    0.000    0.000    0.000 
#    0.000    0.000    0.000    0.000    0.000    0.000 
#
# Total GULP energy -89144.346136 kJ/mol
# GULP energy per Si atom -5571.521633 kJ/mol
# Density = 2.250696 g / cm^3
# Si number density = 22.558308 Si / 1000 Ang^3
#
#
#
# Elastic Constant Matrix: (Units=GPa)
#
#
# Indices 1 2 3 4 5 6 
#
# 1 127.5465 -2.3139 38.8150 -16.5092 -3.4015 -19.1362
# 2 -2.3139 38.8205 18.1650 -16.4250 -3.9682 -0.6442
# 3 38.8150 18.1650 80.0246 -20.0269 -1.3072 -22.1548
# 4 -16.5092 -16.4250 -20.0269 38.1061 -7.1135 -3.0188
# 5 -3.4015 -3.9682 -1.3072 -7.1135 43.6742 5.3598
# 6 -19.1362 -0.6442 -22.1548 -3.0188 5.3598 34.8600
#
#
#
# Elastic Compliance Matrix: (Units=1/GPa)
#
#
# Indices 1 2 3 4 5 6 
#
# 1 0.010314 0.004760 -0.003807 0.005083 0.001516 0.003537
# 2 0.004760 0.036263 -0.006830 0.015173 0.006014 -0.000668
# 3 -0.003807 -0.006830 0.020977 0.007264 -0.000558 0.011830
# 4 0.005083 0.015173 0.007264 0.040989 0.007429 0.010095
# 5 0.001516 0.006014 -0.000558 0.007429 0.025077 -0.002624
# 6 0.003537 -0.000668 0.011830 0.010095 -0.002624 0.039412
#
#
# Mechanical properties :
#
#
# Convention : Reuss Voigt Hill
#
# Bulk Modulus (GPa) = 17.92086 39.52485 28.72286
# Shear Modulus (GPa) = 24.58383 36.10976 30.34680
#
# Velocity S-wave (km/s) = 3.30478 4.00525 3.67176
# Velocity P-wave (km/s) = 4.74590 6.24088 5.54401
#
# Compressibility (1/GPa) = 0.05580088
#
# Stress axis : x y z
#
# Youngs Moduli (GPa) = 96.95253 27.57663 47.67047
#
# Poissons Ratio (x) = -0.13128 0.18150
# Poissons Ratio (y) = -0.46154 0.32558
# Poissons Ratio (z) = 0.36913 0.18834
#
# Static dielectric constant tensor:
#      x y z
#    x 1.810250 0.129960 -0.166970 
#    y 0.129960 2.101570 -0.146680 
#    z -0.166970 -0.146680 2.232340 
# 
# From -- ./inp_files/186917.got.cif
#   From: 2010.05.17/outbox.cif.g08.bks.cpg/sg2_94_cif.got.tgz:186917.got - 2010.06.03 11:33:40.
