data_PCOD9026185
_publ_section_title
;
Structure prediction by ZEFSAII (Michael W. Deem and Ramdas Pophale) SiO2 
 PCOD9026185
Probable space group: P -1
;
_chemical_formula_sum "Si O2"
_cell_formula_units_Z 14
_cell_length_a 11.557120
_cell_length_b 19.108160
_cell_length_c 8.710948
_cell_angle_alpha 136.178266
_cell_angle_beta 70.951276
_cell_angle_gamma 142.321600
_cell_volume 664.328664
_symmetry_space_group_name_H-M "P -1"
_symmetry_group_IT_number 2
_symmetry_cell_setting 'triclinic'
loop_
_space_group_symop_operation_xyz
x,y,z
-x,-y,-z
loop_
_atom_site_type_symbol
_atom_site_label
_atom_site_fract_x
_atom_site_fract_y
_atom_site_fract_z
Si Si1 0.466829 0.749977 0.839406
Si Si2 0.188912 0.590981 0.438891
Si Si3 0.956497 0.076180 0.225074
Si Si4 0.535924 0.152191 0.534210
Si Si5 0.766832 0.866976 0.297804
Si Si6 0.210723 0.745043 0.120850
Si Si7 0.579479 0.479946 0.300926
O O1 0.358626 0.644935 0.557079
O O2 0.415214 0.625226 0.785525
O O3 0.348416 0.765391 0.982942
O O4 0.737128 0.964733 0.051707
O O5 0.350026 0.783234 0.580739
O O6 0.000000 0.500000 0.500000
O O7 0.049801 0.438767 0.121336
O O8 0.169778 0.301408 0.503578
O O9 0.867816 0.988866 0.293840
O O10 0.000000 0.000000 0.000000
O O11 0.416389 0.179670 0.628162
O O12 0.736546 0.263023 0.746486
O O13 0.329259 0.935155 0.338925
O O14 0.606155 0.661675 0.980374
O O15 0.000000 0.000000 0.500000
O O16 0.500000 0.500000 0.500000
#
# Coordination Sequence:
#
# PCOD9026185 Si02
#       7
#     2   2   2   2   2   2   2
#     4  10  22  41  63 100 127 170 229 269 331 401
#     4  10  24  40  65  98 132 169 227 275 330 399
#     4  11  22  42  67  91 133 178 223 273 334 406
#     4  11  23  43  67  94 139 176 217 277 338 396
#     4  11  26  44  66 106 136 170 228 281 334 400
#     4  10  22  44  65  95 132 177 221 269 341 394
#     4  11  22  41  68  91 132 184 221 270 337 396
#
# _framework density 21.073905
#
# number of rings (size 3 to 8) (size 9 to 14) (size 15 to 20)
#    0.000    1.429    5.714    0.429    2.000    8.571 
#    0.000    0.000    0.000    0.000    0.000    0.000 
#    0.000    0.000    0.000    0.000    0.000    0.000 
#
# Total GULP energy -77992.677224 kJ/mol
# GULP energy per Si atom -5570.905516 kJ/mol
# Density = 2.102594 g / cm^3
# Si number density = 21.073905 Si / 1000 Ang^3
#
#
#
# Elastic Constant Matrix: (Units=GPa)
#
#
# Indices 1 2 3 4 5 6 
#
# 1 68.1979 16.7106 52.4769 -4.6096 21.2424 -0.3359
# 2 16.7106 102.7086 24.6692 9.9364 15.5913 -3.0161
# 3 52.4769 24.6692 141.5559 24.9700 33.0928 -10.4678
# 4 -4.6096 9.9364 24.9700 36.2285 4.6585 1.8674
# 5 21.2424 15.5913 33.0928 4.6585 46.1434 -10.5444
# 6 -0.3359 -3.0161 -10.4678 1.8674 -10.5444 21.5814
#
#
#
# Elastic Compliance Matrix: (Units=1/GPa)
#
#
# Indices 1 2 3 4 5 6 
#
# 1 0.026557 -0.002157 -0.010742 0.012821 -0.007324 -0.009786
# 2 -0.002157 0.010723 0.000017 -0.002980 -0.002191 0.000661
# 3 -0.010742 0.000017 0.014069 -0.011064 -0.002581 0.006355
# 4 0.012821 -0.002980 -0.011064 0.038639 -0.003266 -0.010522
# 5 -0.007324 -0.002191 -0.002581 -0.003266 0.031121 0.013816
# 6 -0.009786 0.000661 0.006355 -0.010522 0.013816 0.057020
#
#
# Mechanical properties :
#
#
# Convention : Reuss Voigt Hill
#
# Bulk Modulus (GPa) = 39.08389 55.57509 47.32949
# Shear Modulus (GPa) = 23.53813 35.36435 29.45124
#
# Velocity S-wave (km/s) = 3.34568 4.10092 3.74240
# Velocity P-wave (km/s) = 5.78888 6.98943 6.41729
#
# Compressibility (1/GPa) = 0.02558599
#
# Stress axis : x y z
#
# Youngs Moduli (GPa) = 37.65444 93.25510 71.07976
#
# Poissons Ratio (x) = 0.20112 0.76357
# Poissons Ratio (y) = 0.08121 -0.00124
# Poissons Ratio (z) = 0.40450 -0.00163
#
# Static dielectric constant tensor:
#      x y z
#    x 1.788980 0.008140 0.049440 
#    y 0.008140 2.133610 0.218950 
#    z 0.049440 0.218950 1.968640 
# 
# From -- ./inp_files/278375.got.cif
#   From: 2010.05.17/outbox.cif.g08.bks.cpg/sg2_140_cif.got.tgz:278375.got - 2010.06.03 11:33:40.
