data_PCOD9026114
_publ_section_title
;
Structure prediction by ZEFSAII (Michael W. Deem and Ramdas Pophale) SiO2 
 PCOD9026114
Probable space group: P -1
;
_chemical_formula_sum "Si O2"
_cell_formula_units_Z 16
_cell_length_a 11.346305
_cell_length_b 6.898783
_cell_length_c 13.444921
_cell_angle_alpha 128.424504
_cell_angle_beta 78.297219
_cell_angle_gamma 118.996500
_cell_volume 713.658240
_symmetry_space_group_name_H-M "P -1"
_symmetry_group_IT_number 2
_symmetry_cell_setting 'triclinic'
loop_
_space_group_symop_operation_xyz
x,y,z
-x,-y,-z
loop_
_atom_site_type_symbol
_atom_site_label
_atom_site_fract_x
_atom_site_fract_y
_atom_site_fract_z
Si Si1 0.151398 0.024557 0.896122
Si Si2 0.238581 0.732473 0.635310
Si Si3 0.453529 0.106154 0.353695
Si Si4 0.973000 0.597126 0.282850
Si Si5 0.403016 0.497878 0.103506
Si Si6 0.339660 0.288861 0.251165
Si Si7 0.764628 0.247834 0.580076
Si Si8 0.954326 0.191416 0.869259
O O1 0.241941 0.987060 0.780934
O O2 0.030117 0.061414 0.880740
O O3 0.085028 0.714234 0.853817
O O4 0.248987 0.276804 0.028975
O O5 0.136531 0.458446 0.628452
O O6 0.190801 0.759392 0.542379
O O7 0.613318 0.243800 0.389755
O O8 0.415188 0.801877 0.215449
O O9 0.364000 0.030618 0.445314
O O10 0.414482 0.272456 0.332239
O O11 0.996573 0.797191 0.250141
O O12 0.113898 0.679627 0.340680
O O13 0.431672 0.386279 0.167382
O O14 0.500000 0.500000 0.000000
O O15 0.280129 0.508539 0.337255
O O16 0.208139 0.990189 0.161680
O O17 0.000000 0.500000 0.000000
#
# Coordination Sequence:
#
# PCOD9026114 Si02
#       8
#     2   2   2   2   2   2   2   2
#     4  10  23  40  62  93 125 160 207 254 312 369
#     4  10  23  44  63  89 127 166 209 262 302 367
#     4  11  23  42  64  94 125 162 214 250 314 373
#     4  10  22  41  62  91 125 159 210 255 308 363
#     4  11  22  41  63  90 126 164 195 257 317 369
#     4  11  24  38  64  92 123 162 208 255 308 372
#     4  11  22  44  65  87 126 168 211 258 307 359
#     4  12  23  38  64  96 126 163 205 254 315 373
#
# _framework density 22.419695000000001
#
# number of rings (size 3 to 8) (size 9 to 14) (size 15 to 20)
#    0.750    0.500    3.750    2.250    1.750    3.000 
#    2.250    1.250    0.000    0.000    0.000    0.000 
#    0.000    0.000    0.000    0.000    0.000    0.000 
#
# Total GULP energy -89432.785934 kJ/mol
# GULP energy per Si atom -5589.549121 kJ/mol
# Density = 2.236867 g / cm^3
# Si number density = 22.419695 Si / 1000 Ang^3
#
#
#
# Elastic Constant Matrix: (Units=GPa)
#
#
# Indices 1 2 3 4 5 6 
#
# 1 61.6218 2.2298 -8.7098 1.3357 5.9079 19.2324
# 2 2.2298 70.3960 19.9434 -23.6008 -8.9590 11.8041
# 3 -8.7098 19.9434 74.7512 -22.2451 -6.0436 5.3250
# 4 1.3357 -23.6008 -22.2451 39.0458 3.5026 -6.1574
# 5 5.9079 -8.9590 -6.0436 3.5026 21.7854 -10.8164
# 6 19.2324 11.8041 5.3250 -6.1574 -10.8164 28.0632
#
#
#
# Elastic Compliance Matrix: (Units=1/GPa)
#
#
# Indices 1 2 3 4 5 6 
#
# 1 0.027003 -0.000329 0.002996 -0.001898 -0.019700 -0.026945
# 2 -0.000329 0.019066 -0.001664 0.009625 0.004027 -0.003814
# 3 0.002996 -0.001664 0.016781 0.007996 0.000607 -0.002549
# 4 -0.001898 0.009625 0.007996 0.036545 0.003313 0.005030
# 5 -0.019700 0.004027 0.000607 0.003313 0.072595 0.040399
# 6 -0.026945 -0.003814 -0.002549 0.005030 0.040399 0.072862
#
#
# Mechanical properties :
#
#
# Convention : Reuss Voigt Hill
#
# Bulk Modulus (GPa) = 15.41871 25.96619 20.69245
# Shear Modulus (GPa) = 18.90615 30.66592 24.78603
#
# Velocity S-wave (km/s) = 2.90708 3.70241 3.32858
# Velocity P-wave (km/s) = 4.26150 5.46663 4.90125
#
# Compressibility (1/GPa) = 0.06485626
#
# Stress axis : x y z
#
# Youngs Moduli (GPa) = 37.03302 52.44926 59.59189
#
# Poissons Ratio (x) = 0.01727 -0.17854
# Poissons Ratio (y) = 0.01220 0.09913
# Poissons Ratio (z) = -0.11096 0.08725
#
# Static dielectric constant tensor:
#      x y z
#    x 1.782570 0.034420 -0.028570 
#    y 0.034420 1.829010 -0.014600 
#    z -0.028570 -0.014600 1.874970 
# 
# From -- ./inp_files/411059.got.cif
#   From: 2010.05.17/outbox.cif.g08.bks.cpg/sg2_206_cif.got.tgz:411059.got - 2010.06.03 11:33:40.
