data_PCOD9026700
_publ_section_title
;
Structure prediction by ZEFSAII (Michael W. Deem and Ramdas Pophale) SiO2 
 PCOD9026700
Probable space group: P -1
;
_chemical_formula_sum "Si O2"
_cell_formula_units_Z 12
_cell_length_a 9.760097
_cell_length_b 8.888579
_cell_length_c 7.469374
_cell_angle_alpha 65.999218
_cell_angle_beta 118.114445
_cell_angle_gamma 116.155476
_cell_volume 496.535794
_symmetry_space_group_name_H-M "P -1"
_symmetry_group_IT_number 2
_symmetry_cell_setting 'triclinic'
loop_
_space_group_symop_operation_xyz
x,y,z
-x,-y,-z
loop_
_atom_site_type_symbol
_atom_site_label
_atom_site_fract_x
_atom_site_fract_y
_atom_site_fract_z
Si Si1 0.812856 0.914122 0.531730
Si Si2 0.848688 0.136070 0.792047
Si Si3 0.518763 0.478021 0.740295
Si Si4 0.103945 0.372109 0.089843
Si Si5 0.650330 0.919342 0.090814
Si Si6 0.541821 0.201744 0.479789
O O1 0.873208 0.056925 0.654597
O O2 0.886285 0.757515 0.679836
O O3 0.799156 0.984815 0.293039
O O4 0.619553 0.827821 0.488722
O O5 0.985603 0.754759 0.064643
O O6 0.724894 0.250020 0.643002
O O7 0.738537 0.983349 0.926092
O O8 0.500000 0.500000 0.500000
O O9 0.709155 0.518144 0.881963
O O10 0.419825 0.287375 0.836938
O O11 0.461170 0.632642 0.717303
O O12 0.000000 0.500000 0.000000
O O13 0.500000 0.000000 0.000000
O O14 0.500000 0.000000 0.500000
#
# Coordination Sequence:
#
# PCOD9026700 Si02
#       6
#     2   2   2   2   2   2
#     4  10  22  41  65  92 136 168 215 267 331 385
#     4  11  23  40  69  98 127 171 222 269 329 389
#     4  11  20  40  65  93 130 174 215 267 326 389
#     4  11  22  39  67  95 131 176 215 267 337 389
#     4  12  22  39  72  99 128 171 228 269 323 393
#     4   9  18  37  64  88 126 171 209 261 325 378
#
# _framework density 24.167439999999999
#
# number of rings (size 3 to 8) (size 9 to 14) (size 15 to 20)
#    0.000    1.333    5.000    2.500    0.000    0.667 
#    0.000    7.500    3.667    5.000    0.000    0.000 
#    0.000    0.000    0.000    0.000    0.000    0.000 
#
# Total GULP energy -66945.827951 kJ/mol
# GULP energy per Si atom -5578.818996 kJ/mol
# Density = 2.411243 g / cm^3
# Si number density = 24.167440 Si / 1000 Ang^3
#
#
#
# Elastic Constant Matrix: (Units=GPa)
#
#
# Indices 1 2 3 4 5 6 
#
# 1 98.0389 46.5631 47.0813 -10.1845 17.4529 13.5867
# 2 46.5631 142.6860 60.1824 -9.4345 0.9378 8.9472
# 3 47.0813 60.1824 149.3013 0.8990 23.0811 -19.5623
# 4 -10.1845 -9.4345 0.8990 55.6101 -7.3428 13.1431
# 5 17.4529 0.9378 23.0811 -7.3428 39.6080 -7.6060
# 6 13.5867 8.9472 -19.5623 13.1431 -7.6060 31.0102
#
#
#
# Elastic Compliance Matrix: (Units=1/GPa)
#
#
# Indices 1 2 3 4 5 6 
#
# 1 0.017626 -0.001984 -0.005769 0.005646 -0.006132 -0.014686
# 2 -0.001984 0.010172 -0.004675 0.003150 0.002857 -0.005649
# 3 -0.005769 -0.004675 0.012701 -0.005670 -0.003206 0.013506
# 4 0.005646 0.003150 -0.005670 0.023820 0.001976 -0.016571
# 5 -0.006132 0.002857 -0.003206 0.001976 0.031404 0.006705
# 6 -0.014686 -0.005649 0.013506 -0.016571 0.006705 0.057499
#
#
# Mechanical properties :
#
#
# Convention : Reuss Voigt Hill
#
# Bulk Modulus (GPa) = 63.92987 77.51998 70.72493
# Shear Modulus (GPa) = 27.27880 40.99229 34.13555
#
# Velocity S-wave (km/s) = 3.36332 4.12294 3.76235
# Velocity P-wave (km/s) = 6.44925 7.40342 6.94275
#
# Compressibility (1/GPa) = 0.01564214
#
# Stress axis : x y z
#
# Youngs Moduli (GPa) = 56.73362 98.31305 78.73408
#
# Poissons Ratio (x) = 0.19508 0.45420
# Poissons Ratio (y) = 0.11258 0.36810
# Poissons Ratio (z) = 0.32729 0.45963
#
# Static dielectric constant tensor:
#      x y z
#    x 1.764640 -0.197970 0.084550 
#    y -0.197970 1.995350 0.101680 
#    z 0.084550 0.101680 1.984260 
# 
# From -- ./inp_files/237292.got.cif
#   From: 2010.05.17/outbox.cif.g08.bks.cpg/sg2_119_cif.got.tgz:237292.got - 2010.06.03 11:33:40.
