data_PCOD9026142
_publ_section_title
;
Structure prediction by ZEFSAII (Michael W. Deem and Ramdas Pophale) SiO2 
 PCOD9026142
Probable space group: P -1
;
_chemical_formula_sum "Si O2"
_cell_formula_units_Z 13
_cell_length_a 7.100084
_cell_length_b 11.805307
_cell_length_c 7.715983
_cell_angle_alpha 72.589736
_cell_angle_beta 122.488345
_cell_angle_gamma 86.947492
_cell_volume 501.805243
_symmetry_space_group_name_H-M "P -1"
_symmetry_group_IT_number 2
_symmetry_cell_setting 'triclinic'
loop_
_space_group_symop_operation_xyz
x,y,z
-x,-y,-z
loop_
_atom_site_type_symbol
_atom_site_label
_atom_site_fract_x
_atom_site_fract_y
_atom_site_fract_z
Si Si1 0.244170 0.903071 0.350224
Si Si2 0.472219 0.205648 0.153905
Si Si3 0.500000 0.500000 0.500000
Si Si4 0.853222 0.586161 0.613167
Si Si5 0.716132 0.369257 0.005969
Si Si6 0.009927 0.684825 0.291111
Si Si7 0.214543 0.895723 0.947341
O O1 0.130918 0.788370 0.349637
O O2 0.457700 0.867083 0.601702
O O3 0.283399 0.929190 0.157007
O O4 0.033517 0.014704 0.262855
O O5 0.586533 0.320215 0.122752
O O6 0.589975 0.114298 0.096665
O O7 0.203721 0.260667 0.964269
O O8 0.592218 0.633286 0.520661
O O9 0.544334 0.461125 0.753592
O O10 0.904998 0.640317 0.433093
O O11 0.067697 0.585191 0.840138
O O12 0.824340 0.443305 0.644996
O O13 0.812510 0.242906 0.004447
#
# Coordination Sequence:
#
# PCOD9026142 Si02
#       7
#     2   2   1   2   2   2   2
#     4  11  21  43  68  90 132 168 213 273 312 373
#     4  10  22  42  63  95 128 170 211 260 322 377
#     4  12  22  40  62  92 130 162 214 268 310 388
#     4  11  23  39  62  91 131 171 211 265 321 381
#     4  10  22  41  62  94 128 168 212 257 323 376
#     4  11  23  38  62  96 127 169 220 257 318 389
#     4   9  22  42  66  95 125 171 216 263 320 378
#
# _framework density 25.906466999999999
#
# number of rings (size 3 to 8) (size 9 to 14) (size 15 to 20)
#    0.923    0.615    3.077    1.846    0.000    3.692 
#    0.000    7.692    0.000    0.000    0.000    0.000 
#    0.000    0.000    0.000    0.000    0.000    0.000 
#
# Total GULP energy -72641.725068 kJ/mol
# GULP energy per Si atom -5587.825005 kJ/mol
# Density = 2.584750 g / cm^3
# Si number density = 25.906467 Si / 1000 Ang^3
#
#
#
# Elastic Constant Matrix: (Units=GPa)
#
#
# Indices 1 2 3 4 5 6 
#
# 1 89.3709 22.7373 34.8725 0.5150 7.3386 -2.9683
# 2 22.7373 87.6189 31.1959 -15.1861 18.7856 -10.2305
# 3 34.8725 31.1959 244.7810 -5.1088 21.2432 -9.8648
# 4 0.5150 -15.1861 -5.1088 30.2797 6.6425 10.2676
# 5 7.3386 18.7856 21.2432 6.6425 44.5920 -1.9588
# 6 -2.9683 -10.2305 -9.8648 10.2676 -1.9588 34.2447
#
#
#
# Elastic Compliance Matrix: (Units=1/GPa)
#
#
# Indices 1 2 3 4 5 6 
#
# 1 0.012556 -0.003149 -0.001443 -0.002245 0.000301 0.000422
# 2 -0.003149 0.015673 -0.000706 0.008959 -0.007033 0.001117
# 3 -0.001443 -0.000706 0.004569 0.000572 -0.001695 0.000712
# 4 -0.002245 0.008959 0.000572 0.043755 -0.010681 -0.011083
# 5 0.000301 -0.007033 -0.001695 -0.010681 0.027836 0.002231
# 6 0.000422 0.001117 0.000712 -0.011083 0.002231 0.033228
#
#
# Mechanical properties :
#
#
# Convention : Reuss Voigt Hill
#
# Bulk Modulus (GPa) = 45.04461 66.59802 55.82131
# Shear Modulus (GPa) = 32.13104 44.02096 38.07600
#
# Velocity S-wave (km/s) = 3.52557 4.12664 3.83789
# Velocity P-wave (km/s) = 5.83078 6.96193 6.42131
#
# Compressibility (1/GPa) = 0.02220021
#
# Stress axis : x y z
#
# Youngs Moduli (GPa) = 79.64385 63.80473 218.88172
#
# Poissons Ratio (x) = 0.20090 0.31594
# Poissons Ratio (y) = 0.25078 0.15463
# Poissons Ratio (z) = 0.11496 0.04507
#
# Static dielectric constant tensor:
#      x y z
#    x 2.090030 -0.032740 0.001370 
#    y -0.032740 2.105090 0.016290 
#    z 0.001370 0.016290 1.994270 
# 
# From -- ./inp_files/196413.got.cif
#   From: 2010.05.17/outbox.cif.g08.bks.cpg/sg2_99_cif.got.tgz:196413.got - 2010.06.03 11:33:40.
