data_PCOD9026326
_publ_section_title
;
Structure prediction by ZEFSAII (Michael W. Deem and Ramdas Pophale) SiO2 
 PCOD9026326
Probable space group: P -1
;
_chemical_formula_sum "Si O2"
_cell_formula_units_Z 14
_cell_length_a 13.130815
_cell_length_b 31.426922
_cell_length_c 16.320756
_cell_angle_alpha 18.004808
_cell_angle_beta 153.528504
_cell_angle_gamma 163.319183
_cell_volume 587.927831
_symmetry_space_group_name_H-M "P -1"
_symmetry_group_IT_number 2
_symmetry_cell_setting 'triclinic'
loop_
_space_group_symop_operation_xyz
x,y,z
-x,-y,-z
loop_
_atom_site_type_symbol
_atom_site_label
_atom_site_fract_x
_atom_site_fract_y
_atom_site_fract_z
Si Si1 0.677701 0.731429 0.719201
Si Si2 0.673386 0.239696 0.228053
Si Si3 0.667518 0.625906 0.585979
Si Si4 0.486799 0.130176 0.995374
Si Si5 0.694297 0.697950 0.219958
Si Si6 0.619384 0.000074 0.174261
Si Si7 0.043211 0.839932 0.622457
O O1 0.959122 0.836529 0.802894
O O2 0.895498 0.856874 0.561118
O O3 0.454262 0.769918 0.497288
O O4 0.500000 0.500000 0.000000
O O5 0.919963 0.221717 0.421828
O O6 0.372601 0.069932 0.391357
O O7 0.464074 0.222262 0.037020
O O8 0.000000 0.500000 0.000000
O O9 0.555102 0.727128 0.298119
O O10 0.391125 0.395514 0.763006
O O11 0.717642 0.649676 0.675972
O O12 0.537266 0.081120 0.033049
O O13 0.796937 0.223190 0.107522
O O14 0.105618 0.892140 0.184686
O O15 0.500000 0.500000 0.500000
O O16 0.500000 0.000000 0.000000
#
# Coordination Sequence:
#
# PCOD9026326 Si02
#       7
#     2   2   2   2   2   2   2
#     4  10  24  46  68 103 133 177 226 282 339 395
#     4  10  22  41  63  96 130 176 216 266 333 392
#     4  11  24  42  64  96 133 174 219 269 331 398
#     4  11  24  41  65  97 130 173 218 271 337 385
#     4  11  25  41  64  97 133 172 224 270 329 400
#     4  10  23  44  71  96 136 173 225 284 337 400
#     4  11  23  43  68  94 137 172 220 275 332 396
#
# _framework density 23.812446000000001
#
# number of rings (size 3 to 8) (size 9 to 14) (size 15 to 20)
#    0.000    1.429    1.429    3.000    2.000    5.143 
#   12.857    0.000    0.000    0.000    0.000    0.000 
#    0.000    0.000    0.000    0.000    0.000    0.000 
#
# Total GULP energy -78143.365469 kJ/mol
# GULP energy per Si atom -5581.668962 kJ/mol
# Density = 2.375825 g / cm^3
# Si number density = 23.812446 Si / 1000 Ang^3
#
#
#
# Elastic Constant Matrix: (Units=GPa)
#
#
# Indices 1 2 3 4 5 6 
#
# 1 68.3431 0.5359 33.9300 -1.9878 13.6149 -9.6484
# 2 0.5359 51.6425 24.7355 11.7226 -3.1231 -25.2818
# 3 33.9300 24.7355 138.4189 20.8890 25.0862 -8.5907
# 4 -1.9878 11.7226 20.8890 43.0281 -6.7610 -1.3677
# 5 13.6149 -3.1231 25.0862 -6.7610 45.5290 4.7570
# 6 -9.6484 -25.2818 -8.5907 -1.3677 4.7570 45.6334
#
#
#
# Elastic Compliance Matrix: (Units=1/GPa)
#
#
# Indices 1 2 3 4 5 6 
#
# 1 0.018342 0.004274 -0.004603 0.001626 -0.003014 0.005742
# 2 0.004274 0.031294 -0.004992 -0.005195 0.001068 0.017034
# 3 -0.004603 -0.004992 0.010957 -0.005096 -0.005630 -0.001242
# 4 0.001626 -0.005195 -0.005096 0.028119 0.006488 -0.003327
# 5 -0.003014 0.001068 -0.005630 0.006488 0.027398 -0.003767
# 6 0.005742 0.017034 -0.001242 -0.003327 -0.003767 0.032624
#
#
# Mechanical properties :
#
#
# Convention : Reuss Voigt Hill
#
# Bulk Modulus (GPa) = 20.01946 41.86750 30.94348
# Shear Modulus (GPa) = 28.40480 40.11831 34.26156
#
# Velocity S-wave (km/s) = 3.45752 4.10904 3.79728
# Velocity P-wave (km/s) = 4.93606 6.33503 5.67879
#
# Compressibility (1/GPa) = 0.04995140
#
# Stress axis : x y z
#
# Youngs Moduli (GPa) = 54.51939 31.95525 91.26425
#
# Poissons Ratio (x) = -0.13658 0.42006
# Poissons Ratio (y) = -0.23302 0.45561
# Poissons Ratio (z) = 0.25093 0.15953
#
# Static dielectric constant tensor:
#      x y z
#    x 2.011310 0.014340 0.043760 
#    y 0.014340 1.940160 -0.043770 
#    z 0.043760 -0.043770 1.970140 
# 
# From -- ./inp_files/524625.got.cif
#   From: 2010.05.17/outbox.cif.g08.bks.cpg/sg2_263_cif.got.tgz:524625.got - 2010.06.03 11:33:40.
