data_PCOD9026438
_publ_section_title
;
Structure prediction by ZEFSAII (Michael W. Deem and Ramdas Pophale) SiO2 
 PCOD9026438
Probable space group: P -1
;
_chemical_formula_sum "Si O2"
_cell_formula_units_Z 12
_cell_length_a 9.696965
_cell_length_b 9.284378
_cell_length_c 13.835861
_cell_angle_alpha 126.744663
_cell_angle_beta 32.661705
_cell_angle_gamma 119.883198
_cell_volume 538.636277
_symmetry_space_group_name_H-M "P -1"
_symmetry_group_IT_number 2
_symmetry_cell_setting 'triclinic'
loop_
_space_group_symop_operation_xyz
x,y,z
-x,-y,-z
loop_
_atom_site_type_symbol
_atom_site_label
_atom_site_fract_x
_atom_site_fract_y
_atom_site_fract_z
Si Si1 0.308632 0.059778 0.052106
Si Si2 0.915631 0.521491 0.449009
Si Si3 0.878065 0.984010 0.405214
Si Si4 0.739149 0.233358 0.764396
Si Si5 0.427993 0.698567 0.741803
Si Si6 0.534533 0.685524 0.446342
O O1 0.284898 0.878544 0.929147
O O2 0.457451 0.213506 0.968014
O O3 0.046543 0.094203 0.275040
O O4 0.500000 0.000000 0.000000
O O5 0.701457 0.682782 0.628917
O O6 0.743849 0.356047 0.448214
O O7 0.000000 0.500000 0.500000
O O8 0.143423 0.580405 0.267105
O O9 0.687964 0.862903 0.406061
O O10 0.065750 0.851649 0.304772
O O11 0.747084 0.108377 0.613504
O O12 0.496979 0.699984 0.589321
O O13 0.312084 0.499854 0.745737
#
# Coordination Sequence:
#
# PCOD9026438 Si02
#       6
#     2   2   2   2   2   2
#     4  10  19  27  54  88 102 131 173 217 269 299
#     4  10  19  32  54  76 103 146 176 205 261 314
#     4  10  17  31  56  80 106 132 167 227 262 295
#     4  10  17  32  51  77 111 131 172 218 255 311
#     4   9  16  32  52  79 104 128 176 215 257 305
#     4   9  17  32  54  77 107 133 172 220 258 299
#
# _framework density 22.278485
#
# number of rings (size 3 to 8) (size 9 to 14) (size 15 to 20)
#    1.000    1.333    3.333    2.000    0.000    0.667 
#    0.000    0.833    0.000   10.000    0.000    0.000 
#    0.000    0.000    0.000    0.000    0.000    0.000 
#
# Total GULP energy -66856.557016 kJ/mol
# GULP energy per Si atom -5571.379751 kJ/mol
# Density = 2.222778 g / cm^3
# Si number density = 22.278485 Si / 1000 Ang^3
#
#
#
# Elastic Constant Matrix: (Units=GPa)
#
#
# Indices 1 2 3 4 5 6 
#
# 1 96.5134 51.4115 32.1594 -11.2220 10.2188 5.4789
# 2 51.4115 104.2763 65.2699 -22.0433 -18.2062 37.7715
# 3 32.1594 65.2699 79.2145 -42.2664 17.6307 -1.4265
# 4 -11.2220 -22.0433 -42.2664 49.1324 5.4716 -5.4212
# 5 10.2188 -18.2062 17.6307 5.4716 6.0797 3.9730
# 6 5.4789 37.7715 -1.4265 -5.4212 3.9730 39.5851
#
#
#
# Elastic Compliance Matrix: (Units=1/GPa)
#
#
# Indices 1 2 3 4 5 6 
#
# 1 0.012656 -0.001051 -0.007715 -0.004853 0.003666 -0.002060
# 2 -0.001051 0.003413 0.007957 0.010565 -0.021080 0.000738
# 3 -0.007715 0.007957 0.005608 0.003160 0.023049 -0.008203
# 4 -0.004853 0.010565 0.003160 0.024400 0.013444 -0.007303
# 5 0.003666 -0.021080 0.023049 0.013444 0.001812 0.022097
# 6 -0.002060 0.000738 -0.008203 -0.007303 0.022097 0.021329
#
#
# Mechanical properties :
#
#
# Convention : Reuss Voigt Hill
#
# Bulk Modulus (GPa) = 49.84975 64.18730 57.01852
# Shear Modulus (GPa) = 64.49838 27.70368 46.10103
#
# Velocity S-wave (km/s) = 5.38645 3.53018 4.55390
# Velocity P-wave (km/s) = 7.81725 6.74464 7.30067
#
# Compressibility (1/GPa) = 0.02006028
#
# Stress axis : x y z
#
# Youngs Moduli (GPa) = 79.01331 293.02134 178.31943
#
# Poissons Ratio (x) = 0.30790 1.37567
# Poissons Ratio (y) = 0.08302 -1.41892
# Poissons Ratio (z) = 0.60956 -2.33162
#
# Static dielectric constant tensor:
#      x y z
#    x 1.799070 -0.000050 -0.035250 
#    y -0.000050 1.938890 -0.007690 
#    z -0.035250 -0.007690 1.842350 
# 
# From -- ./inp_files/376485.got.cif
#   From: 2010.05.17/outbox.cif.g08.bks.cpg/sg2_189_cif.got.tgz:376485.got - 2010.06.03 11:33:40.
