data_PCOD9026475
_publ_section_title
;
Structure prediction by ZEFSAII (Michael W. Deem and Ramdas Pophale) SiO2 
 PCOD9026475
Probable space group: P -1
;
_chemical_formula_sum "Si O2"
_cell_formula_units_Z 10
_cell_length_a 7.648993
_cell_length_b 14.304285
_cell_length_c 10.836756
_cell_angle_alpha 27.077321
_cell_angle_beta 58.630608
_cell_angle_gamma 47.829551
_cell_volume 389.396322
_symmetry_space_group_name_H-M "P -1"
_symmetry_group_IT_number 2
_symmetry_cell_setting 'triclinic'
loop_
_space_group_symop_operation_xyz
x,y,z
-x,-y,-z
loop_
_atom_site_type_symbol
_atom_site_label
_atom_site_fract_x
_atom_site_fract_y
_atom_site_fract_z
Si Si1 0.407102 0.522456 0.688792
Si Si2 0.503822 0.056283 0.075883
Si Si3 0.063676 0.066477 0.205842
Si Si4 0.513556 0.234480 0.240147
Si Si5 0.220113 0.422466 0.376872
O O1 0.634033 0.548045 0.600512
O O2 0.181946 0.794739 0.426732
O O3 0.459563 0.316574 0.814259
O O4 0.395221 0.408964 0.958503
O O5 0.284739 0.038535 0.239700
O O6 0.752250 0.834137 0.304793
O O7 0.500000 0.000000 0.000000
O O8 0.797780 0.141145 0.258613
O O9 0.009520 0.307847 0.868041
O O10 0.357769 0.372846 0.254214
O O11 0.500000 0.000000 0.500000
#
# Coordination Sequence:
#
# PCOD9026475 Si02
#       5
#     2   2   2   2   2
#     4  10  22  41  64  93 125 162 207 256 310 366
#     4  11  25  44  64  90 125 167 214 257 303 365
#     4  10  24  40  65  96 125 162 209 252 314 369
#     4  11  22  41  66  94 132 160 199 258 314 375
#     4  10  23  43  62  95 129 160 207 255 308 377
#
# _framework density 25.680778
#
# number of rings (size 3 to 8) (size 9 to 14) (size 15 to 20)
#    0.000    1.600    2.000    2.400    2.800   12.000 
#    0.000    5.000    0.000    0.000    0.000    0.000 
#    0.000    0.000    0.000    0.000    0.000    0.000 
#
# Total GULP energy -55798.981315 kJ/mol
# GULP energy per Si atom -5579.898132 kJ/mol
# Density = 2.562233 g / cm^3
# Si number density = 25.680778 Si / 1000 Ang^3
#
#
#
# Elastic Constant Matrix: (Units=GPa)
#
#
# Indices 1 2 3 4 5 6 
#
# 1 75.0813 39.6261 31.2678 -19.8098 -18.5265 10.4252
# 2 39.6261 135.0673 51.7102 -25.9246 5.3041 13.7001
# 3 31.2678 51.7102 262.1242 -58.2170 -6.8668 17.4310
# 4 -19.8098 -25.9246 -58.2170 45.4452 9.5560 -3.7693
# 5 -18.5265 5.3041 -6.8668 9.5560 53.6458 -7.6615
# 6 10.4252 13.7001 17.4310 -3.7693 -7.6615 46.9368
#
#
#
# Elastic Compliance Matrix: (Units=1/GPa)
#
#
# Indices 1 2 3 4 5 6 
#
# 1 0.018567 -0.004745 -0.000194 0.003765 0.005988 -0.001387
# 2 -0.004745 0.010035 -0.000606 0.003476 -0.003608 -0.001960
# 3 -0.000194 -0.000606 0.005512 0.006659 -0.000688 -0.001405
# 4 0.003765 0.003476 0.006659 0.034968 -0.004747 -0.002291
# 5 0.005988 -0.003608 -0.000688 -0.004747 0.022285 0.003235
# 6 -0.001387 -0.001960 -0.001405 -0.002291 0.003235 0.023051
#
#
# Mechanical properties :
#
#
# Convention : Reuss Voigt Hill
#
# Bulk Modulus (GPa) = 43.42903 79.72011 61.57457
# Shear Modulus (GPa) = 37.54245 52.51680 45.02962
#
# Velocity S-wave (km/s) = 3.82761 4.52706 4.19195
# Velocity P-wave (km/s) = 6.04003 7.64433 6.88904
#
# Compressibility (1/GPa) = 0.02302607
#
# Stress axis : x y z
#
# Youngs Moduli (GPa) = 53.85839 99.64655 181.42313
#
# Poissons Ratio (x) = 0.47282 0.03511
# Poissons Ratio (y) = 0.25556 0.10990
# Poissons Ratio (z) = 0.01042 0.06036
#
# Static dielectric constant tensor:
#      x y z
#    x 2.013590 -0.033070 0.026950 
#    y -0.033070 2.085220 0.054630 
#    z 0.026950 0.054630 2.174280 
# 
# From -- ./inp_files/34869.got.cif
#   From: 2010.05.17/outbox.cif.g08.bks.cpg/sg2_18_cif.got.tgz:34869.got - 2010.06.03 11:33:40.
