data_PCOD9026958
_publ_section_title
;
Structure prediction by ZEFSAII (Michael W. Deem and Ramdas Pophale) SiO2 
 PCOD9026958
Probable space group: P -1
;
_chemical_formula_sum "Si O2"
_cell_formula_units_Z 16
_cell_length_a 9.964569
_cell_length_b 9.626362
_cell_length_c 9.463125
_cell_angle_alpha 105.785216
_cell_angle_beta 128.028649
_cell_angle_gamma 65.813778
_cell_volume 652.010345
_symmetry_space_group_name_H-M "P -1"
_symmetry_group_IT_number 2
_symmetry_cell_setting 'triclinic'
loop_
_space_group_symop_operation_xyz
x,y,z
-x,-y,-z
loop_
_atom_site_type_symbol
_atom_site_label
_atom_site_fract_x
_atom_site_fract_y
_atom_site_fract_z
Si Si1 0.390320 0.147089 0.872536
Si Si2 0.576957 0.150694 0.712902
Si Si3 0.670442 0.269968 0.223082
Si Si4 0.182476 0.165503 0.162524
Si Si5 0.679189 0.287321 0.556544
Si Si6 0.076923 0.070352 0.767722
Si Si7 0.798372 0.345027 0.066785
Si Si8 0.784024 0.544915 0.859438
O O1 0.427085 0.140911 0.726662
O O2 0.184829 0.167265 0.780544
O O3 0.496004 0.254745 0.029305
O O4 0.500000 0.000000 0.000000
O O5 0.550553 0.243547 0.575049
O O6 0.687135 0.974424 0.707126
O O7 0.702503 0.230039 0.904105
O O8 0.624803 0.314975 0.366491
O O9 0.739667 0.379741 0.199484
O O10 0.828293 0.104267 0.266460
O O11 0.271119 0.282172 0.180877
O O12 0.011046 0.260612 0.167213
O O13 0.114886 0.090826 0.963008
O O14 0.728580 0.433129 0.685287
O O15 0.864956 0.144651 0.633540
O O16 0.742621 0.488537 0.968700
O O17 0.000000 0.500000 0.000000
#
# Coordination Sequence:
#
# PCOD9026958 Si02
#       8
#     2   2   2   2   2   2   2   2
#     4   9  18  33  53  82 107 141 176 220 272 320
#     4  10  17  31  57  79 102 142 183 219 258 327
#     4  10  20  33  54  81 113 136 173 231 276 306
#     4  11  16  29  56  81 103 136 189 219 255 312
#     4  11  21  34  57  83 110 136 182 228 268 307
#     4  11  18  32  57  84 106 138 179 226 267 316
#     4   9  16  30  52  78 103 139 181 216 263 317
#     4   9  18  31  51  81 106 142 179 222 258 325
#
# _framework density 24.539487000000001
#
# number of rings (size 3 to 8) (size 9 to 14) (size 15 to 20)
#    0.000    2.000    7.500    1.500    0.000    0.000 
#    0.000    5.000    5.500    7.500    0.000    0.000 
#    0.000    0.000    0.000    0.000    0.000    0.000 
#
# Total GULP energy -89441.292675 kJ/mol
# GULP energy per Si atom -5590.080792 kJ/mol
# Density = 2.448363 g / cm^3
# Si number density = 24.539487 Si / 1000 Ang^3
#
#
#
# Elastic Constant Matrix: (Units=GPa)
#
#
# Indices 1 2 3 4 5 6 
#
# 1 110.6014 16.6584 40.8775 -11.9779 -39.8666 15.4939
# 2 16.6584 96.0775 27.7897 -16.5159 -13.0205 5.5290
# 3 40.8775 27.7897 140.3871 -6.0490 -45.3120 14.3371
# 4 -11.9779 -16.5159 -6.0490 22.5762 3.9424 -12.0845
# 5 -39.8666 -13.0205 -45.3120 3.9424 44.3078 -13.7846
# 6 15.4939 5.5290 14.3371 -12.0845 -13.7846 37.1288
#
#
#
# Elastic Compliance Matrix: (Units=1/GPa)
#
#
# Indices 1 2 3 4 5 6 
#
# 1 0.013991 0.000180 0.000077 0.005714 0.012387 0.000564
# 2 0.000180 0.012734 -0.001751 0.010050 0.002073 0.002745
# 3 0.000077 -0.001751 0.010898 -0.000233 0.010694 -0.000085
# 4 0.005714 0.010050 -0.000233 0.063927 0.008436 0.020148
# 5 0.012387 0.002073 0.010694 0.008436 0.047909 0.010925
# 6 0.000564 0.002745 -0.000085 0.020148 0.010925 0.036936
#
#
# Mechanical properties :
#
#
# Convention : Reuss Voigt Hill
#
# Bulk Modulus (GPa) = 28.87253 57.52416 43.19835
# Shear Modulus (GPa) = 24.88475 38.25191 31.56833
#
# Velocity S-wave (km/s) = 3.18790 3.95243 3.59057
# Velocity P-wave (km/s) = 5.03404 6.65743 5.90182
#
# Compressibility (1/GPa) = 0.03463499
#
# Stress axis : x y z
#
# Youngs Moduli (GPa) = 71.47646 78.52915 91.76389
#
# Poissons Ratio (x) = -0.01417 -0.00710
# Poissons Ratio (y) = -0.01290 0.16072
# Poissons Ratio (z) = -0.00553 0.13754
#
# Static dielectric constant tensor:
#      x y z
#    x 2.046990 0.009730 -0.026380 
#    y 0.009730 1.978390 -0.011570 
#    z -0.026380 -0.011570 1.981540 
# 
# From -- ./inp_files/243615.got.cif
#   From: 2010.05.17/outbox.cif.g08.bks.cpg/sg2_122_cif.got.tgz:243615.got - 2010.06.03 11:33:40.
