data_PCOD9026915
_publ_section_title
;
Structure prediction by ZEFSAII (Michael W. Deem and Ramdas Pophale) SiO2 
 PCOD9026915
Probable space group: P -1
;
_chemical_formula_sum "Si O2"
_cell_formula_units_Z 13
_cell_length_a 15.205461
_cell_length_b 5.243439
_cell_length_c 8.524143
_cell_angle_alpha 81.491786
_cell_angle_beta 129.333051
_cell_angle_gamma 103.754252
_cell_volume 510.592075
_symmetry_space_group_name_H-M "P -1"
_symmetry_group_IT_number 2
_symmetry_cell_setting 'triclinic'
loop_
_space_group_symop_operation_xyz
x,y,z
-x,-y,-z
loop_
_atom_site_type_symbol
_atom_site_label
_atom_site_fract_x
_atom_site_fract_y
_atom_site_fract_z
Si Si1 0.500000 0.000000 0.500000
Si Si2 0.238853 0.281254 0.877489
Si Si3 0.875444 0.558728 0.579663
Si Si4 0.514219 0.459366 0.749540
Si Si5 0.674563 0.232654 0.525553
Si Si6 0.986634 0.911310 0.173677
Si Si7 0.374709 0.063713 0.817132
O O1 0.498764 0.772072 0.368225
O O2 0.348058 0.953872 0.335247
O O3 0.179392 0.417046 0.655764
O O4 0.143887 0.183426 0.908090
O O5 0.289055 0.051697 0.864531
O O6 0.355708 0.463431 0.055325
O O7 0.774905 0.482585 0.607255
O O8 0.948027 0.328919 0.697488
O O9 0.953268 0.837620 0.681098
O O10 0.462296 0.718443 0.615401
O O11 0.418903 0.364158 0.785240
O O12 0.683433 0.094083 0.382972
O O13 0.000000 0.000000 0.000000
O O14 0.500000 0.000000 0.000000
#
# Coordination Sequence:
#
# PCOD9026915 Si02
#       7
#     1   2   2   2   2   2   2
#     4   8  20  42  58 104 152 186 236 294 390 448
#     4  12  24  48  75 111 151 196 259 312 378 454
#     4  12  26  51  79 107 153 199 259 318 374 454
#     4  10  22  41  66 109 147 189 244 301 386 441
#     4  10  22  41  69 102 150 189 244 299 376 451
#     4  12  31  53  77 110 148 204 262 316 384 449
#     4  12  21  39  70 110 146 196 244 309 374 459
#
# _framework density 25.460637999999999
#
# number of rings (size 3 to 8) (size 9 to 14) (size 15 to 20)
#    0.923    0.000    3.077    3.692    2.154    3.077 
#    2.769    0.000    0.000    0.000    0.000    0.000 
#    0.000    0.000    0.000    0.000    0.000    0.000 
#
# Total GULP energy -72598.471116 kJ/mol
# GULP energy per Si atom -5584.497778 kJ/mol
# Density = 2.540269 g / cm^3
# Si number density = 25.460638 Si / 1000 Ang^3
#
#
#
# Elastic Constant Matrix: (Units=GPa)
#
#
# Indices 1 2 3 4 5 6 
#
# 1 193.5498 37.3554 45.2672 -4.6400 16.7101 11.6580
# 2 37.3554 148.0287 53.4289 -3.8294 10.3293 -16.6219
# 3 45.2672 53.4289 101.5822 -6.7235 20.7429 -12.6029
# 4 -4.6400 -3.8294 -6.7235 48.9008 -4.3750 5.7681
# 5 16.7101 10.3293 20.7429 -4.3750 40.8639 2.5539
# 6 11.6580 -16.6219 -12.6029 5.7681 2.5539 47.3994
#
#
#
# Elastic Compliance Matrix: (Units=1/GPa)
#
#
# Indices 1 2 3 4 5 6 
#
# 1 0.006124 -0.000899 -0.002352 0.000397 -0.000887 -0.002447
# 2 -0.000899 0.008626 -0.003870 -0.000207 -0.000011 0.002243
# 3 -0.002352 -0.003870 0.014515 0.000580 -0.005573 0.003310
# 4 0.000397 -0.000207 0.000580 0.021048 0.002017 -0.002686
# 5 -0.000887 -0.000011 -0.005573 0.002017 0.028071 -0.003025
# 6 -0.002447 0.002243 0.003310 -0.002686 -0.003025 0.023856
#
#
# Mechanical properties :
#
#
# Convention : Reuss Voigt Hill
#
# Bulk Modulus (GPa) = 66.56430 79.47374 73.01902
# Shear Modulus (GPa) = 41.15590 47.90679 44.53134
#
# Velocity S-wave (km/s) = 4.02487 4.34245 4.18667
# Velocity P-wave (km/s) = 6.91377 7.51163 7.21889
#
# Compressibility (1/GPa) = 0.01502307
#
# Stress axis : x y z
#
# Youngs Moduli (GPa) = 163.29739 115.92446 68.89492
#
# Poissons Ratio (x) = 0.10421 0.16206
# Poissons Ratio (y) = 0.14680 0.26661
# Poissons Ratio (z) = 0.38411 0.44860
#
# Static dielectric constant tensor:
#      x y z
#    x 2.013430 0.038630 -0.004540 
#    y 0.038630 2.211770 -0.160200 
#    z -0.004540 -0.160200 2.129350 
# 
# From -- ./inp_files/288968.got.cif
#   From: 2010.05.17/outbox.cif.g08.bks.cpg/sg2_145_cif.got.tgz:288968.got - 2010.06.03 11:33:40.
