data_PCOD9026270
_publ_section_title
;
Structure prediction by ZEFSAII (Michael W. Deem and Ramdas Pophale) SiO2 
 PCOD9026270
Probable space group: P -1
;
_chemical_formula_sum "Si O2"
_cell_formula_units_Z 16
_cell_length_a 8.914117
_cell_length_b 12.091267
_cell_length_c 15.183100
_cell_angle_alpha 136.981534
_cell_angle_beta 39.455785
_cell_angle_gamma 118.711608
_cell_volume 696.009653
_symmetry_space_group_name_H-M "P -1"
_symmetry_group_IT_number 2
_symmetry_cell_setting 'triclinic'
loop_
_space_group_symop_operation_xyz
x,y,z
-x,-y,-z
loop_
_atom_site_type_symbol
_atom_site_label
_atom_site_fract_x
_atom_site_fract_y
_atom_site_fract_z
Si Si1 0.663309 0.532211 0.525362
Si Si2 0.209537 0.636115 0.901703
Si Si3 0.895440 0.995513 0.289641
Si Si4 0.105265 0.667601 0.555829
Si Si5 0.523521 0.530113 0.157449
Si Si6 0.596193 0.950471 0.568263
Si Si7 0.442592 0.729077 0.135742
Si Si8 0.081351 0.361616 0.677845
O O1 0.500000 0.500000 0.500000
O O2 0.479265 0.631891 0.737978
O O3 0.787496 0.358498 0.410044
O O4 0.857754 0.621097 0.442646
O O5 0.258916 0.538597 0.915286
O O6 0.088369 0.531368 0.825126
O O7 0.056968 0.817522 0.092225
O O8 0.028190 0.147954 0.297214
O O9 0.656522 0.028748 0.355741
O O10 0.791418 0.994079 0.435021
O O11 0.325229 0.639333 0.371169
O O12 0.000000 0.500000 0.500000
O O13 0.555304 0.640731 0.122857
O O14 0.436080 0.371213 0.061810
O O15 0.710253 0.771080 0.448083
O O16 0.562960 0.079846 0.738860
O O17 0.170207 0.697380 0.235020
#
# Coordination Sequence:
#
# PCOD9026270 Si02
#       8
#     2   2   2   2   2   2   2   2
#     4   9  20  41  64  89 123 170 213 258 313 378
#     4  10  23  41  66  93 130 173 218 259 316 391
#     4  11  24  41  66  99 125 171 218 258 326 381
#     4  11  22  44  69  89 128 172 214 263 319 381
#     4  10  22  41  63  92 131 166 213 260 325 373
#     4  11  24  41  65  95 138 164 211 270 316 393
#     4  11  23  38  66  96 130 165 217 266 315 378
#     4  11  23  41  67  95 129 175 211 263 330 373
#
# _framework density 22.988185000000001
#
# number of rings (size 3 to 8) (size 9 to 14) (size 15 to 20)
#    0.000    1.500    1.250    4.125    5.250    1.000 
#    2.250    4.375    0.000    0.000    0.000    0.000 
#    0.000    0.000    0.000    0.000    0.000    0.000 
#
# Total GULP energy -89421.217600 kJ/mol
# GULP energy per Si atom -5588.826100 kJ/mol
# Density = 2.293586 g / cm^3
# Si number density = 22.988185 Si / 1000 Ang^3
#
#
#
# Elastic Constant Matrix: (Units=GPa)
#
#
# Indices 1 2 3 4 5 6 
#
# 1 75.7166 19.4462 16.0319 4.9118 -3.9390 -10.0114
# 2 19.4462 64.3402 17.0056 13.1855 -2.7477 -9.5093
# 3 16.0319 17.0056 104.6984 29.3492 -3.1837 -6.8942
# 4 4.9118 13.1855 29.3492 41.0418 -4.5357 5.6825
# 5 -3.9390 -2.7477 -3.1837 -4.5357 38.1033 5.2679
# 6 -10.0114 -9.5093 -6.8942 5.6825 5.2679 34.5039
#
#
#
# Elastic Compliance Matrix: (Units=1/GPa)
#
#
# Indices 1 2 3 4 5 6 
#
# 1 0.014879 -0.003677 -0.001520 0.000178 0.000773 0.002853
# 2 -0.003677 0.018736 -0.000483 -0.005987 -0.000482 0.005060
# 3 -0.001520 -0.000483 0.012690 -0.009319 -0.000740 0.003609
# 4 0.000178 -0.005987 -0.009319 0.034771 0.004308 -0.009845
# 5 0.000773 -0.000482 -0.000740 0.004308 0.027425 -0.004953
# 6 0.002853 0.005060 0.003609 -0.009845 -0.004953 0.034303
#
#
# Mechanical properties :
#
#
# Convention : Reuss Voigt Hill
#
# Bulk Modulus (GPa) = 28.61639 38.85806 33.73723
# Shear Modulus (GPa) = 30.15452 35.54790 32.85121
#
# Velocity S-wave (km/s) = 3.62572 3.93664 3.78438
# Velocity P-wave (km/s) = 5.47751 6.13213 5.81404
#
# Compressibility (1/GPa) = 0.03494500
#
# Stress axis : x y z
#
# Youngs Moduli (GPa) = 67.20792 53.37388 78.80292
#
# Poissons Ratio (x) = 0.19627 0.11975
# Poissons Ratio (y) = 0.24714 0.03807
# Poissons Ratio (z) = 0.10213 0.02579
#
# Static dielectric constant tensor:
#      x y z
#    x 1.945420 0.058570 -0.007360 
#    y 0.058570 1.923970 -0.033720 
#    z -0.007360 -0.033720 1.891950 
# 
# From -- ./inp_files/500942.got.cif
#   From: 2010.05.17/outbox.cif.g08.bks.cpg/sg2_251_cif.got.tgz:500942.got - 2010.06.03 11:33:40.
