data_PCOD9026676
_publ_section_title
;
Structure prediction by ZEFSAII (Michael W. Deem and Ramdas Pophale) SiO2 
 PCOD9026676
Probable space group: P -1
;
_chemical_formula_sum "Si O2"
_cell_formula_units_Z 14
_cell_length_a 5.288701
_cell_length_b 8.991022
_cell_length_c 17.880382
_cell_angle_alpha 95.149176
_cell_angle_beta 126.972570
_cell_angle_gamma 92.471269
_cell_volume 671.469290
_symmetry_space_group_name_H-M "P -1"
_symmetry_group_IT_number 2
_symmetry_cell_setting 'triclinic'
loop_
_space_group_symop_operation_xyz
x,y,z
-x,-y,-z
loop_
_atom_site_type_symbol
_atom_site_label
_atom_site_fract_x
_atom_site_fract_y
_atom_site_fract_z
Si Si1 0.640236 0.420135 0.448341
Si Si2 0.812205 0.469164 0.751304
Si Si3 0.790380 0.102694 0.516691
Si Si4 0.731380 0.867771 0.969077
Si Si5 0.004194 0.625471 0.942808
Si Si6 0.250657 0.272224 0.728615
Si Si7 0.610039 0.866803 0.100279
O O1 0.500000 0.500000 0.500000
O O2 0.411950 0.445739 0.338984
O O3 0.662190 0.243267 0.457655
O O4 0.000000 0.500000 0.500000
O O5 0.568463 0.344612 0.746274
O O6 0.993578 0.563751 0.854807
O O7 0.064076 0.398015 0.740675
O O8 0.021718 0.183283 0.624270
O O9 0.500000 0.000000 0.500000
O O10 0.000000 0.000000 0.500000
O O11 0.711194 0.721432 0.908745
O O12 0.426447 0.957725 0.912016
O O13 0.831080 0.828007 0.069259
O O14 0.000000 0.000000 0.000000
O O15 0.304401 0.747940 0.019261
O O16 0.000000 0.500000 0.000000
O O17 0.310307 0.163721 0.802819
#
# Coordination Sequence:
#
# PCOD9026676 Si02
#       7
#     2   2   2   2   2   2   2
#     4  12  23  48  74  97 139 184 228 290 354 416
#     4  12  25  42  71 104 133 183 231 279 347 418
#     4  12  26  47  72 105 137 176 236 297 349 420
#     4   9  21  41  59  88 134 181 222 274 339 393
#     4  11  22  38  65  99 136 171 231 280 327 407
#     4  12  25  44  71  99 136 182 225 281 361 409
#     4  10  22  41  65  91 139 183 218 282 341 406
#
# _framework density 20.849798
#
# number of rings (size 3 to 8) (size 9 to 14) (size 15 to 20)
#    0.000    0.857    4.286    2.571    4.000    2.286 
#    7.714    0.000    0.000    0.000    0.000    0.000 
#    0.000    0.000    0.000    0.000    0.000    0.000 
#
# Total GULP energy -78153.018455 kJ/mol
# GULP energy per Si atom -5582.358461 kJ/mol
# Density = 2.080234 g / cm^3
# Si number density = 20.849798 Si / 1000 Ang^3
#
#
#
# Elastic Constant Matrix: (Units=GPa)
#
#
# Indices 1 2 3 4 5 6 
#
# 1 94.7404 31.2746 -4.5497 6.9106 -15.9247 -2.7829
# 2 31.2746 127.6868 24.1266 -11.0794 -16.0723 -9.1889
# 3 -4.5497 24.1266 99.7472 -10.7446 -31.3167 -17.0750
# 4 6.9106 -11.0794 -10.7446 41.8313 0.0042 -12.9042
# 5 -15.9247 -16.0723 -31.3167 0.0042 32.2550 4.6792
# 6 -2.7829 -9.1889 -17.0750 -12.9042 4.6792 41.9063
#
#
#
# Elastic Compliance Matrix: (Units=1/GPa)
#
#
# Indices 1 2 3 4 5 6 
#
# 1 0.013407 -0.003062 0.003994 -0.001922 0.008935 0.000257
# 2 -0.003062 0.009480 -0.001104 0.003437 0.001809 0.002282
# 3 0.003994 -0.001104 0.017905 0.005846 0.017770 0.007134
# 4 -0.001922 0.003437 0.005846 0.030275 0.004723 0.011803
# 5 0.008935 0.001809 0.017770 0.004723 0.053022 0.003764
# 6 0.000257 0.002282 0.007134 0.011803 0.003764 0.030501
#
#
# Mechanical properties :
#
#
# Convention : Reuss Voigt Hill
#
# Bulk Modulus (GPa) = 24.72270 47.09747 35.91009
# Shear Modulus (GPa) = 29.68809 41.28671 35.48740
#
# Velocity S-wave (km/s) = 3.77756 4.45477 4.13007
# Velocity P-wave (km/s) = 5.55966 7.00699 6.32486
#
# Compressibility (1/GPa) = 0.04044865
#
# Stress axis : x y z
#
# Youngs Moduli (GPa) = 74.58579 105.48037 55.85150
#
# Poissons Ratio (x) = 0.32301 -0.22309
# Poissons Ratio (y) = 0.22840 0.06166
# Poissons Ratio (z) = -0.29792 0.11645
#
# Static dielectric constant tensor:
#      x y z
#    x 2.043180 -0.061140 0.052270 
#    y -0.061140 1.777450 -0.039350 
#    z 0.052270 -0.039350 1.740600 
# 
# From -- ./inp_files/122902.got.cif
#   From: 2010.05.17/outbox.cif.g08.bks.cpg/sg2_62_cif.got.tgz:122902.got - 2010.06.03 11:33:40.
