data_PCOD9026716
_publ_section_title
;
Structure prediction by ZEFSAII (Michael W. Deem and Ramdas Pophale) SiO2 
 PCOD9026716
Probable space group: P -1
;
_chemical_formula_sum "Si O2"
_cell_formula_units_Z 16
_cell_length_a 8.204014
_cell_length_b 10.774682
_cell_length_c 10.406277
_cell_angle_alpha 55.594576
_cell_angle_beta 110.327888
_cell_angle_gamma 102.164987
_cell_volume 711.556396
_symmetry_space_group_name_H-M "P -1"
_symmetry_group_IT_number 2
_symmetry_cell_setting 'triclinic'
loop_
_space_group_symop_operation_xyz
x,y,z
-x,-y,-z
loop_
_atom_site_type_symbol
_atom_site_label
_atom_site_fract_x
_atom_site_fract_y
_atom_site_fract_z
Si Si1 0.243839 0.459254 0.022079
Si Si2 0.306192 0.234299 0.383903
Si Si3 0.566104 0.336204 0.576466
Si Si4 0.966331 0.316485 0.317206
Si Si5 0.267902 0.932201 0.694484
Si Si6 0.491424 0.295130 0.003796
Si Si7 0.061665 0.672162 0.413101
Si Si8 0.697835 0.841397 0.206642
O O1 0.236363 0.307088 0.191856
O O2 0.355207 0.408791 0.959431
O O3 0.081116 0.540692 0.865526
O O4 0.347894 0.589945 0.055258
O O5 0.494351 0.296221 0.437936
O O6 0.170424 0.309766 0.402283
O O7 0.293114 0.059160 0.518312
O O8 0.500000 0.500000 0.500000
O O9 0.772781 0.312764 0.644601
O O10 0.453593 0.230458 0.701550
O O11 0.906272 0.165471 0.316210
O O12 0.876600 0.302557 0.438273
O O13 0.422927 0.813584 0.804086
O O14 0.266554 0.004949 0.794291
O O15 0.395953 0.186899 0.938973
O O16 0.000000 0.500000 0.500000
O O17 0.888540 0.767934 0.286137
#
# Coordination Sequence:
#
# PCOD9026716 Si02
#       8
#     2   2   2   2   2   2   2   2
#     4  10  23  37  65  99 126 171 223 281 322 388
#     4  11  22  40  64  96 132 168 220 274 323 389
#     4  11  22  37  62  98 129 167 218 269 323 390
#     4  11  22  43  65  96 135 172 223 267 337 388
#     4  10  23  41  67  94 129 186 212 269 333 393
#     4  10  22  41  65  93 133 174 221 270 334 390
#     4  12  23  38  67  99 131 175 214 273 331 392
#     4  11  22  43  64  93 134 176 220 267 332 389
#
# _framework density 22.48592
#
# number of rings (size 3 to 8) (size 9 to 14) (size 15 to 20)
#    0.000    1.250    3.750    2.625    5.250    0.500 
#    2.250    2.500    0.000    4.500    0.000    0.000 
#    0.000    0.000    0.000    0.000    0.000    0.000 
#
# Total GULP energy -89156.438366 kJ/mol
# GULP energy per Si atom -5572.277398 kJ/mol
# Density = 2.243474 g / cm^3
# Si number density = 22.485920 Si / 1000 Ang^3
#
#
#
# Elastic Constant Matrix: (Units=GPa)
#
#
# Indices 1 2 3 4 5 6 
#
# 1 121.0025 3.7992 18.7407 -3.5457 22.5689 10.5920
# 2 3.7992 97.3004 13.1333 3.1178 7.4957 7.6567
# 3 18.7407 13.1333 108.3038 -13.0483 12.3086 17.3859
# 4 -3.5457 3.1178 -13.0483 32.4462 -4.6854 4.0813
# 5 22.5689 7.4957 12.3086 -4.6854 30.8422 0.7270
# 6 10.5920 7.6567 17.3859 4.0813 0.7270 20.9257
#
#
#
# Elastic Compliance Matrix: (Units=1/GPa)
#
#
# Indices 1 2 3 4 5 6 
#
# 1 0.010079 0.000560 -0.000097 0.000600 -0.007262 -0.005091
# 2 0.000560 0.010876 -0.000706 -0.001266 -0.002885 -0.003330
# 3 -0.000097 -0.000706 0.012166 0.005808 -0.003475 -0.010813
# 4 0.000600 -0.001266 0.005808 0.035269 0.003183 -0.011656
# 5 -0.007262 -0.002885 -0.003475 0.003183 0.040177 0.005602
# 6 -0.005091 -0.003330 -0.010813 -0.011656 0.005602 0.062646
#
#
# Mechanical properties :
#
#
# Convention : Reuss Voigt Hill
#
# Bulk Modulus (GPa) = 30.64108 44.21701 37.42905
# Shear Modulus (GPa) = 27.38572 36.23836 31.81204
#
# Velocity S-wave (km/s) = 3.49364 4.01883 3.76540
# Velocity P-wave (km/s) = 5.47086 6.42197 5.96540
#
# Compressibility (1/GPa) = 0.03263593
#
# Stress axis : x y z
#
# Youngs Moduli (GPa) = 99.21176 91.94834 82.19497
#
# Poissons Ratio (x) = -0.05153 0.00799
# Poissons Ratio (y) = -0.05560 0.05802
# Poissons Ratio (z) = 0.00964 0.06490
#
# Static dielectric constant tensor:
#      x y z
#    x 1.971270 0.162310 0.043550 
#    y 0.162310 2.449540 0.357490 
#    z 0.043550 0.357490 2.048840 
# 
# From -- ./inp_files/392183.got.cif
#   From: 2010.05.17/outbox.cif.g08.bks.cpg/sg2_197_cif.got.tgz:392183.got - 2010.06.03 11:33:40.
