data_PCOD9026621
_publ_section_title
;
Structure prediction by ZEFSAII (Michael W. Deem and Ramdas Pophale) SiO2 
 PCOD9026621
Probable space group: P -1
;
_chemical_formula_sum "Si O2"
_cell_formula_units_Z 14
_cell_length_a 9.418023
_cell_length_b 11.104687
_cell_length_c 10.664888
_cell_angle_alpha 125.306124
_cell_angle_beta 142.646655
_cell_angle_gamma 57.515246
_cell_volume 545.429326
_symmetry_space_group_name_H-M "P -1"
_symmetry_group_IT_number 2
_symmetry_cell_setting 'triclinic'
loop_
_space_group_symop_operation_xyz
x,y,z
-x,-y,-z
loop_
_atom_site_type_symbol
_atom_site_label
_atom_site_fract_x
_atom_site_fract_y
_atom_site_fract_z
Si Si1 0.501989 0.692678 0.644012
Si Si2 0.768761 0.901068 0.498290
Si Si3 0.827581 0.259262 0.166852
Si Si4 0.076118 0.550722 0.222704
Si Si5 0.428643 0.462282 0.128272
Si Si6 0.707303 0.193591 0.782119
Si Si7 0.497264 0.021996 0.864202
O O1 0.230693 0.683817 0.410884
O O2 0.714301 0.578307 0.661518
O O3 0.521409 0.640102 0.772708
O O4 0.559417 0.855075 0.755735
O O5 0.513740 0.869244 0.347859
O O6 0.744804 0.913408 0.339222
O O7 0.949741 0.766938 0.602370
O O8 0.813624 0.060260 0.683875
O O9 0.648178 0.410245 0.159550
O O10 0.877672 0.226377 0.035957
O O11 0.682051 0.129628 0.029019
O O12 0.000000 0.500000 0.000000
O O13 0.822949 0.571075 0.123444
O O14 0.388999 0.639614 0.235165
O O15 0.500000 0.000000 0.000000
#
# Coordination Sequence:
#
# PCOD9026621 Si02
#       7
#     2   2   2   2   2   2   2
#     4  10  22  41  65 101 135 175 226 270 345 403
#     4  10  25  44  71  96 137 179 228 283 336 406
#     4  11  24  45  66 100 137 181 224 282 342 400
#     4   9  22  39  62  96 134 172 218 276 332 401
#     4  11  23  41  68 100 137 174 224 284 338 399
#     4  10  24  45  68  99 131 177 238 280 334 401
#     4  11  24  44  67 101 140 174 229 274 340 410
#
# _framework density 25.667853999999998
#
# number of rings (size 3 to 8) (size 9 to 14) (size 15 to 20)
#    0.000    1.714    1.429    0.857    8.000    5.714 
#    0.000    0.000    0.000    0.000    0.000    0.000 
#    0.000    0.000    0.000    0.000    0.000    0.000 
#
# Total GULP energy -78237.297231 kJ/mol
# GULP energy per Si atom -5588.378374 kJ/mol
# Density = 2.560943 g / cm^3
# Si number density = 25.667854 Si / 1000 Ang^3
#
#
#
# Elastic Constant Matrix: (Units=GPa)
#
#
# Indices 1 2 3 4 5 6 
#
# 1 54.5705 16.3935 39.4354 -14.3476 -8.1657 -5.2036
# 2 16.3935 109.6073 16.3376 4.7079 -3.4199 -2.1249
# 3 39.4354 16.3376 124.1015 -36.4008 -4.0783 -10.4929
# 4 -14.3476 4.7079 -36.4008 50.4262 11.3900 2.5987
# 5 -8.1657 -3.4199 -4.0783 11.3900 21.2990 -11.2752
# 6 -5.2036 -2.1249 -10.4929 2.5987 -11.2752 40.4370
#
#
#
# Elastic Compliance Matrix: (Units=1/GPa)
#
#
# Indices 1 2 3 4 5 6 
#
# 1 0.026361 -0.002404 -0.007423 -0.000289 0.010761 0.004359
# 2 -0.002404 0.009910 -0.001324 -0.003175 0.002525 0.000776
# 3 -0.007423 -0.001324 0.012940 0.008427 -0.004855 0.000438
# 4 -0.000289 -0.003175 0.008427 0.030429 -0.017909 -0.004967
# 5 0.010761 0.002525 -0.004855 -0.017909 0.071416 0.021322
# 6 0.004359 0.000776 0.000438 -0.004967 0.021322 0.031710
#
#
# Mechanical properties :
#
#
# Convention : Reuss Voigt Hill
#
# Bulk Modulus (GPa) = 37.15865 48.06804 42.61335
# Shear Modulus (GPa) = 23.36047 36.83995 30.10021
#
# Velocity S-wave (km/s) = 3.02007 3.79259 3.42816
# Velocity P-wave (km/s) = 5.16423 6.16002 5.68397
#
# Compressibility (1/GPa) = 0.02691163
#
# Stress axis : x y z
#
# Youngs Moduli (GPa) = 37.93482 100.90347 77.28009
#
# Poissons Ratio (x) = 0.24254 0.57363
# Poissons Ratio (y) = 0.09118 0.10228
# Poissons Ratio (z) = 0.28158 0.13355
#
# Static dielectric constant tensor:
#      x y z
#    x 2.131330 -0.003780 -0.084870 
#    y -0.003780 2.047660 0.002580 
#    z -0.084870 0.002580 2.107180 
# 
# From -- ./inp_files/429003.got.cif
#   From: 2010.05.17/outbox.cif.g08.bks.cpg/sg2_215_cif.got.tgz:429003.got - 2010.06.03 11:33:40.
