data_PCOD9026586
_publ_section_title
;
Structure prediction by ZEFSAII (Michael W. Deem and Ramdas Pophale) SiO2 
 PCOD9026586
Probable space group: P -1
;
_chemical_formula_sum "Si O2"
_cell_formula_units_Z 14
_cell_length_a 9.332313
_cell_length_b 9.789149
_cell_length_c 10.862419
_cell_angle_alpha 59.455650
_cell_angle_beta 83.365732
_cell_angle_gamma 46.328019
_cell_volume 572.329310
_symmetry_space_group_name_H-M "P -1"
_symmetry_group_IT_number 2
_symmetry_cell_setting 'triclinic'
loop_
_space_group_symop_operation_xyz
x,y,z
-x,-y,-z
loop_
_atom_site_type_symbol
_atom_site_label
_atom_site_fract_x
_atom_site_fract_y
_atom_site_fract_z
Si Si1 0.639625 0.655085 0.078551
Si Si2 0.627188 0.618301 0.816792
Si Si3 0.293178 0.711056 0.651480
Si Si4 0.354418 0.145986 0.649381
Si Si5 0.288673 0.052228 0.100461
Si Si6 0.091321 0.613628 0.311129
Si Si7 0.881419 0.093325 0.672918
O O1 0.737641 0.452637 0.257872
O O2 0.400573 0.888005 0.043811
O O3 0.632413 0.583855 0.977037
O O4 0.762417 0.721960 0.021809
O O5 0.501283 0.592649 0.759825
O O6 0.860429 0.431178 0.817978
O O7 0.494944 0.890543 0.693463
O O8 0.291692 0.763441 0.486108
O O9 0.097875 0.942397 0.642540
O O10 0.510939 0.096823 0.755747
O O11 0.258072 0.351883 0.471506
O O12 0.145725 0.243684 0.691954
O O13 0.129993 0.060958 0.179938
O O14 0.137725 0.746355 0.305362
#
# Coordination Sequence:
#
# PCOD9026586 Si02
#       7
#     2   2   2   2   2   2   2
#     4  10  23  43  64  93 133 174 215 268 324 393
#     4  11  22  42  65  96 132 174 213 272 322 391
#     4  11  23  42  66  98 136 164 226 273 317 391
#     4  10  22  41  64  98 133 167 222 275 313 395
#     4  10  22  45  66  93 132 173 218 268 329 382
#     4  11  22  40  67  97 130 177 215 265 338 373
#     4  11  24  42  68  99 127 176 219 272 325 382
#
# _framework density 24.461442000000002
#
# number of rings (size 3 to 8) (size 9 to 14) (size 15 to 20)
#    0.000    1.429    1.429    3.429    0.000    3.429 
#   18.000    1.429    0.000    0.000    0.000    0.000 
#    0.000    0.000    0.000    0.000    0.000    0.000 
#
# Total GULP energy -78381.903216 kJ/mol
# GULP energy per Si atom -5598.707373 kJ/mol
# Density = 2.440577 g / cm^3
# Si number density = 24.461442 Si / 1000 Ang^3
#
#
#
# Elastic Constant Matrix: (Units=GPa)
#
#
# Indices 1 2 3 4 5 6 
#
# 1 79.5446 17.0497 18.6223 15.1214 -4.4471 -1.7731
# 2 17.0497 112.4968 13.8358 13.4992 -9.9723 -2.0974
# 3 18.6223 13.8358 107.2438 1.3163 -22.2067 21.1832
# 4 15.1214 13.4992 1.3163 38.0101 2.0334 -7.7454
# 5 -4.4471 -9.9723 -22.2067 2.0334 32.1524 -3.6529
# 6 -1.7731 -2.0974 21.1832 -7.7454 -3.6529 16.6100
#
#
#
# Elastic Compliance Matrix: (Units=1/GPa)
#
#
# Indices 1 2 3 4 5 6 
#
# 1 0.014451 -0.001206 -0.002795 -0.004660 0.000313 0.002851
# 2 -0.001206 0.009764 -0.000708 -0.002848 0.002697 0.001272
# 3 -0.002795 -0.000708 0.015638 -0.003748 0.008126 -0.020292
# 4 -0.004660 -0.002848 -0.003748 0.033303 -0.004115 0.018547
# 5 0.000313 0.002697 0.008126 -0.004115 0.037437 -0.003675
# 6 0.002851 0.001272 -0.020292 0.018547 -0.003675 0.094389
#
#
# Mechanical properties :
#
#
# Convention : Reuss Voigt Hill
#
# Bulk Modulus (GPa) = 32.85751 44.25565 38.55658
# Shear Modulus (GPa) = 22.26725 34.00635 28.13680
#
# Velocity S-wave (km/s) = 3.02039 3.73259 3.39521
# Velocity P-wave (km/s) = 5.06214 6.05868 5.58269
#
# Compressibility (1/GPa) = 0.03043444
#
# Stress axis : x y z
#
# Youngs Moduli (GPa) = 69.19802 102.42106 63.94694
#
# Poissons Ratio (x) = 0.12356 0.17872
# Poissons Ratio (y) = 0.08348 0.04527
# Poissons Ratio (z) = 0.19340 0.07251
#
# Static dielectric constant tensor:
#      x y z
#    x 1.941600 -0.026200 0.016730 
#    y -0.026200 1.945960 -0.015620 
#    z 0.016730 -0.015620 1.951820 
# 
# From -- ./inp_files/373989.got.cif
#   From: 2010.05.17/outbox.cif.g08.bks.cpg/sg2_187_cif.got.tgz:373989.got - 2010.06.03 11:33:40.
