data_PCOD9026033
_publ_section_title
;
Structure prediction by ZEFSAII (Michael W. Deem and Ramdas Pophale) SiO2 
 PCOD9026033
Probable space group: P -1
;
_chemical_formula_sum "Si O2"
_cell_formula_units_Z 14
_cell_length_a 15.366814
_cell_length_b 10.355908
_cell_length_c 9.549516
_cell_angle_alpha 94.429990
_cell_angle_beta 113.237424
_cell_angle_gamma 140.626493
_cell_volume 668.806003
_symmetry_space_group_name_H-M "P -1"
_symmetry_group_IT_number 2
_symmetry_cell_setting 'triclinic'
loop_
_space_group_symop_operation_xyz
x,y,z
-x,-y,-z
loop_
_atom_site_type_symbol
_atom_site_label
_atom_site_fract_x
_atom_site_fract_y
_atom_site_fract_z
Si Si1 0.151154 0.110354 0.711482
Si Si2 0.612403 0.267947 0.566884
Si Si3 0.228268 0.921771 0.721249
Si Si4 0.237186 0.657727 0.618007
Si Si5 0.423932 0.640697 0.837557
Si Si6 0.569892 0.707119 0.651031
Si Si7 0.981269 0.115522 0.073754
O O1 0.325363 0.422863 0.865264
O O2 0.233523 0.077237 0.690454
O O3 0.059384 0.960656 0.791696
O O4 0.000000 0.000000 0.500000
O O5 0.682952 0.321871 0.460725
O O6 0.461227 0.205852 0.460618
O O7 0.816309 0.560123 0.792684
O O8 0.500000 0.000000 0.500000
O O9 0.307693 0.890777 0.687720
O O10 0.997024 0.620659 0.565110
O O11 0.350949 0.063705 0.953863
O O12 0.309683 0.641005 0.778176
O O13 0.434111 0.575431 0.690769
O O14 0.500000 0.500000 0.500000
O O15 0.790386 0.952927 0.869157
O O16 0.000000 0.000000 0.000000
#
# Coordination Sequence:
#
# PCOD9026033 Si02
#       7
#     2   2   2   2   2   2   2
#     4  12  23  42  68  99 133 170 222 279 330 392
#     4  11  24  44  66  95 136 176 228 279 329 408
#     4  11  21  38  64  91 130 168 205 269 336 388
#     4  10  22  41  61  92 132 168 211 271 334 388
#     4  11  22  40  65  97 129 167 223 271 327 397
#     4  11  23  42  72  97 135 185 222 279 343 396
#     4  12  25  46  68  99 141 178 224 280 341 402
#
# _framework density 20.932825999999999
#
# number of rings (size 3 to 8) (size 9 to 14) (size 15 to 20)
#    0.000    0.857    5.714    1.714    0.000    2.857 
#    0.000    0.000    0.000    0.000    0.000    0.000 
#    0.000    0.000    0.000    0.000    0.000    0.000 
#
# Total GULP energy -77954.975621 kJ/mol
# GULP energy per Si atom -5568.212544 kJ/mol
# Density = 2.088518 g / cm^3
# Si number density = 20.932826 Si / 1000 Ang^3
#
#
#
# Elastic Constant Matrix: (Units=GPa)
#
#
# Indices 1 2 3 4 5 6 
#
# 1 130.0145 29.0778 60.3563 -2.6839 13.6028 -56.9196
# 2 29.0778 103.4290 51.1341 37.2358 -11.9884 -20.4376
# 3 60.3563 51.1341 146.6701 -8.2766 36.5297 -35.6437
# 4 -2.6839 37.2358 -8.2766 36.9653 -33.7751 12.9896
# 5 13.6028 -11.9884 36.5297 -33.7751 87.2060 -25.5887
# 6 -56.9196 -20.4376 -35.6437 12.9896 -25.5887 58.1547
#
#
#
# Elastic Compliance Matrix: (Units=1/GPa)
#
#
# Indices 1 2 3 4 5 6 
#
# 1 0.016193 0.005183 -0.005214 -0.009786 0.001687 0.017403
# 2 0.005183 0.033132 -0.010764 -0.045519 -0.003929 0.018557
# 3 -0.005214 -0.010764 0.012869 0.012731 -0.002588 -0.004980
# 4 -0.009786 -0.045519 0.012731 0.106031 0.021631 -0.031938
# 5 0.001687 -0.003929 -0.002588 0.021631 0.021038 0.003109
# 6 0.017403 0.018557 -0.004980 -0.031938 0.003109 0.046200
#
#
# Mechanical properties :
#
#
# Convention : Reuss Voigt Hill
#
# Bulk Modulus (GPa) = 24.62791 73.47225 49.05008
# Shear Modulus (GPa) = 18.47832 52.43490 35.45661
#
# Velocity S-wave (km/s) = 2.97432 5.01034 4.12008
# Velocity P-wave (km/s) = 4.85656 8.28532 6.79091
#
# Compressibility (1/GPa) = 0.04060435
#
# Stress axis : x y z
#
# Youngs Moduli (GPa) = 61.75438 30.18234 77.70851
#
# Poissons Ratio (x) = -0.15642 0.40513
# Poissons Ratio (y) = -0.32005 0.83644
# Poissons Ratio (z) = 0.32196 0.32488
#
# Static dielectric constant tensor:
#      x y z
#    x 1.901950 -0.537250 0.208730 
#    y -0.537250 4.478790 -0.918240 
#    z 0.208730 -0.918240 2.142410 
# 
# From -- ./inp_files/305183.got.cif
#   From: 2010.05.17/outbox.cif.g08.bks.cpg/sg2_153_cif.got.tgz:305183.got - 2010.06.03 11:33:40.
