data_PCOD9026727
_publ_section_title
;
Structure prediction by ZEFSAII (Michael W. Deem and Ramdas Pophale) SiO2 
 PCOD9026727
Probable space group: P -1
;
_chemical_formula_sum "Si O2"
_cell_formula_units_Z 12
_cell_length_a 6.687920
_cell_length_b 11.228918
_cell_length_c 7.131846
_cell_angle_alpha 108.685785
_cell_angle_beta 106.326869
_cell_angle_gamma 92.282055
_cell_volume 481.902331
_symmetry_space_group_name_H-M "P -1"
_symmetry_group_IT_number 2
_symmetry_cell_setting 'triclinic'
loop_
_space_group_symop_operation_xyz
x,y,z
-x,-y,-z
loop_
_atom_site_type_symbol
_atom_site_label
_atom_site_fract_x
_atom_site_fract_y
_atom_site_fract_z
Si Si1 0.381089 0.869710 0.988731
Si Si2 0.049040 0.385682 0.831133
Si Si3 0.288309 0.119366 0.622747
Si Si4 0.898663 0.118345 0.781673
Si Si5 0.757053 0.622294 0.470972
Si Si6 0.573475 0.626889 0.817157
O O1 0.433811 0.743284 0.834165
O O2 0.715295 0.631872 0.043655
O O3 0.485902 0.858981 0.213983
O O4 0.500000 0.000000 0.000000
O O5 0.130503 0.101224 0.752400
O O6 0.049709 0.410287 0.621979
O O7 0.891966 0.260176 0.774565
O O8 0.000000 0.500000 0.000000
O O9 0.260355 0.238275 0.545779
O O10 0.239768 0.994951 0.422071
O O11 0.854650 0.119477 0.994844
O O12 0.740092 0.636808 0.695518
O O13 0.571809 0.507959 0.311737
#
# Coordination Sequence:
#
# PCOD9026727 Si02
#       6
#     2   2   2   2   2   2
#     4  12  24  41  65  99 132 175 220 263 331 392
#     4  11  23  42  67  95 132 174 215 268 330 385
#     4  10  22  44  65  95 132 176 215 275 321 384
#     4  10  22  41  65  94 129 171 219 262 331 379
#     4  10  22  42  68  91 133 170 217 270 325 378
#     4  11  23  42  66  98 130 173 217 272 319 388
#
# _framework density 24.901309999999999
#
# number of rings (size 3 to 8) (size 9 to 14) (size 15 to 20)
#    0.000    1.333    3.333    3.000    2.333    1.333 
#   12.000    0.000    0.000    0.000    0.000    0.000 
#    0.000    0.000    0.000    0.000    0.000    0.000 
#
# Total GULP energy -66996.645004 kJ/mol
# GULP energy per Si atom -5583.053750 kJ/mol
# Density = 2.484463 g / cm^3
# Si number density = 24.901310 Si / 1000 Ang^3
#
#
#
# Elastic Constant Matrix: (Units=GPa)
#
#
# Indices 1 2 3 4 5 6 
#
# 1 51.7155 32.3215 31.0506 2.7786 -26.5785 16.5148
# 2 32.3215 139.3236 68.0597 19.6473 -25.9001 20.4537
# 3 31.0506 68.0597 127.7039 9.3404 -49.7109 7.3519
# 4 2.7786 19.6473 9.3404 56.5221 7.2442 -8.7482
# 5 -26.5785 -25.9001 -49.7109 7.2442 63.9245 2.0121
# 6 16.5148 20.4537 7.3519 -8.7482 2.0121 40.5622
#
#
#
# Elastic Compliance Matrix: (Units=1/GPa)
#
#
# Indices 1 2 3 4 5 6 
#
# 1 0.032321 -0.002195 -0.000463 -0.004537 0.013132 -0.013599
# 2 -0.002195 0.011370 -0.004721 -0.003894 0.000616 -0.004854
# 3 -0.000463 -0.004721 0.014255 -0.002016 0.009237 -0.000907
# 4 -0.004537 -0.003894 -0.002016 0.022047 -0.007824 0.009320
# 5 0.013132 0.000616 0.009237 -0.007824 0.029753 -0.010495
# 6 -0.013599 -0.004854 -0.000907 0.009320 -0.010495 0.035333
#
#
# Mechanical properties :
#
#
# Convention : Reuss Voigt Hill
#
# Bulk Modulus (GPa) = 23.15450 64.62295 43.88873
# Shear Modulus (GPa) = 28.69720 44.68918 36.69319
#
# Velocity S-wave (km/s) = 3.39844 4.24093 3.84284
# Velocity P-wave (km/s) = 4.97171 7.07026 6.11173
#
# Compressibility (1/GPa) = 0.04318815
#
# Stress axis : x y z
#
# Youngs Moduli (GPa) = 30.93924 87.95414 70.15221
#
# Poissons Ratio (x) = 0.19304 0.03245
# Poissons Ratio (y) = 0.06790 0.33122
# Poissons Ratio (z) = 0.01431 0.41527
#
# Static dielectric constant tensor:
#      x y z
#    x 2.063290 -0.054140 -0.074330 
#    y -0.054140 1.960490 0.013000 
#    z -0.074330 0.013000 1.956840 
# 
# From -- ./inp_files/20455.got.cif
#   From: 2010.05.17/outbox.cif.g08.bks.cpg/sg2_11_cif.got.tgz:20455.got - 2010.06.03 11:33:40.
