data_PCOD9026324
_publ_section_title
;
Structure prediction by ZEFSAII (Michael W. Deem and Ramdas Pophale) SiO2 
 PCOD9026324
Probable space group: P -1
;
_chemical_formula_sum "Si O2"
_cell_formula_units_Z 14
_cell_length_a 13.926662
_cell_length_b 8.877562
_cell_length_c 8.312392
_cell_angle_alpha 76.163158
_cell_angle_beta 65.916928
_cell_angle_gamma 43.526169
_cell_volume 643.521887
_symmetry_space_group_name_H-M "P -1"
_symmetry_group_IT_number 2
_symmetry_cell_setting 'triclinic'
loop_
_space_group_symop_operation_xyz
x,y,z
-x,-y,-z
loop_
_atom_site_type_symbol
_atom_site_label
_atom_site_fract_x
_atom_site_fract_y
_atom_site_fract_z
Si Si1 0.184234 0.221033 0.338917
Si Si2 0.938851 0.434205 0.940504
Si Si3 0.858500 0.440071 0.537675
Si Si4 0.732215 0.430155 0.301838
Si Si5 0.855116 0.050294 0.126076
Si Si6 0.685479 0.394175 0.875652
Si Si7 0.544679 0.284699 0.795963
O O1 0.144041 0.384895 0.185518
O O2 0.199334 0.324002 0.451681
O O3 0.036405 0.269884 0.444078
O O4 0.325826 0.973416 0.256011
O O5 0.825599 0.437819 0.108586
O O6 0.082550 0.186721 0.847342
O O7 0.000000 0.500000 0.000000
O O8 0.779817 0.450549 0.432825
O O9 0.814980 0.368913 0.729224
O O10 0.785622 0.197276 0.295795
O O11 0.562288 0.607432 0.313609
O O12 0.744781 0.205593 0.013062
O O13 0.000000 0.000000 0.000000
O O14 0.616582 0.374138 0.776617
O O15 0.564224 0.622738 0.997533
#
# Coordination Sequence:
#
# PCOD9026324 Si02
#       7
#     2   2   2   2   2   2   2
#     4  11  24  43  64  99 131 172 212 266 330 384
#     4  11  20  39  65  94 129 171 219 262 308 395
#     4  11  24  42  64  98 135 163 219 271 324 378
#     4  10  22  41  63  96 129 170 217 265 323 379
#     4   9  19  37  63  94 120 168 220 262 302 378
#     4  10  22  43  69  95 126 170 220 266 320 383
#     4  10  23  44  67  92 130 174 217 257 324 396
#
# _framework density 21.755281
#
# number of rings (size 3 to 8) (size 9 to 14) (size 15 to 20)
#    0.000    1.714    1.429    3.429    2.000    4.000 
#    5.143    0.000    0.000    0.000    0.000    0.000 
#    0.000    0.000    0.000    0.000    0.000    0.000 
#
# Total GULP energy -78195.557062 kJ/mol
# GULP energy per Si atom -5585.396933 kJ/mol
# Density = 2.170577 g / cm^3
# Si number density = 21.755281 Si / 1000 Ang^3
#
#
#
# Elastic Constant Matrix: (Units=GPa)
#
#
# Indices 1 2 3 4 5 6 
#
# 1 138.2380 72.3501 34.2881 11.6016 43.3103 -0.0116
# 2 72.3501 195.0716 63.9402 45.2920 18.5744 0.9024
# 3 34.2881 63.9402 74.6864 8.1065 14.5810 -0.8377
# 4 11.6016 45.2920 8.1065 25.5160 10.4280 0.6019
# 5 43.3103 18.5744 14.5810 10.4280 40.6946 3.3425
# 6 -0.0116 0.9024 -0.8377 0.6019 3.3425 23.8123
#
#
#
# Elastic Compliance Matrix: (Units=1/GPa)
#
#
# Indices 1 2 3 4 5 6 
#
# 1 0.014708 -0.007157 0.001229 0.012165 -0.016132 0.002279
# 2 -0.007157 0.016163 -0.009770 -0.026672 0.010722 -0.001791
# 3 0.001229 -0.009770 0.021345 0.013247 -0.008049 0.001917
# 4 0.012165 -0.026672 0.013247 0.088335 -0.028421 0.003239
# 5 -0.016132 0.010722 -0.008049 -0.028421 0.047561 -0.006655
# 6 0.002279 -0.001791 0.001917 0.003239 -0.006655 0.042984
#
#
# Mechanical properties :
#
#
# Convention : Reuss Voigt Hill
#
# Bulk Modulus (GPa) = 48.03072 83.23920 65.63496
# Shear Modulus (GPa) = 18.55756 33.83241 26.19498
#
# Velocity S-wave (km/s) = 2.92381 3.94780 3.47374
# Velocity P-wave (km/s) = 5.78998 7.68927 6.80620
#
# Compressibility (1/GPa) = 0.02082001
#
# Stress axis : x y z
#
# Youngs Moduli (GPa) = 67.98956 61.86785 46.85048
#
# Poissons Ratio (x) = 0.44279 -0.05760
# Poissons Ratio (y) = 0.48661 0.45775
# Poissons Ratio (z) = -0.08359 0.60447
#
# Static dielectric constant tensor:
#      x y z
#    x 1.818770 0.005590 0.027560 
#    y 0.005590 1.782420 0.004140 
#    z 0.027560 0.004140 1.898570 
# 
# From -- ./inp_files/295180.got.cif
#   From: 2010.05.17/outbox.cif.g08.bks.cpg/sg2_148_cif.got.tgz:295180.got - 2010.06.03 11:33:40.
