data_PCOD9026678
_publ_section_title
;
Structure prediction by ZEFSAII (Michael W. Deem and Ramdas Pophale) SiO2 
 PCOD9026678
Probable space group: P -1
;
_chemical_formula_sum "Si O2"
_cell_formula_units_Z 14
_cell_length_a 24.669126
_cell_length_b 17.872802
_cell_length_c 12.929912
_cell_angle_alpha 151.691835
_cell_angle_beta 144.958392
_cell_angle_gamma 15.004919
_cell_volume 676.259618
_symmetry_space_group_name_H-M "P -1"
_symmetry_group_IT_number 2
_symmetry_cell_setting 'triclinic'
loop_
_space_group_symop_operation_xyz
x,y,z
-x,-y,-z
loop_
_atom_site_type_symbol
_atom_site_label
_atom_site_fract_x
_atom_site_fract_y
_atom_site_fract_z
Si Si1 0.359858 0.695630 0.619144
Si Si2 0.823635 0.302777 0.003837
Si Si3 0.374078 0.895513 0.136987
Si Si4 0.844475 0.696441 0.897463
Si Si5 0.420432 0.470569 0.660357
Si Si6 0.023682 0.851535 0.561893
Si Si7 0.775635 0.742999 0.445907
O O1 0.500000 0.500000 0.500000
O O2 0.442017 0.478583 0.582455
O O3 0.139472 0.944779 0.538690
O O4 0.344839 0.902178 0.876486
O O5 0.590627 0.624143 0.084775
O O6 0.822241 0.488404 0.194687
O O7 0.892670 0.096255 0.759131
O O8 0.000000 0.000000 0.000000
O O9 0.153741 0.244765 0.147554
O O10 0.338822 0.052458 0.373845
O O11 0.414422 0.650473 0.924933
O O12 0.841985 0.513478 0.658449
O O13 0.000000 0.500000 0.000000
O O14 0.193241 0.729537 0.646535
O O15 0.613100 0.067143 0.504985
O O16 0.000000 0.500000 0.500000
#
# Coordination Sequence:
#
# PCOD9026678 Si02
#       7
#     2   2   2   2   2   2   2
#     4  10  22  41  65  92 123 164 208 253 312 377
#     4  12  24  40  64  91 122 167 210 253 306 372
#     4  11  22  41  62  89 126 165 207 255 308 373
#     4   9  20  37  62  89 119 159 203 250 303 365
#     4  11  23  40  62  91 126 162 203 261 314 366
#     4  11  21  40  63  92 125 160 206 258 309 365
#     4  12  25  41  61  92 126 165 210 260 313 364
#
# _framework density 20.702107999999999
#
# number of rings (size 3 to 8) (size 9 to 14) (size 15 to 20)
#    0.000    1.143    0.000    7.286    0.000    2.286 
#    0.000    4.286    0.000    0.000    0.000    0.000 
#    0.000    0.000    0.000    0.000    0.000    0.000 
#
# Total GULP energy -77999.173948 kJ/mol
# GULP energy per Si atom -5571.369568 kJ/mol
# Density = 2.065499 g / cm^3
# Si number density = 20.702108 Si / 1000 Ang^3
#
#
#
# Elastic Constant Matrix: (Units=GPa)
#
#
# Indices 1 2 3 4 5 6 
#
# 1 100.8116 38.5927 62.8640 16.9744 -11.9438 2.5944
# 2 38.5927 96.5803 28.0995 15.9069 -5.2646 10.4078
# 3 62.8640 28.0995 142.9857 -9.9446 14.1281 15.5233
# 4 16.9744 15.9069 -9.9446 15.1697 9.4494 13.2320
# 5 -11.9438 -5.2646 14.1281 9.4494 39.5684 -7.9817
# 6 2.5944 10.4078 15.5233 13.2320 -7.9817 55.3049
#
#
#
# Elastic Compliance Matrix: (Units=1/GPa)
#
#
# Indices 1 2 3 4 5 6 
#
# 1 -0.004896 -0.009511 0.011794 0.052419 -0.022930 -0.017142
# 2 -0.009511 0.011406 0.004130 0.011423 -0.006884 -0.006586
# 3 0.011794 0.004130 -0.005745 -0.046211 0.020068 0.014235
# 4 0.052419 0.011423 -0.046211 -0.122307 0.072759 0.048126
# 5 -0.022930 -0.006884 0.020068 0.072759 -0.011614 -0.022346
# 6 -0.017142 -0.006586 0.014235 0.048126 -0.022346 0.001390
#
#
# Mechanical properties :
#
#
# Convention : Reuss Voigt Hill
#
# Bulk Modulus (GPa) = 73.58234 66.61000 70.09617
# Shear Modulus (GPa) = -35.69898 36.06337 0.18219
#
# Velocity S-wave (km/s) = -4.15711 4.17827 0.29698
# Velocity P-wave (km/s) = 3.54662 7.45135 5.83528
#
# Compressibility (1/GPa) = 0.01359022
#
# Stress axis : x y z
#
# Youngs Moduli (GPa) = -204.26599 87.67090 -174.05109
#
# Poissons Ratio (x) = 0.83387 2.05275
# Poissons Ratio (y) = -1.94284 0.71880
# Poissons Ratio (z) = 2.40911 -0.36207
#
# Static dielectric constant tensor:
#      x y z
#    x 1.649230 -0.001000 0.067180 
#    y -0.001000 1.785200 0.056220 
#    z 0.067180 0.056220 1.624320 
# 
# From -- ./inp_files/215466.got.cif
#   From: 2010.05.17/outbox.cif.g08.bks.cpg/sg2_108_cif.got.tgz:215466.got - 2010.06.03 11:33:40.
