data_PCOD9026909
_publ_section_title
;
Structure prediction by ZEFSAII (Michael W. Deem and Ramdas Pophale) SiO2 
 PCOD9026909
Probable space group: P -1
;
_chemical_formula_sum "Si O2"
_cell_formula_units_Z 13
_cell_length_a 8.263691
_cell_length_b 11.762728
_cell_length_c 11.033592
_cell_angle_alpha 45.784258
_cell_angle_beta 74.050492
_cell_angle_gamma 106.009599
_cell_volume 543.083706
_symmetry_space_group_name_H-M "P -1"
_symmetry_group_IT_number 2
_symmetry_cell_setting 'triclinic'
loop_
_space_group_symop_operation_xyz
x,y,z
-x,-y,-z
loop_
_atom_site_type_symbol
_atom_site_label
_atom_site_fract_x
_atom_site_fract_y
_atom_site_fract_z
Si Si1 0.175912 0.670275 0.106220
Si Si2 0.674675 0.988921 0.378146
Si Si3 0.000000 0.000000 0.500000
Si Si4 0.707937 0.670969 0.580748
Si Si5 0.858197 0.309861 0.268135
Si Si6 0.638508 0.773574 0.967107
Si Si7 0.044868 0.867376 0.167437
O O1 0.385583 0.686470 0.071923
O O2 0.118490 0.764000 0.148587
O O3 0.959818 0.426619 0.288028
O O4 0.264612 0.830179 0.855672
O O5 0.844306 0.114981 0.368642
O O6 0.724041 0.863273 0.390622
O O7 0.408627 0.818421 0.591624
O O8 0.168931 0.227618 0.390116
O O9 0.206591 0.130583 0.254029
O O10 0.441490 0.453209 0.808833
O O11 0.839419 0.673377 0.440965
O O12 0.000000 0.500000 0.000000
O O13 0.763537 0.953297 0.910478
O O14 0.000000 0.000000 0.000000
#
# Coordination Sequence:
#
# PCOD9026909 Si02
#       7
#     2   2   1   2   2   2   2
#     4  11  24  45  70 101 142 187 234 289 347 419
#     4  10  22  41  66 104 141 182 233 285 346 419
#     4  10  26  46  68 100 154 174 232 286 366 414
#     4  11  25  43  73 103 139 186 231 289 353 421
#     4   9  22  37  64  99 138 179 233 280 345 406
#     4  11  27  45  72 105 140 187 234 292 358 412
#     4  11  25  48  71 101 143 185 239 290 348 420
#
# _framework density 23.937379
#
# number of rings (size 3 to 8) (size 9 to 14) (size 15 to 20)
#    0.000    1.538    1.538    0.923   10.769    4.923 
#    0.000    0.000    0.000    0.000    0.000    0.000 
#    0.000    0.000    0.000    0.000    0.000    0.000 
#
# Total GULP energy -72405.351735 kJ/mol
# GULP energy per Si atom -5569.642441 kJ/mol
# Density = 2.388290 g / cm^3
# Si number density = 23.937379 Si / 1000 Ang^3
#
#
#
# Elastic Constant Matrix: (Units=GPa)
#
#
# Indices 1 2 3 4 5 6 
#
# 1 32.2885 35.4415 0.2812 5.7347 -20.7766 -8.4383
# 2 35.4415 187.3402 78.9090 21.5673 -28.1181 -22.7795
# 3 0.2812 78.9090 139.9021 0.6399 -23.8875 3.7101
# 4 5.7347 21.5673 0.6399 37.0923 -6.8235 -1.6970
# 5 -20.7766 -28.1181 -23.8875 -6.8235 40.1564 -0.6145
# 6 -8.4383 -22.7795 3.7101 -1.6970 -0.6145 35.5789
#
#
#
# Elastic Compliance Matrix: (Units=1/GPa)
#
#
# Indices 1 2 3 4 5 6 
#
# 1 0.068386 -0.012462 0.012620 0.003213 0.034827 0.007679
# 2 -0.012462 0.011271 -0.007033 -0.004935 -0.003506 0.004698
# 3 0.012620 -0.007033 0.012813 0.003605 0.009801 -0.002505
# 4 0.003213 -0.004935 0.003605 0.030220 0.005467 -0.001238
# 5 0.034827 -0.003506 0.009801 0.005467 0.047319 0.006071
# 6 0.007679 0.004698 -0.002505 -0.001238 0.006071 0.033243
#
#
# Mechanical properties :
#
#
# Convention : Reuss Voigt Hill
#
# Bulk Modulus (GPa) = 12.70340 65.42158 39.06249
# Shear Modulus (GPa) = 20.55581 38.89212 29.72396
#
# Velocity S-wave (km/s) = 2.93359 4.03518 3.52765
# Velocity P-wave (km/s) = 4.09794 7.00713 5.73990
#
# Compressibility (1/GPa) = 0.07871911
#
# Stress axis : x y z
#
# Youngs Moduli (GPa) = 14.62294 88.72385 78.04861
#
# Poissons Ratio (x) = 1.10566 -0.98494
# Poissons Ratio (y) = 0.18223 0.54889
# Poissons Ratio (z) = -0.18453 0.62397
#
# Static dielectric constant tensor:
#      x y z
#    x 1.950810 0.029520 0.041970 
#    y 0.029520 1.948970 -0.020290 
#    z 0.041970 -0.020290 1.910880 
# 
# From -- ./inp_files/362458.got.cif
#   From: 2010.05.17/outbox.cif.g08.bks.cpg/sg2_182_cif.got.tgz:362458.got - 2010.06.03 11:33:40.
