data_PCOD9026688
_publ_section_title
;
Structure prediction by ZEFSAII (Michael W. Deem and Ramdas Pophale) SiO2 
 PCOD9026688
Probable space group: P -1
;
_chemical_formula_sum "Si O2"
_cell_formula_units_Z 14
_cell_length_a 23.305036
_cell_length_b 8.898297
_cell_length_c 9.085648
_cell_angle_alpha 134.046458
_cell_angle_beta 47.923460
_cell_angle_gamma 152.545139
_cell_volume 616.294140
_symmetry_space_group_name_H-M "P -1"
_symmetry_group_IT_number 2
_symmetry_cell_setting 'triclinic'
loop_
_space_group_symop_operation_xyz
x,y,z
-x,-y,-z
loop_
_atom_site_type_symbol
_atom_site_label
_atom_site_fract_x
_atom_site_fract_y
_atom_site_fract_z
Si Si1 0.132838 0.176883 0.866338
Si Si2 0.059075 0.911650 0.275187
Si Si3 0.174068 0.823233 0.699810
Si Si4 0.757585 0.428544 0.782583
Si Si5 0.293458 0.135653 0.007981
Si Si6 0.434822 0.829185 0.278439
Si Si7 0.308485 0.683377 0.692663
O O1 0.179252 0.299848 0.703065
O O2 0.136408 0.946663 0.756691
O O3 0.231286 0.524698 0.031034
O O4 0.000000 0.000000 0.000000
O O5 0.938290 0.503034 0.223841
O O6 0.134147 0.174031 0.186203
O O7 0.173561 0.004298 0.193658
O O8 0.000000 0.000000 0.500000
O O9 0.210058 0.721481 0.451600
O O10 0.280011 0.101255 0.828861
O O11 0.623030 0.209753 0.799691
O O12 0.411783 0.531343 0.115618
O O13 0.298424 0.907883 0.891839
O O14 0.343051 0.727988 0.493053
O O15 0.575928 0.175137 0.321147
#
# Coordination Sequence:
#
# PCOD9026688 Si02
#       7
#     2   2   2   2   2   2   2
#     4  12  27  41  61 100 138 162 207 277 338 375
#     4   9  19  33  62  93 119 168 222 255 298 387
#     4  11  21  39  64  93 127 174 218 254 321 396
#     4  10  22  41  65  92 126 173 216 263 319 393
#     4  11  20  38  68  93 121 172 226 260 314 388
#     4  10  22  45  68  95 125 171 231 262 314 387
#     4  11  25  41  68  98 132 167 216 282 315 373
#
# _framework density 22.716425000000001
#
# number of rings (size 3 to 8) (size 9 to 14) (size 15 to 20)
#    0.000    1.429    4.286    1.714    2.000    4.571 
#    0.000    0.714    0.000    0.000    0.000    0.000 
#    0.000    0.000    0.000    0.000    0.000    0.000 
#
# Total GULP energy -78078.587226 kJ/mol
# GULP energy per Si atom -5577.041945 kJ/mol
# Density = 2.266472 g / cm^3
# Si number density = 22.716425 Si / 1000 Ang^3
#
#
#
# Elastic Constant Matrix: (Units=GPa)
#
#
# Indices 1 2 3 4 5 6 
#
# 1 104.4762 8.6052 26.9584 3.4609 -22.8328 -2.3879
# 2 8.6052 45.1461 14.4462 0.6785 -11.4932 -6.5142
# 3 26.9584 14.4462 99.6601 1.3083 -23.5972 -9.7433
# 4 3.4609 0.6785 1.3083 32.2170 -3.7227 -2.1178
# 5 -22.8328 -11.4932 -23.5972 -3.7227 32.9986 15.3731
# 6 -2.3879 -6.5142 -9.7433 -2.1178 15.3731 30.0609
#
#
#
# Elastic Compliance Matrix: (Units=1/GPa)
#
#
# Indices 1 2 3 4 5 6 
#
# 1 0.011848 -0.000092 -0.001458 -0.000444 0.009030 -0.004201
# 2 -0.000092 0.024633 -0.001855 0.000419 0.006589 0.001389
# 3 -0.001458 -0.001855 0.012418 0.000530 0.007396 -0.000238
# 4 -0.000444 0.000419 0.000530 0.031501 0.003455 0.000680
# 5 0.009030 0.006589 0.007396 0.003455 0.055525 -0.023610
# 6 -0.004201 0.001389 -0.000238 0.000680 -0.023610 0.045278
#
#
# Mechanical properties :
#
#
# Convention : Reuss Voigt Hill
#
# Bulk Modulus (GPa) = 23.76006 38.81132 31.28569
# Shear Modulus (GPa) = 24.74718 32.34014 28.54366
#
# Velocity S-wave (km/s) = 3.30418 3.77722 3.54859
# Velocity P-wave (km/s) = 5.00389 6.01210 5.53102
#
# Compressibility (1/GPa) = 0.04208744
#
# Stress axis : x y z
#
# Youngs Moduli (GPa) = 84.40578 40.59575 80.52530
#
# Poissons Ratio (x) = 0.00375 0.11743
# Poissons Ratio (y) = 0.00779 0.14940
# Poissons Ratio (z) = 0.12309 0.07532
#
# Static dielectric constant tensor:
#      x y z
#    x 1.848600 0.017430 0.027660 
#    y 0.017430 1.859930 0.001300 
#    z 0.027660 0.001300 1.866240 
# 
# From -- ./inp_files/352406.got.cif
#   From: 2010.05.17/outbox.cif.g08.bks.cpg/sg2_177_cif.got.tgz:352406.got - 2010.06.03 11:33:40.
