data_PCOD9026847
_publ_section_title
;
Structure prediction by ZEFSAII (Michael W. Deem and Ramdas Pophale) SiO2 
 PCOD9026847
Probable space group: P -1
;
_chemical_formula_sum "Si O2"
_cell_formula_units_Z 15
_cell_length_a 7.320016
_cell_length_b 7.006943
_cell_length_c 14.825290
_cell_angle_alpha 101.959503
_cell_angle_beta 50.411163
_cell_angle_gamma 91.553953
_cell_volume 567.695016
_symmetry_space_group_name_H-M "P -1"
_symmetry_group_IT_number 2
_symmetry_cell_setting 'triclinic'
loop_
_space_group_symop_operation_xyz
x,y,z
-x,-y,-z
loop_
_atom_site_type_symbol
_atom_site_label
_atom_site_fract_x
_atom_site_fract_y
_atom_site_fract_z
Si Si1 0.750115 0.080800 0.136164
Si Si2 0.500000 0.500000 0.000000
Si Si3 0.272044 0.484148 0.883891
Si Si4 0.308095 0.385061 0.680353
Si Si5 0.035505 0.775044 0.750059
Si Si6 0.173602 0.716319 0.493829
Si Si7 0.329123 0.898729 0.156653
Si Si8 0.900381 0.838702 0.425555
O O1 0.680270 0.309012 0.152037
O O2 0.796684 0.101887 0.231373
O O3 0.552110 0.960888 0.146996
O O4 0.000000 0.000000 0.000000
O O5 0.556809 0.561033 0.090725
O O6 0.353711 0.723946 0.058589
O O7 0.297652 0.323064 0.780697
O O8 0.000000 0.500000 0.000000
O O9 0.082168 0.558638 0.758034
O O10 0.580273 0.431035 0.595870
O O11 0.283636 0.244611 0.591022
O O12 0.085403 0.731898 0.625414
O O13 0.778170 0.902623 0.846002
O O14 0.992168 0.695978 0.466489
O O15 0.213399 0.945047 0.483759
O O16 0.124624 0.861790 0.290978
#
# Coordination Sequence:
#
# PCOD9026847 Si02
#       8
#     2   1   2   2   2   2   2   2
#     4  11  25  45  68  95 132 176 221 274 338 405
#     4  12  24  40  66  92 126 170 216 268 328 394
#     4  11  25  42  65  98 130 168 220 274 331 398
#     4  11  23  42  69  97 133 177 225 276 335 403
#     4  10  25  44  66  98 133 174 224 279 340 400
#     4  10  22  41  65  99 135 176 224 276 335 397
#     4  11  25  43  65  96 134 174 221 278 337 403
#     4  10  23  41  66 100 136 174 221 276 337 398
#
# _framework density 26.422637999999999
#
# number of rings (size 3 to 8) (size 9 to 14) (size 15 to 20)
#    0.000    1.333    0.000    4.000    0.000   17.600 
#    0.000    0.000    0.000    0.000    0.000    0.000 
#    0.000    0.000    0.000    0.000    0.000    0.000 
#
# Total GULP energy -83682.712218 kJ/mol
# GULP energy per Si atom -5578.847481 kJ/mol
# Density = 2.636250 g / cm^3
# Si number density = 26.422638 Si / 1000 Ang^3
#
#
#
# Elastic Constant Matrix: (Units=GPa)
#
#
# Indices 1 2 3 4 5 6 
#
# 1 181.9810 34.4904 33.1442 -8.9726 39.1668 -7.6202
# 2 34.4904 72.2667 16.0255 17.6201 3.7156 6.6662
# 3 33.1442 16.0255 89.8437 15.0305 19.8775 9.4044
# 4 -8.9726 17.6201 15.0305 41.6243 -3.2971 6.0756
# 5 39.1668 3.7156 19.8775 -3.2971 58.6058 -1.0994
# 6 -7.6202 6.6662 9.4044 6.0756 -1.0994 36.6835
#
#
#
# Elastic Compliance Matrix: (Units=1/GPa)
#
#
# Indices 1 2 3 4 5 6 
#
# 1 0.007776 -0.004109 -0.002071 0.003528 -0.003994 0.002189
# 2 -0.004109 0.017985 -0.000367 -0.007876 0.001237 -0.002686
# 3 -0.002071 -0.000367 0.013973 -0.005161 -0.003682 -0.003201
# 4 0.003528 -0.007876 -0.005161 0.030324 0.001570 -0.001488
# 5 -0.003994 0.001237 -0.003682 0.001570 0.020996 0.000259
# 6 0.002189 -0.002686 -0.003201 -0.001488 0.000259 0.029278
#
#
# Mechanical properties :
#
#
# Convention : Reuss Voigt Hill
#
# Bulk Modulus (GPa) = 37.53752 56.82351 47.18051
# Shear Modulus (GPa) = 35.13529 44.74482 39.94006
#
# Velocity S-wave (km/s) = 3.65052 4.11959 3.89213
# Velocity P-wave (km/s) = 5.65737 6.64683 6.17196
#
# Compressibility (1/GPa) = 0.02664001
#
# Stress axis : x y z
#
# Youngs Moduli (GPa) = 128.59489 55.60333 71.56496
#
# Poissons Ratio (x) = 0.22846 0.14824
# Poissons Ratio (y) = 0.52836 0.02626
# Poissons Ratio (z) = 0.26638 0.02040
#
# Static dielectric constant tensor:
#      x y z
#    x 2.061070 -0.032030 -0.007680 
#    y -0.032030 2.231330 -0.016800 
#    z -0.007680 -0.016800 2.219560 
# 
# From -- ./inp_files/480705.got.cif
#   From: 2010.05.17/outbox.cif.g08.bks.cpg/sg2_241_cif.got.tgz:480705.got - 2010.06.03 11:33:40.
