data_PCOD9026339
_publ_section_title
;
Structure prediction by ZEFSAII (Michael W. Deem and Ramdas Pophale) SiO2 
 PCOD9026339
Probable space group: P -1
;
_chemical_formula_sum "Si O2"
_cell_formula_units_Z 14
_cell_length_a 8.424278
_cell_length_b 19.661391
_cell_length_c 5.314387
_cell_angle_alpha 99.561202
_cell_angle_beta 77.033603
_cell_angle_gamma 47.908484
_cell_volume 572.340689
_symmetry_space_group_name_H-M "P -1"
_symmetry_group_IT_number 2
_symmetry_cell_setting 'triclinic'
loop_
_space_group_symop_operation_xyz
x,y,z
-x,-y,-z
loop_
_atom_site_type_symbol
_atom_site_label
_atom_site_fract_x
_atom_site_fract_y
_atom_site_fract_z
Si Si1 0.071903 0.563195 0.313323
Si Si2 0.144448 0.934039 0.656531
Si Si3 0.848612 0.760666 0.776891
Si Si4 0.262887 0.465469 0.684754
Si Si5 0.892254 0.844153 0.195807
Si Si6 0.240418 0.746841 0.410761
Si Si7 0.539394 0.054774 0.264953
O O1 0.896571 0.672945 0.576977
O O2 0.278656 0.491669 0.412845
O O3 0.926625 0.537461 0.300856
O O4 0.169698 0.546451 0.986616
O O5 0.207130 0.834440 0.575057
O O6 0.377835 0.909602 0.563134
O O7 0.000000 0.000000 0.500000
O O8 0.000000 0.000000 0.000000
O O9 0.055014 0.746876 0.579338
O O10 0.577651 0.870258 0.882458
O O11 0.885960 0.767514 0.058659
O O12 0.499926 0.359732 0.661697
O O13 0.688536 0.915605 0.526462
O O14 0.153840 0.779827 0.169566
O O15 0.769469 0.933157 0.088805
#
# Coordination Sequence:
#
# PCOD9026339 Si02
#       7
#     2   2   2   2   2   2   2
#     4  10  24  46  70  97 131 173 229 270 339 396
#     4  12  26  43  67  98 134 176 224 273 324 389
#     4  11  24  40  68  97 133 182 220 276 334 398
#     4  10  24  46  70  98 131 174 221 283 329 400
#     4  10  22  41  63  97 135 174 225 264 335 397
#     4  11  25  42  65 102 135 176 220 280 334 393
#     4  10  22  41  65  93 134 182 218 274 321 403
#
# _framework density 24.460955999999999
#
# number of rings (size 3 to 8) (size 9 to 14) (size 15 to 20)
#    0.000    1.429    1.429    2.143    8.000    1.143 
#    2.571    0.000    0.000    0.000    0.000    0.000 
#    0.000    0.000    0.000    0.000    0.000    0.000 
#
# Total GULP energy -78069.680317 kJ/mol
# GULP energy per Si atom -5576.405737 kJ/mol
# Density = 2.440528 g / cm^3
# Si number density = 24.460956 Si / 1000 Ang^3
#
#
#
# Elastic Constant Matrix: (Units=GPa)
#
#
# Indices 1 2 3 4 5 6 
#
# 1 49.8061 30.1943 24.7838 -7.1485 27.6173 -17.8047
# 2 30.1943 160.4696 61.2786 7.6582 24.3283 -41.3744
# 3 24.7838 61.2786 113.7891 -6.9112 39.3362 -10.4180
# 4 -7.1485 7.6582 -6.9112 19.5980 -3.9418 9.2349
# 5 27.6173 24.3283 39.3362 -3.9418 40.2068 -4.6305
# 6 -17.8047 -41.3744 -10.4180 9.2349 -4.6305 47.8305
#
#
#
# Elastic Compliance Matrix: (Units=1/GPa)
#
#
# Indices 1 2 3 4 5 6 
#
# 1 0.039113 -0.002511 0.003403 0.006676 -0.026959 0.009230
# 2 -0.002511 0.012452 -0.005937 -0.013094 -0.000010 0.011071
# 3 0.003403 -0.005937 0.016406 0.007975 -0.014386 -0.003228
# 4 0.006676 -0.013094 0.007975 0.071238 0.000118 -0.020848
# 5 -0.026959 -0.000010 -0.014386 0.000118 0.056592 -0.007722
# 6 0.009230 0.011071 -0.003228 -0.020848 -0.007722 0.036494
#
#
# Mechanical properties :
#
#
# Convention : Reuss Voigt Hill
#
# Bulk Modulus (GPa) = 17.27661 61.84202 39.55931
# Shear Modulus (GPa) = 19.10737 35.38093 27.24415
#
# Velocity S-wave (km/s) = 2.79792 3.80731 3.34096
# Velocity P-wave (km/s) = 4.18522 6.68314 5.57586
#
# Compressibility (1/GPa) = 0.05788173
#
# Stress axis : x y z
#
# Youngs Moduli (GPa) = 25.56702 80.30622 60.95193
#
# Poissons Ratio (x) = 0.20164 -0.20743
# Poissons Ratio (y) = 0.06419 0.36189
# Poissons Ratio (z) = -0.08701 0.47680
#
# Static dielectric constant tensor:
#      x y z
#    x 1.974810 0.066260 -0.075470 
#    y 0.066260 2.098330 -0.176030 
#    z -0.075470 -0.176030 2.185470 
# 
# From -- ./inp_files/28376.got.cif
#   From: 2010.05.17/outbox.cif.g08.bks.cpg/sg2_15_cif.got.tgz:28376.got - 2010.06.03 11:33:40.
