data_PCOD9026616
_publ_section_title
;
Structure prediction by ZEFSAII (Michael W. Deem and Ramdas Pophale) SiO2 
 PCOD9026616
Probable space group: P -1
;
_chemical_formula_sum "Si O2"
_cell_formula_units_Z 16
_cell_length_a 17.126481
_cell_length_b 9.385959
_cell_length_c 16.922044
_cell_angle_alpha 140.024829
_cell_angle_beta 29.679986
_cell_angle_gamma 149.468174
_cell_volume 682.506482
_symmetry_space_group_name_H-M "P -1"
_symmetry_group_IT_number 2
_symmetry_cell_setting 'triclinic'
loop_
_space_group_symop_operation_xyz
x,y,z
-x,-y,-z
loop_
_atom_site_type_symbol
_atom_site_label
_atom_site_fract_x
_atom_site_fract_y
_atom_site_fract_z
Si Si1 0.732559 0.818509 0.181288
Si Si2 0.302321 0.977785 0.153928
Si Si3 0.624048 0.820000 0.997799
Si Si4 0.104219 0.117037 0.088703
Si Si5 0.914969 0.412097 0.436373
Si Si6 0.121454 0.559841 0.694242
Si Si7 0.645620 0.650644 0.588243
Si Si8 0.321657 0.931388 0.365436
O O1 0.541632 0.621255 0.319035
O O2 0.913688 0.884355 0.104470
O O3 0.777302 0.114334 0.246335
O O4 0.730059 0.700008 0.047658
O O5 0.114358 0.649883 0.172849
O O6 0.274885 0.111268 0.311764
O O7 0.500000 0.000000 0.000000
O O8 0.312553 0.123152 0.124982
O O9 0.473700 0.893539 0.174969
O O10 0.500000 0.500000 0.000000
O O11 0.813577 0.977191 0.957495
O O12 0.033655 0.285695 0.261038
O O13 0.853100 0.466386 0.432282
O O14 0.713937 0.176648 0.559829
O O15 0.086860 0.710327 0.451381
O O16 0.215090 0.428083 0.596580
O O17 0.602841 0.765413 0.598765
#
# Coordination Sequence:
#
# PCOD9026616 Si02
#       8
#     2   2   2   2   2   2   2   2
#     4  10  25  46  73  95 138 186 233 281 342 408
#     4  12  26  43  73 106 141 171 233 294 339 403
#     4  12  24  40  70 107 135 176 228 285 344 403
#     4  10  23  43  72  93 133 183 229 274 340 407
#     4  10  22  41  65 100 141 172 217 285 347 408
#     4  11  25  45  70 101 133 187 231 280 343 412
#     4  12  25  43  71 102 137 184 230 281 344 409
#     4  11  24  39  65 103 144 170 220 284 353 394
#
# _framework density 23.442999
#
# number of rings (size 3 to 8) (size 9 to 14) (size 15 to 20)
#    0.000    1.000    3.750    1.500   12.250    0.000 
#    0.000    5.000    0.000    0.000    0.000    0.000 
#    0.000    0.000    0.000    0.000    0.000    0.000 
#
# Total GULP energy -89415.139043 kJ/mol
# GULP energy per Si atom -5588.446190 kJ/mol
# Density = 2.338964 g / cm^3
# Si number density = 23.442999 Si / 1000 Ang^3
#
#
#
# Elastic Constant Matrix: (Units=GPa)
#
#
# Indices 1 2 3 4 5 6 
#
# 1 80.1740 8.2403 -9.2321 -5.9125 -0.7558 -15.0234
# 2 8.2403 112.5113 29.4628 -4.4795 -3.4575 -19.2984
# 3 -9.2321 29.4628 51.2854 -8.1873 -11.9325 -0.1612
# 4 -5.9125 -4.4795 -8.1873 32.8850 -11.9302 1.9116
# 5 -0.7558 -3.4575 -11.9325 -11.9302 36.6983 1.8668
# 6 -15.0234 -19.2984 -0.1612 1.9116 1.8668 30.6430
#
#
#
# Elastic Compliance Matrix: (Units=1/GPa)
#
#
# Indices 1 2 3 4 5 6 
#
# 1 0.014579 -0.000938 0.004500 0.004252 0.002745 0.006148
# 2 -0.000938 0.012179 -0.008001 -0.001820 -0.002443 0.007430
# 3 0.004500 -0.008001 0.029930 0.012229 0.013262 -0.004246
# 4 0.004252 -0.001820 0.012229 0.040335 0.017135 -0.002557
# 5 0.002745 -0.002443 0.013262 0.017135 0.037134 -0.003454
# 6 0.006148 0.007430 -0.004246 -0.002557 -0.003454 0.040675
#
#
# Mechanical properties :
#
#
# Convention : Reuss Voigt Hill
#
# Bulk Modulus (GPa) = 20.91625 33.43473 27.17549
# Shear Modulus (GPa) = 25.04428 34.41192 29.72810
#
# Velocity S-wave (km/s) = 3.27204 3.83547 3.56490
# Velocity P-wave (km/s) = 4.81835 5.82302 5.34435
#
# Compressibility (1/GPa) = 0.04780971
#
# Stress axis : x y z
#
# Youngs Moduli (GPa) = 68.59186 82.10959 33.41149
#
# Poissons Ratio (x) = 0.07702 -0.15035
# Poissons Ratio (y) = 0.06434 0.26733
# Poissons Ratio (z) = -0.30866 0.65696
#
# Static dielectric constant tensor:
#      x y z
#    x 1.937720 0.047040 0.022220 
#    y 0.047040 1.912850 -0.013270 
#    z 0.022220 -0.013270 1.905650 
# 
# From -- ./inp_files/575589.got.cif
#   From: 2010.05.17/outbox.cif.g08.bks.cpg/sg2_288_cif.got.tgz:575589.got - 2010.06.03 11:33:40.
