data_PCOD9026059
_publ_section_title
;
Structure prediction by ZEFSAII (Michael W. Deem and Ramdas Pophale) SiO2 
 PCOD9026059
Probable space group: P -1
;
_chemical_formula_sum "Si O2"
_cell_formula_units_Z 16
_cell_length_a 11.182916
_cell_length_b 18.341885
_cell_length_c 7.929557
_cell_angle_alpha 128.816561
_cell_angle_beta 65.484951
_cell_angle_gamma 144.605698
_cell_volume 717.191684
_symmetry_space_group_name_H-M "P -1"
_symmetry_group_IT_number 2
_symmetry_cell_setting 'triclinic'
loop_
_space_group_symop_operation_xyz
x,y,z
-x,-y,-z
loop_
_atom_site_type_symbol
_atom_site_label
_atom_site_fract_x
_atom_site_fract_y
_atom_site_fract_z
Si Si1 0.103294 0.597851 0.315196
Si Si2 0.155087 0.330118 0.244135
Si Si3 0.452766 0.340392 0.976691
Si Si4 0.621583 0.393558 0.309768
Si Si5 0.735344 0.111092 0.378259
Si Si6 0.502005 0.771795 0.529753
Si Si7 0.696153 0.056004 0.688687
Si Si8 0.125230 0.398612 0.009972
O O1 0.203993 0.747910 0.393267
O O2 0.261207 0.675286 0.496452
O O3 0.855689 0.478801 0.301109
O O4 0.115969 0.499878 0.094149
O O5 0.248154 0.289133 0.048308
O O6 0.320336 0.466359 0.477373
O O7 0.929800 0.191695 0.263871
O O8 0.141878 0.399922 0.204122
O O9 0.506538 0.320504 0.093009
O O10 0.658949 0.520155 0.077649
O O11 0.446463 0.268756 0.715451
O O12 0.489134 0.274298 0.364986
O O13 0.705886 0.034967 0.453895
O O14 0.510620 0.993448 0.247001
O O15 0.654284 0.944667 0.669750
O O16 0.914523 0.227111 0.844449
#
# Coordination Sequence:
#
# PCOD9026059 Si02
#       8
#     2   2   2   2   2   2   2   2
#     4   9  19  36  64  95 122 158 211 264 322 360
#     4  11  22  41  65  94 128 165 218 265 302 376
#     4  11  24  42  67  93 125 171 219 257 311 372
#     4  11  21  37  67  95 122 166 210 273 314 364
#     4   9  21  39  64  88 130 169 202 266 316 378
#     4  10  22  41  62  91 131 166 208 266 310 382
#     4  10  22  41  61  95 133 163 207 263 327 376
#     4  11  22  37  67  98 126 164 208 268 319 373
#
# _framework density 22.309239000000002
#
# number of rings (size 3 to 8) (size 9 to 14) (size 15 to 20)
#    0.000    1.750    2.500    2.625    3.500    7.000 
#    2.250    1.250    0.000    0.000    0.000    0.000 
#    0.000    0.000    0.000    0.000    0.000    0.000 
#
# Total GULP energy -89323.585226 kJ/mol
# GULP energy per Si atom -5582.724077 kJ/mol
# Density = 2.225846 g / cm^3
# Si number density = 22.309239 Si / 1000 Ang^3
#
#
#
# Elastic Constant Matrix: (Units=GPa)
#
#
# Indices 1 2 3 4 5 6 
#
# 1 58.5304 41.8100 23.9381 -21.7824 1.3605 5.5447
# 2 41.8100 141.4914 28.0787 -10.0503 5.5490 4.1760
# 3 23.9381 28.0787 41.2730 -7.7907 11.4844 3.8615
# 4 -21.7824 -10.0503 -7.7907 40.0617 -4.0094 5.0783
# 5 1.3605 5.5490 11.4844 -4.0094 21.3835 -14.5442
# 6 5.5447 4.1760 3.8615 5.0783 -14.5442 29.2985
#
#
#
# Elastic Compliance Matrix: (Units=1/GPa)
#
#
# Indices 1 2 3 4 5 6 
#
# 1 0.032647 -0.006061 -0.014426 0.014509 0.008956 -0.001482
# 2 -0.006061 0.009358 -0.003007 -0.001617 -0.000601 0.000192
# 3 -0.014426 -0.003007 0.047601 -0.000415 -0.039275 -0.022540
# 4 0.014509 -0.001617 -0.000415 0.033431 0.000563 -0.007976
# 5 0.008956 -0.000601 -0.039275 0.000563 0.105546 0.055864
# 6 -0.001482 0.000192 -0.022540 -0.007976 0.055864 0.066470
#
#
# Mechanical properties :
#
#
# Convention : Reuss Voigt Hill
#
# Bulk Modulus (GPa) = 23.46485 47.66093 35.56289
# Shear Modulus (GPa) = 14.03517 27.97994 21.00755
#
# Velocity S-wave (km/s) = 2.51095 3.54529 3.07196
# Velocity P-wave (km/s) = 4.35285 6.17810 5.34398
#
# Compressibility (1/GPa) = 0.04261693
#
# Stress axis : x y z
#
# Youngs Moduli (GPa) = 30.63107 106.85579 21.00802
#
# Poissons Ratio (x) = 0.64765 0.30306
# Poissons Ratio (y) = 0.18565 0.06318
# Poissons Ratio (z) = 0.44189 0.32136
#
# Static dielectric constant tensor:
#      x y z
#    x 1.867320 -0.002180 -0.000920 
#    y -0.002180 1.800750 -0.001440 
#    z -0.000920 -0.001440 1.906690 
# 
# From -- ./inp_files/283231.got.cif
#   From: 2010.05.17/outbox.cif.g08.bks.cpg/sg2_142_cif.got.tgz:283231.got - 2010.06.03 11:33:40.
