data_PCOD9026308
_publ_section_title
;
Structure prediction by ZEFSAII (Michael W. Deem and Ramdas Pophale) SiO2 
 PCOD9026308
Probable space group: P -1
;
_chemical_formula_sum "Si O2"
_cell_formula_units_Z 14
_cell_length_a 22.957297
_cell_length_b 5.063088
_cell_length_c 9.563737
_cell_angle_alpha 105.479223
_cell_angle_beta 37.181799
_cell_angle_gamma 85.894923
_cell_volume 565.120066
_symmetry_space_group_name_H-M "P -1"
_symmetry_group_IT_number 2
_symmetry_cell_setting 'triclinic'
loop_
_space_group_symop_operation_xyz
x,y,z
-x,-y,-z
loop_
_atom_site_type_symbol
_atom_site_label
_atom_site_fract_x
_atom_site_fract_y
_atom_site_fract_z
Si Si1 0.814144 0.609200 0.497411
Si Si2 0.315100 0.750188 0.315870
Si Si3 0.318782 0.171775 0.599584
Si Si4 0.397009 0.934506 0.694180
Si Si5 0.897879 0.251905 0.017028
Si Si6 0.990657 0.466298 0.348455
Si Si7 0.481535 0.726175 0.781211
O O1 0.776277 0.951578 0.555206
O O2 0.870876 0.547394 0.530297
O O3 0.714920 0.525737 0.668019
O O4 0.901603 0.361246 0.183226
O O5 0.311823 0.892625 0.494040
O O6 0.428489 0.666936 0.009820
O O7 0.439614 0.125665 0.325277
O O8 0.308276 0.165999 0.786676
O O9 0.224017 0.497972 0.768040
O O10 0.383231 0.912511 0.882008
O O11 0.439206 0.596798 0.495867
O O12 0.500000 0.000000 0.500000
O O13 0.977455 0.309816 0.769737
O O14 0.926921 0.894330 0.901229
O O15 0.000000 0.500000 0.500000
#
# Coordination Sequence:
#
# PCOD9026308 Si02
#       7
#     2   2   2   2   2   2   2
#     4  11  25  47  68 102 134 178 225 271 343 404
#     4  11  25  41  69 100 135 174 226 278 324 382
#     4  10  23  40  66  99 128 177 230 266 327 402
#     4   9  21  40  59  89 134 176 232 256 335 389
#     4  11  24  45  74  97 136 177 220 275 341 403
#     4  12  26  48  71 105 131 171 223 284 341 400
#     4  10  22  41  63  94 139 180 221 273 324 389
#
# _framework density 24.773496999999999
#
# number of rings (size 3 to 8) (size 9 to 14) (size 15 to 20)
#    0.000    1.429    0.000    4.286   10.000    1.714 
#   10.286    0.000    0.000    0.000    0.000    0.000 
#    0.000    0.000    0.000    0.000    0.000    0.000 
#
# Total GULP energy -78413.093347 kJ/mol
# GULP energy per Si atom -5600.935239 kJ/mol
# Density = 2.471711 g / cm^3
# Si number density = 24.773497 Si / 1000 Ang^3
#
#
#
# Elastic Constant Matrix: (Units=GPa)
#
#
# Indices 1 2 3 4 5 6 
#
# 1 150.5870 23.8854 10.3818 1.8224 -4.1276 -7.2085
# 2 23.8854 74.9379 2.5414 -2.5368 4.9885 1.0803
# 3 10.3818 2.5414 52.4057 -9.0439 -0.7934 8.0002
# 4 1.8224 -2.5368 -9.0439 45.1190 -1.8290 -4.5459
# 5 -4.1276 4.9885 -0.7934 -1.8290 27.6933 5.4980
# 6 -7.2085 1.0803 8.0002 -4.5459 5.4980 32.8353
#
#
#
# Elastic Compliance Matrix: (Units=1/GPa)
#
#
# Indices 1 2 3 4 5 6 
#
# 1 0.007255 -0.002371 -0.001678 -0.000535 0.001062 0.001828
# 2 -0.002371 0.014320 -0.000080 0.000731 -0.002807 -0.000401
# 3 -0.001678 -0.000080 0.020893 0.003793 0.001647 -0.005207
# 4 -0.000535 0.000731 0.003793 0.023228 0.001039 0.001976
# 5 0.001062 -0.002807 0.001647 0.001039 0.038144 -0.006319
# 6 0.001828 -0.000401 -0.005207 0.001976 -0.006319 0.033470
#
#
# Mechanical properties :
#
#
# Convention : Reuss Voigt Hill
#
# Bulk Modulus (GPa) = 29.23025 39.06086 34.14556
# Shear Modulus (GPa) = 31.85311 37.20432 34.52872
#
# Velocity S-wave (km/s) = 3.58966 3.87948 3.73738
# Velocity P-wave (km/s) = 5.38567 5.98904 5.69535
#
# Compressibility (1/GPa) = 0.03421113
#
# Stress axis : x y z
#
# Youngs Moduli (GPa) = 137.82682 69.83157 47.86400
#
# Poissons Ratio (x) = 0.16556 0.08030
# Poissons Ratio (y) = 0.32677 0.00383
# Poissons Ratio (z) = 0.23123 0.00558
#
# Static dielectric constant tensor:
#      x y z
#    x 2.002290 -0.015330 -0.042810 
#    y -0.015330 1.963930 -0.015760 
#    z -0.042810 -0.015760 1.981980 
# 
# From -- ./inp_files/81228.got.cif
#   From: 2010.05.17/outbox.cif.g08.bks.cpg/sg2_41_cif.got.tgz:81228.got - 2010.06.03 11:33:40.
