data_PCOD9026005
_publ_section_title
;
Structure prediction by ZEFSAII (Michael W. Deem and Ramdas Pophale) SiO2 
 PCOD9026005
Probable space group: P -1
;
_chemical_formula_sum "Si O2"
_cell_formula_units_Z 15
_cell_length_a 12.966087
_cell_length_b 9.656462
_cell_length_c 8.168483
_cell_angle_alpha 80.629246
_cell_angle_beta 132.741446
_cell_angle_gamma 85.118136
_cell_volume 713.593733
_symmetry_space_group_name_H-M "P -1"
_symmetry_group_IT_number 2
_symmetry_cell_setting 'triclinic'
loop_
_space_group_symop_operation_xyz
x,y,z
-x,-y,-z
loop_
_atom_site_type_symbol
_atom_site_label
_atom_site_fract_x
_atom_site_fract_y
_atom_site_fract_z
Si Si1 0.785932 0.621391 0.656953
Si Si2 0.492627 0.807753 0.205399
Si Si3 0.675825 0.892491 0.109075
Si Si4 0.000000 0.000000 0.000000
Si Si5 0.085279 0.692175 0.013859
Si Si6 0.750276 0.332420 0.132120
Si Si7 0.873791 0.043686 0.491218
Si Si8 0.167682 0.413221 0.675214
O O1 0.628427 0.736396 0.481808
O O2 0.806797 0.462192 0.785595
O O3 0.805913 0.599533 0.487543
O O4 0.920254 0.677933 0.856264
O O5 0.555189 0.834834 0.087667
O O6 0.391111 0.700039 0.094843
O O7 0.393878 0.970784 0.109311
O O8 0.787749 0.752132 0.177676
O O9 0.759671 0.955901 0.328792
O O10 0.096837 0.829048 0.104615
O O11 0.063372 0.996126 0.255645
O O12 0.124258 0.704320 0.863677
O O13 0.799327 0.214806 0.351964
O O14 0.737376 0.492349 0.154463
O O15 0.000000 0.000000 0.500000
O O16 0.000000 0.500000 0.500000
#
# Coordination Sequence:
#
# PCOD9026005 Si02
#       8
#     2   2   2   1   2   2   2   2
#     4  10  22  41  61  86 129 169 212 263 336 373
#     4   9  20  39  61  87 126 174 210 266 318 393
#     4   9  20  37  62  89 127 169 214 259 329 381
#     4  12  22  38  64  96 130 160 210 272 322 368
#     4  11  23  40  60  92 124 167 214 274 315 385
#     4  11  22  38  61  95 124 163 221 259 320 386
#     4  11  21  38  63  95 127 164 213 268 311 381
#     4  11  19  35  63  94 121 161 212 273 313 389
#
# _framework density 21.020361999999999
#
# number of rings (size 3 to 8) (size 9 to 14) (size 15 to 20)
#    0.000    1.600    2.667    3.200    0.000    2.667 
#    0.000    2.667    0.000    4.000    0.000    0.000 
#    0.000    0.000    0.000    0.000    0.000    0.000 
#
# Total GULP energy -83509.824754 kJ/mol
# GULP energy per Si atom -5567.321650 kJ/mol
# Density = 2.097252 g / cm^3
# Si number density = 21.020362 Si / 1000 Ang^3
#
#
#
# Elastic Constant Matrix: (Units=GPa)
#
#
# Indices 1 2 3 4 5 6 
#
# 1 24.0768 18.7821 17.3395 1.6253 7.1263 4.7408
# 2 18.7821 141.5873 55.4730 -22.2381 -0.8119 -7.4539
# 3 17.3395 55.4730 111.0582 -32.5745 11.9354 2.7827
# 4 1.6253 -22.2381 -32.5745 36.2034 -4.2041 -0.7001
# 5 7.1263 -0.8119 11.9354 -4.2041 22.6272 0.4406
# 6 4.7408 -7.4539 2.7827 -0.7001 0.4406 23.4358
#
#
#
# Elastic Compliance Matrix: (Units=1/GPa)
#
#
# Indices 1 2 3 4 5 6 
#
# 1 0.064834 -0.009079 -0.008640 -0.018806 -0.019386 -0.015174
# 2 -0.009079 0.010617 -0.003238 0.004791 0.005728 0.005633
# 3 -0.008640 -0.003238 0.015995 0.012368 -0.003520 -0.000745
# 4 -0.018806 0.004791 0.012368 0.043511 0.007558 0.005017
# 5 -0.019386 0.005728 -0.003520 0.007558 0.053662 0.005378
# 6 -0.015174 0.005633 -0.000745 0.005017 0.005378 0.047668
#
#
# Mechanical properties :
#
#
# Convention : Reuss Voigt Hill
#
# Bulk Modulus (GPa) = 20.18852 51.10127 35.64490
# Shear Modulus (GPa) = 16.96577 28.79514 22.88045
#
# Velocity S-wave (km/s) = 2.84405 3.70519 3.30281
# Velocity P-wave (km/s) = 4.51774 6.53205 5.61594
#
# Compressibility (1/GPa) = 0.04953310
#
# Stress axis : x y z
#
# Youngs Moduli (GPa) = 15.42406 94.18472 62.52021
#
# Poissons Ratio (x) = 0.85512 0.54016
# Poissons Ratio (y) = 0.14004 0.20241
# Poissons Ratio (z) = 0.13326 0.30492
#
# Static dielectric constant tensor:
#      x y z
#    x 1.801980 0.032130 0.061930 
#    y 0.032130 1.827370 -0.052160 
#    z 0.061930 -0.052160 1.784480 
# 
# From -- ./inp_files/298619.got.cif
#   From: 2010.05.17/outbox.cif.g08.bks.cpg/sg2_150_cif.got.tgz:298619.got - 2010.06.03 11:33:40.
