data_PCOD9026333
_publ_section_title
;
Structure prediction by ZEFSAII (Michael W. Deem and Ramdas Pophale) SiO2 
 PCOD9026333
Probable space group: P -1
;
_chemical_formula_sum "Si O2"
_cell_formula_units_Z 16
_cell_length_a 7.469869
_cell_length_b 8.331456
_cell_length_c 22.997797
_cell_angle_alpha 39.497792
_cell_angle_beta 133.656684
_cell_angle_gamma 131.074269
_cell_volume 634.132766
_symmetry_space_group_name_H-M "P -1"
_symmetry_group_IT_number 2
_symmetry_cell_setting 'triclinic'
loop_
_space_group_symop_operation_xyz
x,y,z
-x,-y,-z
loop_
_atom_site_type_symbol
_atom_site_label
_atom_site_fract_x
_atom_site_fract_y
_atom_site_fract_z
Si Si1 0.740117 0.581788 0.410344
Si Si2 0.199893 0.391542 0.111558
Si Si3 0.702208 0.812301 0.641314
Si Si4 0.110193 0.688298 0.144192
Si Si5 0.143224 0.005858 0.591966
Si Si6 0.241463 0.454664 0.780686
Si Si7 0.299264 0.253297 0.050918
Si Si8 0.990945 0.100116 0.719378
O O1 0.548897 0.321271 0.413990
O O2 0.000000 0.500000 0.500000
O O3 0.793268 0.795073 0.310393
O O4 0.681193 0.720352 0.417766
O O5 0.467076 0.575614 0.146072
O O6 0.314743 0.254186 0.123117
O O7 0.030705 0.169716 0.177092
O O8 0.000000 0.500000 0.000000
O O9 0.780240 0.558939 0.754916
O O10 0.913528 0.937511 0.606256
O O11 0.730509 0.016494 0.644192
O O12 0.905683 0.655838 0.161330
O O13 0.314932 0.968551 0.115508
O O14 0.965474 0.710472 0.045607
O O15 0.266192 0.762807 0.691840
O O16 0.000000 0.000000 0.500000
O O17 0.061221 0.314360 0.726080
O O18 0.500000 0.500000 0.000000
#
# Coordination Sequence:
#
# PCOD9026333 Si02
#       8
#     2   2   2   2   2   2   2   2
#     4  11  25  45  70 102 139 183 226 288 357 422
#     4  12  26  41  65 103 139 188 238 290 357 413
#     4  10  24  43  68  97 135 179 227 282 346 416
#     4  10  22  41  63  97 125 179 233 279 343 403
#     4  10  24  43  71 106 133 177 234 285 350 419
#     4  11  23  43  69  99 140 180 231 295 346 419
#     4  11  22  40  67  94 135 178 230 289 343 410
#     4  11  24  44  65  98 140 179 230 287 352 414
#
# _framework density 25.231307999999999
#
# number of rings (size 3 to 8) (size 9 to 14) (size 15 to 20)
#    0.000    1.250    2.500    2.250    1.750    6.000 
#    0.000    0.000    0.000    0.000    0.000    0.000 
#    0.000    0.000    0.000    0.000    0.000    0.000 
#
# Total GULP energy -89377.355026 kJ/mol
# GULP energy per Si atom -5586.084689 kJ/mol
# Density = 2.517388 g / cm^3
# Si number density = 25.231308 Si / 1000 Ang^3
#
#
#
# Elastic Constant Matrix: (Units=GPa)
#
#
# Indices 1 2 3 4 5 6 
#
# 1 45.5049 33.3052 22.6997 12.9159 -11.4780 -2.4953
# 2 33.3052 174.6096 37.9758 29.4779 7.1224 -16.6174
# 3 22.6997 37.9758 135.5577 16.6205 -1.2118 -9.2196
# 4 12.9159 29.4779 16.6205 52.9650 -0.9313 -10.7303
# 5 -11.4780 7.1224 -1.2118 -0.9313 44.9367 8.3372
# 6 -2.4953 -16.6174 -9.2196 -10.7303 8.3372 43.5773
#
#
#
# Elastic Compliance Matrix: (Units=1/GPa)
#
#
# Indices 1 2 3 4 5 6 
#
# 1 0.030712 -0.005151 -0.003359 -0.004155 0.009170 -0.003694
# 2 -0.005151 0.007640 -0.000858 -0.002282 -0.003053 0.002459
# 3 -0.003359 -0.000858 0.008387 -0.001121 -0.000727 0.001118
# 4 -0.004155 -0.002282 -0.001121 0.022383 -0.001077 0.004372
# 5 0.009170 -0.003053 -0.000727 -0.001077 0.026163 -0.006064
# 6 -0.003694 0.002459 0.001118 0.004372 -0.006064 0.026147
#
#
# Mechanical properties :
#
#
# Convention : Reuss Voigt Hill
#
# Bulk Modulus (GPa) = 35.71313 60.40372 48.05842
# Shear Modulus (GPa) = 33.44433 45.74189 39.59311
#
# Velocity S-wave (km/s) = 3.64470 4.26244 3.96562
# Velocity P-wave (km/s) = 5.64773 6.94381 6.32903
#
# Compressibility (1/GPa) = 0.02800091
#
# Stress axis : x y z
#
# Youngs Moduli (GPa) = 32.56103 130.88808 119.23423
#
# Poissons Ratio (x) = 0.67426 0.40056
# Poissons Ratio (y) = 0.16774 0.10230
# Poissons Ratio (z) = 0.10939 0.11229
#
# Static dielectric constant tensor:
#      x y z
#    x 2.099580 -0.060430 0.021410 
#    y -0.060430 2.150890 0.062460 
#    z 0.021410 0.062460 2.022770 
# 
# From -- ./inp_files/606636.got.cif
#   From: 2010.05.17/outbox.cif.g08.bks.cpg/sg2_304_cif.got.tgz:606636.got - 2010.06.03 11:33:40.
