data_PCOD9026204
_publ_section_title
;
Structure prediction by ZEFSAII (Michael W. Deem and Ramdas Pophale) SiO2 
 PCOD9026204
Probable space group: P -1
;
_chemical_formula_sum "Si O2"
_cell_formula_units_Z 16
_cell_length_a 15.043905
_cell_length_b 16.278549
_cell_length_c 8.825739
_cell_angle_alpha 95.290414
_cell_angle_beta 102.285599
_cell_angle_gamma 152.803927
_cell_volume 749.349285
_symmetry_space_group_name_H-M "P -1"
_symmetry_group_IT_number 2
_symmetry_cell_setting 'triclinic'
loop_
_space_group_symop_operation_xyz
x,y,z
-x,-y,-z
loop_
_atom_site_type_symbol
_atom_site_label
_atom_site_fract_x
_atom_site_fract_y
_atom_site_fract_z
Si Si1 0.246719 0.303488 0.777107
Si Si2 0.498261 0.763188 0.273601
Si Si3 0.153271 0.418633 0.816603
Si Si4 0.491000 0.323729 0.440438
Si Si5 0.542664 0.844313 0.816144
Si Si6 0.445010 0.047763 0.454337
Si Si7 0.063416 0.840699 0.742774
Si Si8 0.165934 0.182309 0.378984
O O1 0.192585 0.355687 0.778429
O O2 0.243486 0.274160 0.593917
O O3 0.500000 0.500000 0.000000
O O4 0.032791 0.062062 0.727232
O O5 0.560969 0.748198 0.419269
O O6 0.423513 0.780533 0.345693
O O7 0.747408 0.993216 0.302660
O O8 0.283650 0.546936 0.047814
O O9 0.310630 0.612033 0.793029
O O10 0.856503 0.189072 0.677619
O O11 0.361478 0.151725 0.249081
O O12 0.395290 0.335225 0.394645
O O13 0.793990 0.570003 0.568567
O O14 0.477422 0.858100 0.670946
O O15 0.772031 0.061261 0.048724
O O16 0.500000 0.000000 0.500000
O O17 0.977906 0.861774 0.753707
#
# Coordination Sequence:
#
# PCOD9026204 Si02
#       8
#     2   2   2   2   2   2   2   2
#     4  11  21  36  60  89 125 169 209 248 295 346
#     4  10  22  41  63  86 117 158 201 244 303 371
#     4  11  22  41  64  87 124 164 199 249 302 355
#     4  11  21  36  58  85 122 163 204 252 296 346
#     4  10  23  40  61  89 117 157 205 242 303 374
#     4  11  24  43  67  93 120 151 195 255 315 370
#     4  11  22  39  59  85 124 165 203 250 300 351
#     4  11  22  33  53  89 124 162 215 253 289 349
#
# _framework density 21.351859000000001
#
# number of rings (size 3 to 8) (size 9 to 14) (size 15 to 20)
#    0.000    1.250    0.000    8.625    0.000    2.500 
#    0.000    2.500    0.000    0.000    0.000    0.000 
#    0.000    0.000    0.000    0.000    0.000    0.000 
#
# Total GULP energy -89467.834702 kJ/mol
# GULP energy per Si atom -5591.739669 kJ/mol
# Density = 2.130326 g / cm^3
# Si number density = 21.351859 Si / 1000 Ang^3
#
#
#
# Elastic Constant Matrix: (Units=GPa)
#
#
# Indices 1 2 3 4 5 6 
#
# 1 72.1816 14.8122 15.7165 8.0740 11.1967 -25.2554
# 2 14.8122 68.2466 25.9841 -5.5994 5.9380 -4.4625
# 3 15.7165 25.9841 101.6256 14.6258 -8.1488 0.3436
# 4 8.0740 -5.5994 14.6258 27.1017 -5.7324 2.6597
# 5 11.1967 5.9380 -8.1488 -5.7324 17.4032 -0.9403
# 6 -25.2554 -4.4625 0.3436 2.6597 -0.9403 31.6004
#
#
#
# Elastic Compliance Matrix: (Units=1/GPa)
#
#
# Indices 1 2 3 4 5 6 
#
# 1 0.028041 -0.002449 -0.003575 -0.013849 -0.022219 0.022608
# 2 -0.002449 0.018318 -0.005652 0.006467 -0.005191 -0.000008
# 3 -0.003575 -0.005652 0.013277 -0.005147 0.008582 -0.003111
# 4 -0.013849 0.006467 -0.005147 0.050778 0.020275 -0.013769
# 5 -0.022219 -0.005191 0.008582 0.020275 0.083261 -0.017813
# 6 0.022608 -0.000008 -0.003111 -0.013769 -0.017813 0.050375
#
#
# Mechanical properties :
#
#
# Convention : Reuss Voigt Hill
#
# Bulk Modulus (GPa) = 27.56075 39.45326 33.50700
# Shear Modulus (GPa) = 17.88924 27.59046 22.73985
#
# Velocity S-wave (km/s) = 2.89767 3.59859 3.26698
# Velocity P-wave (km/s) = 4.91236 5.98199 5.47337
#
# Compressibility (1/GPa) = 0.03628348
#
# Stress axis : x y z
#
# Youngs Moduli (GPa) = 35.66209 54.59139 75.31552
#
# Poissons Ratio (x) = 0.13372 0.26927
# Poissons Ratio (y) = 0.08735 0.42566
# Poissons Ratio (z) = 0.12750 0.30854
#
# Static dielectric constant tensor:
#      x y z
#    x 1.736790 0.024380 -0.004510 
#    y 0.024380 1.843040 0.013970 
#    z -0.004510 0.013970 1.772790 
# 
# From -- ./inp_files/315337.got.cif
#   From: 2010.05.17/outbox.cif.g08.bks.cpg/sg2_158_cif.got.tgz:315337.got - 2010.06.03 11:33:40.
