data_PCOD9026038
_publ_section_title
;
Structure prediction by ZEFSAII (Michael W. Deem and Ramdas Pophale) SiO2 
 PCOD9026038
Probable space group: P -1
;
_chemical_formula_sum "Si O2"
_cell_formula_units_Z 16
_cell_length_a 8.435827
_cell_length_b 19.241662
_cell_length_c 9.675373
_cell_angle_alpha 38.958057
_cell_angle_beta 76.570570
_cell_angle_gamma 53.812069
_cell_volume 712.870478
_symmetry_space_group_name_H-M "P -1"
_symmetry_group_IT_number 2
_symmetry_cell_setting 'triclinic'
loop_
_space_group_symop_operation_xyz
x,y,z
-x,-y,-z
loop_
_atom_site_type_symbol
_atom_site_label
_atom_site_fract_x
_atom_site_fract_y
_atom_site_fract_z
Si Si1 0.788091 0.669183 0.277158
Si Si2 0.012295 0.680745 0.971629
Si Si3 0.235882 0.801667 0.700771
Si Si4 0.824159 0.081581 0.196390
Si Si5 0.674722 0.907610 0.482011
Si Si6 0.409867 0.147381 0.713772
Si Si7 0.508646 0.641264 0.643237
Si Si8 0.587791 0.347714 0.646864
O O1 0.785174 0.733036 0.325628
O O2 0.590968 0.672007 0.285057
O O3 0.000000 0.500000 0.500000
O O4 0.834030 0.728501 0.048319
O O5 0.097298 0.765295 0.852393
O O6 0.884586 0.748879 0.748501
O O7 0.232511 0.506018 0.191682
O O8 0.320181 0.829840 0.772309
O O9 0.412291 0.664499 0.778023
O O10 0.066768 0.949696 0.413460
O O11 0.747135 0.998593 0.282170
O O12 0.789189 0.198371 0.917484
O O13 0.608807 0.873985 0.409365
O O14 0.500000 0.000000 0.500000
O O15 0.533098 0.208542 0.599236
O O16 0.500000 0.000000 0.000000
O O17 0.386213 0.640241 0.540550
O O18 0.500000 0.500000 0.500000
#
# Coordination Sequence:
#
# PCOD9026038 Si02
#       8
#     2   2   2   2   2   2   2   2
#     4  11  23  46  67  97 137 177 221 276 337 407
#     4  11  22  42  67  93 131 174 223 274 340 403
#     4  10  23  42  65  90 132 177 216 277 345 396
#     4  10  22  41  61  93 127 171 223 268 335 399
#     4  11  22  40  65  98 130 170 222 281 334 396
#     4  11  23  41  67  95 133 177 222 276 339 392
#     4  11  23  43  61  96 133 170 224 275 336 404
#     4  11  23  42  68  96 130 171 222 271 332 397
#
# _framework density 22.444469999999999
#
# number of rings (size 3 to 8) (size 9 to 14) (size 15 to 20)
#    0.000    1.250    2.500    4.875    0.000    3.000 
#    6.750    0.000    0.000    0.000    0.000    0.000 
#    0.000    0.000    0.000    0.000    0.000    0.000 
#
# Total GULP energy -89238.781829 kJ/mol
# GULP energy per Si atom -5577.423864 kJ/mol
# Density = 2.239339 g / cm^3
# Si number density = 22.444470 Si / 1000 Ang^3
#
#
#
# Elastic Constant Matrix: (Units=GPa)
#
#
# Indices 1 2 3 4 5 6 
#
# 1 35.7430 27.0474 9.7235 5.4970 -6.3560 15.2261
# 2 27.0474 163.5342 27.3519 3.3109 3.4125 26.1279
# 3 9.7235 27.3519 104.2031 -12.4625 3.4854 8.2328
# 4 5.4970 3.3109 -12.4625 33.5375 -1.5637 0.8212
# 5 -6.3560 3.4125 3.4854 -1.5637 32.3707 2.8410
# 6 15.2261 26.1279 8.2328 0.8212 2.8410 41.2023
#
#
#
# Elastic Compliance Matrix: (Units=1/GPa)
#
#
# Indices 1 2 3 4 5 6 
#
# 1 0.039643 -0.004264 -0.002709 -0.006360 0.009264 -0.011917
# 2 -0.004264 0.007541 -0.001381 -0.000548 -0.001261 -0.002832
# 3 -0.002709 -0.001381 0.010822 0.004548 -0.001307 -0.000286
# 4 -0.006360 -0.000548 0.004548 0.032566 -0.000209 0.001154
# 5 0.009264 -0.001261 -0.001307 -0.000209 0.033384 -0.004660
# 6 -0.011917 -0.002832 -0.000286 0.001154 -0.004660 0.030826
#
#
# Mechanical properties :
#
#
# Convention : Reuss Voigt Hill
#
# Bulk Modulus (GPa) = 24.21437 47.96956 36.09197
# Shear Modulus (GPa) = 26.98968 37.37928 32.18448
#
# Velocity S-wave (km/s) = 3.47148 4.08537 3.79088
# Velocity P-wave (km/s) = 5.18462 6.60853 5.93940
#
# Compressibility (1/GPa) = 0.04129778
#
# Stress axis : x y z
#
# Youngs Moduli (GPa) = 25.22516 132.60549 92.40289
#
# Poissons Ratio (x) = 0.56546 0.25031
# Poissons Ratio (y) = 0.10757 0.12762
# Poissons Ratio (z) = 0.06833 0.18315
#
# Static dielectric constant tensor:
#      x y z
#    x 1.901020 -0.054540 -0.035550 
#    y -0.054540 1.863790 0.035000 
#    z -0.035550 0.035000 1.911590 
# 
# From -- ./inp_files/216454.got.cif
#   From: 2010.05.17/outbox.cif.g08.bks.cpg/sg2_109_cif.got.tgz:216454.got - 2010.06.03 11:33:40.
