data_PCOD9026430
_publ_section_title
;
Structure prediction by ZEFSAII (Michael W. Deem and Ramdas Pophale) SiO2 
 PCOD9026430
Probable space group: P -1
;
_chemical_formula_sum "Si O2"
_cell_formula_units_Z 16
_cell_length_a 10.275775
_cell_length_b 15.221962
_cell_length_c 13.051769
_cell_angle_alpha 124.125845
_cell_angle_beta 32.215373
_cell_angle_gamma 103.858746
_cell_volume 762.427710
_symmetry_space_group_name_H-M "P -1"
_symmetry_group_IT_number 2
_symmetry_cell_setting 'triclinic'
loop_
_space_group_symop_operation_xyz
x,y,z
-x,-y,-z
loop_
_atom_site_type_symbol
_atom_site_label
_atom_site_fract_x
_atom_site_fract_y
_atom_site_fract_z
Si Si1 0.281166 0.363560 0.232057
Si Si2 0.767078 0.597688 0.479691
Si Si3 0.828146 0.919815 0.423327
Si Si4 0.175012 0.299960 0.051616
Si Si5 0.898512 0.278028 0.709973
Si Si6 0.206952 0.989605 0.945371
Si Si7 0.177167 0.766606 0.898295
Si Si8 0.834231 0.150936 0.482225
O O1 0.314793 0.332617 0.309238
O O2 0.243199 0.283184 0.117233
O O3 0.000000 0.500000 0.500000
O O4 0.559517 0.366344 0.015075
O O5 0.979811 0.449146 0.257139
O O6 0.937423 0.649816 0.340401
O O7 0.465691 0.637679 0.653634
O O8 0.489937 0.978735 0.704980
O O9 0.880335 0.030882 0.436470
O O10 0.984641 0.837210 0.364732
O O11 0.954307 0.827328 0.180953
O O12 0.024978 0.098839 0.219866
O O13 0.489833 0.235686 0.747267
O O14 0.922933 0.226813 0.545596
O O15 0.993190 0.245366 0.090709
O O16 0.285471 0.860632 0.864623
O O17 0.000000 0.000000 0.000000
#
# Coordination Sequence:
#
# PCOD9026430 Si02
#       8
#     2   2   2   2   2   2   2   2
#     4   9  21  40  63  89 124 164 202 254 307 360
#     4  11  22  41  66  92 126 164 206 256 310 369
#     4  11  22  41  63  90 126 161 206 261 309 365
#     4  10  22  41  64  91 127 165 206 255 308 371
#     4  11  22  40  64  93 125 159 210 256 312 365
#     4  11  23  40  64  91 125 165 207 256 314 367
#     4  11  22  41  64  93 125 165 206 255 311 370
#     4  10  24  40  62  93 122 163 207 258 308 371
#
# _framework density 20.985596999999999
#
# number of rings (size 3 to 8) (size 9 to 14) (size 15 to 20)
#    0.000    1.500    2.500    2.250    0.000   10.000 
#    0.000    5.625    0.000    0.000    0.000    0.000 
#    0.000    0.000    0.000    0.000    0.000    0.000 
#
# Total GULP energy -89383.970262 kJ/mol
# GULP energy per Si atom -5586.498141 kJ/mol
# Density = 2.093783 g / cm^3
# Si number density = 20.985597 Si / 1000 Ang^3
#
#
#
# Elastic Constant Matrix: (Units=GPa)
#
#
# Indices 1 2 3 4 5 6 
#
# 1 65.7974 1.0941 28.3833 -9.8107 -5.6428 2.4230
# 2 1.0941 42.7104 28.0906 -7.1476 9.5500 5.8949
# 3 28.3833 28.0906 104.1732 -2.7234 6.2620 9.8399
# 4 -9.8107 -7.1476 -2.7234 32.7184 -3.2517 -3.8086
# 5 -5.6428 9.5500 6.2620 -3.2517 25.5769 0.1490
# 6 2.4230 5.8949 9.8399 -3.8086 0.1490 27.2991
#
#
#
# Elastic Compliance Matrix: (Units=1/GPa)
#
#
# Indices 1 2 3 4 5 6 
#
# 1 0.019347 0.003560 -0.006449 0.006661 0.005360 0.000739
# 2 0.003560 0.032434 -0.008743 0.006214 -0.008376 -0.003256
# 3 -0.006449 -0.008743 0.014036 -0.003227 -0.001987 -0.003038
# 4 0.006661 0.006214 -0.003227 0.034547 0.004308 0.004026
# 5 0.005360 -0.008376 -0.001987 0.004308 0.044428 0.002408
# 6 0.000739 -0.003256 -0.003038 0.004026 0.002408 0.038912
#
#
# Mechanical properties :
#
#
# Convention : Reuss Voigt Hill
#
# Bulk Modulus (GPa) = 23.49953 36.42409 29.96181
# Shear Modulus (GPa) = 22.60890 27.45977 25.03433
#
# Velocity S-wave (km/s) = 3.28587 3.62125 3.45763
# Velocity P-wave (km/s) = 5.06144 5.90584 5.49987
#
# Compressibility (1/GPa) = 0.04255404
#
# Stress axis : x y z
#
# Youngs Moduli (GPa) = 51.68869 30.83151 71.24492
#
# Poissons Ratio (x) = -0.10976 0.45946
# Poissons Ratio (y) = -0.18402 0.62286
# Poissons Ratio (z) = 0.33334 0.26955
#
# Static dielectric constant tensor:
#      x y z
#    x 1.753770 -0.023660 0.000200 
#    y -0.023660 1.793260 0.041950 
#    z 0.000200 0.041950 1.757600 
# 
# From -- ./inp_files/573430.got.cif
#   From: 2010.05.17/outbox.cif.g08.bks.cpg/sg2_287_cif.got.tgz:573430.got - 2010.06.03 11:33:40.
