data_PCOD9026396
_publ_section_title
;
Structure prediction by ZEFSAII (Michael W. Deem and Ramdas Pophale) SiO2 
 PCOD9026396
Probable space group: P -1
;
_chemical_formula_sum "Si O2"
_cell_formula_units_Z 16
_cell_length_a 19.867602
_cell_length_b 9.094456
_cell_length_c 15.113558
_cell_angle_alpha 156.235826
_cell_angle_beta 140.590847
_cell_angle_gamma 37.139348
_cell_volume 653.909521
_symmetry_space_group_name_H-M "P -1"
_symmetry_group_IT_number 2
_symmetry_cell_setting 'triclinic'
loop_
_space_group_symop_operation_xyz
x,y,z
-x,-y,-z
loop_
_atom_site_type_symbol
_atom_site_label
_atom_site_fract_x
_atom_site_fract_y
_atom_site_fract_z
Si Si1 0.742524 0.671949 0.778152
Si Si2 0.326388 0.272332 0.894316
Si Si3 0.951236 0.538061 0.803306
Si Si4 0.522049 0.521121 0.432706
Si Si5 0.859024 0.617725 0.568146
Si Si6 0.189303 0.492067 0.045946
Si Si7 0.821606 0.340057 0.191902
Si Si8 0.379177 0.995946 0.406148
O O1 0.857798 0.441169 0.713901
O O2 0.633508 0.638004 0.601306
O O3 0.753230 0.545492 0.821127
O O4 0.738539 0.117348 0.018180
O O5 0.265946 0.243985 0.908611
O O6 0.348402 0.678217 0.142779
O O7 0.092058 0.989984 0.964610
O O8 0.247359 0.302636 0.744521
O O9 0.944431 0.457533 0.648167
O O10 0.077641 0.378476 0.880032
O O11 0.500000 0.500000 0.500000
O O12 0.558628 0.088281 0.194030
O O13 0.412290 0.811135 0.434967
O O14 0.878377 0.424357 0.384737
O O15 0.846125 0.065698 0.782475
O O16 0.736316 0.643176 0.498209
O O17 0.500000 0.000000 0.500000
#
# Coordination Sequence:
#
# PCOD9026396 Si02
#       8
#     2   2   2   2   2   2   2   2
#     4  10  23  42  60  93 132 161 214 264 307 381
#     4  11  23  42  61  98 127 163 221 259 307 388
#     4  10  22  43  65  91 134 166 210 257 320 373
#     4  12  24  41  64  90 126 171 210 265 318 368
#     4  11  22  41  66  95 125 165 218 258 309 384
#     4  11  21  41  67  91 131 167 206 267 314 372
#     4  10  22  41  64  89 132 166 206 258 315 369
#     4  11  22  40  65  90 127 167 207 262 320 368
#
# _framework density 24.468219000000001
#
# number of rings (size 3 to 8) (size 9 to 14) (size 15 to 20)
#    0.750    0.500    2.500    5.625    0.000    3.500 
#    2.250    3.750    0.000    0.000    0.000    0.000 
#    0.000    0.000    0.000    0.000    0.000    0.000 
#
# Total GULP energy -89483.808366 kJ/mol
# GULP energy per Si atom -5592.738023 kJ/mol
# Density = 2.441253 g / cm^3
# Si number density = 24.468219 Si / 1000 Ang^3
#
#
#
# Elastic Constant Matrix: (Units=GPa)
#
#
# Indices 1 2 3 4 5 6 
#
# 1 92.3999 4.2916 25.6507 -8.9980 6.9484 6.7483
# 2 4.2916 45.7139 13.9508 -24.2681 -1.8313 9.6519
# 3 25.6507 13.9508 108.0588 -24.2161 -25.2565 0.4946
# 4 -8.9980 -24.2681 -24.2161 40.0097 6.2384 -3.3515
# 5 6.9484 -1.8313 -25.2565 6.2384 26.0777 -13.9861
# 6 6.7483 9.6519 0.4946 -3.3515 -13.9861 36.3563
#
#
#
# Elastic Compliance Matrix: (Units=1/GPa)
#
#
# Indices 1 2 3 4 5 6 
#
# 1 0.014918 0.003858 -0.007197 0.003118 -0.016692 -0.009829
# 2 0.003858 0.036842 -0.004378 0.021793 -0.015642 -0.014446
# 3 -0.007197 -0.004378 0.018117 0.003850 0.024737 0.012123
# 4 0.003118 0.021793 0.003850 0.042124 -0.008830 -0.005930
# 5 -0.016692 -0.015642 0.024737 -0.008830 0.089505 0.040533
# 6 -0.009829 -0.014446 0.012123 -0.005930 0.040533 0.048046
#
#
# Mechanical properties :
#
#
# Convention : Reuss Voigt Hill
#
# Bulk Modulus (GPa) = 18.36806 37.10654 27.73730
# Shear Modulus (GPa) = 17.65950 33.97405 25.81677
#
# Velocity S-wave (km/s) = 2.68942 3.73030 3.25178
# Velocity P-wave (km/s) = 4.14333 5.80961 5.04573
#
# Compressibility (1/GPa) = 0.05444232
#
# Stress axis : x y z
#
# Youngs Moduli (GPa) = 67.03360 27.14306 55.19727
#
# Poissons Ratio (x) = -0.10471 0.39724
# Poissons Ratio (y) = -0.25860 0.24167
# Poissons Ratio (z) = 0.48242 0.11884
#
# Static dielectric constant tensor:
#      x y z
#    x 1.970850 0.019310 0.046910 
#    y 0.019310 1.931580 0.038800 
#    z 0.046910 0.038800 1.953730 
# 
# From -- ./inp_files/461694.got.cif
#   From: 2010.05.17/outbox.cif.g08.bks.cpg/sg2_231_cif.got.tgz:461694.got - 2010.06.03 11:33:40.
