data_PCOD9026801
_publ_section_title
;
Structure prediction by ZEFSAII (Michael W. Deem and Ramdas Pophale) SiO2 
 PCOD9026801
Probable space group: P -1
;
_chemical_formula_sum "Si O2"
_cell_formula_units_Z 10
_cell_length_a 18.759434
_cell_length_b 14.687620
_cell_length_c 10.538943
_cell_angle_alpha 23.602431
_cell_angle_beta 25.746620
_cell_angle_gamma 21.234289
_cell_volume 398.765685
_symmetry_space_group_name_H-M "P -1"
_symmetry_group_IT_number 2
_symmetry_cell_setting 'triclinic'
loop_
_space_group_symop_operation_xyz
x,y,z
-x,-y,-z
loop_
_atom_site_type_symbol
_atom_site_label
_atom_site_fract_x
_atom_site_fract_y
_atom_site_fract_z
Si Si1 0.391593 0.516819 0.340299
Si Si2 0.459811 0.957611 0.976159
Si Si3 0.748847 0.477904 0.945397
Si Si4 0.816121 0.883713 0.178952
Si Si5 0.951873 0.763836 0.823274
O O1 0.427191 0.226785 0.611370
O O2 0.172650 0.702112 0.534350
O O3 0.595762 0.416358 0.218162
O O4 0.342312 0.770116 0.003704
O O5 0.654488 0.655758 0.999130
O O6 0.255899 0.980827 0.244315
O O7 0.500000 0.000000 0.000000
O O8 0.737845 0.707375 0.578272
O O9 0.986791 0.215468 0.923506
O O10 0.890495 0.780741 0.045853
O O11 0.000000 0.500000 0.000000
#
# Coordination Sequence:
#
# PCOD9026801 Si02
#       5
#     2   2   2   2   2
#     4  11  24  43  71  96 130 179 213 271 330 385
#     4  11  25  42  69 100 132 170 224 272 324 388
#     4  11  25  45  67  98 136 172 216 274 321 396
#     4  11  24  45  67  97 137 171 219 269 330 385
#     4  10  22  41  65  97 130 169 216 271 318 386
#
# _framework density 25.077383000000001
#
# number of rings (size 3 to 8) (size 9 to 14) (size 15 to 20)
#    0.000    1.200    2.000    3.600    2.800    2.400 
#    3.600    2.000    0.000    0.000    0.000    0.000 
#    0.000    0.000    0.000    0.000    0.000    0.000 
#
# Total GULP energy -55915.570384 kJ/mol
# GULP energy per Si atom -5591.557038 kJ/mol
# Density = 2.502031 g / cm^3
# Si number density = 25.077383 Si / 1000 Ang^3
#
#
#
# Elastic Constant Matrix: (Units=GPa)
#
#
# Indices 1 2 3 4 5 6 
#
# 1 60.1382 18.1257 45.1973 0.1578 -23.0462 -23.2381
# 2 18.1257 72.1056 12.9985 -12.6914 -14.8697 -21.9574
# 3 45.1973 12.9985 97.8563 9.4310 -24.2939 -12.7101
# 4 0.1578 -12.6914 9.4310 46.6394 -6.9614 -6.5697
# 5 -23.0462 -14.8697 -24.2939 -6.9614 47.7496 8.7648
# 6 -23.2381 -21.9574 -12.7101 -6.5697 8.7648 41.7742
#
#
#
# Elastic Compliance Matrix: (Units=1/GPa)
#
#
# Indices 1 2 3 4 5 6 
#
# 1 0.035319 0.001079 -0.012840 0.006276 0.008935 0.015420
# 2 0.001079 0.019487 -0.001173 0.007806 0.005180 0.010627
# 3 -0.012840 -0.001173 0.016706 -0.003871 0.002055 -0.003716
# 4 0.006276 0.007806 -0.003871 0.026491 0.005627 0.009402
# 5 0.008935 0.005180 0.002055 0.005627 0.028128 0.003301
# 6 0.015420 0.010627 -0.003716 0.009402 0.003301 0.037757
#
#
# Mechanical properties :
#
#
# Convention : Reuss Voigt Hill
#
# Bulk Modulus (GPa) = 21.90863 42.52703 32.21783
# Shear Modulus (GPa) = 24.39357 37.48456 30.93906
#
# Velocity S-wave (km/s) = 3.12225 3.87040 3.51628
# Velocity P-wave (km/s) = 4.66404 6.08017 5.41857
#
# Compressibility (1/GPa) = 0.04564411
#
# Stress axis : x y z
#
# Youngs Moduli (GPa) = 28.31302 51.31590 59.85875
#
# Poissons Ratio (x) = -0.05538 0.76861
# Poissons Ratio (y) = -0.03056 0.07022
# Poissons Ratio (z) = 0.36355 0.06020
#
# Static dielectric constant tensor:
#      x y z
#    x 1.962650 -0.032260 0.018080 
#    y -0.032260 2.002170 0.024140 
#    z 0.018080 0.024140 2.121730 
# 
# From -- ./inp_files/148491.got.cif
#   From: 2010.05.17/outbox.cif.g08.bks.cpg/sg2_75_cif.got.tgz:148491.got - 2010.06.03 11:33:40.
