data_PCOD9026511
_publ_section_title
;
Structure prediction by ZEFSAII (Michael W. Deem and Ramdas Pophale) SiO2 
 PCOD9026511
Probable space group: P -1
;
_chemical_formula_sum "Si O2"
_cell_formula_units_Z 14
_cell_length_a 8.319407
_cell_length_b 14.760887
_cell_length_c 11.397070
_cell_angle_alpha 132.076783
_cell_angle_beta 78.243813
_cell_angle_gamma 65.875421
_cell_volume 672.314261
_symmetry_space_group_name_H-M "P -1"
_symmetry_group_IT_number 2
_symmetry_cell_setting 'triclinic'
loop_
_space_group_symop_operation_xyz
x,y,z
-x,-y,-z
loop_
_atom_site_type_symbol
_atom_site_label
_atom_site_fract_x
_atom_site_fract_y
_atom_site_fract_z
Si Si1 0.602474 0.147910 0.365773
Si Si2 0.788730 0.872911 0.919432
Si Si3 0.029065 0.143587 0.738644
Si Si4 0.776747 0.545708 0.126015
Si Si5 0.630279 0.160059 0.748381
Si Si6 0.515219 0.169324 0.033308
Si Si7 0.305321 0.713939 0.729931
O O1 0.355102 0.326886 0.627012
O O2 0.699631 0.202686 0.315548
O O3 0.805747 0.994924 0.298187
O O4 0.586963 0.043791 0.187982
O O5 0.741998 0.754593 0.826079
O O6 0.045017 0.789827 0.850377
O O7 0.723936 0.964575 0.881897
O O8 0.827068 0.153922 0.748118
O O9 0.223559 0.031923 0.504178
O O10 0.890071 0.348191 0.957322
O O11 0.562606 0.673153 0.169295
O O12 0.000000 0.500000 0.000000
O O13 0.512046 0.182536 0.906262
O O14 0.592290 0.254329 0.155543
O O15 0.500000 0.500000 0.500000
#
# Coordination Sequence:
#
# PCOD9026511 Si02
#       7
#     2   2   2   2   2   2   2
#     4  10  23  41  70  91 131 177 213 264 331 381
#     4  10  22  42  68  95 131 174 220 262 327 393
#     4  10  22  42  67  89 129 172 220 265 323 384
#     4  11  26  40  64 101 127 167 220 265 326 389
#     4  10  22  41  64  94 127 172 214 269 324 381
#     4  10  22  41  66  96 130 174 217 265 330 385
#     4  11  24  42  67 102 132 170 220 270 326 393
#
# _framework density 20.823595000000001
#
# number of rings (size 3 to 8) (size 9 to 14) (size 15 to 20)
#    0.000    1.714    0.000    3.857    8.000    1.714 
#    2.571    0.000    0.000    0.000    0.000    0.000 
#    0.000    0.000    0.000    0.000    0.000    0.000 
#
# Total GULP energy -78122.467438 kJ/mol
# GULP energy per Si atom -5580.176246 kJ/mol
# Density = 2.077620 g / cm^3
# Si number density = 20.823595 Si / 1000 Ang^3
#
#
#
# Elastic Constant Matrix: (Units=GPa)
#
#
# Indices 1 2 3 4 5 6 
#
# 1 104.8031 5.0208 37.2404 4.1597 1.3808 3.6817
# 2 5.0208 79.4104 41.7561 -1.1574 10.5600 -5.8462
# 3 37.2404 41.7561 119.0488 11.7464 2.7495 -2.6879
# 4 4.1597 -1.1574 11.7464 35.9857 4.1303 1.6442
# 5 1.3808 10.5600 2.7495 4.1303 15.2267 -7.8376
# 6 3.6817 -5.8462 -2.6879 1.6442 -7.8376 15.8437
#
#
#
# Elastic Compliance Matrix: (Units=1/GPa)
#
#
# Indices 1 2 3 4 5 6 
#
# 1 0.011133 0.001697 -0.004172 0.000822 -0.004124 -0.004794
# 2 0.001697 0.017846 -0.006950 0.004298 -0.013539 -0.002132
# 3 -0.004172 -0.006950 0.012560 -0.004764 0.006376 0.004184
# 4 0.000822 0.004298 -0.004764 0.031760 -0.016374 -0.010809
# 5 -0.004124 -0.013539 0.006376 -0.016374 0.104753 0.050563
# 6 -0.004794 -0.002132 0.004184 -0.010809 0.050563 0.090288
#
#
# Mechanical properties :
#
#
# Convention : Reuss Voigt Hill
#
# Bulk Modulus (GPa) = 44.07278 52.36630 48.21954
# Shear Modulus (GPa) = 16.96336 28.02756 22.49546
#
# Velocity S-wave (km/s) = 2.85725 3.67270 3.29034
# Velocity P-wave (km/s) = 5.66533 6.57169 6.13527
#
# Compressibility (1/GPa) = 0.02268974
#
# Stress axis : x y z
#
# Youngs Moduli (GPa) = 89.82332 56.03499 79.61838
#
# Poissons Ratio (x) = -0.09511 0.33217
# Poissons Ratio (y) = -0.15246 0.55334
# Poissons Ratio (z) = 0.37474 0.38944
#
# Static dielectric constant tensor:
#      x y z
#    x 1.784520 0.003260 -0.017820 
#    y 0.003260 1.791210 -0.007560 
#    z -0.017820 -0.007560 1.788960 
# 
# From -- ./inp_files/273830.got.cif
#   From: 2010.05.17/outbox.cif.g08.bks.cpg/sg2_137_cif.got.tgz:273830.got - 2010.06.03 11:33:40.
