data_PCOD9026861
_publ_section_title
;
Structure prediction by ZEFSAII (Michael W. Deem and Ramdas Pophale) SiO2 
 PCOD9026861
Probable space group: P -1
;
_chemical_formula_sum "Si O2"
_cell_formula_units_Z 16
_cell_length_a 12.250183
_cell_length_b 15.390620
_cell_length_c 8.780193
_cell_angle_alpha 62.259822
_cell_angle_beta 104.548977
_cell_angle_gamma 51.015274
_cell_volume 697.106267
_symmetry_space_group_name_H-M "P -1"
_symmetry_group_IT_number 2
_symmetry_cell_setting 'triclinic'
loop_
_space_group_symop_operation_xyz
x,y,z
-x,-y,-z
loop_
_atom_site_type_symbol
_atom_site_label
_atom_site_fract_x
_atom_site_fract_y
_atom_site_fract_z
Si Si1 0.047891 0.462476 0.370083
Si Si2 0.442219 0.937216 0.104254
Si Si3 0.319633 0.557135 0.451036
Si Si4 0.171130 0.764204 0.536746
Si Si5 0.562107 0.609640 0.887102
Si Si6 0.111867 0.211126 0.046429
Si Si7 0.347030 0.842528 0.928371
Si Si8 0.977235 0.402946 0.120947
O O1 0.310086 0.291204 0.578634
O O2 0.000000 0.500000 0.500000
O O3 0.899135 0.664757 0.094608
O O4 0.008997 0.390915 0.324135
O O5 0.340241 0.952566 0.917079
O O6 0.500000 0.000000 0.000000
O O7 0.293546 0.040746 0.121654
O O8 0.500000 0.500000 0.500000
O O9 0.179009 0.711820 0.414830
O O10 0.127648 0.661436 0.182952
O O11 0.484458 0.349577 0.750184
O O12 0.351774 0.716226 0.644071
O O13 0.273614 0.602617 0.817374
O O14 0.916827 0.991657 0.304575
O O15 0.458648 0.748877 0.878277
O O16 0.719436 0.560180 0.881940
O O17 0.133340 0.206875 0.241615
O O18 0.000000 0.500000 0.000000
#
# Coordination Sequence:
#
# PCOD9026861 Si02
#       8
#     2   2   2   2   2   2   2   2
#     4  11  22  41  67  93 126 171 219 268 327 390
#     4  12  24  37  68 100 129 171 221 269 326 397
#     4  11  23  41  67  90 133 177 220 275 338 395
#     4  10  22  41  66 100 124 173 228 276 335 397
#     4  10  22  42  67  92 137 171 219 283 336 392
#     4  11  23  43  60  94 136 167 219 271 329 400
#     4  11  23  40  67 102 125 172 230 276 327 403
#     4  10  24  41  64  93 134 177 215 273 339 394
#
# _framework density 22.952024999999999
#
# number of rings (size 3 to 8) (size 9 to 14) (size 15 to 20)
#    0.000    1.250    3.750    1.875    5.250    1.000 
#    0.000    2.500    0.000    0.000    0.000    0.000 
#    0.000    0.000    0.000    0.000    0.000    0.000 
#
# Total GULP energy -89292.011117 kJ/mol
# GULP energy per Si atom -5580.750695 kJ/mol
# Density = 2.289979 g / cm^3
# Si number density = 22.952025 Si / 1000 Ang^3
#
#
#
# Elastic Constant Matrix: (Units=GPa)
#
#
# Indices 1 2 3 4 5 6 
#
# 1 103.3553 40.8984 6.9118 1.3535 29.6236 -3.5472
# 2 40.8984 167.5996 45.7037 5.2741 23.4578 1.4826
# 3 6.9118 45.7037 43.8711 -3.8390 26.4600 -4.5832
# 4 1.3535 5.2741 -3.8390 42.2107 -0.7497 17.7497
# 5 29.6236 23.4578 26.4600 -0.7497 34.0044 -1.6906
# 6 -3.5472 1.4826 -4.5832 17.7497 -1.6906 26.7960
#
#
#
# Elastic Compliance Matrix: (Units=1/GPa)
#
#
# Indices 1 2 3 4 5 6 
#
# 1 0.019376 -0.006671 0.021955 -0.000483 -0.029115 0.005172
# 2 -0.006671 0.010880 -0.018050 -0.001346 0.012176 -0.002912
# 3 0.021955 -0.018050 0.081477 0.002867 -0.069437 0.011561
# 4 -0.000483 -0.001346 0.002867 0.033176 -0.001221 -0.021552
# 5 -0.029115 0.012176 -0.069437 -0.001221 0.099915 -0.009292
# 6 0.005172 -0.002912 0.011561 -0.021552 -0.009292 0.053832
#
#
# Mechanical properties :
#
#
# Convention : Reuss Voigt Hill
#
# Bulk Modulus (GPa) = 9.41602 55.76152 32.58877
# Shear Modulus (GPa) = 14.72374 35.35637 25.04005
#
# Velocity S-wave (km/s) = 2.53553 3.92911 3.30657
# Velocity P-wave (km/s) = 3.56136 6.70309 5.36725
#
# Compressibility (1/GPa) = 0.10620196
#
# Stress axis : x y z
#
# Youngs Moduli (GPa) = 51.61152 91.90806 12.27338
#
# Poissons Ratio (x) = 0.61309 -0.26946
# Poissons Ratio (y) = 0.34428 0.22153
# Poissons Ratio (z) = -1.13313 1.65893
#
# Static dielectric constant tensor:
#      x y z
#    x 1.931000 -0.079220 -0.051300 
#    y -0.079220 1.839290 0.040110 
#    z -0.051300 0.040110 1.936140 
# 
# From -- ./inp_files/272612.got.cif
#   From: 2010.05.17/outbox.cif.g08.bks.cpg/sg2_137_cif.got.tgz:272612.got - 2010.06.03 11:33:40.
