data_PCOD9026885
_publ_section_title
;
Structure prediction by ZEFSAII (Michael W. Deem and Ramdas Pophale) SiO2 
 PCOD9026885
Probable space group: P -1
;
_chemical_formula_sum "Si O2"
_cell_formula_units_Z 12
_cell_length_a 5.581981
_cell_length_b 14.046183
_cell_length_c 7.891679
_cell_angle_alpha 76.969484
_cell_angle_beta 123.319912
_cell_angle_gamma 88.353625
_cell_volume 494.798308
_symmetry_space_group_name_H-M "P -1"
_symmetry_group_IT_number 2
_symmetry_cell_setting 'triclinic'
loop_
_space_group_symop_operation_xyz
x,y,z
-x,-y,-z
loop_
_atom_site_type_symbol
_atom_site_label
_atom_site_fract_x
_atom_site_fract_y
_atom_site_fract_z
Si Si1 0.845774 0.469696 0.623686
Si Si2 0.768818 0.411193 0.111869
Si Si3 0.118055 0.237987 0.503723
Si Si4 0.795952 0.879709 0.773400
Si Si5 0.155408 0.925755 0.449051
Si Si6 0.247642 0.716055 0.181800
O O1 0.500000 0.500000 0.500000
O O2 0.905201 0.351228 0.722918
O O3 0.000000 0.500000 0.500000
O O4 0.962570 0.531329 0.794292
O O5 0.853411 0.329244 0.325917
O O6 0.500000 0.500000 0.000000
O O7 0.725000 0.351427 0.950742
O O8 0.150694 0.176157 0.364677
O O9 0.428862 0.269191 0.646487
O O10 0.026316 0.158940 0.629685
O O11 0.459311 0.874435 0.674081
O O12 0.798997 0.997544 0.711917
O O13 0.035880 0.819043 0.013195
O O14 0.000000 0.000000 0.500000
#
# Coordination Sequence:
#
# PCOD9026885 Si02
#       6
#     2   2   2   2   2   2
#     4  12  26  48  73 102 148 193 244 304 362 424
#     4  11  25  44  70 103 144 194 246 298 355 433
#     4  10  22  41  66 101 143 179 240 292 358 420
#     4   9  21  42  68  99 137 182 232 289 362 431
#     4   9  19  42  69  97 137 177 225 298 355 430
#     4  11  24  45  68 103 140 192 243 291 365 430
#
# _framework density 24.252306000000001
#
# number of rings (size 3 to 8) (size 9 to 14) (size 15 to 20)
#    0.000    1.667    1.667    1.500    2.333    2.000 
#    3.000    7.500    0.000    0.000    0.000    0.000 
#    0.000    0.000    0.000    0.000    0.000    0.000 
#
# Total GULP energy -67072.445405 kJ/mol
# GULP energy per Si atom -5589.370450 kJ/mol
# Density = 2.419711 g / cm^3
# Si number density = 24.252306 Si / 1000 Ang^3
#
#
#
# Elastic Constant Matrix: (Units=GPa)
#
#
# Indices 1 2 3 4 5 6 
#
# 1 93.7817 39.4021 55.3716 -7.6909 13.1479 12.1260
# 2 39.4021 169.0645 72.6591 -7.8894 5.7119 33.1629
# 3 55.3716 72.6591 143.9772 -14.0012 8.8299 11.9665
# 4 -7.6909 -7.8894 -14.0012 42.2610 -15.1877 4.1636
# 5 13.1479 5.7119 8.8299 -15.1877 45.0582 -3.8885
# 6 12.1260 33.1629 11.9665 4.1636 -3.8885 55.8422
#
#
#
# Elastic Compliance Matrix: (Units=1/GPa)
#
#
# Indices 1 2 3 4 5 6 
#
# 1 0.014576 -0.000851 -0.004828 -0.000148 -0.003409 -0.001852
# 2 -0.000851 0.008485 -0.003536 0.000558 -0.000305 -0.004159
# 3 -0.004828 -0.003536 0.010700 0.002128 0.000541 0.000735
# 4 -0.000148 0.000558 0.002128 0.027803 0.008735 -0.002220
# 5 -0.003409 -0.000305 0.000541 0.008735 0.026236 0.001981
# 6 -0.001852 -0.004159 0.000735 -0.002220 0.001981 0.020926
#
#
# Mechanical properties :
#
#
# Convention : Reuss Voigt Hill
#
# Bulk Modulus (GPa) = 65.22654 82.40989 73.81822
# Shear Modulus (GPa) = 37.80249 44.59166 41.19707
#
# Velocity S-wave (km/s) = 3.95234 4.29261 4.12598
# Velocity P-wave (km/s) = 6.91241 7.65654 7.29397
#
# Compressibility (1/GPa) = 0.01533118
#
# Stress axis : x y z
#
# Youngs Moduli (GPa) = 68.60452 117.85229 93.46125
#
# Poissons Ratio (x) = 0.10026 0.45123
# Poissons Ratio (y) = 0.05837 0.33050
# Poissons Ratio (z) = 0.33122 0.41676
#
# Static dielectric constant tensor:
#      x y z
#    x 1.952150 0.019300 -0.111810 
#    y 0.019300 1.969840 -0.028210 
#    z -0.111810 -0.028210 1.890820 
# 
# From -- ./inp_files/134144.got.cif
#   From: 2010.05.17/outbox.cif.g08.bks.cpg/sg2_68_cif.got.tgz:134144.got - 2010.06.03 11:33:40.
