data_PCOD9026211
_publ_section_title
;
Structure prediction by ZEFSAII (Michael W. Deem and Ramdas Pophale) SiO2 
 PCOD9026211
Probable space group: P -1
;
_chemical_formula_sum "Si O2"
_cell_formula_units_Z 12
_cell_length_a 8.985035
_cell_length_b 8.438593
_cell_length_c 14.677472
_cell_angle_alpha 45.722911
_cell_angle_beta 55.155581
_cell_angle_gamma 84.324290
_cell_volume 562.287161
_symmetry_space_group_name_H-M "P -1"
_symmetry_group_IT_number 2
_symmetry_cell_setting 'triclinic'
loop_
_space_group_symop_operation_xyz
x,y,z
-x,-y,-z
loop_
_atom_site_type_symbol
_atom_site_label
_atom_site_fract_x
_atom_site_fract_y
_atom_site_fract_z
Si Si1 0.215425 0.457108 0.920969
Si Si2 0.100412 0.569750 0.089817
Si Si3 0.359679 0.467650 0.340446
Si Si4 0.366841 0.035195 0.611849
Si Si5 0.030529 0.766247 0.553230
Si Si6 0.473035 0.900743 0.275165
O O1 0.436511 0.482326 0.809881
O O2 0.054010 0.341073 0.939156
O O3 0.236420 0.738352 0.804445
O O4 0.146747 0.389216 0.077229
O O5 0.981160 0.396662 0.288169
O O6 0.327183 0.820242 0.931948
O O7 0.280060 0.201270 0.530233
O O8 0.166739 0.425027 0.363566
O O9 0.436567 0.696508 0.293152
O O10 0.477463 0.169311 0.613741
O O11 0.500000 0.000000 0.500000
O O12 0.252524 0.887020 0.375399
O O13 0.000000 0.000000 0.500000
#
# Coordination Sequence:
#
# PCOD9026211 Si02
#       6
#     2   2   2   2   2   2
#     4   9  19  39  64  89 117 158 208 251 292 349
#     4  10  22  41  63  88 119 156 207 252 292 361
#     4  11  22  37  61  93 126 158 197 251 310 358
#     4   9  17  36  62  86 114 154 204 242 282 351
#     4  12  24  41  64  87 120 164 206 248 299 362
#     4  11  24  40  61  91 125 160 197 249 310 358
#
# _framework density 21.341408000000001
#
# number of rings (size 3 to 8) (size 9 to 14) (size 15 to 20)
#    0.000    1.667    0.000    7.000    0.000    4.000 
#    0.000    5.000    0.000    0.000    0.000    0.000 
#    0.000    0.000    0.000    0.000    0.000    0.000 
#
# Total GULP energy -66861.788683 kJ/mol
# GULP energy per Si atom -5571.815724 kJ/mol
# Density = 2.129283 g / cm^3
# Si number density = 21.341408 Si / 1000 Ang^3
#
#
#
# Elastic Constant Matrix: (Units=GPa)
#
#
# Indices 1 2 3 4 5 6 
#
# 1 54.9998 -1.9832 5.2113 -2.7084 -16.9857 16.2069
# 2 -1.9832 76.0576 4.8433 -14.3792 -3.0794 22.3702
# 3 5.2113 4.8433 48.1252 -12.3648 -18.3471 5.6994
# 4 -2.7084 -14.3792 -12.3648 14.8715 5.4435 -0.5162
# 5 -16.9857 -3.0794 -18.3471 5.4435 32.7236 0.4307
# 6 16.2069 22.3702 5.6994 -0.5162 0.4307 31.9132
#
#
#
# Elastic Compliance Matrix: (Units=1/GPa)
#
#
# Indices 1 2 3 4 5 6 
#
# 1 0.033938 0.013171 0.012117 0.019668 0.022754 -0.028621
# 2 0.013171 0.027921 0.012088 0.034495 0.010872 -0.028008
# 3 0.012117 0.012088 0.039330 0.037228 0.023567 -0.021367
# 4 0.019668 0.034495 0.037228 0.128874 0.013402 -0.038913
# 5 0.022754 0.010872 0.023567 0.013402 0.054691 -0.023907
# 6 -0.028621 -0.028008 -0.021367 -0.038913 -0.023907 0.069012
#
#
# Mechanical properties :
#
#
# Convention : Reuss Voigt Hill
#
# Bulk Modulus (GPa) = 5.68368 21.70278 13.69323
# Shear Modulus (GPa) = 14.80770 27.30907 21.05839
#
# Velocity S-wave (km/s) = 2.63696 3.58107 3.14465
# Velocity P-wave (km/s) = 3.45549 5.22400 4.42891
#
# Compressibility (1/GPa) = 0.17594250
#
# Stress axis : x y z
#
# Youngs Moduli (GPa) = 29.46533 35.81519 25.42562
#
# Poissons Ratio (x) = -0.47172 -0.30808
# Poissons Ratio (y) = -0.38809 -0.30735
# Poissons Ratio (z) = -0.35703 -0.43295
#
# Static dielectric constant tensor:
#      x y z
#    x 1.892340 0.118400 0.001240 
#    y 0.118400 1.822560 0.037730 
#    z 0.001240 0.037730 1.941360 
# 
# From -- ./inp_files/164818.got.cif
#   From: 2010.05.17/outbox.cif.g08.bks.cpg/sg2_83_cif.got.tgz:164818.got - 2010.06.03 11:33:40.
