data_PCOD9026530
_publ_section_title
;
Structure prediction by ZEFSAII (Michael W. Deem and Ramdas Pophale) SiO2 
 PCOD9026530
Probable space group: P -1
;
_chemical_formula_sum "Si O2"
_cell_formula_units_Z 16
_cell_length_a 11.457502
_cell_length_b 10.831486
_cell_length_c 11.349633
_cell_angle_alpha 89.267554
_cell_angle_beta 142.005566
_cell_angle_gamma 62.756741
_cell_volume 563.413352
_symmetry_space_group_name_H-M "P -1"
_symmetry_group_IT_number 2
_symmetry_cell_setting 'triclinic'
loop_
_space_group_symop_operation_xyz
x,y,z
-x,-y,-z
loop_
_atom_site_type_symbol
_atom_site_label
_atom_site_fract_x
_atom_site_fract_y
_atom_site_fract_z
Si Si1 0.559872 0.290999 0.997878
Si Si2 0.121953 0.442775 0.333352
Si Si3 0.847122 0.001805 0.682806
Si Si4 0.015958 0.677937 0.946229
Si Si5 0.626354 0.456959 0.341840
Si Si6 0.996817 0.821002 0.157201
Si Si7 0.339918 0.166465 0.698083
Si Si8 0.537329 0.160623 0.195162
O O1 0.370015 0.497102 0.790332
O O2 0.383197 0.252615 0.826162
O O3 0.639204 0.226639 0.197217
O O4 0.851982 0.150875 0.153229
O O5 0.360935 0.418415 0.575559
O O6 0.118876 0.327629 0.423321
O O7 0.143602 0.365610 0.225433
O O8 0.811199 0.663242 0.093554
O O9 0.859525 0.120656 0.765448
O O10 0.608341 0.127486 0.389941
O O11 0.838260 0.885040 0.755963
O O12 0.329863 0.532213 0.134033
O O13 0.079697 0.673740 0.133145
O O14 0.885847 0.257526 0.615849
O O15 0.651436 0.004414 0.881803
O O16 0.310779 0.042361 0.723667
#
# Coordination Sequence:
#
# PCOD9026530 Si02
#       8
#     2   2   2   2   2   2   2   2
#     4   9  22  40  66  91 129 171 209 263 326 378
#     4  11  24  42  65 100 133 164 222 267 309 395
#     4  10  22  41  64  95 129 162 225 265 310 396
#     4  11  23  43  67  92 133 173 212 270 326 373
#     4  10  22  42  61  98 133 159 222 266 307 396
#     4  11  22  43  66  91 128 178 208 266 334 371
#     4  10  22  42  61  96 131 162 220 266 306 396
#     4  12  21  42  66  93 130 172 207 266 331 370
#
# _framework density 28.398333000000001
#
# number of rings (size 3 to 8) (size 9 to 14) (size 15 to 20)
#    0.000    1.500    2.500    3.000    0.000    3.000 
#    6.750    3.125    0.000    0.000    0.000    0.000 
#    0.000    0.000    0.000    0.000    0.000    0.000 
#
# Total GULP energy -89708.007660 kJ/mol
# GULP energy per Si atom -5606.750479 kJ/mol
# Density = 2.833370 g / cm^3
# Si number density = 28.398333 Si / 1000 Ang^3
#
#
#
# Elastic Constant Matrix: (Units=GPa)
#
#
# Indices 1 2 3 4 5 6 
#
# 1 90.5747 13.5691 32.1154 -7.3067 -20.3984 -1.1693
# 2 13.5691 112.6880 23.7580 1.5833 -2.3768 28.9872
# 3 32.1154 23.7580 155.4389 -7.5050 -28.3085 8.8017
# 4 -7.3067 1.5833 -7.5050 51.1495 14.9558 -11.1552
# 5 -20.3984 -2.3768 -28.3085 14.9558 45.1980 -1.1210
# 6 -1.1693 28.9872 8.8017 -11.1552 -1.1210 46.2401
#
#
#
# Elastic Compliance Matrix: (Units=1/GPa)
#
#
# Indices 1 2 3 4 5 6 
#
# 1 0.012986 -0.001629 -0.001686 0.000767 0.004514 0.001965
# 2 -0.001629 0.011246 -0.001122 -0.002287 -0.000274 -0.007436
# 3 -0.001686 -0.001122 0.007735 -0.000467 0.004158 -0.000824
# 4 0.000767 -0.002287 -0.000467 0.023426 -0.007644 0.007008
# 5 0.004514 -0.000274 0.004158 -0.007644 0.029241 -0.001641
# 6 0.001965 -0.007436 -0.000824 0.007008 -0.001641 0.028145
#
#
# Mechanical properties :
#
#
# Convention : Reuss Voigt Hill
#
# Bulk Modulus (GPa) = 43.30350 55.28738 49.29544
# Shear Modulus (GPa) = 38.65462 47.80147 43.22805
#
# Velocity S-wave (km/s) = 3.69339 4.10719 3.90578
# Velocity P-wave (km/s) = 5.78532 6.48096 6.14299
#
# Compressibility (1/GPa) = 0.02309282
#
# Stress axis : x y z
#
# Youngs Moduli (GPa) = 77.00320 88.92188 129.28852
#
# Poissons Ratio (x) = 0.14488 0.21801
# Poissons Ratio (y) = 0.12546 0.14500
# Poissons Ratio (z) = 0.12985 0.09973
#
# Static dielectric constant tensor:
#      x y z
#    x 2.197610 0.041660 -0.042640 
#    y 0.041660 2.254910 0.010380 
#    z -0.042640 0.010380 2.148660 
# 
# From -- ./inp_files/257815.got.cif
#   From: 2010.05.17/outbox.cif.g08.bks.cpg/sg2_129_cif.got.tgz:257815.got - 2010.06.03 11:33:40.
