data_PCOD9026508
_publ_section_title
;
Structure prediction by ZEFSAII (Michael W. Deem and Ramdas Pophale) SiO2 
 PCOD9026508
Probable space group: P -1
;
_chemical_formula_sum "Si O2"
_cell_formula_units_Z 16
_cell_length_a 17.574031
_cell_length_b 20.062381
_cell_length_c 11.823272
_cell_angle_alpha 22.004888
_cell_angle_beta 147.110873
_cell_angle_gamma 149.251253
_cell_volume 778.275781
_symmetry_space_group_name_H-M "P -1"
_symmetry_group_IT_number 2
_symmetry_cell_setting 'triclinic'
loop_
_space_group_symop_operation_xyz
x,y,z
-x,-y,-z
loop_
_atom_site_type_symbol
_atom_site_label
_atom_site_fract_x
_atom_site_fract_y
_atom_site_fract_z
Si Si1 0.597798 0.501164 0.473917
Si Si2 0.118813 0.320600 0.834507
Si Si3 0.649469 0.737181 0.951271
Si Si4 0.209677 0.844135 0.418160
Si Si5 0.589763 0.939937 0.110517
Si Si6 0.673424 0.246783 0.529506
Si Si7 0.871747 0.838747 0.665387
Si Si8 0.290741 0.524189 0.123909
O O1 0.519969 0.269002 0.746073
O O2 0.466648 0.576023 0.227023
O O3 0.725151 0.561823 0.634483
O O4 0.645099 0.573712 0.292801
O O5 0.188573 0.549353 0.589571
O O6 0.970899 0.250186 0.681727
O O7 0.252601 0.275781 0.012515
O O8 0.074352 0.202910 0.080991
O O9 0.479526 0.713154 0.743374
O O10 0.730601 0.941019 0.796262
O O11 0.289486 0.835254 0.412192
O O12 0.252702 0.709926 0.770173
O O13 0.731724 0.905474 0.395418
O O14 0.500000 0.000000 0.000000
O O15 0.644559 0.095918 0.832959
O O16 0.809187 0.638296 0.832959
O O17 0.000000 0.000000 0.500000
#
# Coordination Sequence:
#
# PCOD9026508 Si02
#       8
#     2   2   2   2   2   2   2   2
#     4  10  22  41  65  95 131 163 217 269 324 375
#     4  12  26  45  65  98 141 169 213 278 337 387
#     4  12  25  43  69  98 132 177 216 272 335 386
#     4  12  25  42  66 101 130 171 225 269 325 393
#     4  11  23  40  65  98 128 165 215 272 325 381
#     4  12  23  42  73  95 127 176 230 265 315 396
#     4  11  24  42  65  92 129 173 215 260 325 389
#     4  10  22  41  64  94 127 165 217 276 308 381
#
# _framework density 20.558266
#
# number of rings (size 3 to 8) (size 9 to 14) (size 15 to 20)
#    0.000    0.750    2.500    5.250    8.750    0.000 
#    0.000    0.625    0.000    0.000    0.000    0.000 
#    0.000    0.000    0.000    0.000    0.000    0.000 
#
# Total GULP energy -89558.883108 kJ/mol
# GULP energy per Si atom -5597.430194 kJ/mol
# Density = 2.051147 g / cm^3
# Si number density = 20.558266 Si / 1000 Ang^3
#
#
#
# Elastic Constant Matrix: (Units=GPa)
#
#
# Indices 1 2 3 4 5 6 
#
# 1 38.4879 5.2701 13.9313 -16.5851 0.6233 2.2441
# 2 5.2701 70.9766 19.0047 -2.6973 -3.7279 -0.4137
# 3 13.9313 19.0047 83.8817 -10.7675 -21.0764 1.5480
# 4 -16.5851 -2.6973 -10.7675 32.5138 0.7106 -3.9521
# 5 0.6233 -3.7279 -21.0764 0.7106 38.5439 -2.2921
# 6 2.2441 -0.4137 1.5480 -3.9521 -2.2921 18.8710
#
#
#
# Elastic Compliance Matrix: (Units=1/GPa)
#
#
# Indices 1 2 3 4 5 6 
#
# 1 0.034755 -0.000996 -0.004295 0.016197 -0.003354 -0.000818
# 2 -0.000996 0.015042 -0.003375 -0.000295 -0.000332 0.000623
# 3 -0.004295 -0.003375 0.015840 0.002679 0.008398 0.000718
# 4 0.016197 -0.000295 0.002679 0.040648 0.000809 0.006459
# 5 -0.003354 -0.000332 0.008398 0.000809 0.030758 0.003608
# 6 -0.000818 0.000623 0.000718 0.006459 0.003608 0.054834
#
#
# Mechanical properties :
#
#
# Convention : Reuss Voigt Hill
#
# Bulk Modulus (GPa) = 20.70209 29.97313 25.33761
# Shear Modulus (GPa) = 22.19142 28.32843 25.25992
#
# Velocity S-wave (km/s) = 3.28905 3.71611 3.50908
# Velocity P-wave (km/s) = 4.95132 5.74664 5.36374
#
# Compressibility (1/GPa) = 0.04830429
#
# Stress axis : x y z
#
# Youngs Moduli (GPa) = 28.77290 66.48109 63.12985
#
# Poissons Ratio (x) = 0.06621 0.27115
# Poissons Ratio (y) = 0.02866 0.21309
# Poissons Ratio (z) = 0.12358 0.22440
#
# Static dielectric constant tensor:
#      x y z
#    x 1.745340 -0.011840 -0.022910 
#    y -0.011840 1.681870 0.055210 
#    z -0.022910 0.055210 1.703980 
# 
# From -- ./inp_files/190024.got.cif
#   From: 2010.05.17/outbox.cif.g08.bks.cpg/sg2_96_cif.got.tgz:190024.got - 2010.06.03 11:33:40.
