data_PCOD9026877
_publ_section_title
;
Structure prediction by ZEFSAII (Michael W. Deem and Ramdas Pophale) SiO2 
 PCOD9026877
Probable space group: P -1
;
_chemical_formula_sum "Si O2"
_cell_formula_units_Z 16
_cell_length_a 15.962733
_cell_length_b 8.743524
_cell_length_c 11.828230
_cell_angle_alpha 123.551676
_cell_angle_beta 71.026731
_cell_angle_gamma 63.865499
_cell_volume 802.843126
_symmetry_space_group_name_H-M "P -1"
_symmetry_group_IT_number 2
_symmetry_cell_setting 'triclinic'
loop_
_space_group_symop_operation_xyz
x,y,z
-x,-y,-z
loop_
_atom_site_type_symbol
_atom_site_label
_atom_site_fract_x
_atom_site_fract_y
_atom_site_fract_z
Si Si1 0.110489 0.189483 0.083530
Si Si2 0.554509 0.827245 0.286059
Si Si3 0.070801 0.265061 0.475215
Si Si4 0.033200 0.230597 0.895426
Si Si5 0.403155 0.876986 0.730892
Si Si6 0.856600 0.166630 0.883322
Si Si7 0.383151 0.793194 0.248304
Si Si8 0.636856 0.324367 0.538734
O O1 0.027719 0.509797 0.286123
O O2 0.110292 0.036785 0.117642
O O3 0.032359 0.220991 0.026592
O O4 0.268731 0.996511 0.897671
O O5 0.429052 0.922485 0.317394
O O6 0.500000 0.000000 0.500000
O O7 0.615751 0.885090 0.201649
O O8 0.685954 0.471793 0.093479
O O9 0.000000 0.500000 0.500000
O O10 0.083649 0.033325 0.336042
O O11 0.233213 0.047647 0.351241
O O12 0.927953 0.248942 0.900803
O O13 0.194794 0.927018 0.660457
O O14 0.000000 0.500000 0.000000
O O15 0.538235 0.644970 0.661358
O O16 0.419355 0.747183 0.549303
O O17 0.377835 0.695490 0.331141
O O18 0.500000 0.500000 0.000000
#
# Coordination Sequence:
#
# PCOD9026877 Si02
#       8
#     2   2   2   2   2   2   2   2
#     4  10  22  41  68  94 131 177 226 284 337 401
#     4  12  25  40  70 101 134 177 231 276 340 413
#     4  10  24  43  67  96 136 184 229 281 337 408
#     4  11  23  40  64  98 133 168 231 286 342 400
#     4  10  22  41  66 101 134 171 229 285 337 400
#     4  11  23  43  65  96 133 180 226 275 344 408
#     4  12  24  45  69  97 140 181 227 277 339 411
#     4  10  22  41  66  94 137 177 216 288 341 392
#
# _framework density 19.929175000000001
#
# number of rings (size 3 to 8) (size 9 to 14) (size 15 to 20)
#    0.000    1.250    2.500    3.375    7.000    2.000 
#    2.250    2.500    0.000    0.000    0.000    0.000 
#    0.000    0.000    0.000    0.000    0.000    0.000 
#
# Total GULP energy -89222.672769 kJ/mol
# GULP energy per Si atom -5576.417048 kJ/mol
# Density = 1.988382 g / cm^3
# Si number density = 19.929175 Si / 1000 Ang^3
#
#
#
# Elastic Constant Matrix: (Units=GPa)
#
#
# Indices 1 2 3 4 5 6 
#
# 1 121.0679 43.8673 35.9988 5.9916 9.0691 -6.6942
# 2 43.8673 67.3478 29.4006 7.9308 -4.2465 -11.6356
# 3 35.9988 29.4006 121.1494 5.4978 10.8551 -14.1218
# 4 5.9916 7.9308 5.4978 32.0011 -5.3646 -2.4564
# 5 9.0691 -4.2465 10.8551 -5.3646 27.7418 7.3019
# 6 -6.6942 -11.6356 -14.1218 -2.4564 7.3019 32.9461
#
#
#
# Elastic Compliance Matrix: (Units=1/GPa)
#
#
# Indices 1 2 3 4 5 6 
#
# 1 0.011639 -0.007184 -0.001220 -0.000953 -0.004683 0.000271
# 2 -0.007184 0.022189 -0.003228 -0.002385 0.005606 0.003573
# 3 -0.001220 -0.003228 0.010453 -0.001376 -0.005563 0.004223
# 4 -0.000953 -0.002385 -0.001376 0.033395 0.007131 -0.000716
# 5 -0.004683 0.005606 -0.005563 0.007131 0.044823 -0.010758
# 6 0.000271 0.003573 0.004223 -0.000716 -0.010758 0.035811
#
#
# Mechanical properties :
#
#
# Convention : Reuss Voigt Hill
#
# Bulk Modulus (GPa) = 47.58307 58.67762 53.13034
# Shear Modulus (GPa) = 26.51396 31.89104 29.20250
#
# Velocity S-wave (km/s) = 3.65143 4.00461 3.83209
# Velocity P-wave (km/s) = 6.45796 7.13369 6.80422
#
# Compressibility (1/GPa) = 0.02101588
#
# Stress axis : x y z
#
# Youngs Moduli (GPa) = 85.91922 45.06835 95.66320
#
# Poissons Ratio (x) = 0.32379 0.11675
# Poissons Ratio (y) = 0.61728 0.30876
# Poissons Ratio (z) = 0.10486 0.14546
#
# Static dielectric constant tensor:
#      x y z
#    x 1.711890 -0.005140 0.022800 
#    y -0.005140 1.757850 -0.009640 
#    z 0.022800 -0.009640 1.735830 
# 
# From -- ./inp_files/448195.got.cif
#   From: 2010.05.17/outbox.cif.g08.bks.cpg/sg2_225_cif.got.tgz:448195.got - 2010.06.03 11:33:40.
