data_PCOD9026732
_publ_section_title
;
Structure prediction by ZEFSAII (Michael W. Deem and Ramdas Pophale) SiO2 
 PCOD9026732
Probable space group: P -1
;
_chemical_formula_sum "Si O2"
_cell_formula_units_Z 16
_cell_length_a 8.083951
_cell_length_b 18.461367
_cell_length_c 5.364196
_cell_angle_alpha 76.150888
_cell_angle_beta 119.766706
_cell_angle_gamma 90.043433
_cell_volume 668.070080
_symmetry_space_group_name_H-M "P -1"
_symmetry_group_IT_number 2
_symmetry_cell_setting 'triclinic'
loop_
_space_group_symop_operation_xyz
x,y,z
-x,-y,-z
loop_
_atom_site_type_symbol
_atom_site_label
_atom_site_fract_x
_atom_site_fract_y
_atom_site_fract_z
Si Si1 0.004030 0.901148 0.311245
Si Si2 0.095305 0.679118 0.763365
Si Si3 0.059021 0.181595 0.165820
Si Si4 0.587181 0.414355 0.665732
Si Si5 0.692776 0.693370 0.208144
Si Si6 0.601933 0.294609 0.397902
Si Si7 0.670277 0.023384 0.779538
Si Si8 0.530364 0.829728 0.295799
O O1 0.017233 0.868241 0.627162
O O2 0.183051 0.942290 0.328079
O O3 0.987744 0.840880 0.128236
O O4 0.805026 0.957867 0.080915
O O5 0.253156 0.721726 0.707669
O O6 0.014798 0.732157 0.888738
O O7 0.914408 0.673227 0.457600
O O8 0.221699 0.602171 0.009602
O O9 0.288126 0.166527 0.391433
O O10 0.500000 0.500000 0.500000
O O11 0.427180 0.365051 0.692066
O O12 0.646665 0.371363 0.489561
O O13 0.621418 0.779548 0.174024
O O14 0.617565 0.689456 0.876070
O O15 0.608886 0.224794 0.643606
O O16 0.582164 0.087034 0.859069
O O17 0.500000 0.000000 0.500000
#
# Coordination Sequence:
#
# PCOD9026732 Si02
#       8
#     2   2   2   2   2   2   2   2
#     4  11  27  47  65  99 137 178 230 292 340 411
#     4  10  23  39  68  98 131 177 224 277 343 402
#     4  11  25  45  71  98 136 177 232 286 342 408
#     4  10  23  43  64  98 138 172 219 276 340 411
#     4   9  22  40  62 100 126 178 226 280 334 405
#     4  10  22  41  68  94 130 176 221 281 332 411
#     4  11  24  45  66  97 134 187 225 286 352 401
#     4  10  22  41  65  94 131 173 228 281 334 409
#
# _framework density 23.949587000000001
#
# number of rings (size 3 to 8) (size 9 to 14) (size 15 to 20)
#    0.000    1.750    1.250    0.750   10.500    7.000 
#    4.500    1.250    0.000    0.000    0.000    0.000 
#    0.000    0.000    0.000    0.000    0.000    0.000 
#
# Total GULP energy -89540.458418 kJ/mol
# GULP energy per Si atom -5596.278651 kJ/mol
# Density = 2.389508 g / cm^3
# Si number density = 23.949587 Si / 1000 Ang^3
#
#
#
# Elastic Constant Matrix: (Units=GPa)
#
#
# Indices 1 2 3 4 5 6 
#
# 1 93.1203 23.3931 33.5303 -9.7595 18.4863 1.3363
# 2 23.3931 91.7179 34.2249 -22.7955 5.0484 -10.8727
# 3 33.5303 34.2249 114.0398 -4.6012 23.7319 -2.1521
# 4 -9.7595 -22.7955 -4.6012 42.4018 0.3289 12.3652
# 5 18.4863 5.0484 23.7319 0.3289 48.2100 -0.7438
# 6 1.3363 -10.8727 -2.1521 12.3652 -0.7438 25.5384
#
#
#
# Elastic Compliance Matrix: (Units=1/GPa)
#
#
# Indices 1 2 3 4 5 6 
#
# 1 0.013175 -0.001943 -0.002473 0.002658 -0.003697 -0.003120
# 2 -0.001943 0.014613 -0.003730 0.006095 0.001057 0.003088
# 3 -0.002473 -0.003730 0.011456 -0.001301 -0.004292 0.000012
# 4 0.002658 0.006095 -0.001301 0.031055 -0.001425 -0.012731
# 5 -0.003697 0.001057 -0.004292 -0.001425 0.024198 0.001677
# 6 -0.003120 0.003088 0.000012 -0.012731 0.001677 0.046849
#
#
# Mechanical properties :
#
#
# Convention : Reuss Voigt Hill
#
# Bulk Modulus (GPa) = 43.56893 53.46383 48.51638
# Shear Modulus (GPa) = 30.25006 37.07869 33.66437
#
# Velocity S-wave (km/s) = 3.55783 3.93898 3.75325
# Velocity P-wave (km/s) = 5.92528 6.56197 6.25173
#
# Compressibility (1/GPa) = 0.02295213
#
# Stress axis : x y z
#
# Youngs Moduli (GPa) = 75.90333 68.43022 87.28951
#
# Poissons Ratio (x) = 0.13298 0.21583
# Poissons Ratio (y) = 0.14751 0.32560
# Poissons Ratio (z) = 0.18768 0.25525
#
# Static dielectric constant tensor:
#      x y z
#    x 1.945930 0.009200 -0.010150 
#    y 0.009200 1.892040 0.007590 
#    z -0.010150 0.007590 1.942890 
# 
# From -- ./inp_files/47646.got.cif
#   From: 2010.05.17/outbox.cif.g08.bks.cpg/sg2_24_cif.got.tgz:47646.got - 2010.06.03 11:33:40.
