data_PCOD9026271
_publ_section_title
;
Structure prediction by ZEFSAII (Michael W. Deem and Ramdas Pophale) SiO2 
 PCOD9026271
Probable space group: P -1
;
_chemical_formula_sum "Si O2"
_cell_formula_units_Z 15
_cell_length_a 12.034555
_cell_length_b 4.953134
_cell_length_c 24.490278
_cell_angle_alpha 58.520132
_cell_angle_beta 154.752328
_cell_angle_gamma 118.781650
_cell_volume 530.856338
_symmetry_space_group_name_H-M "P -1"
_symmetry_group_IT_number 2
_symmetry_cell_setting 'triclinic'
loop_
_space_group_symop_operation_xyz
x,y,z
-x,-y,-z
loop_
_atom_site_type_symbol
_atom_site_label
_atom_site_fract_x
_atom_site_fract_y
_atom_site_fract_z
Si Si1 0.220651 0.931492 0.281027
Si Si2 0.603051 0.660449 0.156116
Si Si3 0.092390 0.084655 0.307747
Si Si4 0.500000 0.500000 0.500000
Si Si5 0.436884 0.511662 0.669932
Si Si6 0.207817 0.794057 0.066045
Si Si7 0.855866 0.579098 0.083314
Si Si8 0.944192 0.342418 0.416991
O O1 0.360105 0.200518 0.278482
O O2 0.274921 0.841994 0.381275
O O3 0.414925 0.635076 0.385365
O O4 0.944943 0.770859 0.156035
O O5 0.393309 0.746194 0.100198
O O6 0.786651 0.379582 0.287569
O O7 0.811022 0.944480 0.211145
O O8 0.433177 0.557179 0.039428
O O9 0.037794 0.266241 0.204197
O O10 0.234532 0.241256 0.403682
O O11 0.618654 0.225679 0.799808
O O12 0.252699 0.529253 0.638988
O O13 0.224499 0.515362 0.527150
O O14 0.000000 0.500000 0.000000
O O15 0.107973 0.151216 0.975336
O O16 0.000000 0.000000 0.500000
#
# Coordination Sequence:
#
# PCOD9026271 Si02
#       8
#     2   2   2   1   2   2   2   2
#     4  11  23  42  63  97 134 173 220 281 325 402
#     4  11  25  43  66  99 137 176 227 279 331 406
#     4  11  25  44  67 100 136 174 226 278 335 404
#     4  10  24  42  68  98 126 182 226 266 342 396
#     4  10  22  41  63  92 131 168 219 278 332 388
#     4  11  23  44  65  96 137 175 226 287 328 398
#     4  11  24  41  66  96 130 183 220 268 340 399
#     4  10  22  41  65  93 126 174 223 274 333 392
#
# _framework density 28.256233999999999
#
# number of rings (size 3 to 8) (size 9 to 14) (size 15 to 20)
#    0.000    1.333    1.333    3.200    0.000    6.933 
#    0.000    0.000    0.000    0.000    0.000    0.000 
#    0.000    0.000    0.000    0.000    0.000    0.000 
#
# Total GULP energy -83644.725479 kJ/mol
# GULP energy per Si atom -5576.315032 kJ/mol
# Density = 2.819192 g / cm^3
# Si number density = 28.256234 Si / 1000 Ang^3
#
#
#
# Elastic Constant Matrix: (Units=GPa)
#
#
# Indices 1 2 3 4 5 6 
#
# 1 80.9059 21.4971 48.0264 23.9581 33.1731 2.5773
# 2 21.4971 99.5207 81.8487 18.7144 -3.2458 8.3044
# 3 48.0264 81.8487 244.8763 30.5536 -19.3216 11.0671
# 4 23.9581 18.7144 30.5536 89.6922 -1.3384 -7.5579
# 5 33.1731 -3.2458 -19.3216 -1.3384 41.3964 8.4429
# 6 2.5773 8.3044 11.0671 -7.5579 8.4429 48.2205
#
#
#
# Elastic Compliance Matrix: (Units=1/GPa)
#
#
# Indices 1 2 3 4 5 6 
#
# 1 0.030384 -0.000640 -0.007552 -0.005468 -0.029006 0.004441
# 2 -0.000640 0.014183 -0.004374 -0.001436 -0.000135 -0.001606
# 3 -0.007552 -0.004374 0.007889 0.000192 0.009877 -0.002353
# 4 -0.005468 -0.001436 0.000192 0.013059 0.004421 0.001768
# 5 -0.029006 -0.000135 0.009877 0.004421 0.054074 -0.009468
# 6 0.004441 -0.001606 -0.002353 0.001768 -0.009468 0.023252
#
#
# Mechanical properties :
#
#
# Convention : Reuss Voigt Hill
#
# Bulk Modulus (GPa) = 36.59927 80.89414 58.74670
# Shear Modulus (GPa) = 28.23539 54.12386 41.17963
#
# Velocity S-wave (km/s) = 3.16454 4.38135 3.82169
# Velocity P-wave (km/s) = 5.13159 7.36790 6.34898
#
# Compressibility (1/GPa) = 0.02732295
#
# Stress axis : x y z
#
# Youngs Moduli (GPa) = 32.91187 70.50476 126.76470
#
# Poissons Ratio (x) = 0.04515 0.95735
# Poissons Ratio (y) = 0.02108 0.55449
# Poissons Ratio (z) = 0.24856 0.30840
#
# Static dielectric constant tensor:
#      x y z
#    x 2.389810 -0.060940 0.037920 
#    y -0.060940 2.511460 -0.000010 
#    z 0.037920 -0.000010 1.972110 
# 
# From -- ./inp_files/75512.got.cif
#   From: 2010.05.17/outbox.cif.g08.bks.cpg/sg2_38_cif.got.tgz:75512.got - 2010.06.03 11:33:40.
