data_PCOD9026710
_publ_section_title
;
Structure prediction by ZEFSAII (Michael W. Deem and Ramdas Pophale) SiO2 
 PCOD9026710
Probable space group: P -1
;
_chemical_formula_sum "Si O2"
_cell_formula_units_Z 16
_cell_length_a 5.517736
_cell_length_b 12.106157
_cell_length_c 14.244253
_cell_angle_alpha 50.271731
_cell_angle_beta 95.713582
_cell_angle_gamma 112.106314
_cell_volume 664.584016
_symmetry_space_group_name_H-M "P -1"
_symmetry_group_IT_number 2
_symmetry_cell_setting 'triclinic'
loop_
_space_group_symop_operation_xyz
x,y,z
-x,-y,-z
loop_
_atom_site_type_symbol
_atom_site_label
_atom_site_fract_x
_atom_site_fract_y
_atom_site_fract_z
Si Si1 0.117693 0.602543 0.690972
Si Si2 0.849359 0.812307 0.083736
Si Si3 0.124286 0.221229 0.317221
Si Si4 0.293441 0.691896 0.237237
Si Si5 0.376336 0.923843 0.265267
Si Si6 0.429664 0.188925 0.510341
Si Si7 0.582435 0.529747 0.095755
Si Si8 0.076323 0.997906 0.747660
O O1 0.346219 0.642614 0.599107
O O2 0.195091 0.528661 0.825929
O O3 0.109362 0.762420 0.641017
O O4 0.848663 0.491642 0.689527
O O5 0.594478 0.758889 0.173584
O O6 0.698099 0.708928 0.041245
O O7 0.085982 0.754761 0.146474
O O8 0.000000 0.000000 0.000000
O O9 0.269165 0.142982 0.432714
O O10 0.320026 0.403438 0.205550
O O11 0.043763 0.135405 0.262491
O O12 0.296243 0.753531 0.309084
O O13 0.425113 0.914738 0.383120
O O14 0.674480 0.023666 0.182727
O O15 0.150083 0.984970 0.209097
O O16 0.219779 0.158793 0.603808
O O17 0.500000 0.500000 0.000000
#
# Coordination Sequence:
#
# PCOD9026710 Si02
#       8
#     2   2   2   2   2   2   2   2
#     4  10  22  41  65  93 129 178 210 267 330 389
#     4  11  24  47  71  96 128 174 218 271 336 394
#     4  11  21  40  64  90 134 171 213 265 335 389
#     4  11  23  45  69  93 133 169 219 264 326 396
#     4  10  23  40  60  98 133 170 224 265 311 382
#     4   9  22  37  63  95 131 175 219 259 323 382
#     4  10  24  42  65  99 129 166 220 278 331 393
#     4  10  23  38  61  96 133 174 218 264 319 379
#
# _framework density 24.075209999999998
#
# number of rings (size 3 to 8) (size 9 to 14) (size 15 to 20)
#    0.750    1.000    1.250    2.250    3.500    4.000 
#    0.000    1.250    0.000    0.000    0.000    0.000 
#    0.000    0.000    0.000    0.000    0.000    0.000 
#
# Total GULP energy -89095.827546 kJ/mol
# GULP energy per Si atom -5568.489222 kJ/mol
# Density = 2.402041 g / cm^3
# Si number density = 24.075210 Si / 1000 Ang^3
#
#
#
# Elastic Constant Matrix: (Units=GPa)
#
#
# Indices 1 2 3 4 5 6 
#
# 1 133.8976 34.1975 24.6978 -0.8515 -17.2546 4.3387
# 2 34.1975 148.1356 32.2899 2.9352 -4.9622 2.1721
# 3 24.6978 32.2899 73.0690 -3.3980 0.4929 6.7456
# 4 -0.8515 2.9352 -3.3980 18.8297 3.6960 -4.2884
# 5 -17.2546 -4.9622 0.4929 3.6960 17.6372 -1.6397
# 6 4.3387 2.1721 6.7456 -4.2884 -1.6397 38.7999
#
#
#
# Elastic Compliance Matrix: (Units=1/GPa)
#
#
# Indices 1 2 3 4 5 6 
#
# 1 0.009504 -0.001233 -0.002785 -0.001792 0.009375 -0.000311
# 2 -0.001233 0.007815 -0.003153 -0.002126 0.001534 0.000078
# 3 -0.002785 -0.003153 0.016433 0.003836 -0.005076 -0.002159
# 4 -0.001792 -0.002126 0.003836 0.058068 -0.014118 0.005474
# 5 0.009375 0.001534 -0.005076 -0.014118 0.069507 0.001125
# 6 -0.000311 0.000078 -0.002159 0.005474 0.001125 0.026832
#
#
# Mechanical properties :
#
#
# Convention : Reuss Voigt Hill
#
# Bulk Modulus (GPa) = 51.52384 59.71915 55.62149
# Shear Modulus (GPa) = 23.92689 32.64783 28.28736
#
# Velocity S-wave (km/s) = 3.15594 3.68649 3.43148
# Velocity P-wave (km/s) = 5.89301 6.55587 6.23326
#
# Compressibility (1/GPa) = 0.01940849
#
# Stress axis : x y z
#
# Youngs Moduli (GPa) = 105.22071 127.96189 60.85467
#
# Poissons Ratio (x) = 0.15774 0.16951
# Poissons Ratio (y) = 0.12971 0.19189
# Poissons Ratio (z) = 0.29309 0.40349
#
# Static dielectric constant tensor:
#      x y z
#    x 2.042080 0.022730 -0.030150 
#    y 0.022730 1.928600 -0.034330 
#    z -0.030150 -0.034330 1.958780 
# 
# From -- ./inp_files/482738.got.cif
#   From: 2010.05.17/outbox.cif.g08.bks.cpg/sg2_242_cif.got.tgz:482738.got - 2010.06.03 11:33:40.
