data_PCOD9026188
_publ_section_title
;
Structure prediction by ZEFSAII (Michael W. Deem and Ramdas Pophale) SiO2 
 PCOD9026188
Probable space group: P -1
;
_chemical_formula_sum "Si O2"
_cell_formula_units_Z 14
_cell_length_a 9.406428
_cell_length_b 15.294145
_cell_length_c 15.107624
_cell_angle_alpha 27.589384
_cell_angle_beta 66.456264
_cell_angle_gamma 47.477352
_cell_volume 601.836232
_symmetry_space_group_name_H-M "P -1"
_symmetry_group_IT_number 2
_symmetry_cell_setting 'triclinic'
loop_
_space_group_symop_operation_xyz
x,y,z
-x,-y,-z
loop_
_atom_site_type_symbol
_atom_site_label
_atom_site_fract_x
_atom_site_fract_y
_atom_site_fract_z
Si Si1 0.978551 0.869026 0.284638
Si Si2 0.699521 0.724879 0.308220
Si Si3 0.589298 0.079446 0.524958
Si Si4 0.488273 0.442716 0.806942
Si Si5 0.860835 0.722965 0.606742
Si Si6 0.737234 0.724897 0.965946
Si Si7 0.327944 0.867167 0.146099
O O1 0.974269 0.766394 0.471480
O O2 0.082331 0.613425 0.421009
O O3 0.137816 0.908669 0.202411
O O4 0.715467 0.168552 0.053400
O O5 0.536520 0.741015 0.272048
O O6 0.517338 0.964071 0.213102
O O7 0.770523 0.844474 0.127285
O O8 0.577143 0.288640 0.389474
O O9 0.327484 0.233213 0.437668
O O10 0.709287 0.973269 0.494245
O O11 0.746956 0.798895 0.799698
O O12 0.563220 0.347750 0.771337
O O13 0.282372 0.482986 0.842459
O O14 0.059547 0.420686 0.882006
#
# Coordination Sequence:
#
# PCOD9026188 Si02
#       7
#     2   2   2   2   2   2   2
#     4  12  23  40  66 105 140 182 223 286 338 416
#     4  10  23  41  68 101 144 178 230 274 346 422
#     4  11  26  51  69 102 139 183 235 300 332 412
#     4  11  25  42  69 105 142 178 240 276 350 411
#     4  11  26  48  75  99 138 186 238 280 361 398
#     4  11  24  49  71 103 138 184 230 290 343 417
#     4  10  22  41  63 100 140 186 223 277 346 414
#
# _framework density 23.262139999999999
#
# number of rings (size 3 to 8) (size 9 to 14) (size 15 to 20)
#    0.000    1.143    1.429    4.714    4.000    4.571 
#    0.000    0.000    0.000    0.000    0.000    0.000 
#    0.000    0.000    0.000    0.000    0.000    0.000 
#
# Total GULP energy -78414.165023 kJ/mol
# GULP energy per Si atom -5601.011787 kJ/mol
# Density = 2.320919 g / cm^3
# Si number density = 23.262140 Si / 1000 Ang^3
#
#
#
# Elastic Constant Matrix: (Units=GPa)
#
#
# Indices 1 2 3 4 5 6 
#
# 1 122.6847 44.2705 46.4586 7.8390 -12.9043 8.1149
# 2 44.2705 53.5074 0.4707 5.2945 -8.7016 12.2017
# 3 46.4586 0.4707 69.6614 4.1168 13.2227 -9.4278
# 4 7.8390 5.2945 4.1168 26.4577 5.8478 10.8031
# 5 -12.9043 -8.7016 13.2227 5.8478 37.1540 -1.7367
# 6 8.1149 12.2017 -9.4278 10.8031 -1.7367 24.7185
#
#
#
# Elastic Compliance Matrix: (Units=1/GPa)
#
#
# Indices 1 2 3 4 5 6 
#
# 1 0.020884 -0.014371 -0.016260 -0.000902 0.009588 -0.004896
# 2 -0.014371 0.032199 0.008445 -0.000056 -0.000820 -0.007989
# 3 -0.016260 0.008445 0.029649 -0.004072 -0.012957 0.013347
# 4 -0.000902 -0.000056 -0.004072 0.050120 -0.007873 -0.023687
# 5 0.009588 -0.000820 -0.012957 -0.007873 0.035822 -0.001727
# 6 -0.004896 -0.007989 0.013347 -0.023687 -0.001727 0.061328
#
#
# Mechanical properties :
#
#
# Convention : Reuss Voigt Hill
#
# Bulk Modulus (GPa) = 26.06991 47.58367 36.82679
# Shear Modulus (GPa) = 17.41185 27.97628 22.69407
#
# Velocity S-wave (km/s) = 2.73885 3.47169 3.12682
# Velocity P-wave (km/s) = 4.60794 6.04731 5.37602
#
# Compressibility (1/GPa) = 0.03835840
#
# Stress axis : x y z
#
# Youngs Moduli (GPa) = 47.88357 31.05718 33.72846
#
# Poissons Ratio (x) = 0.44632 0.54843
# Poissons Ratio (y) = 0.68813 -0.28482
# Poissons Ratio (z) = 0.77859 -0.26226
#
# Static dielectric constant tensor:
#      x y z
#    x 1.864430 -0.008870 0.021910 
#    y -0.008870 1.897880 -0.021970 
#    z 0.021910 -0.021970 1.870040 
# 
# From -- ./inp_files/504933.got.cif
#   From: 2010.05.17/outbox.cif.g08.bks.cpg/sg2_253_cif.got.tgz:504933.got - 2010.06.03 11:33:40.
