data_PCOD9026205
_publ_section_title
;
Structure prediction by ZEFSAII (Michael W. Deem and Ramdas Pophale) SiO2 
 PCOD9026205
Probable space group: P -1
;
_chemical_formula_sum "Si O2"
_cell_formula_units_Z 14
_cell_length_a 7.700039
_cell_length_b 15.806585
_cell_length_c 19.104811
_cell_angle_alpha 18.091296
_cell_angle_beta 68.949901
_cell_angle_gamma 78.575162
_cell_volume 585.680685
_symmetry_space_group_name_H-M "P -1"
_symmetry_group_IT_number 2
_symmetry_cell_setting 'triclinic'
loop_
_space_group_symop_operation_xyz
x,y,z
-x,-y,-z
loop_
_atom_site_type_symbol
_atom_site_label
_atom_site_fract_x
_atom_site_fract_y
_atom_site_fract_z
Si Si1 0.388770 0.740656 0.660355
Si Si2 0.129248 0.315891 0.139876
Si Si3 0.170956 0.769497 0.355844
Si Si4 0.950034 0.639543 0.737374
Si Si5 0.519574 0.461766 0.747496
Si Si6 0.254284 0.370468 0.557361
Si Si7 0.881418 0.317046 0.863568
O O1 0.184480 0.741980 0.654457
O O2 0.527458 0.732602 0.582366
O O3 0.500000 0.000000 0.500000
O O4 0.301908 0.425637 0.967631
O O5 0.202944 0.411903 0.133994
O O6 0.978977 0.944258 0.452873
O O7 0.000000 0.500000 0.000000
O O8 0.302984 0.640317 0.394151
O O9 0.951258 0.671827 0.423220
O O10 0.097649 0.581719 0.587206
O O11 0.298003 0.143596 0.043338
O O12 0.890958 0.363021 0.909624
O O13 0.563667 0.544529 0.594194
O O14 0.696752 0.380748 0.812990
O O15 0.179395 0.036104 0.866607
#
# Coordination Sequence:
#
# PCOD9026205 Si02
#       7
#     2   2   2   2   2   2   2
#     4  11  25  40  61  90 127 166 214 264 313 375
#     4   9  21  39  62  84 116 165 211 258 309 369
#     4  10  22  45  66  94 132 165 210 263 322 385
#     4  10  22  41  63  86 121 170 206 261 320 371
#     4  11  25  40  63  98 131 165 216 269 314 380
#     4  10  23  42  69  94 126 173 208 259 325 385
#     4  11  24  39  67  96 130 165 214 260 322 385
#
# _framework density 23.903811000000001
#
# number of rings (size 3 to 8) (size 9 to 14) (size 15 to 20)
#    0.000    1.714    0.000    2.571    8.000    6.857 
#    0.000    0.000    0.000    0.000    0.000    0.000 
#    0.000    0.000    0.000    0.000    0.000    0.000 
#
# Total GULP energy -78272.064616 kJ/mol
# GULP energy per Si atom -5590.861758 kJ/mol
# Density = 2.384940 g / cm^3
# Si number density = 23.903811 Si / 1000 Ang^3
#
#
#
# Elastic Constant Matrix: (Units=GPa)
#
#
# Indices 1 2 3 4 5 6 
#
# 1 39.9344 -1.5824 -9.2398 -1.5888 6.7836 1.6089
# 2 -1.5824 106.4672 13.8329 6.0454 -7.8929 -15.1615
# 3 -9.2398 13.8329 81.3865 9.1974 3.8990 -4.9136
# 4 -1.5888 6.0454 9.1974 42.8919 -4.6607 -5.0000
# 5 6.7836 -7.8929 3.8990 -4.6607 25.8508 -8.5162
# 6 1.6089 -15.1615 -4.9136 -5.0000 -8.5162 26.3982
#
#
#
# Elastic Compliance Matrix: (Units=1/GPa)
#
#
# Indices 1 2 3 4 5 6 
#
# 1 0.027772 -0.001546 0.003730 -0.001318 -0.010365 -0.005480
# 2 -0.001546 0.011356 -0.001987 0.000550 0.007121 0.008648
# 3 0.003730 -0.001987 0.013558 -0.003076 -0.004472 -0.000870
# 4 -0.001318 0.000550 -0.003076 0.025557 0.007969 0.007235
# 5 -0.010365 0.007121 -0.004472 0.007969 0.053112 0.022533
# 6 -0.005480 0.008648 -0.000870 0.007235 0.022533 0.051660
#
#
# Mechanical properties :
#
#
# Convention : Reuss Voigt Hill
#
# Bulk Modulus (GPa) = 18.83908 25.97883 22.40895
# Shear Modulus (GPa) = 24.96105 34.01336 29.48721
#
# Velocity S-wave (km/s) = 3.23496 3.77626 3.51604
# Velocity P-wave (km/s) = 4.67457 5.46856 5.08708
#
# Compressibility (1/GPa) = 0.05308114
#
# Stress axis : x y z
#
# Youngs Moduli (GPa) = 36.00746 88.06016 73.75942
#
# Poissons Ratio (x) = 0.13613 -0.27515
# Poissons Ratio (y) = 0.05566 0.14654
# Poissons Ratio (z) = -0.13432 0.17496
#
# Static dielectric constant tensor:
#      x y z
#    x 1.936740 -0.011200 -0.030010 
#    y -0.011200 1.938190 0.031200 
#    z -0.030010 0.031200 1.935510 
# 
# From -- ./inp_files/46136.got.cif
#   From: 2010.05.17/outbox.cif.g08.bks.cpg/sg2_24_cif.got.tgz:46136.got - 2010.06.03 11:33:40.
