data_PCOD9026566
_publ_section_title
;
Structure prediction by ZEFSAII (Michael W. Deem and Ramdas Pophale) SiO2 
 PCOD9026566
Probable space group: P -1
;
_chemical_formula_sum "Si O2"
_cell_formula_units_Z 16
_cell_length_a 9.510060
_cell_length_b 9.496717
_cell_length_c 15.141369
_cell_angle_alpha 83.600467
_cell_angle_beta 71.163872
_cell_angle_gamma 134.922147
_cell_volume 790.153822
_symmetry_space_group_name_H-M "P -1"
_symmetry_group_IT_number 2
_symmetry_cell_setting 'triclinic'
loop_
_space_group_symop_operation_xyz
x,y,z
-x,-y,-z
loop_
_atom_site_type_symbol
_atom_site_label
_atom_site_fract_x
_atom_site_fract_y
_atom_site_fract_z
Si Si1 0.180644 0.566708 0.709100
Si Si2 0.799762 0.096690 0.364756
Si Si3 0.208342 0.133782 0.020957
Si Si4 0.318277 0.933131 0.110498
Si Si5 0.701850 0.620438 0.844254
Si Si6 0.059296 0.879918 0.475946
Si Si7 0.391134 0.571203 0.493301
Si Si8 0.460234 0.212388 0.225075
O O1 0.248382 0.780636 0.663671
O O2 0.276440 0.549468 0.607365
O O3 0.312286 0.617271 0.768372
O O4 0.894458 0.329753 0.795172
O O5 0.812020 0.091259 0.468289
O O6 0.061675 0.250455 0.264109
O O7 0.595928 0.830553 0.397603
O O8 0.214500 0.264654 0.083367
O O9 0.186589 0.969670 0.089118
O O10 0.482361 0.344206 0.912640
O O11 0.000000 0.000000 0.000000
O O12 0.466076 0.105230 0.151890
O O13 0.500000 0.000000 0.000000
O O14 0.587902 0.671305 0.815911
O O15 0.816731 0.613423 0.522305
O O16 0.230678 0.005124 0.347750
O O17 0.000000 0.000000 0.500000
O O18 0.500000 0.500000 0.500000
#
# Coordination Sequence:
#
# PCOD9026566 Si02
#       8
#     2   2   2   2   2   2   2   2
#     4  12  26  43  67 101 140 173 225 280 333 398
#     4  12  26  41  66 103 139 174 223 271 340 396
#     4  10  22  41  68  94 127 168 232 279 330 385
#     4  11  25  44  68  95 134 179 226 274 342 399
#     4  10  22  41  64  97 130 172 221 281 327 397
#     4  12  22  42  68  97 136 180 219 272 333 397
#     4  12  24  41  68  96 133 180 225 265 327 409
#     4  11  22  42  68  93 135 180 223 273 336 397
#
# _framework density 20.249223000000001
#
# number of rings (size 3 to 8) (size 9 to 14) (size 15 to 20)
#    0.000    0.750    5.000    1.875    1.750    4.000 
#    0.000    0.000    0.000    0.000    0.000    0.000 
#    0.000    0.000    0.000    0.000    0.000    0.000 
#
# Total GULP energy -89494.065104 kJ/mol
# GULP energy per Si atom -5593.379069 kJ/mol
# Density = 2.020313 g / cm^3
# Si number density = 20.249223 Si / 1000 Ang^3
#
#
#
# Elastic Constant Matrix: (Units=GPa)
#
#
# Indices 1 2 3 4 5 6 
#
# 1 52.4500 36.3066 11.2285 9.0900 1.4733 2.0507
# 2 36.3066 122.8714 30.9768 -9.7646 -0.6843 5.8773
# 3 11.2285 30.9768 95.6475 -4.2544 -12.7265 -13.8964
# 4 9.0900 -9.7646 -4.2544 42.4505 -1.8603 3.0971
# 5 1.4733 -0.6843 -12.7265 -1.8603 34.5446 8.7445
# 6 2.0507 5.8773 -13.8964 3.0971 8.7445 33.6194
#
#
#
# Elastic Compliance Matrix: (Units=1/GPa)
#
#
# Indices 1 2 3 4 5 6 
#
# 1 0.026333 -0.008200 -0.000975 -0.007774 -0.002247 0.000725
# 2 -0.008200 0.011864 -0.003105 0.004446 0.000543 -0.003408
# 3 -0.000975 -0.003105 0.012778 0.000568 0.003471 0.004929
# 4 -0.007774 0.004446 0.000568 0.026667 0.002895 -0.003278
# 5 -0.002247 0.000543 0.003471 0.002895 0.032310 -0.007194
# 6 0.000725 -0.003408 0.004929 -0.003278 -0.007194 0.034507
#
#
# Mechanical properties :
#
#
# Convention : Reuss Voigt Hill
#
# Bulk Modulus (GPa) = 37.85728 47.55475 42.70601
# Shear Modulus (GPa) = 28.11780 34.95337 31.53559
#
# Velocity S-wave (km/s) = 3.73042 4.15921 3.95064
# Velocity P-wave (km/s) = 6.10663 6.82650 6.47658
#
# Compressibility (1/GPa) = 0.02641500
#
# Stress axis : x y z
#
# Youngs Moduli (GPa) = 37.97544 84.29092 78.25848
#
# Poissons Ratio (x) = 0.69119 0.07630
# Poissons Ratio (y) = 0.31140 0.24297
# Poissons Ratio (z) = 0.03703 0.26170
#
# Static dielectric constant tensor:
#      x y z
#    x 1.662910 0.046600 -0.042430 
#    y 0.046600 1.681290 0.021330 
#    z -0.042430 0.021330 1.686310 
# 
# From -- ./inp_files/273406.got.cif
#   From: 2010.05.17/outbox.cif.g08.bks.cpg/sg2_137_cif.got.tgz:273406.got - 2010.06.03 11:33:40.
