data_PCOD9026024
_publ_section_title
;
Structure prediction by ZEFSAII (Michael W. Deem and Ramdas Pophale) SiO2 
 PCOD9026024
Probable space group: P -1
;
_chemical_formula_sum "Si O2"
_cell_formula_units_Z 14
_cell_length_a 11.824775
_cell_length_b 7.413981
_cell_length_c 13.339619
_cell_angle_alpha 49.507107
_cell_angle_beta 134.290873
_cell_angle_gamma 122.438751
_cell_volume 629.174914
_symmetry_space_group_name_H-M "P -1"
_symmetry_group_IT_number 2
_symmetry_cell_setting 'triclinic'
loop_
_space_group_symop_operation_xyz
x,y,z
-x,-y,-z
loop_
_atom_site_type_symbol
_atom_site_label
_atom_site_fract_x
_atom_site_fract_y
_atom_site_fract_z
Si Si1 0.085045 0.064776 0.186754
Si Si2 0.468877 0.960690 0.702077
Si Si3 0.595474 0.564591 0.136172
Si Si4 0.385051 0.227503 0.732210
Si Si5 0.913000 0.726667 0.348495
Si Si6 0.183667 0.778530 0.174444
Si Si7 0.357717 0.370088 0.349865
O O1 0.246084 0.251491 0.233898
O O2 0.117506 0.841200 0.218828
O O3 0.028034 0.960501 0.297898
O O4 0.949834 0.186610 0.002915
O O5 0.395079 0.000259 0.751231
O O6 0.658677 0.022409 0.813248
O O7 0.415519 0.156179 0.524218
O O8 0.412404 0.695706 0.722709
O O9 0.538424 0.740905 0.119989
O O10 0.780889 0.668466 0.198971
O O11 0.500000 0.500000 0.000000
O O12 0.201122 0.243503 0.638342
O O13 0.488592 0.445934 0.657186
O O14 0.000000 0.500000 0.500000
O O15 0.248429 0.527934 0.289112
#
# Coordination Sequence:
#
# PCOD9026024 Si02
#       7
#     2   2   2   2   2   2   2
#     4  11  23  42  62  91 128 166 199 257 314 364
#     4  11  22  40  69  92 117 169 212 252 307 360
#     4  10  22  41  61  91 124 162 205 246 308 370
#     4   9  23  41  63  91 125 155 209 260 297 364
#     4  10  23  40  61  88 129 162 199 253 313 362
#     4  10  23  40  65  90 128 160 207 257 310 361
#     4  11  23  40  68  94 119 161 218 253 302 368
#
# _framework density 22.251363999999999
#
# number of rings (size 3 to 8) (size 9 to 14) (size 15 to 20)
#    0.857    0.857    0.000    4.714    4.000    2.857 
#    5.143    1.429    0.000    0.000    0.000    0.000 
#    0.000    0.000    0.000    0.000    0.000    0.000 
#
# Total GULP energy -78125.309360 kJ/mol
# GULP energy per Si atom -5580.379240 kJ/mol
# Density = 2.220072 g / cm^3
# Si number density = 22.251364 Si / 1000 Ang^3
#
#
#
# Elastic Constant Matrix: (Units=GPa)
#
#
# Indices 1 2 3 4 5 6 
#
# 1 101.7131 13.3958 25.2869 -6.9267 19.9177 -7.0559
# 2 13.3958 66.4795 4.3016 -10.3758 4.4610 -9.1416
# 3 25.2869 4.3016 75.2086 -1.1126 3.1930 -8.4071
# 4 -6.9267 -10.3758 -1.1126 34.5369 0.0912 -1.9668
# 5 19.9177 4.4610 3.1930 0.0912 11.1180 2.0080
# 6 -7.0559 -9.1416 -8.4071 -1.9668 2.0080 35.8189
#
#
#
# Elastic Compliance Matrix: (Units=1/GPa)
#
#
# Indices 1 2 3 4 5 6 
#
# 1 0.017443 0.000009 -0.004001 0.003706 -0.030935 0.004437
# 2 0.000009 0.017122 0.000004 0.005458 -0.007855 0.005112
# 3 -0.004001 0.000004 0.014819 -0.000186 0.002453 0.002543
# 4 0.003706 0.005458 -0.000186 0.031606 -0.009824 0.004366
# 5 -0.030935 -0.007855 0.002453 -0.009824 0.150875 -0.016521
# 6 0.004437 0.005112 0.002543 0.004366 -0.016521 0.031860
#
#
# Mechanical properties :
#
#
# Convention : Reuss Voigt Hill
#
# Bulk Modulus (GPa) = 24.15107 36.59664 30.37385
# Shear Modulus (GPa) = 17.51278 29.65588 23.58433
#
# Velocity S-wave (km/s) = 2.80847 3.65467 3.25915
# Velocity P-wave (km/s) = 4.62536 5.85589 5.27662
#
# Compressibility (1/GPa) = 0.04140604
#
# Stress axis : x y z
#
# Youngs Moduli (GPa) = 57.32896 58.40383 67.48168
#
# Poissons Ratio (x) = -0.00050 0.27000
# Poissons Ratio (y) = -0.00049 -0.00024
# Poissons Ratio (z) = 0.22938 -0.00021
#
# Static dielectric constant tensor:
#      x y z
#    x 1.848250 -0.012490 -0.024850 
#    y -0.012490 1.842090 -0.030550 
#    z -0.024850 -0.030550 1.862710 
# 
# From -- ./inp_files/512840.got.cif
#   From: 2010.05.17/outbox.cif.g08.bks.cpg/sg2_257_cif.got.tgz:512840.got - 2010.06.03 11:33:40.
