data_PCOD9026544
_publ_section_title
;
Structure prediction by ZEFSAII (Michael W. Deem and Ramdas Pophale) SiO2 
 PCOD9026544
Probable space group: P -1
;
_chemical_formula_sum "Si O2"
_cell_formula_units_Z 14
_cell_length_a 15.237076
_cell_length_b 12.994021
_cell_length_c 10.389027
_cell_angle_alpha 34.547896
_cell_angle_beta 113.955182
_cell_angle_gamma 138.039941
_cell_volume 654.168203
_symmetry_space_group_name_H-M "P -1"
_symmetry_group_IT_number 2
_symmetry_cell_setting 'triclinic'
loop_
_space_group_symop_operation_xyz
x,y,z
-x,-y,-z
loop_
_atom_site_type_symbol
_atom_site_label
_atom_site_fract_x
_atom_site_fract_y
_atom_site_fract_z
Si Si1 0.845106 0.751389 0.028151
Si Si2 0.138150 0.775814 0.051069
Si Si3 0.228155 0.671283 0.728885
Si Si4 0.325799 0.177813 0.207473
Si Si5 0.164752 0.396839 0.539546
Si Si6 0.391455 0.420774 0.629078
Si Si7 0.698466 0.968539 0.389407
O O1 0.744987 0.490876 0.134048
O O2 0.848341 0.639378 0.275402
O O3 0.765683 0.824454 0.935851
O O4 0.012995 0.054952 0.759514
O O5 0.156551 0.591787 0.289508
O O6 0.956585 0.563396 0.160476
O O7 0.246963 0.062810 0.912124
O O8 0.201902 0.896586 0.818858
O O9 0.314975 0.949750 0.404879
O O10 0.283344 0.805121 0.767590
O O11 0.245984 0.065559 0.418865
O O12 0.500000 0.500000 0.000000
O O13 0.314426 0.503656 0.473982
O O14 0.500000 0.500000 0.500000
O O15 0.520325 0.647307 0.583434
#
# Coordination Sequence:
#
# PCOD9026544 Si02
#       7
#     2   2   2   2   2   2   2
#     4  11  23  40  64  96 124 170 213 258 316 374
#     4  11  21  43  67  91 128 166 211 263 314 375
#     4  10  22  41  64  96 123 170 209 258 324 368
#     4  10  22  42  62  88 132 160 212 258 314 372
#     4  11  23  39  65  95 129 162 219 261 306 384
#     4  10  22  42  63  92 130 166 207 260 320 371
#     4   9  22  41  63  92 130 163 205 263 314 371
#
# _framework density 21.401225
#
# number of rings (size 3 to 8) (size 9 to 14) (size 15 to 20)
#    0.857    0.857    2.857    1.286    0.000    5.714 
#    7.714    1.429    0.000    0.000    0.000    0.000 
#    0.000    0.000    0.000    0.000    0.000    0.000 
#
# Total GULP energy -77982.368127 kJ/mol
# GULP energy per Si atom -5570.169152 kJ/mol
# Density = 2.135251 g / cm^3
# Si number density = 21.401225 Si / 1000 Ang^3
#
#
#
# Elastic Constant Matrix: (Units=GPa)
#
#
# Indices 1 2 3 4 5 6 
#
# 1 60.2751 15.3201 15.6997 -1.3268 10.2724 -7.8222
# 2 15.3201 77.0200 23.8521 -17.8191 8.2441 -22.3438
# 3 15.6997 23.8521 91.9898 -4.1855 7.3860 -6.1969
# 4 -1.3268 -17.8191 -4.1855 44.5377 -3.8547 7.5322
# 5 10.2724 8.2441 7.3860 -3.8547 30.1681 -7.7165
# 6 -7.8222 -22.3438 -6.1969 7.5322 -7.7165 36.9266
#
#
#
# Elastic Compliance Matrix: (Units=1/GPa)
#
#
# Indices 1 2 3 4 5 6 
#
# 1 0.018769 -0.002438 -0.002135 -0.001281 -0.005019 0.001355
# 2 -0.002438 0.018415 -0.003484 0.005437 -0.000391 0.008851
# 3 -0.002135 -0.003484 0.012196 -0.000314 -0.001545 -0.000772
# 4 -0.001281 0.005437 -0.000314 0.025012 0.001771 -0.001766
# 5 -0.005019 -0.000391 -0.001545 0.001771 0.037057 0.005824
# 6 0.001355 0.008851 -0.000772 -0.001766 0.005824 0.034171
#
#
# Mechanical properties :
#
#
# Convention : Reuss Voigt Hill
#
# Bulk Modulus (GPa) = 30.06046 37.66986 33.86516
# Shear Modulus (GPa) = 28.93113 33.95402 31.44258
#
# Velocity S-wave (km/s) = 3.68073 3.98747 3.83717
# Velocity P-wave (km/s) = 5.66925 6.23216 5.95736
#
# Compressibility (1/GPa) = 0.03326629
#
# Stress axis : x y z
#
# Youngs Moduli (GPa) = 53.27803 54.30405 81.99300
#
# Poissons Ratio (x) = 0.13241 0.17507
# Poissons Ratio (y) = 0.12990 0.28564
# Poissons Ratio (z) = 0.11376 0.18918
#
# Static dielectric constant tensor:
#      x y z
#    x 1.803450 -0.023890 -0.014610 
#    y -0.023890 1.800910 -0.007610 
#    z -0.014610 -0.007610 1.792280 
# 
# From -- ./inp_files/118222.got.cif
#   From: 2010.05.17/outbox.cif.g08.bks.cpg/sg2_60_cif.got.tgz:118222.got - 2010.06.03 11:33:40.
