data_PCOD9026516
_publ_section_title
;
Structure prediction by ZEFSAII (Michael W. Deem and Ramdas Pophale) SiO2 
 PCOD9026516
Probable space group: P -1
;
_chemical_formula_sum "Si O2"
_cell_formula_units_Z 14
_cell_length_a 23.074107
_cell_length_b 8.620477
_cell_length_c 11.993877
_cell_angle_alpha 139.731201
_cell_angle_beta 148.554758
_cell_angle_gamma 30.335385
_cell_volume 625.355250
_symmetry_space_group_name_H-M "P -1"
_symmetry_group_IT_number 2
_symmetry_cell_setting 'triclinic'
loop_
_space_group_symop_operation_xyz
x,y,z
-x,-y,-z
loop_
_atom_site_type_symbol
_atom_site_label
_atom_site_fract_x
_atom_site_fract_y
_atom_site_fract_z
Si Si1 0.993491 0.342313 0.237380
Si Si2 0.036060 0.089343 0.498718
Si Si3 0.803234 0.369078 0.762533
Si Si4 0.344204 0.585891 0.675696
Si Si5 0.812675 0.345062 0.124774
Si Si6 0.401705 0.415787 0.261436
Si Si7 0.438203 0.279514 0.901695
O O1 0.040132 0.551367 0.432369
O O2 0.872426 0.465709 0.202391
O O3 0.924869 0.374482 0.021378
O O4 0.123723 0.990387 0.290382
O O5 0.960526 0.043502 0.250905
O O6 0.202446 0.913284 0.666181
O O7 0.000000 0.000000 0.500000
O O8 0.726724 0.472599 0.573077
O O9 0.671964 0.581439 0.747423
O O10 0.400461 0.365332 0.755132
O O11 0.461017 0.626120 0.852950
O O12 0.702572 0.532955 0.149021
O O13 0.721148 0.313054 0.871966
O O14 0.500000 0.500000 0.500000
O O15 0.479785 0.084521 0.150202
#
# Coordination Sequence:
#
# PCOD9026516 Si02
#       7
#     2   2   2   2   2   2   2
#     4  10  23  40  69  98 130 164 216 273 325 379
#     4  12  24  42  67 102 130 168 219 272 326 381
#     4  10  22  41  64  94 130 174 211 264 327 383
#     4  11  23  43  67  95 136 170 215 269 330 384
#     4  11  22  43  70  98 124 170 224 271 316 373
#     4  11  25  40  62  95 133 171 221 261 320 391
#     4  11  25  42  66  99 129 176 217 266 324 388
#
# _framework density 22.387274000000001
#
# number of rings (size 3 to 8) (size 9 to 14) (size 15 to 20)
#    0.000    1.143    2.857    3.429    4.000    0.571 
#    2.571    0.714    0.000    0.000    0.000    0.000 
#    0.000    0.000    0.000    0.000    0.000    0.000 
#
# Total GULP energy -78042.827859 kJ/mol
# GULP energy per Si atom -5574.487704 kJ/mol
# Density = 2.233632 g / cm^3
# Si number density = 22.387274 Si / 1000 Ang^3
#
#
#
# Elastic Constant Matrix: (Units=GPa)
#
#
# Indices 1 2 3 4 5 6 
#
# 1 99.4481 13.2000 45.2109 -4.0661 -2.0749 -8.0677
# 2 13.2000 38.6908 17.7544 -11.5109 6.9929 -10.2800
# 3 45.2109 17.7544 127.1656 -34.5603 -13.7457 19.1618
# 4 -4.0661 -11.5109 -34.5603 32.0340 0.3331 -6.3319
# 5 -2.0749 6.9929 -13.7457 0.3331 44.1124 -13.0374
# 6 -8.0677 -10.2800 19.1618 -6.3319 -13.0374 28.3288
#
#
#
# Elastic Compliance Matrix: (Units=1/GPa)
#
#
# Indices 1 2 3 4 5 6 
#
# 1 0.013914 -0.000957 -0.007202 -0.004809 0.000913 0.007832
# 2 -0.000957 0.036875 -0.004515 0.011803 -0.002118 0.017826
# 3 -0.007202 -0.004515 0.016488 0.013072 0.002191 -0.010912
# 4 -0.004809 0.011803 0.013072 0.050297 0.003665 0.007000
# 5 0.000913 -0.002118 0.002191 0.003665 0.027034 0.011270
# 6 0.007832 0.017826 -0.010912 0.007000 0.011270 0.058132
#
#
# Mechanical properties :
#
#
# Convention : Reuss Voigt Hill
#
# Bulk Modulus (GPa) = 23.84949 46.40390 35.12669
# Shear Modulus (GPa) = 20.65558 33.50433 27.07995
#
# Velocity S-wave (km/s) = 3.04081 3.87276 3.48172
# Velocity P-wave (km/s) = 4.79635 6.38518 5.64692
#
# Compressibility (1/GPa) = 0.04192963
#
# Stress axis : x y z
#
# Youngs Moduli (GPa) = 71.86826 27.11837 60.64860
#
# Poissons Ratio (x) = 0.02596 0.43677
# Poissons Ratio (y) = 0.06879 0.27386
# Poissons Ratio (z) = 0.51757 0.12245
#
# Static dielectric constant tensor:
#      x y z
#    x 1.864410 -0.026930 -0.094420 
#    y -0.026930 1.818140 -0.020670 
#    z -0.094420 -0.020670 1.928510 
# 
# From -- ./inp_files/256121.got.cif
#   From: 2010.05.17/outbox.cif.g08.bks.cpg/sg2_129_cif.got.tgz:256121.got - 2010.06.03 11:33:40.
