data_PCOD9026032
_publ_section_title
;
Structure prediction by ZEFSAII (Michael W. Deem and Ramdas Pophale) SiO2 
 PCOD9026032
Probable space group: P -1
;
_chemical_formula_sum "Si O2"
_cell_formula_units_Z 14
_cell_length_a 5.492085
_cell_length_b 10.858585
_cell_length_c 11.333045
_cell_angle_alpha 62.022355
_cell_angle_beta 111.119829
_cell_angle_gamma 113.978423
_cell_volume 533.169740
_symmetry_space_group_name_H-M "P -1"
_symmetry_group_IT_number 2
_symmetry_cell_setting 'triclinic'
loop_
_space_group_symop_operation_xyz
x,y,z
-x,-y,-z
loop_
_atom_site_type_symbol
_atom_site_label
_atom_site_fract_x
_atom_site_fract_y
_atom_site_fract_z
Si Si1 0.932448 0.828305 0.704145
Si Si2 0.200231 0.309253 0.642564
Si Si3 0.554323 0.611807 0.591916
Si Si4 0.203533 0.899198 0.463652
Si Si5 0.675168 0.340602 0.062591
Si Si6 0.936040 0.439814 0.823410
Si Si7 0.862960 0.827980 0.066209
O O1 0.633998 0.723555 0.664347
O O2 0.073625 0.853394 0.588893
O O3 0.112082 0.754391 0.846032
O O4 0.928072 0.985368 0.673791
O O5 0.284317 0.478356 0.617883
O O6 0.387108 0.308162 0.560170
O O7 0.257559 0.215983 0.803805
O O8 0.889658 0.239594 0.574873
O O9 0.792066 0.527442 0.673861
O O10 0.500000 0.000000 0.500000
O O11 0.765450 0.459284 0.129015
O O12 0.373318 0.233570 0.045185
O O13 0.753124 0.425308 0.915837
O O14 0.946526 0.280369 0.861726
O O15 0.000000 0.000000 0.000000
#
# Coordination Sequence:
#
# PCOD9026032 Si02
#       7
#     2   2   2   2   2   2   2
#     4   9  21  40  66  89 120 167 214 262 308 378
#     4  10  22  42  63  92 131 162 210 264 318 374
#     4   9  19  45  67  89 123 168 220 267 311 363
#     4  10  22  41  61  92 126 166 212 255 320 381
#     4  10  22  43  67  91 126 171 217 260 314 378
#     4  10  22  43  68  92 124 172 219 264 312 373
#     4  12  27  40  60 102 135 168 208 259 329 389
#
# _framework density 26.258054999999999
#
# number of rings (size 3 to 8) (size 9 to 14) (size 15 to 20)
#    0.000    2.000    1.429    0.429    4.000    2.286 
#   15.429    0.000    0.000    0.000    0.000    0.000 
#    0.000    0.000    0.000    0.000    0.000    0.000 
#
# Total GULP energy -78303.776783 kJ/mol
# GULP energy per Si atom -5593.126913 kJ/mol
# Density = 2.619829 g / cm^3
# Si number density = 26.258055 Si / 1000 Ang^3
#
#
#
# Elastic Constant Matrix: (Units=GPa)
#
#
# Indices 1 2 3 4 5 6 
#
# 1 55.2871 51.7668 17.7394 -6.3198 -0.4529 6.9998
# 2 51.7668 202.6661 43.1949 -10.4121 7.6329 26.9152
# 3 17.7394 43.1949 112.4947 -19.4537 -5.5447 3.2393
# 4 -6.3198 -10.4121 -19.4537 51.9365 7.9017 12.3936
# 5 -0.4529 7.6329 -5.5447 7.9017 26.5799 -3.7254
# 6 6.9998 26.9152 3.2393 12.3936 -3.7254 48.2990
#
#
#
# Elastic Compliance Matrix: (Units=1/GPa)
#
#
# Indices 1 2 3 4 5 6 
#
# 1 0.024161 -0.005847 -0.001286 0.001150 0.001433 -0.000342
# 2 -0.005847 0.007550 -0.001760 0.001644 -0.003677 -0.003947
# 3 -0.001286 -0.001760 0.010408 0.003186 0.001677 -0.000219
# 4 0.001150 0.001644 0.003186 0.024079 -0.008081 -0.008099
# 5 0.001433 -0.003677 0.001677 -0.008081 0.042447 0.007077
# 6 -0.000342 -0.003947 -0.000219 -0.008099 0.007077 0.025592
#
#
# Mechanical properties :
#
#
# Convention : Reuss Voigt Hill
#
# Bulk Modulus (GPa) = 41.09588 66.20555 53.65072
# Shear Modulus (GPa) = 31.22379 42.54620 36.88500
#
# Velocity S-wave (km/s) = 3.45209 4.02967 3.75201
# Velocity P-wave (km/s) = 5.61907 6.84976 6.26471
#
# Compressibility (1/GPa) = 0.02433334
#
# Stress axis : x y z
#
# Youngs Moduli (GPa) = 41.38907 132.44901 96.08105
#
# Poissons Ratio (x) = 0.77442 0.12352
# Poissons Ratio (y) = 0.24200 0.16913
# Poissons Ratio (z) = 0.05321 0.23314
#
# Static dielectric constant tensor:
#      x y z
#    x 2.128800 0.050090 0.012340 
#    y 0.050090 2.099140 0.042360 
#    z 0.012340 0.042360 2.060490 
# 
# From -- ./inp_files/363955.got.cif
#   From: 2010.05.17/outbox.cif.g08.bks.cpg/sg2_182_cif.got.tgz:363955.got - 2010.06.03 11:33:40.
