data_PCOD9026906
_publ_section_title
;
Structure prediction by ZEFSAII (Michael W. Deem and Ramdas Pophale) SiO2 
 PCOD9026906
Probable space group: P -1
;
_chemical_formula_sum "Si O2"
_cell_formula_units_Z 15
_cell_length_a 5.079967
_cell_length_b 5.578664
_cell_length_c 27.076572
_cell_angle_alpha 120.694728
_cell_angle_beta 110.592718
_cell_angle_gamma 94.630087
_cell_volume 584.493280
_symmetry_space_group_name_H-M "P -1"
_symmetry_group_IT_number 2
_symmetry_cell_setting 'triclinic'
loop_
_space_group_symop_operation_xyz
x,y,z
-x,-y,-z
loop_
_atom_site_type_symbol
_atom_site_label
_atom_site_fract_x
_atom_site_fract_y
_atom_site_fract_z
Si Si1 0.759872 0.064229 0.455894
Si Si2 0.864549 0.592879 0.576154
Si Si3 0.255347 0.290497 0.901398
Si Si4 0.824596 0.162522 0.940604
Si Si5 0.156875 0.977911 0.239474
Si Si6 0.500000 0.000000 0.000000
Si Si7 0.215443 0.631703 0.700092
Si Si8 0.739779 0.136981 0.662673
O O1 0.657453 0.287478 0.507781
O O2 0.940485 0.230774 0.437756
O O3 0.488686 0.808447 0.386530
O O4 0.000000 0.000000 0.500000
O O5 0.089929 0.553648 0.628353
O O6 0.702322 0.798264 0.612673
O O7 0.526094 0.170727 0.894100
O O8 0.070071 0.091199 0.914528
O O9 0.379293 0.634866 0.958888
O O10 0.024328 0.244822 0.836929
O O11 0.000000 0.500000 0.000000
O O12 0.700093 0.975761 0.961265
O O13 0.433376 0.229822 0.260852
O O14 0.931011 0.129797 0.264049
O O15 0.292108 0.839937 0.278729
O O16 0.067799 0.341092 0.691714
#
# Coordination Sequence:
#
# PCOD9026906 Si02
#       8
#     2   2   2   2   2   1   2   2
#     4  11  23  39  69 100 135 174 233 299 366 422
#     4  10  23  41  64  97 137 173 229 297 358 424
#     4  11  24  42  68 102 142 180 233 283 342 411
#     4  10  22  41  66 103 140 176 220 278 336 404
#     4  11  26  46  66 100 137 185 236 294 340 421
#     4  10  22  42  72 100 140 180 218 278 342 404
#     4  11  25  44  72  92 137 184 235 290 354 414
#     4  11  25  44  69  94 137 185 236 291 360 423
#
# _framework density 25.663254999999999
#
# number of rings (size 3 to 8) (size 9 to 14) (size 15 to 20)
#    0.000    1.333    1.333    3.600    3.733   10.133 
#    0.000    0.000    0.000    0.000    0.000    0.000 
#    0.000    0.000    0.000    0.000    0.000    0.000 
#
# Total GULP energy -83750.898896 kJ/mol
# GULP energy per Si atom -5583.393260 kJ/mol
# Density = 2.560484 g / cm^3
# Si number density = 25.663255 Si / 1000 Ang^3
#
#
#
# Elastic Constant Matrix: (Units=GPa)
#
#
# Indices 1 2 3 4 5 6 
#
# 1 108.1027 30.3522 37.0495 -3.4822 15.1144 17.7806
# 2 30.3522 108.5076 25.2826 -2.0959 1.9855 37.5291
# 3 37.0495 25.2826 111.6137 -8.8407 22.7192 11.7282
# 4 -3.4822 -2.0959 -8.8407 14.9964 3.6387 -4.3872
# 5 15.1144 1.9855 22.7192 3.6387 37.3723 0.7820
# 6 17.7806 37.5291 11.7282 -4.3872 0.7820 47.6548
#
#
#
# Elastic Compliance Matrix: (Units=1/GPa)
#
#
# Indices 1 2 3 4 5 6 
#
# 1 0.011408 -0.001832 -0.002437 0.001106 -0.003100 -0.002061
# 2 -0.001832 0.013476 -0.002014 -0.003002 0.001746 -0.009738
# 3 -0.002437 -0.002014 0.012308 0.008257 -0.007201 0.000344
# 4 0.001106 -0.003002 0.008257 0.076624 -0.012918 0.007186
# 5 -0.003100 0.001746 -0.007201 -0.012918 0.033558 -0.000186
# 6 -0.002061 -0.009738 0.000344 0.007186 -0.000186 0.030002
#
#
# Mechanical properties :
#
#
# Convention : Reuss Voigt Hill
#
# Bulk Modulus (GPa) = 40.60797 57.06584 48.83690
# Shear Modulus (GPa) = 25.23328 35.70735 30.47031
#
# Velocity S-wave (km/s) = 3.13908 3.73417 3.44948
# Velocity P-wave (km/s) = 5.38481 6.39349 5.91070
#
# Compressibility (1/GPa) = 0.02462571
#
# Stress axis : x y z
#
# Youngs Moduli (GPa) = 87.65730 74.20583 81.24742
#
# Poissons Ratio (x) = 0.13598 0.19797
# Poissons Ratio (y) = 0.16063 0.16364
# Poissons Ratio (z) = 0.21359 0.14946
#
# Static dielectric constant tensor:
#      x y z
#    x 2.094480 -0.109530 0.051260 
#    y -0.109530 2.110130 -0.129220 
#    z 0.051260 -0.129220 2.127030 
# 
# From -- ./inp_files/614748.got.cif
#   From: 2010.05.17/outbox.cif.g08.bks.cpg/sg2_308_cif.got.tgz:614748.got - 2010.06.03 11:33:40.
