data_PCOD9026356
_publ_section_title
;
Structure prediction by ZEFSAII (Michael W. Deem and Ramdas Pophale) SiO2 
 PCOD9026356
Probable space group: P -1
;
_chemical_formula_sum "Si O2"
_cell_formula_units_Z 16
_cell_length_a 13.984664
_cell_length_b 23.260022
_cell_length_c 5.639202
_cell_angle_alpha 101.786320
_cell_angle_beta 81.504051
_cell_angle_gamma 156.396644
_cell_volume 715.341129
_symmetry_space_group_name_H-M "P -1"
_symmetry_group_IT_number 2
_symmetry_cell_setting 'triclinic'
loop_
_space_group_symop_operation_xyz
x,y,z
-x,-y,-z
loop_
_atom_site_type_symbol
_atom_site_label
_atom_site_fract_x
_atom_site_fract_y
_atom_site_fract_z
Si Si1 0.203966 0.576222 0.125037
Si Si2 0.452047 0.152184 0.478567
Si Si3 0.920434 0.300814 0.100197
Si Si4 0.361745 0.862086 0.433360
Si Si5 0.971884 0.911322 0.686929
Si Si6 0.437932 0.396287 0.430409
Si Si7 0.619315 0.501992 0.952795
Si Si8 0.346203 0.162227 0.135338
O O1 0.329923 0.687764 0.367011
O O2 0.082624 0.449803 0.159331
O O3 0.436230 0.691218 0.975537
O O4 0.000000 0.500000 0.000000
O O5 0.466121 0.097441 0.547020
O O6 0.467801 0.171635 0.211454
O O7 0.185064 0.028631 0.519174
O O8 0.800448 0.230355 0.344532
O O9 0.095509 0.342062 0.042851
O O10 0.762935 0.214628 0.843406
O O11 0.500000 0.000000 0.500000
O O12 0.839575 0.775482 0.631661
O O13 0.762803 0.843738 0.681403
O O14 0.119971 0.010886 0.949324
O O15 0.500000 0.500000 0.500000
O O16 0.524235 0.420494 0.674723
O O17 0.555006 0.439008 0.178817
O O18 0.500000 0.500000 0.000000
#
# Coordination Sequence:
#
# PCOD9026356 Si02
#       8
#     2   2   2   2   2   2   2   2
#     4  11  23  42  71 104 139 180 237 297 359 422
#     4  11  25  43  72  99 140 190 240 293 366 427
#     4  12  26  47  75 104 143 183 236 307 352 419
#     4  12  29  50  71 103 141 192 246 290 357 428
#     4  10  23  41  66 100 145 183 233 293 362 424
#     4  10  22  41  64 100 137 181 235 280 344 418
#     4  10  23  41  67 100 136 177 231 283 355 410
#     4  10  23  42  67 105 141 184 237 292 367 429
#
# _framework density 22.366951
#
# number of rings (size 3 to 8) (size 9 to 14) (size 15 to 20)
#    0.000    1.250    1.250    3.000    7.000    5.000 
#    2.250    0.000    0.000    0.000    0.000    0.000 
#    0.000    0.000    0.000    0.000    0.000    0.000 
#
# Total GULP energy -89196.841471 kJ/mol
# GULP energy per Si atom -5574.802592 kJ/mol
# Density = 2.231604 g / cm^3
# Si number density = 22.366951 Si / 1000 Ang^3
#
#
#
# Elastic Constant Matrix: (Units=GPa)
#
#
# Indices 1 2 3 4 5 6 
#
# 1 104.6178 42.3417 24.0860 3.5451 0.5088 -7.1260
# 2 42.3417 125.8747 51.7919 44.0901 16.5621 -19.6818
# 3 24.0860 51.7919 119.0209 -33.4984 2.1309 -0.9376
# 4 3.5451 44.0901 -33.4984 -64.2405 -40.9291 -13.4259
# 5 0.5088 16.5621 2.1309 -40.9291 -4.8040 -1.3475
# 6 -7.1260 -19.6818 -0.9376 -13.4259 -1.3475 46.2706
#
#
#
# Elastic Compliance Matrix: (Units=1/GPa)
#
#
# Indices 1 2 3 4 5 6 
#
# 1 0.011064 -0.002836 -0.001351 -0.001181 0.000812 0.000151
# 2 -0.002836 0.008947 -0.002667 0.002588 0.006121 0.004244
# 3 -0.001351 -0.002667 0.010318 0.000952 -0.012528 -0.001222
# 4 -0.001181 0.002588 0.000952 0.004577 -0.030165 0.001388
# 5 0.000812 0.006121 -0.012528 -0.030165 0.065695 -0.004365
# 6 0.000151 0.004244 -0.001222 0.001388 -0.004365 0.023692
#
#
# Mechanical properties :
#
#
# Convention : Reuss Voigt Hill
#
# Bulk Modulus (GPa) = 60.15969 65.10584 62.63277
# Shear Modulus (GPa) = 34.83320 10.86481 22.84900
#
# Velocity S-wave (km/s) = 3.95061 2.20637 3.19964
# Velocity P-wave (km/s) = 6.91121 5.97177 6.45859
#
# Compressibility (1/GPa) = 0.01662243
#
# Stress axis : x y z
#
# Youngs Moduli (GPa) = 90.38691 111.76463 96.91376
#
# Poissons Ratio (x) = 0.31691 0.13090
# Poissons Ratio (y) = 0.25630 0.25850
# Poissons Ratio (z) = 0.12208 0.29811
#
# Static dielectric constant tensor:
#      x y z
#    x 1.823680 0.042230 -0.037140 
#    y 0.042230 1.785830 -0.026510 
#    z -0.037140 -0.026510 2.008020 
# 
# From -- ./inp_files/101200.got.cif
#   From: 2010.05.17/outbox.cif.g08.bks.cpg/sg2_51_cif.got.tgz:101200.got - 2010.06.03 11:33:40.
