data_PCOD9026386
_publ_section_title
;
Structure prediction by ZEFSAII (Michael W. Deem and Ramdas Pophale) SiO2 
 PCOD9026386
Probable space group: P -1
;
_chemical_formula_sum "Si O2"
_cell_formula_units_Z 16
_cell_length_a 14.223117
_cell_length_b 6.618294
_cell_length_c 16.707706
_cell_angle_alpha 111.587399
_cell_angle_beta 143.559860
_cell_angle_gamma 52.511781
_cell_volume 716.122201
_symmetry_space_group_name_H-M "P -1"
_symmetry_group_IT_number 2
_symmetry_cell_setting 'triclinic'
loop_
_space_group_symop_operation_xyz
x,y,z
-x,-y,-z
loop_
_atom_site_type_symbol
_atom_site_label
_atom_site_fract_x
_atom_site_fract_y
_atom_site_fract_z
Si Si1 0.858350 0.756940 0.105815
Si Si2 0.375337 0.429910 0.016249
Si Si3 0.215991 0.742235 0.790751
Si Si4 0.007324 0.751514 0.498081
Si Si5 0.728140 0.054770 0.897560
Si Si6 0.420254 0.803504 0.496976
Si Si7 0.306881 0.177370 0.615610
Si Si8 0.787266 0.835087 0.734298
O O1 0.031404 0.459002 0.196792
O O2 0.879290 0.965209 0.197954
O O3 0.671120 0.770428 0.010163
O O4 0.839238 0.838406 0.011692
O O5 0.596544 0.321856 0.138870
O O6 0.283530 0.683813 0.048625
O O7 0.281916 0.544913 0.881862
O O8 0.083298 0.716563 0.635882
O O9 0.161762 0.472215 0.522328
O O10 0.795230 0.820639 0.372608
O O11 0.000000 0.000000 0.500000
O O12 0.805780 0.949349 0.846957
O O13 0.510402 0.132078 0.761819
O O14 0.500000 0.500000 0.500000
O O15 0.601809 0.822450 0.612098
O O16 0.336326 0.947652 0.545094
O O17 0.261249 0.970971 0.344544
#
# Coordination Sequence:
#
# PCOD9026386 Si02
#       8
#     2   2   2   2   2   2   2   2
#     4  11  24  37  69  94 124 169 206 257 312 379
#     4  10  22  41  64  87 129 169 202 257 309 372
#     4  10  23  41  60  95 128 160 211 252 313 374
#     4  11  25  39  67  94 127 166 207 264 311 376
#     4  10  22  43  62  92 129 163 211 260 312 372
#     4  10  24  43  67  89 128 171 205 260 318 372
#     4  10  24  42  63  95 127 163 213 257 313 378
#     4  10  24  42  63  95 127 158 216 263 306 374
#
# _framework density 22.342555999999998
#
# number of rings (size 3 to 8) (size 9 to 14) (size 15 to 20)
#    0.000    1.750    1.250    0.750    7.000    6.500 
#    0.000    0.000    0.000    0.000    0.000    0.000 
#    0.000    0.000    0.000    0.000    0.000    0.000 
#
# Total GULP energy -89482.597462 kJ/mol
# GULP energy per Si atom -5592.662341 kJ/mol
# Density = 2.229170 g / cm^3
# Si number density = 22.342556 Si / 1000 Ang^3
#
#
#
# Elastic Constant Matrix: (Units=GPa)
#
#
# Indices 1 2 3 4 5 6 
#
# 1 20.5221 11.2929 6.4189 0.4028 -0.9425 -3.8585
# 2 11.2929 127.1469 22.1328 -7.4298 -19.0831 -7.0487
# 3 6.4189 22.1328 53.7957 -2.0970 -10.9493 -13.4339
# 4 0.4028 -7.4298 -2.0970 37.6655 -6.8556 3.9259
# 5 -0.9425 -19.0831 -10.9493 -6.8556 26.8788 -0.5661
# 6 -3.8585 -7.0487 -13.4339 3.9259 -0.5661 31.2617
#
#
#
# Elastic Compliance Matrix: (Units=1/GPa)
#
#
# Indices 1 2 3 4 5 6 
#
# 1 0.053182 -0.004461 -0.004388 -0.002781 -0.003716 0.003955
# 2 -0.004461 0.009825 -0.001840 0.003069 0.006865 0.000613
# 3 -0.004388 -0.001840 0.024099 0.001686 0.008984 0.009350
# 4 -0.002781 0.003069 0.001686 0.029391 0.010213 -0.002433
# 5 -0.003716 0.006865 0.008984 0.010213 0.048308 0.004542
# 6 0.003955 0.000613 0.009350 -0.002433 0.004542 0.037020
#
#
# Mechanical properties :
#
#
# Convention : Reuss Voigt Hill
#
# Bulk Modulus (GPa) = 15.21385 31.23931 23.22658
# Shear Modulus (GPa) = 20.39886 29.93588 25.16737
#
# Velocity S-wave (km/s) = 3.02487 3.66438 3.35988
# Velocity P-wave (km/s) = 4.36165 5.64942 5.04677
#
# Compressibility (1/GPa) = 0.06572956
#
# Stress axis : x y z
#
# Youngs Moduli (GPa) = 18.80318 101.77998 41.49628
#
# Poissons Ratio (x) = 0.45402 0.18207
# Poissons Ratio (y) = 0.08388 0.07635
# Poissons Ratio (z) = 0.08250 0.18728
#
# Static dielectric constant tensor:
#      x y z
#    x 1.844010 -0.008980 0.021160 
#    y -0.008980 1.799670 -0.005520 
#    z 0.021160 -0.005520 1.816750 
# 
# From -- ./inp_files/94608.got.cif
#   From: 2010.05.17/outbox.cif.g08.bks.cpg/sg2_48_cif.got.tgz:94608.got - 2010.06.03 11:33:40.
