data_PCOD9026470
_publ_section_title
;
Structure prediction by ZEFSAII (Michael W. Deem and Ramdas Pophale) SiO2 
 PCOD9026470
Probable space group: P -1
;
_chemical_formula_sum "Si O2"
_cell_formula_units_Z 14
_cell_length_a 24.064323
_cell_length_b 5.447086
_cell_length_c 8.723059
_cell_angle_alpha 94.631523
_cell_angle_beta 142.182479
_cell_angle_gamma 103.144167
_cell_volume 614.379181
_symmetry_space_group_name_H-M "P -1"
_symmetry_group_IT_number 2
_symmetry_cell_setting 'triclinic'
loop_
_space_group_symop_operation_xyz
x,y,z
-x,-y,-z
loop_
_atom_site_type_symbol
_atom_site_label
_atom_site_fract_x
_atom_site_fract_y
_atom_site_fract_z
Si Si1 0.906617 0.970326 0.511799
Si Si2 0.470685 0.224464 0.021208
Si Si3 0.079118 0.507039 0.045235
Si Si4 0.452222 0.692567 0.463056
Si Si5 0.749920 0.125784 0.359760
Si Si6 0.756252 0.396674 0.091338
Si Si7 0.894026 0.237793 0.199097
O O1 0.828501 0.028803 0.450481
O O2 0.891216 0.004901 0.297998
O O3 0.862525 0.640648 0.408330
O O4 0.020473 0.198889 0.823871
O O5 0.526977 0.284133 0.310329
O O6 0.500000 0.500000 0.000000
O O7 0.500000 0.000000 0.000000
O O8 0.348291 0.096694 0.776093
O O9 0.185121 0.612953 0.372760
O O10 0.098830 0.735333 0.966693
O O11 0.000000 0.500000 0.000000
O O12 0.500000 0.500000 0.500000
O O13 0.500000 0.000000 0.500000
O O14 0.329663 0.531718 0.153325
O O15 0.706304 0.200658 0.117927
O O16 0.795061 0.267888 0.036650
O O17 0.000000 0.500000 0.500000
#
# Coordination Sequence:
#
# PCOD9026470 Si02
#       7
#     2   2   2   2   2   2   2
#     4   9  20  39  65  93 126 176 232 282 347 422
#     4  12  28  47  72 107 149 187 241 310 373 430
#     4   9  19  38  63  92 133 176 217 281 357 429
#     4  12  26  48  76 105 141 194 251 300 360 438
#     4  10  22  41  64  92 136 179 227 292 353 426
#     4  11  23  39  70  95 130 182 239 288 351 422
#     4   9  20  38  60  92 132 166 227 282 339 413
#
# _framework density 22.787229
#
# number of rings (size 3 to 8) (size 9 to 14) (size 15 to 20)
#    0.000    1.714    1.429    2.571    6.000    4.000 
#    0.000    2.857    0.000    0.000    0.000    0.000 
#    0.000    0.000    0.000    0.000    0.000    0.000 
#
# Total GULP energy -78124.465826 kJ/mol
# GULP energy per Si atom -5580.318988 kJ/mol
# Density = 2.273536 g / cm^3
# Si number density = 22.787229 Si / 1000 Ang^3
#
#
#
# Elastic Constant Matrix: (Units=GPa)
#
#
# Indices 1 2 3 4 5 6 
#
# 1 133.1814 67.6866 58.8852 -13.7016 -17.4600 17.5137
# 2 67.6866 117.0635 27.2107 1.0075 -1.2218 19.9651
# 3 58.8852 27.2107 122.7031 -4.3619 6.2842 7.5534
# 4 -13.7016 1.0075 -4.3619 31.2169 3.8352 5.4260
# 5 -17.4600 -1.2218 6.2842 3.8352 41.0256 -0.1369
# 6 17.5137 19.9651 7.5534 5.4260 -0.1369 46.6683
#
#
#
# Elastic Compliance Matrix: (Units=1/GPa)
#
#
# Indices 1 2 3 4 5 6 
#
# 1 0.015572 -0.007199 -0.005862 0.005848 0.006756 -0.002475
# 2 -0.007199 0.012976 0.000777 -0.002692 -0.002553 -0.002670
# 3 -0.005862 0.000777 0.010971 -0.000588 -0.004097 0.000148
# 4 0.005848 -0.002692 -0.000588 0.035594 -0.000846 -0.005089
# 5 0.006756 -0.002553 -0.004097 -0.000846 0.027879 -0.000600
# 6 -0.002475 -0.002670 0.000148 -0.005089 -0.000600 0.024065
#
#
# Mechanical properties :
#
#
# Convention : Reuss Voigt Hill
#
# Bulk Modulus (GPa) = 66.89123 75.61258 71.25191
# Shear Modulus (GPa) = 31.92664 38.39320 35.15992
#
# Velocity S-wave (km/s) = 3.74716 4.10915 3.93232
# Velocity P-wave (km/s) = 6.93830 7.46777 7.20790
#
# Compressibility (1/GPa) = 0.01494964
#
# Stress axis : x y z
#
# Youngs Moduli (GPa) = 64.21736 77.06466 91.15206
#
# Poissons Ratio (x) = 0.55477 0.53437
# Poissons Ratio (y) = 0.46229 -0.07078
# Poissons Ratio (z) = 0.37647 -0.05984
#
# Static dielectric constant tensor:
#      x y z
#    x 1.906370 0.047560 0.055340 
#    y 0.047560 1.755100 -0.200320 
#    z 0.055340 -0.200320 1.564860 
# 
# From -- ./inp_files/105190.got.cif
#   From: 2010.05.17/outbox.cif.g08.bks.cpg/sg2_53_cif.got.tgz:105190.got - 2010.06.03 11:33:40.
