data_PCOD9026282
_publ_section_title
;
Structure prediction by ZEFSAII (Michael W. Deem and Ramdas Pophale) SiO2 
 PCOD9026282
Probable space group: P -1
;
_chemical_formula_sum "Si O2"
_cell_formula_units_Z 16
_cell_length_a 22.853835
_cell_length_b 9.249200
_cell_length_c 8.890913
_cell_angle_alpha 49.791745
_cell_angle_beta 131.002449
_cell_angle_gamma 145.783361
_cell_volume 773.689213
_symmetry_space_group_name_H-M "P -1"
_symmetry_group_IT_number 2
_symmetry_cell_setting 'triclinic'
loop_
_space_group_symop_operation_xyz
x,y,z
-x,-y,-z
loop_
_atom_site_type_symbol
_atom_site_label
_atom_site_fract_x
_atom_site_fract_y
_atom_site_fract_z
Si Si1 0.344654 0.656860 0.067046
Si Si2 0.096503 0.670615 0.665611
Si Si3 0.329774 0.070373 0.694307
Si Si4 0.891299 0.724546 0.924037
Si Si5 0.558401 0.836708 0.453339
Si Si6 0.547900 0.439907 0.239213
Si Si7 0.678742 0.410000 0.272457
Si Si8 0.895566 0.900086 0.477762
O O1 0.225947 0.422088 0.099571
O O2 0.448123 0.749272 0.266569
O O3 0.363581 0.917972 0.911101
O O4 0.340598 0.568801 0.948795
O O5 0.201957 0.845341 0.619036
O O6 0.000000 0.500000 0.500000
O O7 0.094879 0.859790 0.632399
O O8 0.099409 0.486159 0.895287
O O9 0.399340 0.235593 0.552951
O O10 0.352957 0.278002 0.709113
O O11 0.886893 0.783675 0.704281
O O12 0.000000 0.000000 0.000000
O O13 0.536152 0.738178 0.650332
O O14 0.660179 0.154713 0.412373
O O15 0.588357 0.330184 0.289421
O O16 0.500000 0.500000 0.000000
O O17 0.792093 0.674206 0.351410
O O18 0.000000 0.000000 0.500000
#
# Coordination Sequence:
#
# PCOD9026282 Si02
#       8
#     2   2   2   2   2   2   2   2
#     4  10  22  42  70  91 126 176 225 259 327 405
#     4  11  24  44  72  98 130 177 227 273 330 408
#     4  10  22  41  63  93 127 166 224 267 321 399
#     4  11  23  44  73 100 131 181 226 272 333 401
#     4  11  23  40  65  92 127 183 217 257 329 405
#     4  12  23  38  59  94 135 163 210 271 323 377
#     4  11  23  42  63  96 129 164 216 276 332 381
#     4  12  26  45  70 101 136 170 221 287 340 387
#
# _framework density 20.680139
#
# number of rings (size 3 to 8) (size 9 to 14) (size 15 to 20)
#    0.000    1.000    2.500    5.250    3.500    2.500 
#    0.000    0.000    0.000    0.000    0.000    0.000 
#    0.000    0.000    0.000    0.000    0.000    0.000 
#
# Total GULP energy -89384.168864 kJ/mol
# GULP energy per Si atom -5586.510554 kJ/mol
# Density = 2.063307 g / cm^3
# Si number density = 20.680139 Si / 1000 Ang^3
#
#
#
# Elastic Constant Matrix: (Units=GPa)
#
#
# Indices 1 2 3 4 5 6 
#
# 1 126.2540 30.6738 39.3318 -11.0698 -15.7560 3.0531
# 2 30.6738 109.9426 33.9116 1.6643 -2.5340 -1.7912
# 3 39.3318 33.9116 90.0171 -8.0868 -21.6556 -4.7885
# 4 -11.0698 1.6643 -8.0868 25.9027 2.3736 -8.1205
# 5 -15.7560 -2.5340 -21.6556 2.3736 39.2405 -4.5141
# 6 3.0531 -1.7912 -4.7885 -8.1205 -4.5141 35.7867
#
#
#
# Elastic Compliance Matrix: (Units=1/GPa)
#
#
# Indices 1 2 3 4 5 6 
#
# 1 0.009789 -0.001866 -0.002825 0.003129 0.002023 -0.000341
# 2 -0.001866 0.010862 -0.004107 -0.002813 -0.002232 -0.000767
# 3 -0.002825 -0.004107 0.016451 0.004827 0.007885 0.004327
# 4 0.003129 -0.002813 0.004827 0.044773 0.002259 0.010683
# 5 0.002023 -0.002232 0.007885 0.002259 0.030964 0.005189
# 6 -0.000341 -0.000767 0.004327 0.010683 0.005189 0.031592
#
#
# Mechanical properties :
#
#
# Convention : Reuss Voigt Hill
#
# Bulk Modulus (GPa) = 51.26586 59.33868 55.30227
# Shear Modulus (GPa) = 29.66870 35.00575 32.33722
#
# Velocity S-wave (km/s) = 3.79178 4.11874 3.95864
# Velocity P-wave (km/s) = 6.63429 7.16760 6.90610
#
# Compressibility (1/GPa) = 0.01950616
#
# Stress axis : x y z
#
# Youngs Moduli (GPa) = 102.15654 92.06598 60.78607
#
# Poissons Ratio (x) = 0.17181 0.17169
# Poissons Ratio (y) = 0.19064 0.24965
# Poissons Ratio (z) = 0.28855 0.37812
#
# Static dielectric constant tensor:
#      x y z
#    x 1.825350 -0.006800 0.007660 
#    y -0.006800 1.721820 -0.035020 
#    z 0.007660 -0.035020 1.736950 
# 
# From -- ./inp_files/226721.got.cif
#   From: 2010.05.17/outbox.cif.g08.bks.cpg/sg2_114_cif.got.tgz:226721.got - 2010.06.03 11:33:40.
