data_PCOD9026384
_publ_section_title
;
Structure prediction by ZEFSAII (Michael W. Deem and Ramdas Pophale) SiO2 
 PCOD9026384
Probable space group: P -1
;
_chemical_formula_sum "Si O2"
_cell_formula_units_Z 14
_cell_length_a 18.608534
_cell_length_b 10.893153
_cell_length_c 6.621648
_cell_angle_alpha 113.051134
_cell_angle_beta 72.267727
_cell_angle_gamma 49.361963
_cell_volume 560.577352
_symmetry_space_group_name_H-M "P -1"
_symmetry_group_IT_number 2
_symmetry_cell_setting 'triclinic'
loop_
_space_group_symop_operation_xyz
x,y,z
-x,-y,-z
loop_
_atom_site_type_symbol
_atom_site_label
_atom_site_fract_x
_atom_site_fract_y
_atom_site_fract_z
Si Si1 0.674346 0.099551 0.979173
Si Si2 0.835292 0.344023 0.004311
Si Si3 0.668778 0.463900 0.556119
Si Si4 0.427434 0.243048 0.826664
Si Si5 0.886993 0.727347 0.919274
Si Si6 0.749907 0.773950 0.388448
Si Si7 0.161734 0.968173 0.528740
O O1 0.737194 0.009381 0.094440
O O2 0.755154 0.846042 0.636498
O O3 0.737577 0.120386 0.794352
O O4 0.487154 0.358088 0.296274
O O5 0.805758 0.281036 0.161361
O O6 0.719803 0.487379 0.010726
O O7 0.757858 0.605655 0.308578
O O8 0.017319 0.100951 0.657991
O O9 0.725932 0.284148 0.574819
O O10 0.629840 0.665523 0.833400
O O11 0.500000 0.000000 0.500000
O O12 0.586573 0.080704 0.619098
O O13 0.000000 0.500000 0.500000
O O14 0.869731 0.626800 0.015409
O O15 0.916083 0.798898 0.104251
#
# Coordination Sequence:
#
# PCOD9026384 Si02
#       7
#     2   2   2   2   2   2   2
#     4  10  22  41  64  84 118 160 196 247 296 340
#     4  11  22  38  61  89 125 156 190 246 300 345
#     4  11  24  41  61  87 121 160 199 239 291 355
#     4   9  21  38  60  87 116 152 197 240 290 351
#     4  11  22  38  63  89 117 156 199 244 298 351
#     4   9  20  38  60  93 118 146 202 250 290 351
#     4  11  25  40  58  91 123 154 201 243 288 355
#
# _framework density 24.974252
#
# number of rings (size 3 to 8) (size 9 to 14) (size 15 to 20)
#    0.000    1.714    0.000    3.429    0.000   15.429 
#    0.000    0.000    0.000    0.000    0.000    0.000 
#    0.000    0.000    0.000    0.000    0.000    0.000 
#
# Total GULP energy -78152.149801 kJ/mol
# GULP energy per Si atom -5582.296414 kJ/mol
# Density = 2.491741 g / cm^3
# Si number density = 24.974252 Si / 1000 Ang^3
#
#
#
# Elastic Constant Matrix: (Units=GPa)
#
#
# Indices 1 2 3 4 5 6 
#
# 1 87.3300 47.5675 21.1869 -21.7517 1.0669 -21.3026
# 2 47.5675 132.0079 13.5970 -1.0420 -12.7742 -22.4675
# 3 21.1869 13.5970 80.7523 -7.0170 -2.2998 1.5245
# 4 -21.7517 -1.0420 -7.0170 40.3960 1.8605 -0.0648
# 5 1.0669 -12.7742 -2.2998 1.8605 31.0830 -0.6945
# 6 -21.3026 -22.4675 1.5245 -0.0648 -0.6945 47.9625
#
#
#
# Elastic Compliance Matrix: (Units=1/GPa)
#
#
# Indices 1 2 3 4 5 6 
#
# 1 0.019506 -0.005952 -0.003474 0.009933 -0.003834 0.005944
# 2 -0.005952 0.010609 -0.000414 -0.003219 0.004780 0.002404
# 3 -0.003474 -0.000414 0.013466 0.000414 0.000873 -0.002152
# 4 0.009933 -0.003219 0.000414 0.030252 -0.003380 0.002882
# 5 -0.003834 0.004780 0.000873 -0.003380 0.034557 0.001004
# 6 0.005944 0.002404 -0.002152 0.002882 0.001004 0.024703
#
#
# Mechanical properties :
#
#
# Convention : Reuss Voigt Hill
#
# Bulk Modulus (GPa) = 41.83750 51.64366 46.74058
# Shear Modulus (GPa) = 31.10600 38.40421 34.75511
#
# Velocity S-wave (km/s) = 3.53303 3.92567 3.73451
# Velocity P-wave (km/s) = 5.78201 6.42429 6.11159
#
# Compressibility (1/GPa) = 0.02390200
#
# Stress axis : x y z
#
# Youngs Moduli (GPa) = 51.26532 94.25968 74.26032
#
# Poissons Ratio (x) = 0.56104 0.25798
# Poissons Ratio (y) = 0.30513 0.03072
# Poissons Ratio (z) = 0.17809 0.03900
#
# Static dielectric constant tensor:
#      x y z
#    x 2.036260 -0.017270 0.033330 
#    y -0.017270 2.058400 0.180040 
#    z 0.033330 0.180040 2.108760 
# 
# From -- ./inp_files/63465.got.cif
#   From: 2010.05.17/outbox.cif.g08.bks.cpg/sg2_32_cif.got.tgz:63465.got - 2010.06.03 11:33:40.
