data_PCOD9026364
_publ_section_title
;
Structure prediction by ZEFSAII (Michael W. Deem and Ramdas Pophale) SiO2 
 PCOD9026364
Probable space group: P -1
;
_chemical_formula_sum "Si O2"
_cell_formula_units_Z 16
_cell_length_a 24.889965
_cell_length_b 12.998860
_cell_length_c 6.318478
_cell_angle_alpha 126.846500
_cell_angle_beta 54.226066
_cell_angle_gamma 154.480690
_cell_volume 699.172282
_symmetry_space_group_name_H-M "P -1"
_symmetry_group_IT_number 2
_symmetry_cell_setting 'triclinic'
loop_
_space_group_symop_operation_xyz
x,y,z
-x,-y,-z
loop_
_atom_site_type_symbol
_atom_site_label
_atom_site_fract_x
_atom_site_fract_y
_atom_site_fract_z
Si Si1 0.315148 0.411973 0.848767
Si Si2 0.614459 0.722344 0.270736
Si Si3 0.804104 0.210512 0.671608
Si Si4 0.006558 0.376166 0.589579
Si Si5 0.855834 0.528998 0.228328
Si Si6 0.964305 0.058453 0.004407
Si Si7 0.382917 0.718799 0.357614
Si Si8 0.642544 0.585792 0.694315
O O1 0.401336 0.435413 0.754640
O O2 0.280133 0.326297 0.581656
O O3 0.183825 0.195679 0.012383
O O4 0.381164 0.656524 0.047271
O O5 0.491827 0.586197 0.292975
O O6 0.685267 0.938609 0.523927
O O7 0.689174 0.782862 0.971910
O O8 0.889351 0.368666 0.460191
O O9 0.879268 0.247219 0.712090
O O10 0.790990 0.326069 0.957251
O O11 0.057270 0.409330 0.735793
O O12 0.984241 0.219053 0.293667
O O13 0.745290 0.415675 0.470918
O O14 0.945762 0.776054 0.200370
O O15 0.000000 0.000000 0.000000
O O16 0.381174 0.584692 0.333544
O O17 0.500000 0.000000 0.500000
#
# Coordination Sequence:
#
# PCOD9026364 Si02
#       8
#     2   2   2   2   2   2   2   2
#     4  11  23  44  69  96 134 172 226 281 332 398
#     4  10  22  43  69 102 130 170 230 274 338 406
#     4  10  22  42  67 101 135 172 225 282 336 404
#     4  10  22  41  64 101 134 172 226 278 338 406
#     4  11  25  43  69  99 138 185 222 275 345 398
#     4  11  23  42  67  99 137 179 228 279 330 405
#     4  11  27  45  63 102 134 176 229 270 332 414
#     4  10  24  44  70  97 133 177 222 281 336 394
#
# _framework density 22.884201999999998
#
# number of rings (size 3 to 8) (size 9 to 14) (size 15 to 20)
#    0.000    1.500    1.250    2.250    3.500    6.500 
#    0.000    0.000    0.000    0.000    0.000    0.000 
#    0.000    0.000    0.000    0.000    0.000    0.000 
#
# Total GULP energy -89406.000678 kJ/mol
# GULP energy per Si atom -5587.875042 kJ/mol
# Density = 2.283212 g / cm^3
# Si number density = 22.884202 Si / 1000 Ang^3
#
#
#
# Elastic Constant Matrix: (Units=GPa)
#
#
# Indices 1 2 3 4 5 6 
#
# 1 123.0910 27.9788 -1.3806 -2.1661 -0.1078 1.8566
# 2 27.9788 86.6557 25.7860 17.6864 -0.3919 2.6797
# 3 -1.3806 25.7860 88.7827 17.3677 4.5702 -0.5102
# 4 -2.1661 17.6864 17.3677 35.7662 -2.9612 4.9713
# 5 -0.1078 -0.3919 4.5702 -2.9612 31.5061 -0.7975
# 6 1.8566 2.6797 -0.5102 4.9713 -0.7975 27.2859
#
#
#
# Elastic Compliance Matrix: (Units=1/GPa)
#
#
# Indices 1 2 3 4 5 6 
#
# 1 0.008976 -0.003514 0.000763 0.002000 0.000049 -0.000614
# 2 -0.003514 0.014853 -0.003206 -0.005969 0.000072 -0.000190
# 3 0.000763 -0.003206 0.013368 -0.005256 -0.002435 0.001399
# 4 0.002000 -0.005969 -0.005256 0.034714 0.003809 -0.005862
# 5 0.000049 0.000072 -0.002435 0.003809 0.032457 0.000199
# 6 -0.000614 -0.000190 0.001399 -0.005862 0.000199 0.037809
#
#
# Mechanical properties :
#
#
# Convention : Reuss Voigt Hill
#
# Bulk Modulus (GPa) = 39.55271 44.81088 42.18179
# Shear Modulus (GPa) = 30.76559 35.32132 33.04346
#
# Velocity S-wave (km/s) = 3.67059 3.93298 3.80405
# Velocity P-wave (km/s) = 5.94017 6.34417 6.14549
#
# Compressibility (1/GPa) = 0.02528272
#
# Stress axis : x y z
#
# Youngs Moduli (GPa) = 111.40936 67.32718 74.80571
#
# Poissons Ratio (x) = 0.23660 -0.05707
# Poissons Ratio (y) = 0.39151 0.23981
# Poissons Ratio (z) = -0.08499 0.21583
#
# Static dielectric constant tensor:
#      x y z
#    x 1.850840 -0.005130 0.041200 
#    y -0.005130 1.888530 -0.024950 
#    z 0.041200 -0.024950 1.935980 
# 
# From -- ./inp_files/123759.got.cif
#   From: 2010.05.17/outbox.cif.g08.bks.cpg/sg2_62_cif.got.tgz:123759.got - 2010.06.03 11:33:40.
