data_PCOD9026037
_publ_section_title
;
Structure prediction by ZEFSAII (Michael W. Deem and Ramdas Pophale) SiO2 
 PCOD9026037
Probable space group: P -1
;
_chemical_formula_sum "Si O2"
_cell_formula_units_Z 16
_cell_length_a 7.268049
_cell_length_b 14.285509
_cell_length_c 7.969048
_cell_angle_alpha 103.288902
_cell_angle_beta 125.926158
_cell_angle_gamma 79.528068
_cell_volume 650.918196
_symmetry_space_group_name_H-M "P -1"
_symmetry_group_IT_number 2
_symmetry_cell_setting 'triclinic'
loop_
_space_group_symop_operation_xyz
x,y,z
-x,-y,-z
loop_
_atom_site_type_symbol
_atom_site_label
_atom_site_fract_x
_atom_site_fract_y
_atom_site_fract_z
Si Si1 0.605650 0.908240 0.305289
Si Si2 0.232271 0.533932 0.836290
Si Si3 0.280713 0.097486 0.248098
Si Si4 0.628222 0.242473 0.504940
Si Si5 0.438501 0.708201 0.147512
Si Si6 0.396763 0.575488 0.608887
Si Si7 0.046961 0.152238 0.827122
Si Si8 0.818708 0.637197 0.078823
O O1 0.735135 0.897889 0.553556
O O2 0.433847 0.821776 0.161138
O O3 0.775612 0.895227 0.232547
O O4 0.449365 0.005584 0.261909
O O5 0.232737 0.528776 0.635089
O O6 0.080522 0.467340 0.842242
O O7 0.500000 0.500000 0.000000
O O8 0.240601 0.645812 0.940808
O O9 0.410158 0.192327 0.301738
O O10 0.077583 0.103521 0.005405
O O11 0.557733 0.303537 0.657160
O O12 0.724893 0.322913 0.472329
O O13 0.798142 0.153011 0.612591
O O14 0.681285 0.675427 0.185703
O O15 0.500000 0.500000 0.500000
O O16 0.623207 0.611146 0.834577
O O17 0.064430 0.269528 0.888050
#
# Coordination Sequence:
#
# PCOD9026037 Si02
#       8
#     2   2   2   2   2   2   2   2
#     4   9  20  39  64  83 118 156 196 237 291 358
#     4   8  15  29  52  78 105 149 193 226 283 342
#     4  10  21  42  61  86 117 158 193 236 298 349
#     4  11  21  35  59  88 116 150 197 242 290 346
#     4   8  16  33  54  78 110 151 184 232 284 342
#     4  10  17  31  55  82 109 152 195 234 284 344
#     4  11  22  39  58  91 122 146 197 248 287 340
#     4   9  17  34  56  76 113 155 188 233 289 348
#
# _framework density 24.580660999999999
#
# number of rings (size 3 to 8) (size 9 to 14) (size 15 to 20)
#    0.000    2.750    1.250    2.625    0.000    0.500 
#    4.500    8.750    0.000    0.000    0.000    0.000 
#    0.000    0.000    0.000    0.000    0.000    0.000 
#
# Total GULP energy -89200.402326 kJ/mol
# GULP energy per Si atom -5575.025145 kJ/mol
# Density = 2.452471 g / cm^3
# Si number density = 24.580661 Si / 1000 Ang^3
#
#
#
# Elastic Constant Matrix: (Units=GPa)
#
#
# Indices 1 2 3 4 5 6 
#
# 1 54.7813 30.2802 11.6456 0.2955 -13.5239 -12.0917
# 2 30.2802 92.9754 39.4712 -1.8116 -23.9833 5.9736
# 3 11.6456 39.4712 88.5662 -24.3203 -10.7221 -10.7675
# 4 0.2955 -1.8116 -24.3203 42.2105 1.2805 -7.6802
# 5 -13.5239 -23.9833 -10.7221 1.2805 24.8680 -1.0861
# 6 -12.0917 5.9736 -10.7675 -7.6802 -1.0861 29.5307
#
#
#
# Elastic Compliance Matrix: (Units=1/GPa)
#
#
# Indices 1 2 3 4 5 6 
#
# 1 0.028952 -0.010740 0.005707 0.005625 0.008339 0.017878
# 2 -0.010740 0.022844 -0.011698 -0.008775 0.010936 -0.015164
# 3 0.005707 -0.011698 0.022134 0.015224 0.001314 0.016781
# 4 0.005625 -0.008775 0.015224 0.035474 0.000157 0.018861
# 5 0.008339 0.010936 0.001314 0.000157 0.056018 0.003783
# 6 0.017878 -0.015164 0.016781 0.018861 0.003783 0.055414
#
#
# Mechanical properties :
#
#
# Convention : Reuss Voigt Hill
#
# Bulk Modulus (GPa) = 24.71063 44.34629 34.52846
# Shear Modulus (GPa) = 18.67163 29.65021 24.16092
#
# Velocity S-wave (km/s) = 2.75909 3.47687 3.13856
# Velocity P-wave (km/s) = 4.49720 5.84794 5.21647
#
# Compressibility (1/GPa) = 0.04046842
#
# Stress axis : x y z
#
# Youngs Moduli (GPa) = 34.53986 43.77571 45.17986
#
# Poissons Ratio (x) = 0.47015 -0.25784
# Poissons Ratio (y) = 0.37095 0.52850
# Poissons Ratio (z) = -0.19712 0.51208
#
# Static dielectric constant tensor:
#      x y z
#    x 1.971780 0.051900 0.022730 
#    y 0.051900 2.053580 0.019260 
#    z 0.022730 0.019260 2.063450 
# 
# From -- ./inp_files/207994.got.cif
#   From: 2010.05.17/outbox.cif.g08.bks.cpg/sg2_104_cif.got.tgz:207994.got - 2010.06.03 11:33:40.
