data_PCOD9026868
_publ_section_title
;
Structure prediction by ZEFSAII (Michael W. Deem and Ramdas Pophale) SiO2 
 PCOD9026868
Probable space group: P -1
;
_chemical_formula_sum "Si O2"
_cell_formula_units_Z 15
_cell_length_a 20.474916
_cell_length_b 5.094228
_cell_length_c 9.427708
_cell_angle_alpha 104.129516
_cell_angle_beta 146.121989
_cell_angle_gamma 78.221746
_cell_volume 531.558247
_symmetry_space_group_name_H-M "P -1"
_symmetry_group_IT_number 2
_symmetry_cell_setting 'triclinic'
loop_
_space_group_symop_operation_xyz
x,y,z
-x,-y,-z
loop_
_atom_site_type_symbol
_atom_site_label
_atom_site_fract_x
_atom_site_fract_y
_atom_site_fract_z
Si Si1 0.000000 0.500000 0.000000
Si Si2 0.568404 0.913211 0.810354
Si Si3 0.680287 0.472329 0.146822
Si Si4 0.390918 0.089859 0.716669
Si Si5 0.928518 0.071136 0.082442
Si Si6 0.790405 0.380561 0.668419
Si Si7 0.725860 0.830733 0.829631
Si Si8 0.108736 0.318371 0.627900
O O1 0.866345 0.433043 0.674312
O O2 0.060748 0.208027 0.014726
O O3 0.441746 0.027504 0.643744
O O4 0.609460 0.869537 0.718053
O O5 0.652883 0.155060 0.051182
O O6 0.589605 0.634340 0.897543
O O7 0.646852 0.612815 0.256959
O O8 0.799201 0.543887 0.291801
O O9 0.282984 0.890002 0.515431
O O10 0.500000 0.000000 0.000000
O O11 0.038233 0.091533 0.385405
O O12 0.917164 0.312842 0.976924
O O13 0.800195 0.077363 0.926938
O O14 0.725249 0.593573 0.679284
O O15 0.819330 0.753154 0.111953
O O16 0.000000 0.500000 0.500000
#
# Coordination Sequence:
#
# PCOD9026868 Si02
#       8
#     1   2   2   2   2   2   2   2
#     4  10  24  42  64  96 136 182 216 274 348 402
#     4  10  22  43  69  96 133 174 230 285 341 400
#     4  10  22  41  66 100 131 176 231 284 335 407
#     4  10  23  47  69  95 131 178 235 287 346 400
#     4  11  22  41  62  97 136 177 226 271 340 407
#     4  11  23  45  65  97 137 174 227 283 341 411
#     4  10  23  40  65  97 135 178 224 279 339 410
#     4  11  20  38  67  95 136 179 225 272 337 413
#
# _framework density 28.218921999999999
#
# number of rings (size 3 to 8) (size 9 to 14) (size 15 to 20)
#    0.000    1.600    1.333    2.800    1.867    1.600 
#   28.800    0.667    0.000    0.000    0.000    0.000 
#    0.000    0.000    0.000    0.000    0.000    0.000 
#
# Total GULP energy -83864.189778 kJ/mol
# GULP energy per Si atom -5590.945985 kJ/mol
# Density = 2.815469 g / cm^3
# Si number density = 28.218922 Si / 1000 Ang^3
#
#
#
# Elastic Constant Matrix: (Units=GPa)
#
#
# Indices 1 2 3 4 5 6 
#
# 1 171.0078 27.9813 27.6590 -2.3487 4.8340 -15.6264
# 2 27.9813 113.6287 8.8009 -3.5750 4.7091 -18.2075
# 3 27.6590 8.8009 71.6918 0.5782 13.6078 -1.8081
# 4 -2.3487 -3.5750 0.5782 63.0113 -1.8867 9.2626
# 5 4.8340 4.7091 13.6078 -1.8867 68.1971 -10.0983
# 6 -15.6264 -18.2075 -1.8081 9.2626 -10.0983 55.2401
#
#
#
# Elastic Compliance Matrix: (Units=1/GPa)
#
#
# Indices 1 2 3 4 5 6 
#
# 1 0.006557 -0.001212 -0.002404 -0.000004 0.000311 0.001434
# 2 -0.001212 0.009598 -0.000635 0.000096 -0.000036 0.002777
# 3 -0.002404 -0.000635 0.015506 -0.000227 -0.003019 -0.000895
# 4 -0.000004 0.000096 -0.000227 0.016276 0.000091 -0.002689
# 5 0.000311 -0.000036 -0.003019 0.000091 0.015667 0.002826
# 6 0.001434 0.002777 -0.000895 -0.002689 0.002826 0.020362
#
#
# Mechanical properties :
#
#
# Convention : Reuss Voigt Hill
#
# Bulk Modulus (GPa) = 43.17654 53.91230 48.54442
# Shear Modulus (GPa) = 49.90726 56.74883 53.32805
#
# Velocity S-wave (km/s) = 4.21000 4.48931 4.35190
# Velocity P-wave (km/s) = 6.24227 6.78368 6.51860
#
# Compressibility (1/GPa) = 0.02316073
#
# Stress axis : x y z
#
# Youngs Moduli (GPa) = 152.50992 104.19212 64.49082
#
# Poissons Ratio (x) = 0.12625 0.15502
# Poissons Ratio (y) = 0.18479 0.04092
# Poissons Ratio (z) = 0.36659 0.06612
#
# Static dielectric constant tensor:
#      x y z
#    x 2.413600 0.116610 0.002730 
#    y 0.116610 2.177590 -0.063530 
#    z 0.002730 -0.063530 2.494830 
# 
# From -- ./inp_files/101742.got.cif
#   From: 2010.05.17/outbox.cif.g08.bks.cpg/sg2_51_cif.got.tgz:101742.got - 2010.06.03 11:33:40.
