data_PCOD9026601
_publ_section_title
;
Structure prediction by ZEFSAII (Michael W. Deem and Ramdas Pophale) SiO2 
 PCOD9026601
Probable space group: P -1
;
_chemical_formula_sum "Si O2"
_cell_formula_units_Z 14
_cell_length_a 9.268838
_cell_length_b 13.391467
_cell_length_c 12.239635
_cell_angle_alpha 32.547862
_cell_angle_beta 126.494639
_cell_angle_gamma 129.440559
_cell_volume 624.775323
_symmetry_space_group_name_H-M "P -1"
_symmetry_group_IT_number 2
_symmetry_cell_setting 'triclinic'
loop_
_space_group_symop_operation_xyz
x,y,z
-x,-y,-z
loop_
_atom_site_type_symbol
_atom_site_label
_atom_site_fract_x
_atom_site_fract_y
_atom_site_fract_z
Si Si1 0.325919 0.352419 0.700320
Si Si2 0.183872 0.540108 0.115287
Si Si3 0.517857 0.339407 0.016763
Si Si4 0.298296 0.212974 0.236424
Si Si5 0.139036 0.988482 0.838846
Si Si6 0.324783 0.697964 0.241564
Si Si7 0.782369 0.886926 0.478936
O O1 0.359074 0.347413 0.848997
O O2 0.323647 0.565268 0.466642
O O3 0.497947 0.311173 0.745387
O O4 0.147637 0.185971 0.724944
O O5 0.331982 0.703458 0.958174
O O6 0.157653 0.598834 0.171576
O O7 0.241055 0.343147 0.333227
O O8 0.000000 0.500000 0.000000
O O9 0.632581 0.554154 0.918713
O O10 0.427323 0.200969 0.203072
O O11 0.321507 0.108847 0.456845
O O12 0.078470 0.131948 0.175035
O O13 0.245743 0.040068 0.721534
O O14 0.271210 0.892581 0.058154
O O15 0.000000 0.000000 0.500000
#
# Coordination Sequence:
#
# PCOD9026601 Si02
#       7
#     2   2   2   2   2   2   2
#     4  10  21  36  57  86 117 147 189 238 288 338
#     4  10  17  31  56  83 110 148 189 232 282 334
#     4   9  19  36  56  82 117 154 186 234 286 344
#     4   9  19  35  58  81 114 155 191 231 288 334
#     4  11  20  36  60  89 111 148 193 242 281 336
#     4  10  20  34  55  86 118 145 184 240 294 330
#     4   9  17  30  52  84 111 136 188 238 272 324
#
# _framework density 22.408054
#
# number of rings (size 3 to 8) (size 9 to 14) (size 15 to 20)
#    0.000    2.286    1.429    3.000    2.000    0.571 
#    0.000    0.714    0.000   13.714    0.000    0.000 
#    0.000    0.000    0.000    0.000    0.000    0.000 
#
# Total GULP energy -77956.624314 kJ/mol
# GULP energy per Si atom -5568.330308 kJ/mol
# Density = 2.235705 g / cm^3
# Si number density = 22.408054 Si / 1000 Ang^3
#
#
#
# Elastic Constant Matrix: (Units=GPa)
#
#
# Indices 1 2 3 4 5 6 
#
# 1 56.4047 10.7627 38.1326 -1.4972 -25.1702 1.8182
# 2 10.7627 94.2765 21.6761 9.0862 -9.1103 10.1053
# 3 38.1326 21.6761 89.2640 3.3747 -18.2752 1.4906
# 4 -1.4972 9.0862 3.3747 33.0676 -4.3627 0.6277
# 5 -25.1702 -9.1103 -18.2752 -4.3627 36.7087 1.5284
# 6 1.8182 10.1053 1.4906 0.6277 1.5284 17.9688
#
#
#
# Elastic Compliance Matrix: (Units=1/GPa)
#
#
# Indices 1 2 3 4 5 6 
#
# 1 0.033401 0.000430 -0.010708 0.005007 0.018460 -0.004478
# 2 0.000430 0.012336 -0.002542 -0.002710 0.002054 -0.006850
# 3 -0.010708 -0.002542 0.016426 -0.001489 -0.000023 0.001204
# 4 0.005007 -0.002710 -0.001489 0.032147 0.005860 -0.000481
# 5 0.018460 0.002054 -0.000023 0.005860 0.041374 -0.006745
# 6 -0.004478 -0.006850 0.001204 -0.000481 -0.006745 0.060448
#
#
# Mechanical properties :
#
#
# Convention : Reuss Voigt Hill
#
# Bulk Modulus (GPa) = 27.37989 42.34312 34.86151
# Shear Modulus (GPa) = 21.37232 28.84060 25.10646
#
# Velocity S-wave (km/s) = 3.09168 3.59146 3.35090
# Velocity P-wave (km/s) = 4.99899 6.01128 5.52836
#
# Compressibility (1/GPa) = 0.03652315
#
# Stress axis : x y z
#
# Youngs Moduli (GPa) = 29.93921 81.06081 60.87915
#
# Poissons Ratio (x) = -0.03487 0.65191
# Poissons Ratio (y) = -0.01288 0.15476
# Poissons Ratio (z) = 0.32060 0.20606
#
# Static dielectric constant tensor:
#      x y z
#    x 1.897150 -0.005000 0.039810 
#    y -0.005000 1.995360 -0.061230 
#    z 0.039810 -0.061230 1.890690 
# 
# From -- ./inp_files/354309.got.cif
#   From: 2010.05.17/outbox.cif.g08.bks.cpg/sg2_178_cif.got.tgz:354309.got - 2010.06.03 11:33:40.
