data_PCOD9026434
_publ_section_title
;
Structure prediction by ZEFSAII (Michael W. Deem and Ramdas Pophale) SiO2 
 PCOD9026434
Probable space group: P -1
;
_chemical_formula_sum "Si O2"
_cell_formula_units_Z 14
_cell_length_a 7.518820
_cell_length_b 15.962287
_cell_length_c 18.736838
_cell_angle_alpha 158.910443
_cell_angle_beta 108.658378
_cell_angle_gamma 61.175063
_cell_volume 645.903972
_symmetry_space_group_name_H-M "P -1"
_symmetry_group_IT_number 2
_symmetry_cell_setting 'triclinic'
loop_
_space_group_symop_operation_xyz
x,y,z
-x,-y,-z
loop_
_atom_site_type_symbol
_atom_site_label
_atom_site_fract_x
_atom_site_fract_y
_atom_site_fract_z
Si Si1 0.523003 0.439880 0.539567
Si Si2 0.669822 0.364621 0.731583
Si Si3 0.967754 0.105058 0.696425
Si Si4 0.155262 0.655542 0.869091
Si Si5 0.959036 0.254231 0.304598
Si Si6 0.175085 0.216469 0.936732
Si Si7 0.043530 0.660390 0.462175
O O1 0.500000 0.500000 0.500000
O O2 0.266948 0.634129 0.680036
O O3 0.689687 0.511562 0.654685
O O4 0.633697 0.111739 0.302856
O O5 0.412718 0.468402 0.774707
O O6 0.762022 0.279392 0.756164
O O7 0.822219 0.099921 0.490103
O O8 0.719430 0.598633 0.901786
O O9 0.031560 0.271423 0.889967
O O10 0.934106 0.907012 0.587271
O O11 0.074833 0.505792 0.687367
O O12 0.988174 0.717328 0.964189
O O13 0.120354 0.934843 0.053627
O O14 0.958057 0.232034 0.373615
O O15 0.000000 0.500000 0.500000
#
# Coordination Sequence:
#
# PCOD9026434 Si02
#       7
#     2   2   2   2   2   2   2
#     4   9  18  39  63  85 124 171 196 256 321 365
#     4  11  25  40  66  98 126 169 218 263 311 387
#     4  10  22  46  63  91 133 170 209 260 332 373
#     4  12  24  40  67  99 126 164 222 264 310 380
#     4  11  23  43  63  96 129 164 218 263 315 383
#     4  11  21  44  65  92 131 168 214 261 319 379
#     4  10  22  41  64  91 127 172 205 261 323 374
#
# _framework density 21.675049999999999
#
# number of rings (size 3 to 8) (size 9 to 14) (size 15 to 20)
#    0.000    1.429    5.714    1.286    0.000    5.714 
#    0.000    0.000    0.000    0.000    0.000    0.000 
#    0.000    0.000    0.000    0.000    0.000    0.000 
#
# Total GULP energy -78098.850152 kJ/mol
# GULP energy per Si atom -5578.489297 kJ/mol
# Density = 2.162572 g / cm^3
# Si number density = 21.675050 Si / 1000 Ang^3
#
#
#
# Elastic Constant Matrix: (Units=GPa)
#
#
# Indices 1 2 3 4 5 6 
#
# 1 72.1133 58.5194 33.5294 10.7294 14.9148 -19.4895
# 2 58.5194 102.8095 45.4802 5.9783 4.4652 -21.6010
# 3 33.5294 45.4802 53.7938 -0.4643 5.5443 -21.8852
# 4 10.7294 5.9783 -0.4643 41.1615 -3.3629 -3.2962
# 5 14.9148 4.4652 5.5443 -3.3629 33.3658 -1.3316
# 6 -19.4895 -21.6010 -21.8852 -3.2962 -1.3316 48.0915
#
#
#
# Elastic Compliance Matrix: (Units=1/GPa)
#
#
# Indices 1 2 3 4 5 6 
#
# 1 0.032814 -0.014546 -0.005559 -0.007244 -0.012393 0.003395
# 2 -0.014546 0.022271 -0.010492 0.000837 0.005331 -0.000461
# 3 -0.005559 -0.010492 0.034780 0.004003 -0.001123 0.009105
# 4 -0.007244 0.000837 0.004003 0.026629 0.005194 0.001231
# 5 -0.012393 0.005331 -0.001123 0.005194 0.035435 -0.001802
# 6 0.003395 -0.000461 0.009105 0.001231 -0.001802 0.026140
#
#
# Mechanical properties :
#
#
# Convention : Reuss Voigt Hill
#
# Bulk Modulus (GPa) = 34.87965 55.97497 45.42731
# Shear Modulus (GPa) = 20.09481 30.60292 25.34887
#
# Velocity S-wave (km/s) = 3.04812 3.76160 3.42350
# Velocity P-wave (km/s) = 5.33995 6.68931 6.05235
#
# Compressibility (1/GPa) = 0.02867001
#
# Stress axis : x y z
#
# Youngs Moduli (GPa) = 30.47468 44.90210 28.75239
#
# Poissons Ratio (x) = 0.65314 0.15983
# Poissons Ratio (y) = 0.44328 0.30168
# Poissons Ratio (z) = 0.16941 0.47113
#
# Static dielectric constant tensor:
#      x y z
#    x 1.910030 0.056290 -0.047450 
#    y 0.056290 1.786050 -0.014430 
#    z -0.047450 -0.014430 1.843900 
# 
# From -- ./inp_files/590801.got.cif
#   From: 2010.05.17/outbox.cif.g08.bks.cpg/sg2_296_cif.got.tgz:590801.got - 2010.06.03 11:33:40.
