data_PCOD9026522
_publ_section_title
;
Structure prediction by ZEFSAII (Michael W. Deem and Ramdas Pophale) SiO2 
 PCOD9026522
Probable space group: P -1
;
_chemical_formula_sum "Si O2"
_cell_formula_units_Z 16
_cell_length_a 17.474434
_cell_length_b 15.723112
_cell_length_c 7.964941
_cell_angle_alpha 42.894868
_cell_angle_beta 136.788603
_cell_angle_gamma 154.112371
_cell_volume 632.179926
_symmetry_space_group_name_H-M "P -1"
_symmetry_group_IT_number 2
_symmetry_cell_setting 'triclinic'
loop_
_space_group_symop_operation_xyz
x,y,z
-x,-y,-z
loop_
_atom_site_type_symbol
_atom_site_label
_atom_site_fract_x
_atom_site_fract_y
_atom_site_fract_z
Si Si1 0.949725 0.758128 0.394134
Si Si2 0.482742 0.816997 0.730900
Si Si3 0.278066 0.144901 0.561811
Si Si4 0.384119 0.446564 0.052375
Si Si5 0.074064 0.451285 0.082724
Si Si6 0.457821 0.859025 0.996707
Si Si7 0.078752 0.446560 0.617242
Si Si8 0.861586 0.114287 0.985792
O O1 0.809942 0.704822 0.129364
O O2 0.852851 0.603447 0.616521
O O3 0.021956 0.702116 0.486414
O O4 0.109738 0.976395 0.411484
O O5 0.456397 0.642587 0.951986
O O6 0.279375 0.658557 0.567130
O O7 0.487895 0.907716 0.775924
O O8 0.695710 0.003985 0.757518
O O9 0.419702 0.155372 0.754278
O O10 0.193472 0.055942 0.745030
O O11 0.372168 0.347674 0.338695
O O12 0.500000 0.500000 0.000000
O O13 0.246483 0.644815 0.975828
O O14 0.899878 0.246660 0.003518
O O15 0.000000 0.500000 0.000000
O O16 0.500000 0.000000 0.000000
O O17 0.000000 0.500000 0.500000
O O18 0.045947 0.302532 0.906052
#
# Coordination Sequence:
#
# PCOD9026522 Si02
#       8
#     2   2   2   2   2   2   2   2
#     4  10  23  40  63  99 133 175 233 281 340 419
#     4  10  24  43  65 102 135 176 234 279 341 413
#     4  10  23  42  68  98 131 184 234 278 344 409
#     4  11  24  45  69  96 138 181 233 291 344 402
#     4  11  20  39  65  96 136 179 226 271 341 409
#     4  11  22  39  70  99 138 176 225 284 341 411
#     4  11  23  40  66  96 144 181 215 285 349 410
#     4  10  22  41  64  94 133 173 223 280 332 402
#
# _framework density 25.309251
#
# number of rings (size 3 to 8) (size 9 to 14) (size 15 to 20)
#    0.000    1.500    1.250    4.125    3.500    2.500 
#    0.000    2.500    0.000    0.000    0.000    0.000 
#    0.000    0.000    0.000    0.000    0.000    0.000 
#
# Total GULP energy -89107.301903 kJ/mol
# GULP energy per Si atom -5569.206369 kJ/mol
# Density = 2.525165 g / cm^3
# Si number density = 25.309251 Si / 1000 Ang^3
#
#
#
# Elastic Constant Matrix: (Units=GPa)
#
#
# Indices 1 2 3 4 5 6 
#
# 1 46.6323 -1.5788 1.0474 -9.6856 -3.7230 16.7620
# 2 -1.5788 91.7415 2.8004 9.7700 -8.7762 27.1709
# 3 1.0474 2.8004 107.8758 -2.4852 -3.2246 17.5189
# 4 -9.6856 9.7700 -2.4852 38.3213 6.7216 -3.7849
# 5 -3.7230 -8.7762 -3.2246 6.7216 27.2054 4.0944
# 6 16.7620 27.1709 17.5189 -3.7849 4.0944 38.2882
#
#
#
# Elastic Compliance Matrix: (Units=1/GPa)
#
#
# Indices 1 2 3 4 5 6 
#
# 1 0.030226 0.007141 0.003187 0.002364 0.009322 -0.020521
# 2 0.007141 0.018592 0.002824 -0.006776 0.011927 -0.019557
# 3 0.003187 0.002824 0.010703 -0.000819 0.004146 -0.008821
# 4 0.002364 -0.006776 -0.000819 0.031109 -0.010908 0.008390
# 5 0.009322 0.011927 0.004146 -0.010908 0.048178 -0.020672
# 6 -0.020521 -0.019557 -0.008821 0.008390 -0.020672 0.056056
#
#
# Mechanical properties :
#
#
# Convention : Reuss Voigt Hill
#
# Bulk Modulus (GPa) = 11.65161 27.86529 19.75845
# Shear Modulus (GPa) = 25.35905 37.02834 31.19370
#
# Velocity S-wave (km/s) = 3.16882 3.82911 3.51451
# Velocity P-wave (km/s) = 4.24291 5.53022 4.92877
#
# Compressibility (1/GPa) = 0.08582502
#
# Stress axis : x y z
#
# Youngs Moduli (GPa) = 33.08399 53.78794 93.42946
#
# Poissons Ratio (x) = -0.38408 -0.29775
# Poissons Ratio (y) = -0.23624 -0.26389
# Poissons Ratio (z) = -0.10544 -0.15192
#
# Static dielectric constant tensor:
#      x y z
#    x 2.066590 0.035990 -0.084170 
#    y 0.035990 1.985800 -0.045550 
#    z -0.084170 -0.045550 2.260000 
# 
# From -- ./inp_files/348841.got.cif
#   From: 2010.05.17/outbox.cif.g08.bks.cpg/sg2_175_cif.got.tgz:348841.got - 2010.06.03 11:33:40.
