data_PCOD9026660
_publ_section_title
;
Structure prediction by ZEFSAII (Michael W. Deem and Ramdas Pophale) SiO2 
 PCOD9026660
Probable space group: P -1
;
_chemical_formula_sum "Si O2"
_cell_formula_units_Z 13
_cell_length_a 7.803099
_cell_length_b 12.383003
_cell_length_c 16.357013
_cell_angle_alpha 24.544594
_cell_angle_beta 66.826793
_cell_angle_gamma 55.223430
_cell_volume 501.580410
_symmetry_space_group_name_H-M "P -1"
_symmetry_group_IT_number 2
_symmetry_cell_setting 'triclinic'
loop_
_space_group_symop_operation_xyz
x,y,z
-x,-y,-z
loop_
_atom_site_type_symbol
_atom_site_label
_atom_site_fract_x
_atom_site_fract_y
_atom_site_fract_z
Si Si1 0.946720 0.158529 0.529498
Si Si2 0.015274 0.728731 0.278704
Si Si3 0.453202 0.729101 0.776601
Si Si4 0.193556 0.988011 0.195235
Si Si5 0.500000 0.000000 0.000000
Si Si6 0.369974 0.664152 0.148621
Si Si7 0.101915 0.318797 0.242037
O O1 0.189992 0.988029 0.645424
O O2 0.777245 0.237979 0.581155
O O3 0.918412 0.926947 0.636932
O O4 0.970143 0.382419 0.309150
O O5 0.216496 0.564821 0.288736
O O6 0.000000 0.500000 0.500000
O O7 0.065148 0.940656 0.179078
O O8 0.796399 0.975556 0.098725
O O9 0.503207 0.547093 0.806796
O O10 0.640377 0.808558 0.698523
O O11 0.500000 0.500000 0.000000
O O12 0.403335 0.962070 0.132498
O O13 0.024493 0.347136 0.008434
O O14 0.490620 0.306994 0.827118
#
# Coordination Sequence:
#
# PCOD9026660 Si02
#       7
#     2   2   2   2   1   2   2
#     4  11  25  42  68 100 134 174 218 271 328 399
#     4  10  22  41  65  91 121 172 217 262 321 380
#     4  12  23  42  69 100 133 177 216 269 334 391
#     4  11  22  44  66  92 131 172 212 274 328 386
#     4  10  24  40  68  92 124 174 216 268 328 378
#     4  10  22  42  62  93 130 164 215 270 319 385
#     4  11  24  43  67 100 135 174 218 269 332 391
#
# _framework density 25.918078999999999
#
# number of rings (size 3 to 8) (size 9 to 14) (size 15 to 20)
#    0.000    1.231    3.077    1.846    4.308    0.000 
#    2.769    6.923    0.000    0.000    0.000    0.000 
#    0.000    0.000    0.000    0.000    0.000    0.000 
#
# Total GULP energy -72557.909739 kJ/mol
# GULP energy per Si atom -5581.377672 kJ/mol
# Density = 2.585909 g / cm^3
# Si number density = 25.918079 Si / 1000 Ang^3
#
#
#
# Elastic Constant Matrix: (Units=GPa)
#
#
# Indices 1 2 3 4 5 6 
#
# 1 130.2655 21.9681 25.7945 5.9768 -25.5822 -2.0756
# 2 21.9681 114.2075 26.7747 34.3965 -16.0791 -3.4483
# 3 25.7945 26.7747 118.9556 26.6200 -13.8810 -25.5114
# 4 5.9768 34.3965 26.6200 52.6062 -0.8504 -23.9689
# 5 -25.5822 -16.0791 -13.8810 -0.8504 34.5075 6.4771
# 6 -2.0756 -3.4483 -25.5114 -23.9689 6.4771 48.7692
#
#
#
# Elastic Compliance Matrix: (Units=1/GPa)
#
#
# Indices 1 2 3 4 5 6 
#
# 1 0.009280 -0.000397 -0.001344 -0.000712 0.006425 -0.001539
# 2 -0.000397 0.012835 -0.000973 -0.010244 0.006067 -0.005459
# 3 -0.001344 -0.000973 0.010593 -0.002827 0.002037 0.003755
# 4 -0.000712 -0.010244 -0.002827 0.034249 -0.008548 0.015734
# 5 0.006425 0.006067 0.002037 -0.008548 0.038597 -0.007559
# 6 -0.001539 -0.005459 0.003755 0.015734 -0.007559 0.030755
#
#
# Mechanical properties :
#
#
# Convention : Reuss Voigt Hill
#
# Bulk Modulus (GPa) = 36.65885 56.94480 46.80182
# Shear Modulus (GPa) = 33.14993 46.43601 39.79297
#
# Velocity S-wave (km/s) = 3.58023 4.23738 3.92259
# Velocity P-wave (km/s) = 5.59156 6.77932 6.21389
#
# Compressibility (1/GPa) = 0.02727855
#
# Stress axis : x y z
#
# Youngs Moduli (GPa) = 107.76212 77.91190 94.40549
#
# Poissons Ratio (x) = 0.03096 0.12687
# Poissons Ratio (y) = 0.04282 0.09187
# Poissons Ratio (z) = 0.14481 0.07582
#
# Static dielectric constant tensor:
#      x y z
#    x 1.811530 0.071850 -0.039060 
#    y 0.071850 1.959610 0.015340 
#    z -0.039060 0.015340 1.975940 
# 
# From -- ./inp_files/429552.got.cif
#   From: 2010.05.17/outbox.cif.g08.bks.cpg/sg2_215_cif.got.tgz:429552.got - 2010.06.03 11:33:40.
