data_PCOD9026750
_publ_section_title
;
Structure prediction by ZEFSAII (Michael W. Deem and Ramdas Pophale) SiO2 
 PCOD9026750
Probable space group: P -1
;
_chemical_formula_sum "Si O2"
_cell_formula_units_Z 14
_cell_length_a 12.209595
_cell_length_b 9.581546
_cell_length_c 9.644253
_cell_angle_alpha 103.753609
_cell_angle_beta 54.684410
_cell_angle_gamma 143.373244
_cell_volume 486.363720
_symmetry_space_group_name_H-M "P -1"
_symmetry_group_IT_number 2
_symmetry_cell_setting 'triclinic'
loop_
_space_group_symop_operation_xyz
x,y,z
-x,-y,-z
loop_
_atom_site_type_symbol
_atom_site_label
_atom_site_fract_x
_atom_site_fract_y
_atom_site_fract_z
Si Si1 0.603317 0.177713 0.601228
Si Si2 0.861144 0.712054 0.783689
Si Si3 0.025717 0.453188 0.178021
Si Si4 0.482715 0.523915 0.812762
Si Si5 0.360701 0.090518 0.372706
Si Si6 0.271463 0.452152 0.565802
Si Si7 0.145083 0.841784 0.036276
O O1 0.662425 0.101489 0.647692
O O2 0.725932 0.195075 0.374080
O O3 0.771787 0.468641 0.505865
O O4 0.392882 0.077210 0.821515
O O5 0.660958 0.602347 0.805658
O O6 0.856450 0.539076 0.788937
O O7 0.791977 0.724864 0.984556
O O8 0.120082 0.953092 0.575757
O O9 0.154748 0.717793 0.108151
O O10 0.028841 0.372133 0.011584
O O11 0.565981 0.764196 0.787759
O O12 0.549112 0.506883 0.616796
O O13 0.568980 0.315121 0.386342
O O14 0.014939 0.185268 0.767288
#
# Coordination Sequence:
#
# PCOD9026750 Si02
#       7
#     2   2   2   2   2   2   2
#     4  10  19  34  58  86 116 147 185 231 286 340
#     4  10  22  40  61  78 113 159 194 228 283 347
#     4   9  17  31  55  84 106 146 194 230 270 334
#     4  11  24  40  57  84 117 153 192 235 285 339
#     4  11  21  38  62  85 111 152 195 233 279 341
#     4  11  23  35  57  92 119 141 188 245 287 329
#     4  10  17  31  56  85 117 144 180 236 287 327
#
# _framework density 28.785039999999999
#
# number of rings (size 3 to 8) (size 9 to 14) (size 15 to 20)
#    0.000    1.714    0.000    7.714    0.000    1.714 
#    0.000    6.429    0.000    7.714    0.000    0.000 
#    0.000    0.000    0.000    0.000    0.000    0.000 
#
# Total GULP energy -78075.706132 kJ/mol
# GULP energy per Si atom -5576.836152 kJ/mol
# Density = 2.871952 g / cm^3
# Si number density = 28.785040 Si / 1000 Ang^3
#
#
#
# Elastic Constant Matrix: (Units=GPa)
#
#
# Indices 1 2 3 4 5 6 
#
# 1 131.2478 22.8160 -14.5331 -9.6414 14.1703 -13.7010
# 2 22.8160 64.2125 32.9172 -3.1779 2.3305 -9.2903
# 3 -14.5331 32.9172 262.1606 -15.6316 -38.7093 -5.7922
# 4 -9.6414 -3.1779 -15.6316 25.9192 -12.6872 6.4024
# 5 14.1703 2.3305 -38.7093 -12.6872 56.2668 -6.7928
# 6 -13.7010 -9.2903 -5.7922 6.4024 -6.7928 36.3001
#
#
#
# Elastic Compliance Matrix: (Units=1/GPa)
#
#
# Indices 1 2 3 4 5 6 
#
# 1 0.008756 -0.003179 0.001017 0.002718 -0.000510 0.002079
# 2 -0.003179 0.018602 -0.002909 -0.002483 -0.002153 0.003132
# 3 0.001017 -0.002909 0.005273 0.005433 0.004767 0.000415
# 4 0.002718 -0.002483 0.005433 0.050651 0.013966 -0.005063
# 5 -0.000510 -0.002153 0.004767 0.013966 0.024681 0.002173
# 6 0.002079 0.003132 0.000415 -0.005063 0.002173 0.030500
#
#
# Mechanical properties :
#
#
# Convention : Reuss Voigt Hill
#
# Bulk Modulus (GPa) = 44.46277 60.00234 52.23255
# Shear Modulus (GPa) = 32.03050 51.45861 41.74456
#
# Velocity S-wave (km/s) = 3.33941 4.23269 3.81230
# Velocity P-wave (km/s) = 5.50898 6.69162 6.12889
#
# Compressibility (1/GPa) = 0.02249073
#
# Stress axis : x y z
#
# Youngs Moduli (GPa) = 114.20548 53.75686 189.64397
#
# Poissons Ratio (x) = 0.17089 -0.19291
# Poissons Ratio (y) = 0.36305 0.55162
# Poissons Ratio (z) = -0.11617 0.15636
#
# Static dielectric constant tensor:
#      x y z
#    x 2.348270 0.279070 -0.014450 
#    y 0.279070 2.962910 0.081520 
#    z -0.014450 0.081520 2.267340 
# 
# From -- ./inp_files/423445.got.cif
#   From: 2010.05.17/outbox.cif.g08.bks.cpg/sg2_212_cif.got.tgz:423445.got - 2010.06.03 11:33:40.
