data_PCOD9026088
_publ_section_title
;
Structure prediction by ZEFSAII (Michael W. Deem and Ramdas Pophale) SiO2 
 PCOD9026088
Probable space group: P -1
;
_chemical_formula_sum "Si O2"
_cell_formula_units_Z 16
_cell_length_a 6.843220
_cell_length_b 9.739399
_cell_length_c 19.500283
_cell_angle_alpha 134.757690
_cell_angle_beta 48.909500
_cell_angle_gamma 126.265201
_cell_volume 675.125734
_symmetry_space_group_name_H-M "P -1"
_symmetry_group_IT_number 2
_symmetry_cell_setting 'triclinic'
loop_
_space_group_symop_operation_xyz
x,y,z
-x,-y,-z
loop_
_atom_site_type_symbol
_atom_site_label
_atom_site_fract_x
_atom_site_fract_y
_atom_site_fract_z
Si Si1 0.645938 0.238044 0.407455
Si Si2 0.882514 0.122436 0.903377
Si Si3 0.169764 0.905583 0.373613
Si Si4 0.904885 0.980737 0.326699
Si Si5 0.188322 0.402012 0.045241
Si Si6 0.244446 0.489150 0.647462
Si Si7 0.372172 0.276285 0.096122
Si Si8 0.670131 0.551214 0.238896
O O1 0.443588 0.364404 0.525406
O O2 0.775530 0.345059 0.345754
O O3 0.476066 0.011446 0.353139
O O4 0.836206 0.193652 0.407909
O O5 0.989889 0.070072 0.788413
O O6 0.760997 0.918735 0.899340
O O7 0.645940 0.235445 0.988052
O O8 0.100503 0.252752 0.949727
O O9 0.115209 0.983711 0.339060
O O10 0.036779 0.670767 0.328597
O O11 0.000000 0.000000 0.500000
O O12 0.676612 0.782757 0.330772
O O13 0.181188 0.305849 0.088886
O O14 0.968707 0.533342 0.142333
O O15 0.500000 0.500000 0.000000
O O16 0.371593 0.560176 0.717272
O O17 0.472073 0.451905 0.189932
#
# Coordination Sequence:
#
# PCOD9026088 Si02
#       8
#     2   2   2   2   2   2   2   2
#     4  10  22  42  64  90 129 170 204 268 326 365
#     4  10  23  39  59  94 126 161 217 260 307 386
#     4   9  21  41  62  90 126 163 208 259 315 377
#     4  11  23  39  62  97 121 164 215 259 312 388
#     4  11  22  39  63  90 127 171 207 260 323 377
#     4   9  21  42  63  92 128 163 216 264 312 390
#     4  10  22  41  62  87 128 171 202 265 319 371
#     4  10  23  39  62  94 125 163 219 260 313 386
#
# _framework density 23.699289
#
# number of rings (size 3 to 8) (size 9 to 14) (size 15 to 20)
#    0.000    2.000    0.000    1.875    3.500   11.500 
#    0.000    6.875    0.000    0.000    0.000    0.000 
#    0.000    0.000    0.000    0.000    0.000    0.000 
#
# Total GULP energy -89429.832453 kJ/mol
# GULP energy per Si atom -5589.364528 kJ/mol
# Density = 2.364535 g / cm^3
# Si number density = 23.699289 Si / 1000 Ang^3
#
#
#
# Elastic Constant Matrix: (Units=GPa)
#
#
# Indices 1 2 3 4 5 6 
#
# 1 97.7505 28.6521 31.1954 -2.9630 -6.6315 -17.5905
# 2 28.6521 69.3622 9.5516 -21.7834 -14.4896 -23.0852
# 3 31.1954 9.5516 66.7232 -10.5739 10.1604 -5.5417
# 4 -2.9630 -21.7834 -10.5739 31.7173 -9.2474 2.1402
# 5 -6.6315 -14.4896 10.1604 -9.2474 25.3183 4.1370
# 6 -17.5905 -23.0852 -5.5417 2.1402 4.1370 36.2665
#
#
#
# Elastic Compliance Matrix: (Units=1/GPa)
#
#
# Indices 1 2 3 4 5 6 
#
# 1 0.014296 -0.004975 -0.006622 -0.004002 0.001635 0.002805
# 2 -0.004975 0.039893 -0.001337 0.034642 0.031924 0.017090
# 3 -0.006622 -0.001337 0.020124 0.002340 -0.009718 -0.000017
# 4 -0.004002 0.034642 0.002340 0.066651 0.040230 0.011945
# 5 0.001635 0.031924 -0.009718 0.040230 0.075374 0.008657
# 6 0.002805 0.017090 -0.000017 0.011945 0.008657 0.038118
#
#
# Mechanical properties :
#
#
# Convention : Reuss Voigt Hill
#
# Bulk Modulus (GPa) = 20.64196 41.40378 31.02287
# Shear Modulus (GPa) = 16.86509 29.62289 23.24399
#
# Velocity S-wave (km/s) = 2.67053 3.53930 3.13515
# Velocity P-wave (km/s) = 4.27058 5.84898 5.12096
#
# Compressibility (1/GPa) = 0.04844502
#
# Stress axis : x y z
#
# Youngs Moduli (GPa) = 69.94949 25.06733 49.69260
#
# Poissons Ratio (x) = 0.12472 0.32905
# Poissons Ratio (y) = 0.34802 0.06642
# Poissons Ratio (z) = 0.46319 0.03350
#
# Static dielectric constant tensor:
#      x y z
#    x 1.910340 -0.014020 0.005210 
#    y -0.014020 1.929830 0.001900 
#    z 0.005210 0.001900 1.908850 
# 
# From -- ./inp_files/38091.got.cif
#   From: 2010.05.17/outbox.cif.g08.bks.cpg/sg2_20_cif.got.tgz:38091.got - 2010.06.03 11:33:40.
