data_PCOD9026285
_publ_section_title
;
Structure prediction by ZEFSAII (Michael W. Deem and Ramdas Pophale) SiO2 
 PCOD9026285
Probable space group: P -1
;
_chemical_formula_sum "Si O2"
_cell_formula_units_Z 16
_cell_length_a 8.045997
_cell_length_b 18.129200
_cell_length_c 10.034702
_cell_angle_alpha 48.184238
_cell_angle_beta 73.197492
_cell_angle_gamma 50.960099
_cell_volume 825.379272
_symmetry_space_group_name_H-M "P -1"
_symmetry_group_IT_number 2
_symmetry_cell_setting 'triclinic'
loop_
_space_group_symop_operation_xyz
x,y,z
-x,-y,-z
loop_
_atom_site_type_symbol
_atom_site_label
_atom_site_fract_x
_atom_site_fract_y
_atom_site_fract_z
Si Si1 0.009789 0.902763 0.016478
Si Si2 0.241452 0.371737 0.089559
Si Si3 0.257693 0.129470 0.384043
Si Si4 0.532051 0.364025 0.807211
Si Si5 0.949693 0.770196 0.411151
Si Si6 0.406360 0.273450 0.441333
Si Si7 0.155739 0.006394 0.354224
Si Si8 0.523893 0.400340 0.468956
O O1 0.914036 0.961051 0.823109
O O2 0.255669 0.779034 0.080429
O O3 0.903899 0.851943 0.191976
O O4 0.000000 0.000000 0.000000
O O5 0.247634 0.250669 0.223370
O O6 0.365657 0.349923 0.224969
O O7 0.363568 0.376705 0.932274
O O8 0.000000 0.500000 0.000000
O O9 0.134093 0.150837 0.526583
O O10 0.162565 0.110363 0.298584
O O11 0.500000 0.000000 0.500000
O O12 0.438255 0.406457 0.628952
O O13 0.582404 0.459617 0.722628
O O14 0.813351 0.715481 0.496338
O O15 0.213283 0.671581 0.488053
O O16 0.475044 0.324556 0.478915
O O17 0.605294 0.128297 0.541658
O O18 0.000000 0.000000 0.500000
#
# Coordination Sequence:
#
# PCOD9026285 Si02
#       8
#     2   2   2   2   2   2   2   2
#     4  11  24  38  63  95 129 167 216 274 319 385
#     4  11  24  41  67  97 130 169 217 270 323 382
#     4  11  22  41  62  90 131 169 209 271 323 376
#     4  10  22  41  63  93 131 166 212 270 323 384
#     4  10  22  42  63  92 132 165 215 270 322 384
#     4  11  23  41  65  92 127 172 213 265 325 388
#     4  12  23  38  63  94 125 173 219 260 332 390
#     4  10  22  43  66  91 128 175 207 263 338 383
#
# _framework density 19.385026
#
# number of rings (size 3 to 8) (size 9 to 14) (size 15 to 20)
#    0.000    1.250    2.500    5.250    1.750    3.000 
#    0.000    8.750    0.000    0.000    0.000    0.000 
#    0.000    0.000    0.000    0.000    0.000    0.000 
#
# Total GULP energy -89310.434143 kJ/mol
# GULP energy per Si atom -5581.902134 kJ/mol
# Density = 1.934090 g / cm^3
# Si number density = 19.385026 Si / 1000 Ang^3
#
#
#
# Elastic Constant Matrix: (Units=GPa)
#
#
# Indices 1 2 3 4 5 6 
#
# 1 97.0160 54.8230 50.7103 13.7295 -2.1021 15.2929
# 2 54.8230 107.9143 76.0248 14.6533 -3.5974 3.1847
# 3 50.7103 76.0248 139.7195 20.7493 -3.0383 -10.5073
# 4 13.7295 14.6533 20.7493 44.3382 -4.5205 -0.5390
# 5 -2.1021 -3.5974 -3.0383 -4.5205 29.0975 4.2071
# 6 15.2929 3.1847 -10.5073 -0.5390 4.2071 37.4650
#
#
#
# Elastic Compliance Matrix: (Units=1/GPa)
#
#
# Indices 1 2 3 4 5 6 
#
# 1 0.016631 -0.005708 -0.003200 -0.001758 0.000949 -0.007333
# 2 -0.005708 0.017605 -0.007525 -0.000433 0.001115 -0.001409
# 3 -0.003200 -0.007525 0.013230 -0.002749 -0.001036 0.005733
# 4 -0.001758 -0.000433 -0.002749 0.024875 0.003403 -0.000041
# 5 0.000949 0.001115 -0.001036 0.003403 0.035678 -0.004730
# 6 -0.007333 -0.001409 0.005733 -0.000041 -0.004730 0.031943
#
#
# Mechanical properties :
#
#
# Convention : Reuss Voigt Hill
#
# Bulk Modulus (GPa) = 68.49162 78.64065 73.56614
# Shear Modulus (GPa) = 28.13811 33.05291 30.59551
#
# Velocity S-wave (km/s) = 3.81404 4.13373 3.97710
# Velocity P-wave (km/s) = 7.40303 7.96489 7.68909
#
# Compressibility (1/GPa) = 0.01460033
#
# Stress axis : x y z
#
# Youngs Moduli (GPa) = 60.12905 56.80116 75.58405
#
# Poissons Ratio (x) = 0.32420 0.24187
# Poissons Ratio (y) = 0.34320 0.56879
# Poissons Ratio (z) = 0.19242 0.42745
#
# Static dielectric constant tensor:
#      x y z
#    x 1.706880 0.016510 -0.002140 
#    y 0.016510 1.651690 0.003220 
#    z -0.002140 0.003220 1.680860 
# 
# From -- ./inp_files/216649.got.cif
#   From: 2010.05.17/outbox.cif.g08.bks.cpg/sg2_109_cif.got.tgz:216649.got - 2010.06.03 11:33:40.
