data_PCOD9026395
_publ_section_title
;
Structure prediction by ZEFSAII (Michael W. Deem and Ramdas Pophale) SiO2 
 PCOD9026395
Probable space group: P -1
;
_chemical_formula_sum "Si O2"
_cell_formula_units_Z 14
_cell_length_a 14.042318
_cell_length_b 15.456387
_cell_length_c 11.655461
_cell_angle_alpha 37.570541
_cell_angle_beta 149.438464
_cell_angle_gamma 144.552470
_cell_volume 709.477666
_symmetry_space_group_name_H-M "P -1"
_symmetry_group_IT_number 2
_symmetry_cell_setting 'triclinic'
loop_
_space_group_symop_operation_xyz
x,y,z
-x,-y,-z
loop_
_atom_site_type_symbol
_atom_site_label
_atom_site_fract_x
_atom_site_fract_y
_atom_site_fract_z
Si Si1 0.610301 0.150430 0.115124
Si Si2 0.945619 0.403900 0.328119
Si Si3 0.735764 0.702502 0.137029
Si Si4 0.302658 0.443557 0.998258
Si Si5 0.078648 0.737497 0.080186
Si Si6 0.621135 0.990200 0.747690
Si Si7 0.208854 0.981893 0.754177
O O1 0.783330 0.321375 0.145266
O O2 0.537270 0.069249 0.247736
O O3 0.709637 0.062047 0.231523
O O4 0.399991 0.129629 0.854166
O O5 0.057759 0.299217 0.595480
O O6 0.107040 0.577312 0.275056
O O7 0.817509 0.443175 0.254534
O O8 0.538661 0.561741 0.139851
O O9 0.716858 0.652241 0.037013
O O10 0.715706 0.863753 0.962461
O O11 0.167250 0.326463 0.080687
O O12 0.201133 0.844321 0.201797
O O13 0.155630 0.841212 0.938478
O O14 0.500000 0.000000 0.500000
O O15 0.000000 0.000000 0.500000
#
# Coordination Sequence:
#
# PCOD9026395 Si02
#       7
#     2   2   2   2   2   2   2
#     4  10  23  43  65  90 129 162 210 259 319 367
#     4  10  22  41  64  89 131 163 210 268 305 378
#     4  11  22  38  65  88 132 182 200 243 335 371
#     4   9  22  39  59  93 129 162 221 250 305 377
#     4   9  23  42  60  95 129 155 218 267 306 357
#     4  11  24  39  63 100 133 165 209 261 309 385
#     4  10  23  45  68  90 122 170 207 263 319 377
#
# _framework density 19.732825999999999
#
# number of rings (size 3 to 8) (size 9 to 14) (size 15 to 20)
#    0.857    1.143    1.429    0.429   10.000    2.286 
#    5.143    0.714    0.000    0.000    0.000    0.000 
#    0.000    0.000    0.000    0.000    0.000    0.000 
#
# Total GULP energy -78032.083298 kJ/mol
# GULP energy per Si atom -5573.720236 kJ/mol
# Density = 1.968791 g / cm^3
# Si number density = 19.732826 Si / 1000 Ang^3
#
#
#
# Elastic Constant Matrix: (Units=GPa)
#
#
# Indices 1 2 3 4 5 6 
#
# 1 83.5355 20.2436 40.5782 -0.5961 10.0430 -17.2407
# 2 20.2436 138.0017 49.9827 7.9371 3.3853 -18.4319
# 3 40.5782 49.9827 81.6799 6.3534 17.0346 -13.6791
# 4 -0.5961 7.9371 6.3534 20.0720 4.2858 -1.3871
# 5 10.0430 3.3853 17.0346 4.2858 21.9828 8.3957
# 6 -17.2407 -18.4319 -13.6791 -1.3871 8.3957 21.4852
#
#
#
# Elastic Compliance Matrix: (Units=1/GPa)
#
#
# Indices 1 2 3 4 5 6 
#
# 1 0.019942 0.001575 -0.004943 0.006011 -0.014421 0.020230
# 2 0.001575 0.010016 -0.005882 -0.001734 0.000404 0.005841
# 3 -0.004943 -0.005882 0.025927 0.000091 -0.023284 0.016598
# 4 0.006011 -0.001734 0.000091 0.055684 -0.018895 0.014373
# 5 -0.014421 0.000404 -0.023284 -0.018895 0.098921 -0.065926
# 6 0.020230 0.005841 0.016598 0.014373 -0.065926 0.105046
#
#
# Mechanical properties :
#
#
# Convention : Reuss Voigt Hill
#
# Bulk Modulus (GPa) = 26.74935 58.31403 42.53169
# Shear Modulus (GPa) = 14.43005 25.53550 19.98277
#
# Velocity S-wave (km/s) = 2.70714 3.60121 3.18569
# Velocity P-wave (km/s) = 4.83287 6.84891 5.92723
#
# Compressibility (1/GPa) = 0.03738408
#
# Stress axis : x y z
#
# Youngs Moduli (GPa) = 50.14442 99.84145 38.56996
#
# Poissons Ratio (x) = -0.15725 0.19065
# Poissons Ratio (y) = -0.07898 0.22689
# Poissons Ratio (z) = 0.24787 0.58732
#
# Static dielectric constant tensor:
#      x y z
#    x 1.704610 0.024060 0.017730 
#    y 0.024060 1.739590 0.017570 
#    z 0.017730 0.017570 1.693300 
# 
# From -- ./inp_files/454566.got.cif
#   From: 2010.05.17/outbox.cif.g08.bks.cpg/sg2_228_cif.got.tgz:454566.got - 2010.06.03 11:33:40.
