data_PCOD9026379
_publ_section_title
;
Structure prediction by ZEFSAII (Michael W. Deem and Ramdas Pophale) SiO2 
 PCOD9026379
Probable space group: P -1
;
_chemical_formula_sum "Si O2"
_cell_formula_units_Z 15
_cell_length_a 14.619910
_cell_length_b 26.775419
_cell_length_c 14.421061
_cell_angle_alpha 158.571625
_cell_angle_beta 20.361775
_cell_angle_gamma 159.300853
_cell_volume 624.108808
_symmetry_space_group_name_H-M "P -1"
_symmetry_group_IT_number 2
_symmetry_cell_setting 'triclinic'
loop_
_space_group_symop_operation_xyz
x,y,z
-x,-y,-z
loop_
_atom_site_type_symbol
_atom_site_label
_atom_site_fract_x
_atom_site_fract_y
_atom_site_fract_z
Si Si1 0.435738 0.202298 0.163331
Si Si2 0.752807 0.395017 0.374659
Si Si3 0.372118 0.864061 0.809397
Si Si4 0.437326 0.605340 0.028065
Si Si5 0.500000 0.500000 0.500000
Si Si6 0.649832 0.987225 0.241051
Si Si7 0.858745 0.904342 0.266595
Si Si8 0.817850 0.743206 0.740478
O O1 0.614701 0.269426 0.204675
O O2 0.472316 0.353453 0.335402
O O3 0.535156 0.101628 0.827351
O O4 0.092301 0.071847 0.289329
O O5 0.725384 0.299132 0.327623
O O6 0.093834 0.519273 0.237403
O O7 0.567523 0.487749 0.720990
O O8 0.643552 0.908695 0.557496
O O9 0.085654 0.853593 0.010754
O O10 0.500000 0.000000 0.000000
O O11 0.635797 0.771909 0.177722
O O12 0.501875 0.641450 0.918991
O O13 0.827410 0.622239 0.451719
O O14 0.500000 0.000000 0.500000
O O15 0.794434 0.877910 0.940163
O O16 0.910598 0.166868 0.290585
#
# Coordination Sequence:
#
# PCOD9026379 Si02
#       8
#     2   2   2   2   1   2   2   2
#     4  11  24  46  76 112 145 205 248 312 375 457
#     4  12  28  48  77 110 155 195 254 315 381 443
#     4  12  27  48  79 117 151 198 253 319 377 449
#     4  12  27  48  74 112 154 197 250 312 379 451
#     4  10  22  44  72 102 150 184 250 298 380 434
#     4  10  23  42  68 100 145 190 253 305 368 438
#     4  12  27  49  82 110 152 201 257 309 382 455
#     4  10  22  41  64 103 139 193 241 304 364 441
#
# _framework density 24.034272000000001
#
# number of rings (size 3 to 8) (size 9 to 14) (size 15 to 20)
#    0.000    0.800    4.000    2.000    3.733    5.333 
#    2.400    2.667    0.000    0.000    0.000    0.000 
#    0.000    0.000    0.000    0.000    0.000    0.000 
#
# Total GULP energy -83658.717178 kJ/mol
# GULP energy per Si atom -5577.247812 kJ/mol
# Density = 2.397957 g / cm^3
# Si number density = 24.034272 Si / 1000 Ang^3
#
#
#
# Elastic Constant Matrix: (Units=GPa)
#
#
# Indices 1 2 3 4 5 6 
#
# 1 64.2034 40.6710 28.8576 -3.8742 -8.4076 -1.2258
# 2 40.6710 144.0467 49.7304 12.7508 5.5281 6.4581
# 3 28.8576 49.7304 83.4745 -13.0615 7.6104 9.5684
# 4 -3.8742 12.7508 -13.0615 37.9465 -7.2936 7.1081
# 5 -8.4076 5.5281 7.6104 -7.2936 44.8520 8.9959
# 6 -1.2258 6.4581 9.5684 7.1081 8.9959 50.1088
#
#
#
# Elastic Compliance Matrix: (Units=1/GPa)
#
#
# Indices 1 2 3 4 5 6 
#
# 1 0.021897 -0.005169 -0.004552 0.003459 0.005975 0.000508
# 2 -0.005169 0.011061 -0.005759 -0.006933 -0.002686 0.001013
# 3 -0.004552 -0.005759 0.018873 0.008485 -0.001171 -0.003966
# 4 0.003459 -0.006933 0.008485 0.034589 0.007055 -0.006815
# 5 0.005975 -0.002686 -0.001171 0.007055 0.026089 -0.004969
# 6 0.000508 0.001013 -0.003966 -0.006815 -0.004969 0.022455
#
#
# Mechanical properties :
#
#
# Convention : Reuss Voigt Hill
#
# Bulk Modulus (GPa) = 47.91280 58.91584 53.41432
# Shear Modulus (GPa) = 28.92172 38.07916 33.50044
#
# Velocity S-wave (km/s) = 3.47270 3.98473 3.73750
# Velocity P-wave (km/s) = 6.00483 6.76293 6.39513
#
# Compressibility (1/GPa) = 0.02087125
#
# Stress axis : x y z
#
# Youngs Moduli (GPa) = 45.66865 90.40609 52.98519
#
# Poissons Ratio (x) = 0.46733 0.24119
# Poissons Ratio (y) = 0.23607 0.30513
# Poissons Ratio (z) = 0.20788 0.52063
#
# Static dielectric constant tensor:
#      x y z
#    x 2.053580 0.022370 0.034100 
#    y 0.022370 1.878260 0.000730 
#    z 0.034100 0.000730 1.983650 
# 
# From -- ./inp_files/535732.got.cif
#   From: 2010.05.17/outbox.cif.g08.bks.cpg/sg2_268_cif.got.tgz:535732.got - 2010.06.03 11:33:40.
