data_PCOD9026837
_publ_section_title
;
Structure prediction by ZEFSAII (Michael W. Deem and Ramdas Pophale) SiO2 
 PCOD9026837
Probable space group: P -1
;
_chemical_formula_sum "Si O2"
_cell_formula_units_Z 12
_cell_length_a 4.820737
_cell_length_b 19.935607
_cell_length_c 5.077442
_cell_angle_alpha 115.504637
_cell_angle_beta 88.431695
_cell_angle_gamma 84.408915
_cell_volume 437.009857
_symmetry_space_group_name_H-M "P -1"
_symmetry_group_IT_number 2
_symmetry_cell_setting 'triclinic'
loop_
_space_group_symop_operation_xyz
x,y,z
-x,-y,-z
loop_
_atom_site_type_symbol
_atom_site_label
_atom_site_fract_x
_atom_site_fract_y
_atom_site_fract_z
Si Si1 0.686866 0.514078 0.269482
Si Si2 0.927708 0.125877 0.644177
Si Si3 0.384606 0.228258 0.664677
Si Si4 0.544326 0.327929 0.452291
Si Si5 0.304596 0.988091 0.229866
Si Si6 0.072144 0.643333 0.002119
O O1 0.500000 0.500000 0.500000
O O2 0.702977 0.602328 0.425285
O O3 0.938614 0.446687 0.154334
O O4 0.500000 0.500000 0.000000
O O5 0.685950 0.186578 0.650484
O O6 0.192869 0.169924 0.687686
O O7 0.036462 0.051119 0.350128
O O8 0.814629 0.090997 0.854549
O O9 0.412979 0.252003 0.395814
O O10 0.226150 0.306933 0.910627
O O11 0.741269 0.333275 0.206034
O O12 0.750920 0.339011 0.713385
O O13 0.500000 0.000000 0.500000
O O14 0.500000 0.000000 0.000000
#
# Coordination Sequence:
#
# PCOD9026837 Si02
#       6
#     2   2   2   2   2   2
#     4   8  16  35  62  90 129 177 237 288 336 402
#     4  11  26  48  74 111 140 184 230 283 344 420
#     4  12  24  46  70 106 146 184 228 288 350 418
#     4  10  22  41  65  98 136 185 235 289 347 407
#     4  11  26  52  79 107 141 184 230 282 341 415
#     4  10  22  41  65  98 136 185 235 289 347 407
#
# _framework density 27.459337999999999
#
# number of rings (size 3 to 8) (size 9 to 14) (size 15 to 20)
#    0.000    1.667    3.333    0.000    0.000    7.333 
#    0.000    0.000    0.000   12.000    0.000    0.000 
#    0.000    0.000    0.000    0.000    0.000    0.000 
#
# Total GULP energy -67204.777457 kJ/mol
# GULP energy per Si atom -5600.398121 kJ/mol
# Density = 2.739684 g / cm^3
# Si number density = 27.459338 Si / 1000 Ang^3
#
#
#
# Elastic Constant Matrix: (Units=GPa)
#
#
# Indices 1 2 3 4 5 6 
#
# 1 99.6633 17.3879 47.4279 2.6884 -18.3837 -8.0704
# 2 17.3879 206.7126 51.5709 -0.1613 -14.8617 -20.3462
# 3 47.4279 51.5709 163.4841 -37.7967 -18.4468 -12.2302
# 4 2.6884 -0.1613 -37.7967 55.0211 -8.3274 -26.0734
# 5 -18.3837 -14.8617 -18.4468 -8.3274 42.4502 4.4546
# 6 -8.0704 -20.3462 -12.2302 -26.0734 4.4546 68.2483
#
#
#
# Elastic Compliance Matrix: (Units=1/GPa)
#
#
# Indices 1 2 3 4 5 6 
#
# 1 0.012603 0.000133 -0.004172 -0.003341 0.003109 -0.000697
# 2 0.000133 0.005421 -0.001655 -0.000452 0.001033 0.001095
# 3 -0.004172 -0.001655 0.011170 0.010799 0.004075 0.004875
# 4 -0.003341 -0.000452 0.010799 0.033471 0.008221 0.013656
# 5 0.003109 0.001033 0.004075 0.008221 0.028366 0.002695
# 6 -0.000697 0.001095 0.004875 0.013656 0.002695 0.020811
#
#
# Mechanical properties :
#
#
# Convention : Reuss Voigt Hill
#
# Bulk Modulus (GPa) = 56.15664 78.07037 67.11351
# Shear Modulus (GPa) = 38.71009 56.70880 47.70945
#
# Velocity S-wave (km/s) = 3.75870 4.54937 4.17280
# Velocity P-wave (km/s) = 6.27155 7.48924 6.90728
#
# Compressibility (1/GPa) = 0.01780733
#
# Stress axis : x y z
#
# Youngs Moduli (GPa) = 79.34508 184.46948 89.52307
#
# Poissons Ratio (x) = -0.02454 0.37349
# Poissons Ratio (y) = -0.01056 0.14813
# Poissons Ratio (z) = 0.33102 0.30523
#
# Static dielectric constant tensor:
#      x y z
#    x 2.112650 0.067320 0.092020 
#    y 0.067320 2.152410 0.020600 
#    z 0.092020 0.020600 2.232060 
# 
# From -- ./inp_files/6662.got.cif
#   From: 2010.05.17/outbox.cif.g08.bks.cpg/sg2_4_cif.got.tgz:6662.got - 2010.06.03 11:33:40.
