data_PCOD9026876
_publ_section_title
;
Structure prediction by ZEFSAII (Michael W. Deem and Ramdas Pophale) SiO2 
 PCOD9026876
Probable space group: P -1
;
_chemical_formula_sum "Si O2"
_cell_formula_units_Z 14
_cell_length_a 12.799788
_cell_length_b 17.676864
_cell_length_c 9.600552
_cell_angle_alpha 130.294020
_cell_angle_beta 36.981929
_cell_angle_gamma 150.118748
_cell_volume 643.330698
_symmetry_space_group_name_H-M "P -1"
_symmetry_group_IT_number 2
_symmetry_cell_setting 'triclinic'
loop_
_space_group_symop_operation_xyz
x,y,z
-x,-y,-z
loop_
_atom_site_type_symbol
_atom_site_label
_atom_site_fract_x
_atom_site_fract_y
_atom_site_fract_z
Si Si1 0.224274 0.844192 0.676858
Si Si2 0.649241 0.511254 0.204188
Si Si3 0.187527 0.660639 0.701528
Si Si4 0.858813 0.522040 0.268836
Si Si5 0.718975 0.952830 0.603322
Si Si6 0.043151 0.246017 0.427851
Si Si7 0.007278 0.142941 0.799696
O O1 0.241439 0.738345 0.590007
O O2 0.001611 0.757366 0.690949
O O3 0.500000 0.000000 0.500000
O O4 0.149150 0.884909 0.931958
O O5 0.656194 0.479104 0.319247
O O6 0.357214 0.371365 0.281542
O O7 0.787340 0.678704 0.240225
O O8 0.873806 0.541943 0.923954
O O9 0.240076 0.571759 0.593633
O O10 0.398298 0.811516 0.756090
O O11 0.044523 0.693179 0.323161
O O12 0.000000 0.500000 0.000000
O O13 0.833261 0.890789 0.393262
O O14 0.810085 0.036877 0.753593
O O15 0.864891 0.079661 0.479178
#
# Coordination Sequence:
#
# PCOD9026876 Si02
#       7
#     2   2   2   2   2   2   2
#     4  11  25  47  64 100 140 179 219 279 335 403
#     4  10  22  42  66  99 133 173 218 283 327 394
#     4  10  23  43  67  96 138 173 223 270 335 397
#     4  10  22  41  66 101 132 171 222 284 326 392
#     4  11  23  42  72 104 126 183 226 279 330 392
#     4  12  24  42  71  96 137 178 223 273 345 394
#     4  10  24  42  71  99 140 171 230 274 335 397
#
# _framework density 21.761747
#
# number of rings (size 3 to 8) (size 9 to 14) (size 15 to 20)
#    0.000    1.429    2.857    1.286    4.000    8.000 
#    2.571    0.000    0.000    0.000    0.000    0.000 
#    0.000    0.000    0.000    0.000    0.000    0.000 
#
# Total GULP energy -78128.418960 kJ/mol
# GULP energy per Si atom -5580.601354 kJ/mol
# Density = 2.171222 g / cm^3
# Si number density = 21.761747 Si / 1000 Ang^3
#
#
#
# Elastic Constant Matrix: (Units=GPa)
#
#
# Indices 1 2 3 4 5 6 
#
# 1 174.1042 42.7343 25.1441 4.4468 8.6518 -12.4003
# 2 42.7343 65.6768 11.1323 -15.4866 -9.4314 0.0138
# 3 25.1441 11.1323 83.0193 -10.0720 6.5522 0.0913
# 4 4.4468 -15.4866 -10.0720 30.9570 -9.5951 -2.8674
# 5 8.6518 -9.4314 6.5522 -9.5951 26.0141 1.0505
# 6 -12.4003 0.0138 0.0913 -2.8674 1.0505 43.0475
#
#
#
# Elastic Compliance Matrix: (Units=1/GPa)
#
#
# Indices 1 2 3 4 5 6 
#
# 1 0.009114 -0.009106 -0.001918 -0.009170 -0.009322 0.002249
# 2 -0.009106 0.029823 -0.000225 0.022954 0.022431 -0.001651
# 3 -0.001918 -0.000225 0.013249 0.004053 -0.001274 -0.000280
# 4 -0.009170 0.022954 0.004053 0.056065 0.031017 0.000320
# 5 -0.009322 0.022431 -0.001274 0.031017 0.061521 -0.002125
# 6 0.002249 -0.001651 -0.000280 0.000320 -0.002125 0.023952
#
#
# Mechanical properties :
#
#
# Convention : Reuss Voigt Hill
#
# Bulk Modulus (GPa) = 33.68450 53.42465 43.55458
# Shear Modulus (GPa) = 22.11227 36.25636 29.18432
#
# Velocity S-wave (km/s) = 3.19110 4.08617 3.66605
# Velocity P-wave (km/s) = 5.39350 6.84583 6.16260
#
# Compressibility (1/GPa) = 0.02968724
#
# Stress axis : x y z
#
# Youngs Moduli (GPa) = 109.72696 33.53069 75.47666
#
# Poissons Ratio (x) = 0.30534 0.14479
# Poissons Ratio (y) = 0.99920 0.01697
# Poissons Ratio (z) = 0.21049 0.00754
#
# Static dielectric constant tensor:
#      x y z
#    x 1.853190 -0.023340 -0.038260 
#    y -0.023340 1.763870 -0.002380 
#    z -0.038260 -0.002380 1.844850 
# 
# From -- ./inp_files/239394.got.cif
#   From: 2010.05.17/outbox.cif.g08.bks.cpg/sg2_120_cif.got.tgz:239394.got - 2010.06.03 11:33:40.
