data_PCOD9026126
_publ_section_title
;
Structure prediction by ZEFSAII (Michael W. Deem and Ramdas Pophale) SiO2 
 PCOD9026126
Probable space group: P -1
;
_chemical_formula_sum "Si O2"
_cell_formula_units_Z 16
_cell_length_a 7.496303
_cell_length_b 20.176072
_cell_length_c 8.702973
_cell_angle_alpha 52.691992
_cell_angle_beta 122.396488
_cell_angle_gamma 81.255511
_cell_volume 622.618208
_symmetry_space_group_name_H-M "P -1"
_symmetry_group_IT_number 2
_symmetry_cell_setting 'triclinic'
loop_
_space_group_symop_operation_xyz
x,y,z
-x,-y,-z
loop_
_atom_site_type_symbol
_atom_site_label
_atom_site_fract_x
_atom_site_fract_y
_atom_site_fract_z
Si Si1 0.035544 0.845585 0.685834
Si Si2 0.218016 0.467250 0.783887
Si Si3 0.340372 0.871655 0.002912
Si Si4 0.356713 0.966396 0.175854
Si Si5 0.649643 0.889161 0.844214
Si Si6 0.324451 0.597643 0.150630
Si Si7 0.901902 0.615996 0.724695
Si Si8 0.506496 0.213345 0.276753
O O1 0.240018 0.825972 0.670872
O O2 0.702046 0.905333 0.415177
O O3 0.055629 0.905123 0.751658
O O4 0.233521 0.711571 0.015415
O O5 0.469114 0.448707 0.838192
O O6 0.059773 0.566936 0.699244
O O7 0.000000 0.500000 0.500000
O O8 0.352725 0.341533 0.082494
O O9 0.280371 0.955491 0.988320
O O10 0.566551 0.739460 0.361057
O O11 0.496084 0.878253 0.926494
O O12 0.351959 0.885403 0.391367
O O13 0.170885 0.093874 0.990485
O O14 0.722271 0.789126 0.908920
O O15 0.500000 0.000000 0.500000
O O16 0.500000 0.500000 0.500000
O O17 0.030319 0.641603 0.876720
O O18 0.000000 0.500000 0.000000
#
# Coordination Sequence:
#
# PCOD9026126 Si02
#       8
#     2   2   2   2   2   2   2   2
#     4  10  22  41  62  92 130 170 210 268 323 381
#     4  11  22  37  61  91 124 172 209 265 326 380
#     4  11  22  40  64  97 130 165 219 270 315 392
#     4  11  21  40  69  91 125 173 213 266 329 377
#     4   9  20  40  65  94 127 170 215 268 328 382
#     4  11  23  40  60  92 129 171 221 262 321 394
#     4  12  23  40  63  95 133 170 214 267 324 392
#     4   9  21  39  59  90 130 159 213 267 311 384
#
# _framework density 25.697928999999998
#
# number of rings (size 3 to 8) (size 9 to 14) (size 15 to 20)
#    0.000    1.500    1.250    5.250    1.750    2.000 
#    0.000    3.750    0.000    8.250    0.000    0.000 
#    0.000    0.000    0.000    0.000    0.000    0.000 
#
# Total GULP energy -89399.238645 kJ/mol
# GULP energy per Si atom -5587.452415 kJ/mol
# Density = 2.563944 g / cm^3
# Si number density = 25.697929 Si / 1000 Ang^3
#
#
#
# Elastic Constant Matrix: (Units=GPa)
#
#
# Indices 1 2 3 4 5 6 
#
# 1 119.4258 9.1403 26.9572 3.2230 -13.8614 3.1677
# 2 9.1403 140.0945 33.5341 16.1845 -1.9854 5.9463
# 3 26.9572 33.5341 112.4903 -15.3041 -5.9515 17.4482
# 4 3.2230 16.1845 -15.3041 53.3090 9.1543 -7.4020
# 5 -13.8614 -1.9854 -5.9515 9.1543 40.6643 -0.0285
# 6 3.1677 5.9463 17.4482 -7.4020 -0.0285 38.1435
#
#
#
# Elastic Compliance Matrix: (Units=1/GPa)
#
#
# Indices 1 2 3 4 5 6 
#
# 1 0.009324 0.000228 -0.002372 -0.001887 0.003267 -0.000088
# 2 0.000228 0.008262 -0.002851 -0.003587 0.000871 -0.000698
# 3 -0.002372 -0.002851 0.011411 0.003773 -0.000130 -0.003846
# 4 -0.001887 -0.003587 0.003773 0.022420 -0.005311 0.003337
# 5 0.003267 0.000871 -0.000130 -0.005311 0.026923 -0.001358
# 6 -0.000088 -0.000698 -0.003846 0.003337 -0.001358 0.028739
#
#
# Mechanical properties :
#
#
# Convention : Reuss Voigt Hill
#
# Bulk Modulus (GPa) = 52.61728 56.80823 54.71275
# Shear Modulus (GPa) = 40.51643 46.58197 43.54920
#
# Velocity S-wave (km/s) = 3.97500 4.26217 4.12109
# Velocity P-wave (km/s) = 6.44882 6.80996 6.63185
#
# Compressibility (1/GPa) = 0.01900516
#
# Stress axis : x y z
#
# Youngs Moduli (GPa) = 107.25063 121.03553 87.63313
#
# Poissons Ratio (x) = -0.02755 0.20791
# Poissons Ratio (y) = -0.02441 0.24986
# Poissons Ratio (z) = 0.25445 0.34509
#
# Static dielectric constant tensor:
#      x y z
#    x 2.408470 0.366160 0.162050 
#    y 0.366160 2.758680 0.165970 
#    z 0.162050 0.165970 2.111610 
# 
# From -- ./inp_files/217166.got.cif
#   From: 2010.05.17/outbox.cif.g08.bks.cpg/sg2_109_cif.got.tgz:217166.got - 2010.06.03 11:33:40.
