data_PCOD9026749
_publ_section_title
;
Structure prediction by ZEFSAII (Michael W. Deem and Ramdas Pophale) SiO2 
 PCOD9026749
Probable space group: P -1
;
_chemical_formula_sum "Si O2"
_cell_formula_units_Z 14
_cell_length_a 4.857228
_cell_length_b 12.924722
_cell_length_c 13.291893
_cell_angle_alpha 53.351130
_cell_angle_beta 83.929005
_cell_angle_gamma 106.600374
_cell_volume 598.721158
_symmetry_space_group_name_H-M "P -1"
_symmetry_group_IT_number 2
_symmetry_cell_setting 'triclinic'
loop_
_space_group_symop_operation_xyz
x,y,z
-x,-y,-z
loop_
_atom_site_type_symbol
_atom_site_label
_atom_site_fract_x
_atom_site_fract_y
_atom_site_fract_z
Si Si1 0.734804 0.361859 0.140486
Si Si2 0.613259 0.585943 0.288813
Si Si3 0.564340 0.891481 0.850817
Si Si4 0.987195 0.125091 0.995868
Si Si5 0.191998 0.361424 0.276157
Si Si6 0.944147 0.819388 0.425541
Si Si7 0.326552 0.661385 0.445044
O O1 0.654455 0.229802 0.145891
O O2 0.415969 0.368006 0.173022
O O3 0.877604 0.350419 0.248832
O O4 0.000000 0.500000 0.000000
O O5 0.387307 0.499603 0.256821
O O6 0.424529 0.633961 0.347669
O O7 0.711830 0.473947 0.406167
O O8 0.899771 0.727499 0.156209
O O9 0.773651 0.842655 0.940369
O O10 0.349976 0.926697 0.915104
O O11 0.795221 0.026713 0.700056
O O12 0.000000 0.000000 0.000000
O O13 0.110236 0.224825 0.430587
O O14 0.045889 0.703111 0.438810
O O15 0.622401 0.793621 0.403836
#
# Coordination Sequence:
#
# PCOD9026749 Si02
#       7
#     2   2   2   2   2   2   2
#     4  12  25  44  64  92 126 165 214 259 311 366
#     4  10  22  41  65  95 128 167 213 257 320 371
#     4  12  26  43  66  92 132 170 203 265 316 368
#     4  12  25  42  67  97 129 167 208 254 317 387
#     4  11  24  40  66  91 122 167 214 262 300 373
#     4  11  23  43  63  96 128 163 215 256 320 375
#     4  10  23  39  66  95 130 165 204 268 314 377
#
# _framework density 23.383171000000001
#
# number of rings (size 3 to 8) (size 9 to 14) (size 15 to 20)
#    0.000    0.857    0.000    7.714    0.000   10.857 
#    0.000    0.000    0.000    0.000    0.000    0.000 
#    0.000    0.000    0.000    0.000    0.000    0.000 
#
# Total GULP energy -78500.784612 kJ/mol
# GULP energy per Si atom -5607.198901 kJ/mol
# Density = 2.332995 g / cm^3
# Si number density = 23.383171 Si / 1000 Ang^3
#
#
#
# Elastic Constant Matrix: (Units=GPa)
#
#
# Indices 1 2 3 4 5 6 
#
# 1 70.9232 -16.4855 14.3676 -0.7470 -8.8177 6.0505
# 2 -16.4855 79.9847 47.2539 -10.4628 -6.9698 18.9933
# 3 14.3676 47.2539 141.4994 -25.4528 -30.4361 7.2077
# 4 -0.7470 -10.4628 -25.4528 40.5804 9.8509 -10.4020
# 5 -8.8177 -6.9698 -30.4361 9.8509 37.9547 4.3836
# 6 6.0505 18.9933 7.2077 -10.4020 4.3836 36.5281
#
#
#
# Elastic Compliance Matrix: (Units=1/GPa)
#
#
# Indices 1 2 3 4 5 6 
#
# 1 0.017694 0.007495 -0.003521 -0.002905 0.004281 -0.007474
# 2 0.007495 0.020889 -0.007198 -0.002385 0.001761 -0.011573
# 3 -0.003521 -0.007198 0.011790 0.004755 0.005773 0.002660
# 4 -0.002905 -0.002385 0.004755 0.031249 -0.006620 0.010476
# 5 0.004281 0.001761 0.005773 -0.006620 0.035036 -0.008854
# 6 -0.007474 -0.011573 0.002660 0.010476 -0.008854 0.038153
#
#
# Mechanical properties :
#
#
# Convention : Reuss Voigt Hill
#
# Bulk Modulus (GPa) = 22.76530 42.51994 32.64262
# Shear Modulus (GPa) = 28.42532 39.49739 33.96136
#
# Velocity S-wave (km/s) = 3.49037 4.11437 3.81515
# Velocity P-wave (km/s) = 5.09907 6.38703 5.77904
#
# Compressibility (1/GPa) = 0.04392651
#
# Stress axis : x y z
#
# Youngs Moduli (GPa) = 56.51526 47.87194 84.81847
#
# Poissons Ratio (x) = -0.35879 0.29860
# Poissons Ratio (y) = -0.42357 0.61049
# Poissons Ratio (z) = 0.19896 0.34456
#
# Static dielectric constant tensor:
#      x y z
#    x 1.842120 -0.006220 0.018090 
#    y -0.006220 1.854870 -0.001080 
#    z 0.018090 -0.001080 1.871740 
# 
# From -- ./inp_files/363860.got.cif
#   From: 2010.05.17/outbox.cif.g08.bks.cpg/sg2_182_cif.got.tgz:363860.got - 2010.06.03 11:33:40.
