data_PCOD9026403
_publ_section_title
;
Structure prediction by ZEFSAII (Michael W. Deem and Ramdas Pophale) SiO2 
 PCOD9026403
Probable space group: P -1
;
_chemical_formula_sum "Si O2"
_cell_formula_units_Z 16
_cell_length_a 6.793111
_cell_length_b 10.050031
_cell_length_c 21.105560
_cell_angle_alpha 51.151092
_cell_angle_beta 134.683930
_cell_angle_gamma 125.078062
_cell_volume 774.291475
_symmetry_space_group_name_H-M "P -1"
_symmetry_group_IT_number 2
_symmetry_cell_setting 'triclinic'
loop_
_space_group_symop_operation_xyz
x,y,z
-x,-y,-z
loop_
_atom_site_type_symbol
_atom_site_label
_atom_site_fract_x
_atom_site_fract_y
_atom_site_fract_z
Si Si1 0.212696 0.453761 0.332997
Si Si2 0.805450 0.454180 0.907905
Si Si3 0.119259 0.759885 0.130320
Si Si4 0.297205 0.133629 0.911570
Si Si5 0.215791 0.090692 0.766608
Si Si6 0.263947 0.226925 0.290059
Si Si7 0.166839 0.352870 0.571742
Si Si8 0.120999 0.831824 0.560321
O O1 0.103065 0.604996 0.225553
O O2 0.281115 0.324467 0.332370
O O3 0.508707 0.557106 0.400673
O O4 0.006621 0.332064 0.372585
O O5 0.935660 0.342337 0.918432
O O6 0.505906 0.326163 0.897137
O O7 0.746515 0.624265 0.809039
O O8 0.000000 0.500000 0.000000
O O9 0.441856 0.880082 0.165804
O O10 0.903577 0.870155 0.072951
O O11 0.127339 0.093576 0.819012
O O12 0.500000 0.000000 0.000000
O O13 0.171742 0.256931 0.668285
O O14 0.029488 0.919723 0.741419
O O15 0.537254 0.144064 0.368814
O O16 0.000000 0.500000 0.500000
O O17 0.002005 0.221953 0.521013
O O18 0.000000 0.000000 0.500000
#
# Coordination Sequence:
#
# PCOD9026403 Si02
#       8
#     2   2   2   2   2   2   2   2
#     4  10  22  41  64  90 124 171 217 264 319 382
#     4  10  22  42  67  97 125 166 211 268 332 385
#     4   9  22  42  65  94 125 165 219 257 319 395
#     4  11  23  42  68  95 128 170 210 265 327 388
#     4  10  24  40  63  92 129 168 213 269 320 377
#     4  11  23  43  63  92 134 167 212 273 326 381
#     4  11  23  41  65  89 126 177 214 264 324 379
#     4  12  26  39  62  96 129 171 221 268 326 386
#
# _framework density 20.664051000000001
#
# number of rings (size 3 to 8) (size 9 to 14) (size 15 to 20)
#    0.000    1.500    1.250    3.375    3.500    6.500 
#    0.000    5.000    0.000    0.000    0.000    0.000 
#    0.000    0.000    0.000    0.000    0.000    0.000 
#
# Total GULP energy -89433.335767 kJ/mol
# GULP energy per Si atom -5589.583485 kJ/mol
# Density = 2.061702 g / cm^3
# Si number density = 20.664051 Si / 1000 Ang^3
#
#
#
# Elastic Constant Matrix: (Units=GPa)
#
#
# Indices 1 2 3 4 5 6 
#
# 1 92.3334 19.6229 48.2010 -7.2871 8.4882 -18.6808
# 2 19.6229 86.9670 32.5686 5.0311 17.1826 -7.7814
# 3 48.2010 32.5686 95.6938 10.5007 1.4916 -17.1610
# 4 -7.2871 5.0311 10.5007 29.9590 -5.0617 -8.5734
# 5 8.4882 17.1826 1.4916 -5.0617 28.8151 -11.0893
# 6 -18.6808 -7.7814 -17.1610 -8.5734 -11.0893 37.2985
#
#
#
# Elastic Compliance Matrix: (Units=1/GPa)
#
#
# Indices 1 2 3 4 5 6 
#
# 1 0.017456 -0.000744 -0.008320 0.009261 0.000012 0.006892
# 2 -0.000744 0.015581 -0.004964 -0.003903 -0.010860 -0.003532
# 3 -0.008320 -0.004964 0.017396 -0.005688 0.004614 0.002866
# 4 0.009261 -0.003903 -0.005688 0.045115 0.013860 0.015698
# 5 0.000012 -0.010860 0.004614 0.013860 0.050301 0.018004
# 6 0.006892 -0.003532 0.002866 0.015698 0.018004 0.039805
#
#
# Mechanical properties :
#
#
# Convention : Reuss Voigt Hill
#
# Bulk Modulus (GPa) = 44.68812 52.86436 48.77624
# Shear Modulus (GPa) = 22.60725 30.85465 26.73095
#
# Velocity S-wave (km/s) = 3.31121 3.86833 3.60056
# Velocity P-wave (km/s) = 6.02427 6.75206 6.39852
#
# Compressibility (1/GPa) = 0.02237731
#
# Stress axis : x y z
#
# Youngs Moduli (GPa) = 57.28754 64.18144 57.48413
#
# Poissons Ratio (x) = 0.04778 0.47825
# Poissons Ratio (y) = 0.04265 0.28533
# Poissons Ratio (z) = 0.47661 0.31857
#
# Static dielectric constant tensor:
#      x y z
#    x 1.750480 0.012140 -0.021640 
#    y 0.012140 1.715220 -0.011820 
#    z -0.021640 -0.011820 1.759550 
# 
# From -- ./inp_files/357804.got.cif
#   From: 2010.05.17/outbox.cif.g08.bks.cpg/sg2_179_cif.got.tgz:357804.got - 2010.06.03 11:33:40.
