data_PCOD9026650
_publ_section_title
;
Structure prediction by ZEFSAII (Michael W. Deem and Ramdas Pophale) SiO2 
 PCOD9026650
Probable space group: P -1
;
_chemical_formula_sum "Si O2"
_cell_formula_units_Z 14
_cell_length_a 8.939984
_cell_length_b 20.144795
_cell_length_c 7.970593
_cell_angle_alpha 55.834423
_cell_angle_beta 146.573724
_cell_angle_gamma 123.323194
_cell_volume 643.946079
_symmetry_space_group_name_H-M "P -1"
_symmetry_group_IT_number 2
_symmetry_cell_setting 'triclinic'
loop_
_space_group_symop_operation_xyz
x,y,z
-x,-y,-z
loop_
_atom_site_type_symbol
_atom_site_label
_atom_site_fract_x
_atom_site_fract_y
_atom_site_fract_z
Si Si1 0.162339 0.420072 0.976063
Si Si2 0.880834 0.753756 0.717975
Si Si3 0.655895 0.091617 0.527641
Si Si4 0.774116 0.821611 0.159234
Si Si5 0.368715 0.786196 0.386866
Si Si6 0.671624 0.512211 0.471281
Si Si7 0.066696 0.329970 0.663479
O O1 0.189754 0.343906 0.228970
O O2 0.417846 0.493058 0.131165
O O3 0.163710 0.380972 0.849335
O O4 0.878418 0.449691 0.714414
O O5 0.833509 0.795925 0.439545
O O6 0.668966 0.777990 0.620664
O O7 0.176337 0.775609 0.055591
O O8 0.629998 0.130017 0.632777
O O9 0.977502 0.106488 0.763693
O O10 0.500000 0.000000 0.500000
O O11 0.509024 0.147070 0.184638
O O12 0.797031 0.744673 0.170310
O O13 0.234473 0.715517 0.492600
O O14 0.500000 0.500000 0.500000
O O15 0.866189 0.600100 0.512326
#
# Coordination Sequence:
#
# PCOD9026650 Si02
#       7
#     2   2   2   2   2   2   2
#     4  11  23  40  60  85 121 165 205 258 308 359
#     4  11  22  42  64  94 126 162 212 256 307 366
#     4  11  23  43  66  95 127 163 204 249 307 377
#     4  11  24  41  67  94 123 164 206 257 307 366
#     4  10  22  41  65  90 124 167 205 255 309 374
#     4  12  25  39  58  88 123 161 207 265 310 350
#     4  10  23  40  62  88 120 164 213 250 305 374
#
# _framework density 21.740952
#
# number of rings (size 3 to 8) (size 9 to 14) (size 15 to 20)
#    0.000    1.143    0.000    7.714    0.000    6.857 
#    0.000    4.286    0.000    0.000    0.000    0.000 
#    0.000    0.000    0.000    0.000    0.000    0.000 
#
# Total GULP energy -78221.618256 kJ/mol
# GULP energy per Si atom -5587.258447 kJ/mol
# Density = 2.169147 g / cm^3
# Si number density = 21.740952 Si / 1000 Ang^3
#
#
#
# Elastic Constant Matrix: (Units=GPa)
#
#
# Indices 1 2 3 4 5 6 
#
# 1 99.2015 34.1226 3.6029 -6.4803 -12.7730 -3.0182
# 2 34.1226 102.7817 -10.8059 5.3050 -8.8424 -10.0763
# 3 3.6029 -10.8059 45.8826 3.6226 0.3042 3.8712
# 4 -6.4803 5.3050 3.6226 25.9246 1.5529 -7.0982
# 5 -12.7730 -8.8424 0.3042 1.5529 31.7997 1.0761
# 6 -3.0182 -10.0763 3.8712 -7.0982 1.0761 12.5160
#
#
#
# Elastic Compliance Matrix: (Units=1/GPa)
#
#
# Indices 1 2 3 4 5 6 
#
# 1 0.012440 -0.004055 -0.002599 0.004917 0.003552 0.003022
# 2 -0.004055 0.012278 0.002811 -0.002196 0.001640 0.006650
# 3 -0.002599 0.002811 0.024082 -0.007338 0.000204 -0.009991
# 4 0.004917 -0.002196 -0.007338 0.049610 -0.002003 0.029995
# 5 0.003552 0.001640 0.000204 -0.002003 0.033490 -0.001901
# 6 0.003022 0.006650 -0.009991 0.029995 -0.001901 0.106245
#
#
# Mechanical properties :
#
#
# Convention : Reuss Voigt Hill
#
# Bulk Modulus (GPa) = 24.32217 33.52278 28.92247
# Shear Modulus (GPa) = 19.26524 28.77780 24.02152
#
# Velocity S-wave (km/s) = 2.98002 3.64217 3.32761
# Velocity P-wave (km/s) = 4.80127 5.75672 5.30057
#
# Compressibility (1/GPa) = 0.04111476
#
# Stress axis : x y z
#
# Youngs Moduli (GPa) = 80.38423 81.44856 41.52506
#
# Poissons Ratio (x) = 0.33029 0.10791
# Poissons Ratio (y) = 0.32597 -0.11674
# Poissons Ratio (z) = 0.20889 -0.22898
#
# Static dielectric constant tensor:
#      x y z
#    x 1.820710 0.023970 -0.044260 
#    y 0.023970 1.781060 -0.006600 
#    z -0.044260 -0.006600 1.814960 
# 
# From -- ./inp_files/83005.got.cif
#   From: 2010.05.17/outbox.cif.g08.bks.cpg/sg2_42_cif.got.tgz:83005.got - 2010.06.03 11:33:40.
