data_PCOD9026323
_publ_section_title
;
Structure prediction by ZEFSAII (Michael W. Deem and Ramdas Pophale) SiO2 
 PCOD9026323
Probable space group: P -1
;
_chemical_formula_sum "Si O2"
_cell_formula_units_Z 14
_cell_length_a 5.039443
_cell_length_b 22.533723
_cell_length_c 12.047939
_cell_angle_alpha 25.237667
_cell_angle_beta 70.918040
_cell_angle_gamma 68.478174
_cell_volume 542.623157
_symmetry_space_group_name_H-M "P -1"
_symmetry_group_IT_number 2
_symmetry_cell_setting 'triclinic'
loop_
_space_group_symop_operation_xyz
x,y,z
-x,-y,-z
loop_
_atom_site_type_symbol
_atom_site_label
_atom_site_fract_x
_atom_site_fract_y
_atom_site_fract_z
Si Si1 0.183045 0.692165 0.932416
Si Si2 0.341853 0.700323 0.129518
Si Si3 0.806199 0.452491 0.392280
Si Si4 0.571552 0.902426 0.906704
Si Si5 0.997360 0.901269 0.416043
Si Si6 0.711736 0.104448 0.828003
Si Si7 0.316034 0.491237 0.927816
O O1 0.004512 0.796873 0.693343
O O2 0.185574 0.760082 0.938196
O O3 0.503901 0.651661 0.908859
O O4 0.055524 0.546543 0.198853
O O5 0.525676 0.556753 0.298133
O O6 0.144619 0.664053 0.319432
O O7 0.555110 0.795421 0.989493
O O8 0.743877 0.415107 0.336856
O O9 0.846420 0.968959 0.787082
O O10 0.453729 0.827509 0.156437
O O11 0.317847 0.034236 0.690560
O O12 0.192615 0.825794 0.415260
O O13 0.500000 0.000000 0.000000
O O14 0.000000 0.000000 0.000000
O O15 0.500000 0.500000 0.000000
O O16 0.000000 0.500000 0.000000
#
# Coordination Sequence:
#
# PCOD9026323 Si02
#       7
#     2   2   2   2   2   2   2
#     4  11  24  42  71  97 142 174 219 281 342 391
#     4  10  24  42  68  95 136 184 232 272 327 397
#     4  10  23  46  67  98 136 180 222 284 335 391
#     4  10  22  41  63  96 128 177 226 267 323 406
#     4  10  23  39  66  96 134 170 218 275 340 388
#     4   8  16  36  58  85 124 165 212 262 319 385
#     4  11  23  44  69 101 132 167 223 275 338 404
#
# _framework density 25.800595999999999
#
# number of rings (size 3 to 8) (size 9 to 14) (size 15 to 20)
#    0.000    2.000    1.429    0.429    6.000    2.286 
#    0.000    4.286    0.000    0.000    0.000    0.000 
#    0.000    0.000    0.000    0.000    0.000    0.000 
#
# Total GULP energy -78219.695546 kJ/mol
# GULP energy per Si atom -5587.121110 kJ/mol
# Density = 2.574187 g / cm^3
# Si number density = 25.800596 Si / 1000 Ang^3
#
#
#
# Elastic Constant Matrix: (Units=GPa)
#
#
# Indices 1 2 3 4 5 6 
#
# 1 128.1523 41.0378 26.0000 15.6620 -4.2999 8.7574
# 2 41.0378 160.4665 46.6098 39.8196 3.5239 37.2331
# 3 26.0000 46.6098 79.2861 18.9209 -7.5871 5.0616
# 4 15.6620 39.8196 18.9209 29.9779 10.7453 4.4656
# 5 -4.2999 3.5239 -7.5871 10.7453 22.2094 3.0606
# 6 8.7574 37.2331 5.0616 4.4656 3.0606 50.8601
#
#
#
# Elastic Compliance Matrix: (Units=1/GPa)
#
#
# Indices 1 2 3 4 5 6 
#
# 1 0.008961 -0.000943 -0.001078 -0.003909 0.003492 -0.000612
# 2 -0.000943 0.012837 -0.002369 -0.015952 0.005784 -0.007947
# 3 -0.001078 -0.002369 0.018513 -0.012514 0.012487 0.000425
# 4 -0.003909 -0.015952 -0.012514 0.077988 -0.041506 0.009247
# 5 0.003492 0.005784 0.012487 -0.041506 0.070048 -0.006649
# 6 -0.000612 -0.007947 0.000425 0.009247 -0.006649 0.025131
#
#
# Mechanical properties :
#
#
# Convention : Reuss Voigt Hill
#
# Bulk Modulus (GPa) = 31.71665 66.13334 48.92500
# Shear Modulus (GPa) = 21.48074 37.55997 29.52036
#
# Velocity S-wave (km/s) = 2.88856 3.81961 3.38623
# Velocity P-wave (km/s) = 4.84197 6.71868 5.85599
#
# Compressibility (1/GPa) = 0.03152918
#
# Stress axis : x y z
#
# Youngs Moduli (GPa) = 111.59926 77.90227 54.01637
#
# Poissons Ratio (x) = 0.07348 0.05823
# Poissons Ratio (y) = 0.10526 0.12798
# Poissons Ratio (z) = 0.12030 0.18457
#
# Static dielectric constant tensor:
#      x y z
#    x 2.007270 0.006360 0.023760 
#    y 0.006360 2.101930 -0.008530 
#    z 0.023760 -0.008530 2.123750 
# 
# From -- ./inp_files/370696.got.cif
#   From: 2010.05.17/outbox.cif.g08.bks.cpg/sg2_186_cif.got.tgz:370696.got - 2010.06.03 11:33:40.
