data_PCOD9026830
_publ_section_title
;
Structure prediction by ZEFSAII (Michael W. Deem and Ramdas Pophale) SiO2 
 PCOD9026830
Probable space group: P -1
;
_chemical_formula_sum "Si O2"
_cell_formula_units_Z 16
_cell_length_a 15.395860
_cell_length_b 18.637982
_cell_length_c 23.484474
_cell_angle_alpha 18.079253
_cell_angle_beta 20.547653
_cell_angle_gamma 29.822866
_cell_volume 718.058859
_symmetry_space_group_name_H-M "P -1"
_symmetry_group_IT_number 2
_symmetry_cell_setting 'triclinic'
loop_
_space_group_symop_operation_xyz
x,y,z
-x,-y,-z
loop_
_atom_site_type_symbol
_atom_site_label
_atom_site_fract_x
_atom_site_fract_y
_atom_site_fract_z
Si Si1 0.448976 0.715574 0.751662
Si Si2 0.098316 0.899606 0.345960
Si Si3 0.432820 0.183338 0.728548
Si Si4 0.799573 0.116727 0.999844
Si Si5 0.487798 0.133817 0.279730
Si Si6 0.898788 0.493846 0.262697
Si Si7 0.716417 0.668858 0.516156
Si Si8 0.566868 0.211772 0.877554
O O1 0.449172 0.689163 0.839438
O O2 0.643503 0.622215 0.662067
O O3 0.500000 0.000000 0.500000
O O4 0.170120 0.592741 0.994953
O O5 0.092067 0.706743 0.545018
O O6 0.208633 0.805884 0.291275
O O7 0.814188 0.933728 0.488556
O O8 0.306139 0.129871 0.064042
O O9 0.683340 0.384416 0.432273
O O10 0.194535 0.296446 0.805376
O O11 0.396773 0.077288 0.768192
O O12 0.439315 0.981065 0.923444
O O13 0.983962 0.266239 0.727440
O O14 0.639724 0.233219 0.054748
O O15 0.000000 0.000000 0.000000
O O16 0.593779 0.895782 0.406271
O O17 0.605095 0.460694 0.697871
#
# Coordination Sequence:
#
# PCOD9026830 Si02
#       8
#     2   2   2   2   2   2   2   2
#     4  10  22  41  65  98 132 168 218 275 319 392
#     4  10  24  43  65  99 136 171 222 272 323 396
#     4  10  22  41  67  93 130 180 219 265 330 391
#     4  10  22  41  65  98 132 168 218 275 319 392
#     4  10  23  41  66  94 132 175 214 274 331 383
#     4  10  22  41  67  93 130 180 219 265 330 391
#     4  10  23  41  66  94 132 175 214 274 331 383
#     4  10  24  43  65  99 136 171 222 272 323 396
#
# _framework density 22.282295999999999
#
# number of rings (size 3 to 8) (size 9 to 14) (size 15 to 20)
#    0.000    2.000    0.000    2.250   10.500    3.500 
#    0.000    2.500    0.000    0.000    0.000    0.000 
#    0.000    0.000    0.000    0.000    0.000    0.000 
#
# Total GULP energy -89465.222982 kJ/mol
# GULP energy per Si atom -5591.576436 kJ/mol
# Density = 2.223158 g / cm^3
# Si number density = 22.282296 Si / 1000 Ang^3
#
#
#
# Elastic Constant Matrix: (Units=GPa)
#
#
# Indices 1 2 3 4 5 6 
#
# 1 85.1748 45.8915 26.4583 14.6883 -5.9401 37.1281
# 2 45.8915 139.8718 53.3601 19.8543 -9.6257 30.3397
# 3 26.4583 53.3601 86.4853 24.8276 -1.1504 26.8940
# 4 14.6883 19.8543 24.8276 46.3792 4.3346 4.8583
# 5 -5.9401 -9.6257 -1.1504 4.3346 25.7616 -0.3989
# 6 37.1281 30.3397 26.8940 4.8583 -0.3989 50.3586
#
#
#
# Elastic Compliance Matrix: (Units=1/GPa)
#
#
# Indices 1 2 3 4 5 6 
#
# 1 0.019754 -0.003287 0.001346 -0.004596 0.003961 -0.012828
# 2 -0.003287 0.010745 -0.004845 -0.001126 0.003209 -0.001329
# 3 0.001346 -0.004845 0.018582 -0.007585 0.000494 -0.007262
# 4 -0.004596 -0.001126 -0.007585 0.027589 -0.006378 0.005406
# 5 0.003961 0.003209 0.000494 -0.006378 0.041961 -0.004170
# 6 -0.012828 -0.001329 -0.007262 0.005406 -0.004170 0.033439
#
#
# Mechanical properties :
#
#
# Convention : Reuss Voigt Hill
#
# Bulk Modulus (GPa) = 28.16177 62.55017 45.35597
# Shear Modulus (GPa) = 28.17234 36.88803 32.53018
#
# Velocity S-wave (km/s) = 3.55961 4.07318 3.82502
# Velocity P-wave (km/s) = 5.43696 7.08898 6.31721
#
# Compressibility (1/GPa) = 0.03550913
#
# Stress axis : x y z
#
# Youngs Moduli (GPa) = 50.62236 93.06587 53.81482
#
# Poissons Ratio (x) = 0.30593 -0.07243
# Poissons Ratio (y) = 0.16641 0.26072
# Poissons Ratio (z) = -0.06813 0.45088
#
# Static dielectric constant tensor:
#      x y z
#    x 1.910470 -0.015360 0.064930 
#    y -0.015360 1.820760 -0.010250 
#    z 0.064930 -0.010250 1.853500 
# 
# From -- ./inp_files/263095.got.cif
#   From: 2010.05.17/outbox.cif.g08.bks.cpg/sg2_132_cif.got.tgz:263095.got - 2010.06.03 11:33:40.
