data_PCOD9026944
_publ_section_title
;
Structure prediction by ZEFSAII (Michael W. Deem and Ramdas Pophale) SiO2 
 PCOD9026944
Probable space group: P -1
;
_chemical_formula_sum "Si O2"
_cell_formula_units_Z 16
_cell_length_a 10.432933
_cell_length_b 9.430900
_cell_length_c 8.122067
_cell_angle_alpha 120.657702
_cell_angle_beta 103.337436
_cell_angle_gamma 77.757046
_cell_volume 664.636610
_symmetry_space_group_name_H-M "P -1"
_symmetry_group_IT_number 2
_symmetry_cell_setting 'triclinic'
loop_
_space_group_symop_operation_xyz
x,y,z
-x,-y,-z
loop_
_atom_site_type_symbol
_atom_site_label
_atom_site_fract_x
_atom_site_fract_y
_atom_site_fract_z
Si Si1 0.394295 0.593214 0.172840
Si Si2 0.151146 0.484855 0.469587
Si Si3 0.976944 0.351066 0.777519
Si Si4 0.786823 0.100092 0.602479
Si Si5 0.480561 0.727382 0.924475
Si Si6 0.747038 0.604373 0.237619
Si Si7 0.336134 0.163010 0.387423
Si Si8 0.619646 0.032550 0.224845
O O1 0.325643 0.744664 0.338826
O O2 0.475014 0.458843 0.236409
O O3 0.445487 0.673340 0.066788
O O4 0.291903 0.481387 0.988979
O O5 0.131644 0.582189 0.352616
O O6 0.224394 0.531026 0.686925
O O7 0.234656 0.304524 0.352224
O O8 0.000000 0.500000 0.500000
O O9 0.922447 0.181437 0.719678
O O10 0.117622 0.317029 0.707133
O O11 0.000000 0.500000 0.000000
O O12 0.749203 0.022977 0.371285
O O13 0.747814 0.983801 0.669877
O O14 0.375516 0.838315 0.847125
O O15 0.595323 0.850437 0.045307
O O16 0.643008 0.741025 0.376338
O O17 0.476980 0.096422 0.310517
#
# Coordination Sequence:
#
# PCOD9026944 Si02
#       8
#     2   2   2   2   2   2   2   2
#     4  11  22  39  64  95 126 168 212 256 320 374
#     4   8  20  41  65  86 119 170 206 255 313 375
#     4  11  22  42  63  94 125 159 216 267 310 367
#     4  12  25  38  66  96 129 168 213 261 315 379
#     4  10  25  41  61  94 132 169 207 262 314 379
#     4   9  21  40  67  84 127 164 209 256 314 373
#     4  10  22  41  66  91 127 168 209 258 324 370
#     4  11  24  43  62  93 134 166 213 259 317 379
#
# _framework density 24.073302000000002
#
# number of rings (size 3 to 8) (size 9 to 14) (size 15 to 20)
#    0.750    1.000    2.500    1.125    7.000    1.000 
#    0.000    0.625    0.000    0.000    0.000    0.000 
#    0.000    0.000    0.000    0.000    0.000    0.000 
#
# Total GULP energy -89075.405087 kJ/mol
# GULP energy per Si atom -5567.212818 kJ/mol
# Density = 2.401851 g / cm^3
# Si number density = 24.073302 Si / 1000 Ang^3
#
#
#
# Elastic Constant Matrix: (Units=GPa)
#
#
# Indices 1 2 3 4 5 6 
#
# 1 83.5860 35.4992 11.8068 3.7025 9.0772 13.0679
# 2 35.4992 152.8708 11.2049 -0.5796 4.6252 8.2712
# 3 11.8068 11.2049 52.6627 -5.3530 6.1183 1.1133
# 4 3.7025 -0.5796 -5.3530 28.3473 -1.5836 3.1349
# 5 9.0772 4.6252 6.1183 -1.5836 29.0900 6.5853
# 6 13.0679 8.2712 1.1133 3.1349 6.5853 43.0053
#
#
#
# Elastic Compliance Matrix: (Units=1/GPa)
#
#
# Indices 1 2 3 4 5 6 
#
# 1 0.014463 -0.002929 -0.002437 -0.002224 -0.002941 -0.003156
# 2 -0.002929 0.007312 -0.000853 0.000435 0.000076 -0.000538
# 3 -0.002437 -0.000853 0.020490 0.003917 -0.003336 0.000599
# 4 -0.002224 0.000435 0.003917 0.036731 0.002378 -0.002551
# 5 -0.002941 0.000076 -0.003336 0.002378 0.037224 -0.004908
# 6 -0.003156 -0.000538 0.000599 -0.002551 -0.004908 0.025237
#
#
# Mechanical properties :
#
#
# Convention : Reuss Voigt Hill
#
# Bulk Modulus (GPa) = 33.52478 45.12680 39.32579
# Shear Modulus (GPa) = 30.51817 35.46242 32.99029
#
# Velocity S-wave (km/s) = 3.56437 3.84226 3.70592
# Velocity P-wave (km/s) = 5.55841 6.20244 5.88924
#
# Compressibility (1/GPa) = 0.02982868
#
# Stress axis : x y z
#
# Youngs Moduli (GPa) = 69.14122 136.75239 48.80520
#
# Poissons Ratio (x) = 0.40050 0.11894
# Poissons Ratio (y) = 0.20249 0.04161
# Poissons Ratio (z) = 0.16851 0.11659
#
# Static dielectric constant tensor:
#      x y z
#    x 2.062690 -0.009380 -0.008090 
#    y -0.009380 1.971970 0.024190 
#    z -0.008090 0.024190 1.990310 
# 
# From -- ./inp_files/240639.got.cif
#   From: 2010.05.17/outbox.cif.g08.bks.cpg/sg2_121_cif.got.tgz:240639.got - 2010.06.03 11:33:40.
