data_PCOD9026759
_publ_section_title
;
Structure prediction by ZEFSAII (Michael W. Deem and Ramdas Pophale) SiO2 
 PCOD9026759
Probable space group: P -1
;
_chemical_formula_sum "Si O2"
_cell_formula_units_Z 14
_cell_length_a 11.836355
_cell_length_b 11.408366
_cell_length_c 14.078808
_cell_angle_alpha 30.653674
_cell_angle_beta 141.086781
_cell_angle_gamma 130.898058
_cell_volume 608.205960
_symmetry_space_group_name_H-M "P -1"
_symmetry_group_IT_number 2
_symmetry_cell_setting 'triclinic'
loop_
_space_group_symop_operation_xyz
x,y,z
-x,-y,-z
loop_
_atom_site_type_symbol
_atom_site_label
_atom_site_fract_x
_atom_site_fract_y
_atom_site_fract_z
Si Si1 0.228251 0.401205 0.899799
Si Si2 0.913259 0.276306 0.055465
Si Si3 0.798422 0.971242 0.347013
Si Si4 0.882112 0.229303 0.728438
Si Si5 0.694841 0.469062 0.601753
Si Si6 0.569517 0.134081 0.257902
Si Si7 0.765692 0.948933 0.679023
O O1 0.309328 0.646335 0.797704
O O2 0.035233 0.412673 0.715327
O O3 0.368072 0.239868 0.042673
O O4 0.227323 0.271374 0.092348
O O5 0.073484 0.094141 0.261071
O O6 0.779281 0.166720 0.118409
O O7 0.817679 0.344171 0.848544
O O8 0.000000 0.500000 0.000000
O O9 0.772098 0.720454 0.462099
O O10 0.652516 0.006407 0.310390
O O11 0.000000 0.000000 0.500000
O O12 0.720439 0.314123 0.632780
O O13 0.807479 0.164180 0.623007
O O14 0.000000 0.000000 0.000000
O O15 0.500000 0.500000 0.500000
O O16 0.592377 0.987283 0.472069
#
# Coordination Sequence:
#
# PCOD9026759 Si02
#       7
#     2   2   2   2   2   2   2
#     4  10  22  41  65  95 132 168 223 274 335 392
#     4  12  23  44  73  99 133 187 228 283 343 407
#     4  12  24  42  72 100 137 180 234 276 344 409
#     4  10  22  44  68  90 136 177 217 268 343 407
#     4  12  27  47  69 103 141 180 230 289 342 407
#     4  11  23  40  65 101 130 168 225 286 317 402
#     4  11  22  40  69  94 128 177 223 267 342 399
#
# _framework density 23.018516000000002
#
# number of rings (size 3 to 8) (size 9 to 14) (size 15 to 20)
#    0.000    0.857    5.714    2.143    4.000    1.143 
#    7.714    0.000    0.000    0.000    0.000    0.000 
#    0.000    0.000    0.000    0.000    0.000    0.000 
#
# Total GULP energy -78344.692872 kJ/mol
# GULP energy per Si atom -5596.049491 kJ/mol
# Density = 2.296613 g / cm^3
# Si number density = 23.018516 Si / 1000 Ang^3
#
#
#
# Elastic Constant Matrix: (Units=GPa)
#
#
# Indices 1 2 3 4 5 6 
#
# 1 132.6827 40.6501 26.4874 -8.7083 17.0889 -24.4780
# 2 40.6501 92.3625 19.1123 -12.4265 4.8050 -12.2149
# 3 26.4874 19.1123 55.1433 -7.6834 2.1655 -8.9309
# 4 -8.7083 -12.4265 -7.6834 27.9228 5.2594 3.2375
# 5 17.0889 4.8050 2.1655 5.2594 57.6894 -6.4219
# 6 -24.4780 -12.2149 -8.9309 3.2375 -6.4219 48.5137
#
#
#
# Elastic Compliance Matrix: (Units=1/GPa)
#
#
# Indices 1 2 3 4 5 6 
#
# 1 0.010074 -0.003117 -0.002984 0.000980 -0.002326 0.003376
# 2 -0.003117 0.013425 -0.002374 0.004302 -0.000383 0.001033
# 3 -0.002984 -0.002374 0.021144 0.003625 0.000132 0.001565
# 4 0.000980 0.004302 0.003625 0.040006 -0.004546 -0.001027
# 5 -0.002326 -0.000383 0.000132 -0.004546 0.018634 0.001524
# 6 0.003376 0.001033 0.001565 -0.001027 0.001524 0.023134
#
#
# Mechanical properties :
#
#
# Convention : Reuss Voigt Hill
#
# Bulk Modulus (GPa) = 36.11027 50.29869 43.20448
# Shear Modulus (GPa) = 32.76555 39.75443 36.25999
#
# Velocity S-wave (km/s) = 3.77695 4.16030 3.97325
# Velocity P-wave (km/s) = 5.89423 6.70644 6.31341
#
# Compressibility (1/GPa) = 0.02769295
#
# Stress axis : x y z
#
# Youngs Moduli (GPa) = 99.26447 74.48641 47.29463
#
# Poissons Ratio (x) = 0.23217 0.14113
# Poissons Ratio (y) = 0.30940 0.11229
# Poissons Ratio (z) = 0.29621 0.17685
#
# Static dielectric constant tensor:
#      x y z
#    x 1.931260 0.048400 0.040840 
#    y 0.048400 1.842980 0.010010 
#    z 0.040840 0.010010 1.912260 
# 
# From -- ./inp_files/434138.got.cif
#   From: 2010.05.17/outbox.cif.g08.bks.cpg/sg2_218_cif.got.tgz:434138.got - 2010.06.03 11:33:40.
