data_PCOD9026221
_publ_section_title
;
Structure prediction by ZEFSAII (Michael W. Deem and Ramdas Pophale) SiO2 
 PCOD9026221
Probable space group: P -1
;
_chemical_formula_sum "Si O2"
_cell_formula_units_Z 12
_cell_length_a 13.414917
_cell_length_b 9.940842
_cell_length_c 13.353054
_cell_angle_alpha 125.234247
_cell_angle_beta 142.020859
_cell_angle_gamma 31.187268
_cell_volume 540.290877
_symmetry_space_group_name_H-M "P -1"
_symmetry_group_IT_number 2
_symmetry_cell_setting 'triclinic'
loop_
_space_group_symop_operation_xyz
x,y,z
-x,-y,-z
loop_
_atom_site_type_symbol
_atom_site_label
_atom_site_fract_x
_atom_site_fract_y
_atom_site_fract_z
Si Si1 0.725010 0.691377 0.802175
Si Si2 0.087054 0.986305 0.222036
Si Si3 0.876123 0.162835 0.340398
Si Si4 0.313655 0.561699 0.498321
Si Si5 0.543922 0.777071 0.905425
Si Si6 0.876934 0.853464 0.874530
O O1 0.752533 0.529340 0.670516
O O2 0.527234 0.801647 0.781913
O O3 0.669205 0.903448 0.787869
O O4 0.000000 0.500000 0.000000
O O5 0.366741 0.677922 0.346201
O O6 0.918003 0.985614 0.028672
O O7 0.920772 0.179911 0.269309
O O8 0.171390 0.055737 0.238610
O O9 0.788984 0.372929 0.440339
O O10 0.660036 0.189449 0.193906
O O11 0.149927 0.852389 0.457191
O O12 0.838329 0.472930 0.037604
O O13 0.500000 0.000000 0.000000
#
# Coordination Sequence:
#
# PCOD9026221 Si02
#       6
#     2   2   2   2   2   2
#     4  10  22  41  63  88 125 165 207 260 308 365
#     4  11  23  43  65  92 130 166 203 258 314 374
#     4  11  23  37  66  98 122 163 213 258 311 369
#     4  11  24  40  65  92 128 165 209 261 310 367
#     4  11  21  39  65  97 123 162 214 261 305 366
#     4  10  22  43  64  90 130 168 206 253 315 372
#
# _framework density 22.210260000000002
#
# number of rings (size 3 to 8) (size 9 to 14) (size 15 to 20)
#    0.000    1.333    1.667    5.500    4.667    1.333 
#    3.000    0.833    0.000    0.000    0.000    0.000 
#    0.000    0.000    0.000    0.000    0.000    0.000 
#
# Total GULP energy -67049.252304 kJ/mol
# GULP energy per Si atom -5587.437692 kJ/mol
# Density = 2.215971 g / cm^3
# Si number density = 22.210260 Si / 1000 Ang^3
#
#
#
# Elastic Constant Matrix: (Units=GPa)
#
#
# Indices 1 2 3 4 5 6 
#
# 1 144.3063 31.7428 39.7118 6.4031 -29.4892 -12.3310
# 2 31.7428 47.7205 11.3995 19.5702 -16.3889 -9.9537
# 3 39.7118 11.3995 81.3783 31.4840 -12.9833 -15.7987
# 4 6.4031 19.5702 31.4840 39.3732 -16.2828 -7.2575
# 5 -29.4892 -16.3889 -12.9833 -16.2828 35.3189 13.4241
# 6 -12.3310 -9.9537 -15.7987 -7.2575 13.4241 32.9290
#
#
#
# Elastic Compliance Matrix: (Units=1/GPa)
#
#
# Indices 1 2 3 4 5 6 
#
# 1 0.012655 -0.008821 -0.009124 0.013358 0.010691 -0.003719
# 2 -0.008821 0.035027 0.009344 -0.022435 -0.000725 0.007119
# 3 -0.009124 0.009344 0.025899 -0.025970 -0.009534 0.009996
# 4 0.013358 -0.022435 -0.025970 0.063294 0.024242 -0.010172
# 5 0.010691 -0.000725 -0.009534 0.024242 0.050700 -0.016116
# 6 -0.003719 0.007119 0.009996 -0.010172 -0.016116 0.040251
#
#
# Mechanical properties :
#
#
# Convention : Reuss Voigt Hill
#
# Bulk Modulus (GPa) = 17.73719 48.79038 33.26378
# Shear Modulus (GPa) = 18.95220 34.22764 26.58992
#
# Velocity S-wave (km/s) = 2.92431 3.92991 3.46380
# Velocity P-wave (km/s) = 4.40517 6.52744 5.56835
#
# Compressibility (1/GPa) = 0.05637872
#
# Stress axis : x y z
#
# Youngs Moduli (GPa) = 79.01955 28.54951 38.61135
#
# Poissons Ratio (x) = 0.25182 0.35230
# Poissons Ratio (y) = 0.69699 -0.36077
# Poissons Ratio (z) = 0.72100 -0.26676
#
# Static dielectric constant tensor:
#      x y z
#    x 1.930840 -0.008890 0.012080 
#    y -0.008890 1.800040 0.004400 
#    z 0.012080 0.004400 1.861910 
# 
# From -- ./inp_files/245232.got.cif
#   From: 2010.05.17/outbox.cif.g08.bks.cpg/sg2_123_cif.got.tgz:245232.got - 2010.06.03 11:33:40.
