data_PCOD9026540
_publ_section_title
;
Structure prediction by ZEFSAII (Michael W. Deem and Ramdas Pophale) SiO2 
 PCOD9026540
Probable space group: P -1
;
_chemical_formula_sum "Si O2"
_cell_formula_units_Z 16
_cell_length_a 8.717314
_cell_length_b 14.673918
_cell_length_c 18.209054
_cell_angle_alpha 29.532794
_cell_angle_beta 140.083659
_cell_angle_gamma 141.915012
_cell_volume 681.865795
_symmetry_space_group_name_H-M "P -1"
_symmetry_group_IT_number 2
_symmetry_cell_setting 'triclinic'
loop_
_space_group_symop_operation_xyz
x,y,z
-x,-y,-z
loop_
_atom_site_type_symbol
_atom_site_label
_atom_site_fract_x
_atom_site_fract_y
_atom_site_fract_z
Si Si1 0.850766 0.570246 0.650563
Si Si2 0.998046 0.010105 0.174394
Si Si3 0.923342 0.387307 0.144992
Si Si4 0.390258 0.091917 0.141149
Si Si5 0.619499 0.094999 0.877913
Si Si6 0.572949 0.292738 0.518822
Si Si7 0.955713 0.186567 0.168352
Si Si8 0.054850 0.628078 0.522932
O O1 0.709915 0.332060 0.753045
O O2 0.636655 0.642387 0.560253
O O3 0.058354 0.616636 0.759067
O O4 0.997710 0.657932 0.566637
O O5 0.974284 0.787212 0.336255
O O6 0.123374 0.128114 0.211970
O O7 0.184929 0.116412 0.102577
O O8 0.729005 0.016135 0.043371
O O9 0.627485 0.299447 0.071743
O O10 0.034785 0.244263 0.240538
O O11 0.066716 0.613877 0.013242
O O12 0.274146 0.984326 0.098369
O O13 0.498226 0.940892 0.328882
O O14 0.316989 0.996689 0.813602
O O15 0.667592 0.344634 0.431573
O O16 0.843464 0.412359 0.576235
#
# Coordination Sequence:
#
# PCOD9026540 Si02
#       8
#     2   2   2   2   2   2   2   2
#     4  12  23  42  70  97 127 177 215 266 323 385
#     4  11  22  40  68  95 128 165 211 278 325 372
#     4  10  24  42  61  93 130 172 216 257 322 395
#     4  10  23  43  62  94 133 168 213 265 323 389
#     4  11  22  40  70  98 121 164 224 266 323 385
#     4  10  22  41  64  95 136 168 211 272 321 383
#     4  10  22  42  62  93 130 164 213 269 323 382
#     4  10  23  40  64 101 131 163 217 269 329 376
#
# _framework density 23.465026999999999
#
# number of rings (size 3 to 8) (size 9 to 14) (size 15 to 20)
#    0.000    1.500    2.500    1.875    5.250    1.000 
#    2.250    1.250    0.000    0.000    0.000    0.000 
#    0.000    0.000    0.000    0.000    0.000    0.000 
#
# Total GULP energy -89181.638737 kJ/mol
# GULP energy per Si atom -5573.852421 kJ/mol
# Density = 2.341162 g / cm^3
# Si number density = 23.465027 Si / 1000 Ang^3
#
#
#
# Elastic Constant Matrix: (Units=GPa)
#
#
# Indices 1 2 3 4 5 6 
#
# 1 171.4493 37.3457 20.0161 11.2993 -14.9096 -20.0893
# 2 37.3457 78.8219 16.6076 -10.5991 -1.9612 -11.7193
# 3 20.0161 16.6076 34.4664 -0.5680 -10.4732 4.4981
# 4 11.2993 -10.5991 -0.5680 13.5254 -4.6151 -4.2296
# 5 -14.9096 -1.9612 -10.4732 -4.6151 34.8586 0.2308
# 6 -20.0893 -11.7193 4.4981 -4.2296 0.2308 31.0391
#
#
#
# Elastic Compliance Matrix: (Units=1/GPa)
#
#
# Indices 1 2 3 4 5 6 
#
# 1 0.008035 -0.003843 -0.002991 -0.008506 0.001176 0.003015
# 2 -0.003843 0.020725 -0.008721 0.022003 -0.000248 0.009602
# 3 -0.002991 -0.008721 0.039353 -0.002924 0.009742 -0.011402
# 4 -0.008506 0.022003 -0.002924 0.107415 0.010825 0.017783
# 5 0.001176 -0.000248 0.009742 0.010825 0.033533 0.000481
# 6 0.003015 0.009602 -0.011402 0.017783 0.000481 0.041866
#
#
# Mechanical properties :
#
#
# Convention : Reuss Voigt Hill
#
# Bulk Modulus (GPa) = 27.02397 48.07515 37.54956
# Shear Modulus (GPa) = 16.98532 29.93583 23.46058
#
# Velocity S-wave (km/s) = 2.69338 3.57566 3.16541
# Velocity P-wave (km/s) = 4.60587 6.13022 5.42188
#
# Compressibility (1/GPa) = 0.03700418
#
# Stress axis : x y z
#
# Youngs Moduli (GPa) = 124.45538 48.25032 25.41107
#
# Poissons Ratio (x) = 0.18543 0.07600
# Poissons Ratio (y) = 0.47828 0.22160
# Poissons Ratio (z) = 0.37223 0.42077
#
# Static dielectric constant tensor:
#      x y z
#    x 2.104620 -0.000280 0.009210 
#    y -0.000280 1.837390 0.007360 
#    z 0.009210 0.007360 1.898930 
# 
# From -- ./inp_files/281940.got.cif
#   From: 2010.05.17/outbox.cif.g08.bks.cpg/sg2_141_cif.got.tgz:281940.got - 2010.06.03 11:33:40.
