data_PCOD9026992
_publ_section_title
;
Structure prediction by ZEFSAII (Michael W. Deem and Ramdas Pophale) SiO2 
 PCOD9026992
Probable space group: P -1
;
_chemical_formula_sum "Si O2"
_cell_formula_units_Z 16
_cell_length_a 19.634793
_cell_length_b 12.819582
_cell_length_c 8.142477
_cell_angle_alpha 81.870544
_cell_angle_beta 114.313080
_cell_angle_gamma 42.935355
_cell_volume 891.569963
_symmetry_space_group_name_H-M "P -1"
_symmetry_group_IT_number 2
_symmetry_cell_setting 'triclinic'
loop_
_space_group_symop_operation_xyz
x,y,z
-x,-y,-z
loop_
_atom_site_type_symbol
_atom_site_label
_atom_site_fract_x
_atom_site_fract_y
_atom_site_fract_z
Si Si1 0.544651 0.332453 0.779311
Si Si2 0.883761 0.575920 0.027103
Si Si3 0.799935 0.765768 0.386052
Si Si4 0.422514 0.718143 0.562132
Si Si5 0.891797 0.796736 0.901915
Si Si6 0.518208 0.734453 0.956758
Si Si7 0.118210 0.137361 0.756960
Si Si8 0.789371 0.565774 0.228293
O O1 0.458071 0.550614 0.648267
O O2 0.545207 0.292560 0.596922
O O3 0.480557 0.334209 0.856691
O O4 0.727052 0.121695 0.053411
O O5 0.775000 0.646563 0.025061
O O6 0.045123 0.408413 0.316159
O O7 0.948654 0.419008 0.986428
O O8 0.822355 0.763806 0.862573
O O9 0.829852 0.808054 0.253649
O O10 0.785287 0.664420 0.336370
O O11 0.643150 0.000744 0.259786
O O12 0.242507 0.967754 0.364207
O O13 0.516300 0.664144 0.807822
O O14 0.922701 0.809546 0.105203
O O15 0.660200 0.639337 0.112145
O O16 0.963897 0.303019 0.466022
#
# Coordination Sequence:
#
# PCOD9026992 Si02
#       8
#     2   2   2   2   2   2   2   2
#     4   9  21  39  64  78 102 140 193 233 267 314
#     4  10  18  31  54  81 107 145 183 217 258 323
#     4  10  17  34  52  77 109 148 182 211 257 333
#     4  10  20  39  61  83 101 141 192 233 263 318
#     4  10  17  31  57  80 103 137 195 221 255 313
#     4  11  22  36  56  84 115 142 175 224 285 326
#     4   9  17  33  58  76 103 143 185 222 260 316
#     4  11  20  34  51  83 116 145 171 218 280 330
#
# _framework density 17.945869999999999
#
# number of rings (size 3 to 8) (size 9 to 14) (size 15 to 20)
#    0.000    2.000    3.750    1.500    0.000    0.000 
#    2.250    1.250    0.000    2.250    0.000    0.000 
#    0.000    0.000    0.000    0.000    0.000    0.000 
#
# Total GULP energy -89147.860587 kJ/mol
# GULP energy per Si atom -5571.741287 kJ/mol
# Density = 1.790502 g / cm^3
# Si number density = 17.945870 Si / 1000 Ang^3
#
#
#
# Elastic Constant Matrix: (Units=GPa)
#
#
# Indices 1 2 3 4 5 6 
#
# 1 84.5724 30.6221 33.5217 -2.8004 5.2545 -10.1842
# 2 30.6221 63.4206 15.3377 -14.2696 0.2052 -2.2323
# 3 33.5217 15.3377 48.4719 -11.2116 -4.1324 2.9375
# 4 -2.8004 -14.2696 -11.2116 32.1856 3.6659 -9.5872
# 5 5.2545 0.2052 -4.1324 3.6659 26.1239 -4.3591
# 6 -10.1842 -2.2323 2.9375 -9.5872 -4.3591 17.3288
#
#
#
# Elastic Compliance Matrix: (Units=1/GPa)
#
#
# Indices 1 2 3 4 5 6 
#
# 1 0.021725 -0.007066 -0.014387 -0.002190 -0.004279 0.012008
# 2 -0.007066 0.021597 0.000214 0.010289 0.000581 0.004431
# 3 -0.014387 0.000214 0.033182 0.007177 0.005690 -0.008651
# 4 -0.002190 0.010289 0.007177 0.045049 -0.000902 0.023518
# 5 -0.004279 0.000581 0.005690 -0.000902 0.041242 0.006471
# 6 0.012008 0.004431 -0.008651 0.023518 0.006471 0.081441
#
#
# Mechanical properties :
#
#
# Convention : Reuss Voigt Hill
#
# Bulk Modulus (GPa) = 29.39093 39.49198 34.44146
# Shear Modulus (GPa) = 16.77533 22.92656 19.85095
#
# Velocity S-wave (km/s) = 3.06072 3.57815 3.32950
# Velocity P-wave (km/s) = 5.37623 6.25498 5.83218
#
# Compressibility (1/GPa) = 0.03402410
#
# Stress axis : x y z
#
# Youngs Moduli (GPa) = 46.03022 46.30272 30.13673
#
# Poissons Ratio (x) = 0.32720 0.43359
# Poissons Ratio (y) = 0.32527 -0.00645
# Poissons Ratio (z) = 0.66225 -0.00990
#
# Static dielectric constant tensor:
#      x y z
#    x 1.601590 -0.035760 -0.053090 
#    y -0.035760 1.658960 0.006640 
#    z -0.053090 0.006640 1.646950 
# 
# From -- ./inp_files/163380.got.cif
#   From: 2010.05.17/outbox.cif.g08.bks.cpg/sg2_82_cif.got.tgz:163380.got - 2010.06.03 11:33:40.
