data_PCOD9026614
_publ_section_title
;
Structure prediction by ZEFSAII (Michael W. Deem and Ramdas Pophale) SiO2 
 PCOD9026614
Probable space group: P -1
;
_chemical_formula_sum "Si O2"
_cell_formula_units_Z 16
_cell_length_a 8.245075
_cell_length_b 8.732107
_cell_length_c 14.662791
_cell_angle_alpha 137.467191
_cell_angle_beta 70.737474
_cell_angle_gamma 109.276716
_cell_volume 667.402511
_symmetry_space_group_name_H-M "P -1"
_symmetry_group_IT_number 2
_symmetry_cell_setting 'triclinic'
loop_
_space_group_symop_operation_xyz
x,y,z
-x,-y,-z
loop_
_atom_site_type_symbol
_atom_site_label
_atom_site_fract_x
_atom_site_fract_y
_atom_site_fract_z
Si Si1 0.269778 0.144607 0.787280
Si Si2 0.591154 0.791728 0.858546
Si Si3 0.351772 0.334990 0.655047
Si Si4 0.887248 0.966491 0.734425
Si Si5 0.098591 0.421856 0.574628
Si Si6 0.918503 0.741982 0.873096
Si Si7 0.404953 0.702761 0.560026
Si Si8 0.854943 0.463331 0.933409
O O1 0.297588 0.202789 0.700088
O O2 0.384139 0.951384 0.714934
O O3 0.291990 0.385955 0.941662
O O4 0.065137 0.044103 0.791422
O O5 0.441007 0.589340 0.774316
O O6 0.727564 0.852075 0.776397
O O7 0.714738 0.735280 0.892451
O O8 0.500000 0.000000 0.000000
O O9 0.205410 0.354860 0.614635
O O10 0.504829 0.241382 0.528544
O O11 0.946783 0.813638 0.574380
O O12 0.816593 0.193504 0.808997
O O13 0.212163 0.572699 0.543093
O O14 0.979589 0.599465 0.713905
O O15 0.946850 0.581560 0.881014
O O16 0.000000 0.000000 0.000000
O O17 0.500000 0.500000 0.500000
O O18 0.000000 0.500000 0.000000
#
# Coordination Sequence:
#
# PCOD9026614 Si02
#       8
#     2   2   2   2   2   2   2   2
#     4  11  23  43  73  99 142 189 238 300 353 427
#     4  12  26  46  71 105 148 191 239 295 358 432
#     4  11  24  44  67 103 144 187 232 296 367 418
#     4  11  24  44  75 105 141 187 244 299 356 425
#     4  11  23  44  72 103 143 186 242 296 354 432
#     4  12  25  44  72 108 142 192 244 292 360 432
#     4  10  22  41  65 100 138 189 233 284 359 426
#     4  10  22  44  68 102 135 179 238 295 356 412
#
# _framework density 23.973538999999999
#
# number of rings (size 3 to 8) (size 9 to 14) (size 15 to 20)
#    0.000    1.000    1.250    6.375    1.750    4.000 
#    4.500    1.250    0.000    0.000    0.000    0.000 
#    0.000    0.000    0.000    0.000    0.000    0.000 
#
# Total GULP energy -89301.242942 kJ/mol
# GULP energy per Si atom -5581.327684 kJ/mol
# Density = 2.391897 g / cm^3
# Si number density = 23.973539 Si / 1000 Ang^3
#
#
#
# Elastic Constant Matrix: (Units=GPa)
#
#
# Indices 1 2 3 4 5 6 
#
# 1 61.8693 16.8836 50.5866 5.9446 -4.6576 -9.2146
# 2 16.8836 118.0063 31.2888 4.3619 -10.0503 -9.5904
# 3 50.5866 31.2888 181.5338 20.6347 -34.9425 -14.0566
# 4 5.9446 4.3619 20.6347 48.1763 -2.6483 -12.1918
# 5 -4.6576 -10.0503 -34.9425 -2.6483 43.5642 3.9781
# 6 -9.2146 -9.5904 -14.0566 -12.1918 3.9781 22.7568
#
#
#
# Elastic Compliance Matrix: (Units=1/GPa)
#
#
# Indices 1 2 3 4 5 6 
#
# 1 0.022177 -0.001369 -0.006314 0.001382 -0.003459 0.005848
# 2 -0.001369 0.009198 -0.000828 0.000478 0.001078 0.002878
# 3 -0.006314 -0.000828 0.008888 -0.002584 0.006093 0.000135
# 4 0.001382 0.000478 -0.002584 0.024783 -0.001467 0.012699
# 5 -0.003459 0.001078 0.006093 -0.001467 0.027891 -0.002844
# 6 0.005848 0.002878 0.000135 0.012699 -0.002844 0.054908
#
#
# Mechanical properties :
#
#
# Convention : Reuss Voigt Hill
#
# Bulk Modulus (GPa) = 43.02861 62.10302 52.56581
# Shear Modulus (GPa) = 28.96645 40.40949 34.68797
#
# Velocity S-wave (km/s) = 3.47979 4.11004 3.80798
# Velocity P-wave (km/s) = 5.84231 6.96307 6.42716
#
# Compressibility (1/GPa) = 0.02324035
#
# Stress axis : x y z
#
# Youngs Moduli (GPa) = 45.09154 108.72484 112.51396
#
# Poissons Ratio (x) = 0.14887 0.71041
# Poissons Ratio (y) = 0.06174 0.09313
# Poissons Ratio (z) = 0.28471 0.09000
#
# Static dielectric constant tensor:
#      x y z
#    x 1.934340 -0.016510 -0.015470 
#    y -0.016510 1.947060 0.006450 
#    z -0.015470 0.006450 1.996490 
# 
# From -- ./inp_files/495805.got.cif
#   From: 2010.05.17/outbox.cif.g08.bks.cpg/sg2_248_cif.got.tgz:495805.got - 2010.06.03 11:33:40.
