data_PCOD9026348
_publ_section_title
;
Structure prediction by ZEFSAII (Michael W. Deem and Ramdas Pophale) SiO2 
 PCOD9026348
Probable space group: P -1
;
_chemical_formula_sum "Si O2"
_cell_formula_units_Z 14
_cell_length_a 16.729436
_cell_length_b 8.797885
_cell_length_c 5.183186
_cell_angle_alpha 92.763720
_cell_angle_beta 61.479355
_cell_angle_gamma 64.131601
_cell_volume 570.499803
_symmetry_space_group_name_H-M "P -1"
_symmetry_group_IT_number 2
_symmetry_cell_setting 'triclinic'
loop_
_space_group_symop_operation_xyz
x,y,z
-x,-y,-z
loop_
_atom_site_type_symbol
_atom_site_label
_atom_site_fract_x
_atom_site_fract_y
_atom_site_fract_z
Si Si1 0.402783 0.131783 0.409421
Si Si2 0.724335 0.415611 0.838869
Si Si3 0.047697 0.121724 0.000494
Si Si4 0.040551 0.302964 0.524297
Si Si5 0.734082 0.213370 0.298779
Si Si6 0.495319 0.742536 0.371172
Si Si7 0.742374 0.734905 0.853850
O O1 0.470996 0.220209 0.396214
O O2 0.326376 0.214331 0.294388
O O3 0.472569 0.918190 0.263060
O O4 0.328270 0.170015 0.779183
O O5 0.738535 0.336037 0.526794
O O6 0.782138 0.526071 0.806568
O O7 0.760166 0.265103 0.987451
O O8 0.598060 0.561917 0.096092
O O9 0.011297 0.274709 0.853183
O O10 0.176167 0.989092 0.788681
O O11 0.013995 0.201620 0.342814
O O12 0.000000 0.000000 0.000000
O O13 0.167853 0.219121 0.315656
O O14 0.000000 0.500000 0.500000
O O15 0.613930 0.254325 0.469248
#
# Coordination Sequence:
#
# PCOD9026348 Si02
#       7
#     2   2   2   2   2   2   2
#     4  10  23  39  66  94 135 182 219 301 333 427
#     4  11  25  39  65 100 135 190 222 293 332 434
#     4  12  29  50  76 108 147 186 239 295 371 419
#     4  12  27  48  80 108 137 186 242 304 349 434
#     4  12  25  42  68  93 145 183 232 277 363 414
#     4  10  22  41  63  98 136 178 239 273 353 407
#     4  11  23  43  66  98 139 174 244 274 367 389
#
# _framework density 24.539885999999999
#
# number of rings (size 3 to 8) (size 9 to 14) (size 15 to 20)
#    0.000    0.857    0.000    6.857    4.000    9.714 
#    0.000    0.000    0.000    0.000    0.000    0.000 
#    0.000    0.000    0.000    0.000    0.000    0.000 
#
# Total GULP energy -78479.407926 kJ/mol
# GULP energy per Si atom -5605.671995 kJ/mol
# Density = 2.448403 g / cm^3
# Si number density = 24.539886 Si / 1000 Ang^3
#
#
#
# Elastic Constant Matrix: (Units=GPa)
#
#
# Indices 1 2 3 4 5 6 
#
# 1 91.2351 6.8275 17.8204 -12.7470 11.7205 4.4852
# 2 6.8275 99.7002 -4.0348 -11.7459 6.7663 -19.6871
# 3 17.8204 -4.0348 57.2206 -3.2342 10.4309 -17.5231
# 4 -12.7470 -11.7459 -3.2342 46.1955 -0.4120 0.8210
# 5 11.7205 6.7663 10.4309 -0.4120 31.6748 -2.7276
# 6 4.4852 -19.6871 -17.5231 0.8210 -2.7276 37.4993
#
#
#
# Elastic Compliance Matrix: (Units=1/GPa)
#
#
# Indices 1 2 3 4 5 6 
#
# 1 0.013121 -0.001512 -0.004951 0.002949 -0.003292 -0.004981
# 2 -0.001512 0.012589 0.004723 0.002934 -0.002896 0.008723
# 3 -0.004951 0.004723 0.024900 0.001270 -0.006135 0.014234
# 4 0.002949 0.002934 0.001270 0.023260 -0.001735 0.001146
# 5 -0.003292 -0.002896 -0.006135 -0.001735 0.035286 -0.001389
# 6 -0.004981 0.008723 0.014234 0.001146 -0.001389 0.038367
#
#
# Mechanical properties :
#
#
# Convention : Reuss Voigt Hill
#
# Bulk Modulus (GPa) = 21.21728 32.15355 26.68541
# Shear Modulus (GPa) = 29.99176 38.24343 34.11760
#
# Velocity S-wave (km/s) = 3.49974 3.95196 3.73271
# Velocity P-wave (km/s) = 4.99957 5.82710 5.42912
#
# Compressibility (1/GPa) = 0.04713141
#
# Stress axis : x y z
#
# Youngs Moduli (GPa) = 76.21576 79.43248 40.16023
#
# Poissons Ratio (x) = 0.12007 0.19884
# Poissons Ratio (y) = 0.11520 -0.18969
# Poissons Ratio (z) = 0.37736 -0.37519
#
# Static dielectric constant tensor:
#      x y z
#    x 1.951330 -0.032280 -0.048110 
#    y -0.032280 1.981670 0.020230 
#    z -0.048110 0.020230 1.944400 
# 
# From -- ./inp_files/105306.got.cif
#   From: 2010.05.17/outbox.cif.g08.bks.cpg/sg2_53_cif.got.tgz:105306.got - 2010.06.03 11:33:40.
