data_PCOD9026961
_publ_section_title
;
Structure prediction by ZEFSAII (Michael W. Deem and Ramdas Pophale) SiO2 
 PCOD9026961
Probable space group: P -1
;
_chemical_formula_sum "Si O2"
_cell_formula_units_Z 12
_cell_length_a 11.287081
_cell_length_b 10.028919
_cell_length_c 12.285006
_cell_angle_alpha 126.132987
_cell_angle_beta 130.777873
_cell_angle_gamma 30.073590
_cell_volume 526.598732
_symmetry_space_group_name_H-M "P -1"
_symmetry_group_IT_number 2
_symmetry_cell_setting 'triclinic'
loop_
_space_group_symop_operation_xyz
x,y,z
-x,-y,-z
loop_
_atom_site_type_symbol
_atom_site_label
_atom_site_fract_x
_atom_site_fract_y
_atom_site_fract_z
Si Si1 0.917937 0.917413 0.334163
Si Si2 0.996242 0.662004 0.650559
Si Si3 0.616087 0.742215 0.890356
Si Si4 0.131207 0.873919 0.234315
Si Si5 0.590892 0.436365 0.144142
Si Si6 0.974418 0.544826 0.820409
O O1 0.626947 0.171556 0.241106
O O2 0.116785 0.776577 0.286846
O O3 0.938678 0.712081 0.288486
O O4 0.000000 0.000000 0.500000
O O5 0.838064 0.951833 0.650561
O O6 0.280204 0.493897 0.730062
O O7 0.938814 0.675618 0.750422
O O8 0.000000 0.500000 0.500000
O O9 0.734997 0.704148 0.829468
O O10 0.833703 0.530939 0.012251
O O11 0.500000 0.000000 0.000000
O O12 0.835627 0.112223 0.136555
O O13 0.350708 0.632206 0.171914
O O14 0.500000 0.500000 0.000000
#
# Coordination Sequence:
#
# PCOD9026961 Si02
#       6
#     2   2   2   2   2   2
#     4  11  24  40  64  95 130 170 214 269 328 389
#     4  10  24  41  65  97 131 173 216 270 327 390
#     4   9  22  41  62  94 127 167 215 267 324 389
#     4  10  25  42  68  95 132 170 220 266 327 388
#     4  10  24  44  67  96 130 172 218 270 325 390
#     4  10  22  41  66  92 127 169 216 267 324 386
#
# _framework density 22.787748000000001
#
# number of rings (size 3 to 8) (size 9 to 14) (size 15 to 20)
#    1.000    1.000    0.000    1.500    4.667    8.000 
#    0.000    0.000    0.000    0.000    0.000    0.000 
#    0.000    0.000    0.000    0.000    0.000    0.000 
#
# Total GULP energy -66804.813948 kJ/mol
# GULP energy per Si atom -5567.067829 kJ/mol
# Density = 2.273588 g / cm^3
# Si number density = 22.787748 Si / 1000 Ang^3
#
#
#
# Elastic Constant Matrix: (Units=GPa)
#
#
# Indices 1 2 3 4 5 6 
#
# 1 143.4929 41.0450 44.6179 -0.0630 3.2589 -22.8412
# 2 41.0450 93.9534 28.2133 10.8305 5.7172 -30.2767
# 3 44.6179 28.2133 102.6783 -11.4063 23.1261 -38.2827
# 4 -0.0630 10.8305 -11.4063 17.4886 -6.3511 -2.4714
# 5 3.2589 5.7172 23.1261 -6.3511 40.8610 7.9074
# 6 -22.8412 -30.2767 -38.2827 -2.4714 7.9074 47.7617
#
#
#
# Elastic Compliance Matrix: (Units=1/GPa)
#
#
# Indices 1 2 3 4 5 6 
#
# 1 0.008871 -0.003284 -0.003981 0.000103 0.002293 -0.001405
# 2 -0.003284 0.016698 0.000833 -0.010612 -0.006160 0.010153
# 3 -0.003981 0.000833 0.023953 0.012438 -0.015492 0.021032
# 4 0.000103 -0.010612 0.012438 0.074501 0.004787 0.006355
# 5 0.002293 -0.006160 -0.015492 0.004787 0.038806 -0.021403
# 6 -0.001405 0.010153 0.021032 0.006355 -0.021403 0.047431
#
#
# Mechanical properties :
#
#
# Convention : Reuss Voigt Hill
#
# Bulk Modulus (GPa) = 27.27994 63.09744 45.18869
# Shear Modulus (GPa) = 21.24557 36.30547 28.77552
#
# Velocity S-wave (km/s) = 3.05671 3.99582 3.55739
# Velocity P-wave (km/s) = 4.94523 7.00272 6.06190
#
# Compressibility (1/GPa) = 0.03665697
#
# Stress axis : x y z
#
# Youngs Moduli (GPa) = 112.73266 59.88738 41.74898
#
# Poissons Ratio (x) = 0.19666 0.16620
# Poissons Ratio (y) = 0.37020 -0.03477
# Poissons Ratio (z) = 0.44879 -0.04987
#
# Static dielectric constant tensor:
#      x y z
#    x 1.959300 0.161500 0.044420 
#    y 0.161500 2.114050 0.064790 
#    z 0.044420 0.064790 1.838470 
# 
# From -- ./inp_files/424292.got.cif
#   From: 2010.05.17/outbox.cif.g08.bks.cpg/sg2_213_cif.got.tgz:424292.got - 2010.06.03 11:33:40.
