data_PCOD9026707
_publ_section_title
;
Structure prediction by ZEFSAII (Michael W. Deem and Ramdas Pophale) SiO2 
 PCOD9026707
Probable space group: P -1
;
_chemical_formula_sum "Si O2"
_cell_formula_units_Z 16
_cell_length_a 17.311824
_cell_length_b 7.362822
_cell_length_c 20.221758
_cell_angle_alpha 116.555745
_cell_angle_beta 159.577013
_cell_angle_gamma 62.099694
_cell_volume 794.576713
_symmetry_space_group_name_H-M "P -1"
_symmetry_group_IT_number 2
_symmetry_cell_setting 'triclinic'
loop_
_space_group_symop_operation_xyz
x,y,z
-x,-y,-z
loop_
_atom_site_type_symbol
_atom_site_label
_atom_site_fract_x
_atom_site_fract_y
_atom_site_fract_z
Si Si1 0.547912 0.285490 0.767530
Si Si2 0.691846 0.596853 0.707674
Si Si3 0.194500 0.420367 0.051205
Si Si4 0.898335 0.025814 0.092718
Si Si5 0.417378 0.003310 0.508872
Si Si6 0.801179 0.399278 0.176221
Si Si7 0.426180 0.774400 0.905194
Si Si8 0.835501 0.473907 0.425089
O O1 0.649070 0.484095 0.858137
O O2 0.426431 0.203823 0.593287
O O3 0.371806 0.343942 0.695730
O O4 0.761108 0.122773 0.934943
O O5 0.500000 0.500000 0.500000
O O6 0.723674 0.545551 0.802480
O O7 0.591177 0.834014 0.658332
O O8 0.935615 0.532328 0.859833
O O9 0.199171 0.180260 0.001896
O O10 0.865925 0.213798 0.148057
O O11 0.164877 0.958640 0.291938
O O12 0.500000 0.000000 0.500000
O O13 0.699040 0.286234 0.138164
O O14 0.005954 0.509829 0.382878
O O15 0.631601 0.586053 0.039304
O O16 0.268928 0.729197 0.710201
O O17 0.500000 0.000000 0.000000
O O18 0.000000 0.500000 0.500000
#
# Coordination Sequence:
#
# PCOD9026707 Si02
#       8
#     2   2   2   2   2   2   2   2
#     4  12  25  44  66 101 134 174 231 276 330 407
#     4  11  22  44  63  95 136 174 223 277 329 396
#     4  11  26  40  67  96 133 176 224 276 334 388
#     4  12  24  43  66  96 132 176 217 278 335 390
#     4  12  25  42  69  96 135 184 224 273 338 394
#     4  10  22  41  65  93 129 167 212 265 333 394
#     4  10  22  41  67  95 128 166 212 269 328 396
#     4  10  22  44  68  96 134 172 214 276 334 395
#
# _framework density 20.136506000000001
#
# number of rings (size 3 to 8) (size 9 to 14) (size 15 to 20)
#    0.000    1.000    5.000    1.500    3.500    1.500 
#    0.000    3.750    0.000    0.000    0.000    0.000 
#    0.000    0.000    0.000    0.000    0.000    0.000 
#
# Total GULP energy -89195.425290 kJ/mol
# GULP energy per Si atom -5574.714081 kJ/mol
# Density = 2.009067 g / cm^3
# Si number density = 20.136506 Si / 1000 Ang^3
#
#
#
# Elastic Constant Matrix: (Units=GPa)
#
#
# Indices 1 2 3 4 5 6 
#
# 1 65.3138 34.5210 37.5179 4.2463 -4.0318 -15.1883
# 2 34.5210 114.3429 49.9947 27.4603 5.9112 -2.5750
# 3 37.5179 49.9947 136.1718 16.2710 -19.3934 -2.5688
# 4 4.2463 27.4603 16.2710 42.8221 -11.6954 -5.8755
# 5 -4.0318 5.9112 -19.3934 -11.6954 24.0453 7.7841
# 6 -15.1883 -2.5750 -2.5688 -5.8755 7.7841 28.2994
#
#
#
# Elastic Compliance Matrix: (Units=1/GPa)
#
#
# Indices 1 2 3 4 5 6 
#
# 1 0.023909 -0.006090 -0.004717 0.005099 0.000003 0.012908
# 2 -0.006090 0.016466 -0.005037 -0.012187 -0.014841 -0.000676
# 3 -0.004717 -0.005037 0.011971 0.001921 0.012650 -0.004984
# 4 0.005099 -0.012187 0.001921 0.036404 0.022039 0.003298
# 5 0.000003 -0.014841 0.012650 0.022039 0.071071 -0.015174
# 6 0.012908 -0.000676 -0.004984 0.003298 -0.015174 0.046608
#
#
# Mechanical properties :
#
#
# Convention : Reuss Voigt Hill
#
# Bulk Modulus (GPa) = 48.40960 62.21062 55.31011
# Shear Modulus (GPa) = 20.40789 31.95302 26.18045
#
# Velocity S-wave (km/s) = 3.18697 3.98781 3.60967
# Velocity P-wave (km/s) = 6.13476 7.22254 6.70076
#
# Compressibility (1/GPa) = 0.02065706
#
# Stress axis : x y z
#
# Youngs Moduli (GPa) = 41.82480 60.73292 83.53656
#
# Poissons Ratio (x) = 0.36986 0.39403
# Poissons Ratio (y) = 0.25471 0.42081
# Poissons Ratio (z) = 0.19728 0.30594
#
# Static dielectric constant tensor:
#      x y z
#    x 1.720540 -0.053070 0.028400 
#    y -0.053070 1.828740 -0.010660 
#    z 0.028400 -0.010660 1.725300 
# 
# From -- ./inp_files/599041.got.cif
#   From: 2010.05.17/outbox.cif.g08.bks.cpg/sg2_300_cif.got.tgz:599041.got - 2010.06.03 11:33:40.
