data_PCOD9026757
_publ_section_title
;
Structure prediction by ZEFSAII (Michael W. Deem and Ramdas Pophale) SiO2 
 PCOD9026757
Probable space group: P -1
;
_chemical_formula_sum "Si O2"
_cell_formula_units_Z 16
_cell_length_a 8.269508
_cell_length_b 9.762567
_cell_length_c 13.166927
_cell_angle_alpha 52.226346
_cell_angle_beta 103.091979
_cell_angle_gamma 132.601458
_cell_volume 585.254940
_symmetry_space_group_name_H-M "P -1"
_symmetry_group_IT_number 2
_symmetry_cell_setting 'triclinic'
loop_
_space_group_symop_operation_xyz
x,y,z
-x,-y,-z
loop_
_atom_site_type_symbol
_atom_site_label
_atom_site_fract_x
_atom_site_fract_y
_atom_site_fract_z
Si Si1 0.909227 0.696291 0.329736
Si Si2 0.529005 0.229644 0.879972
Si Si3 0.184116 0.744519 0.851162
Si Si4 0.629463 0.993490 0.430258
Si Si5 0.042004 0.910685 0.911871
Si Si6 0.237423 0.618847 0.375690
Si Si7 0.594009 0.651865 0.691512
Si Si8 0.589380 0.392471 0.110792
O O1 0.876614 0.634664 0.473180
O O2 0.652485 0.537794 0.318283
O O3 0.040871 0.622971 0.341191
O O4 0.044939 0.966971 0.192483
O O5 0.634967 0.310867 0.743969
O O6 0.661554 0.508027 0.805641
O O7 0.264724 0.092062 0.931947
O O8 0.500000 0.000000 0.000000
O O9 0.156887 0.906144 0.830021
O O10 0.404383 0.774759 0.880567
O O11 0.180679 0.765622 0.719702
O O12 0.000000 0.500000 0.000000
O O13 0.431034 0.813016 0.398897
O O14 0.730997 0.884635 0.533441
O O15 0.500000 0.000000 0.500000
O O16 0.857021 0.646103 0.053106
O O17 0.541336 0.724725 0.750687
O O18 0.500000 0.500000 0.000000
#
# Coordination Sequence:
#
# PCOD9026757 Si02
#       8
#     2   2   2   2   2   2   2   2
#     4   9  22  40  64  94 123 166 216 274 326 387
#     4  11  25  39  65  98 131 171 218 278 331 389
#     4  10  22  42  62  95 127 173 214 266 326 390
#     4  11  21  40  71  94 130 176 221 263 333 393
#     4  10  23  39  65  91 126 172 214 267 336 383
#     4  10  22  41  65  95 132 165 219 266 331 395
#     4  10  24  40  63 100 126 169 226 270 326 399
#     4  11  25  41  65  91 133 174 225 270 325 396
#
# _framework density 27.338511
#
# number of rings (size 3 to 8) (size 9 to 14) (size 15 to 20)
#    0.000    1.750    2.500    0.000    8.750    2.500 
#    0.000    0.000    0.000    3.750    0.000    0.000 
#    0.000    0.000    0.000    0.000    0.000    0.000 
#
# Total GULP energy -89256.937708 kJ/mol
# GULP energy per Si atom -5578.558607 kJ/mol
# Density = 2.727629 g / cm^3
# Si number density = 27.338511 Si / 1000 Ang^3
#
#
#
# Elastic Constant Matrix: (Units=GPa)
#
#
# Indices 1 2 3 4 5 6 
#
# 1 81.9517 19.5103 37.1766 7.5407 13.3942 -15.5176
# 2 19.5103 51.0957 16.3104 -4.8420 -5.4597 -14.8255
# 3 37.1766 16.3104 190.5206 -8.9731 17.8144 -9.3429
# 4 7.5407 -4.8420 -8.9731 25.4371 -14.3709 -11.8700
# 5 13.3942 -5.4597 17.8144 -14.3709 58.8441 -3.3145
# 6 -15.5176 -14.8255 -9.3429 -11.8700 -3.3145 44.0158
#
#
#
# Elastic Compliance Matrix: (Units=1/GPa)
#
#
# Indices 1 2 3 4 5 6 
#
# 1 0.017316 -0.007823 -0.002667 -0.011752 -0.006774 -0.000776
# 2 -0.007823 0.029446 -0.000374 0.019677 0.010172 0.013153
# 3 -0.002667 -0.000374 0.006037 0.003066 -0.000450 0.001008
# 4 -0.011752 0.019677 0.003066 0.071530 0.022400 0.024112
# 5 -0.006774 0.010172 -0.000450 0.022400 0.025588 0.008910
# 6 -0.000776 0.013153 0.001008 0.024112 0.008910 0.034263
#
#
# Mechanical properties :
#
#
# Convention : Reuss Voigt Hill
#
# Bulk Modulus (GPa) = 32.18482 52.17362 42.17922
# Shear Modulus (GPa) = 23.11963 42.36411 32.74187
#
# Velocity S-wave (km/s) = 2.91121 3.94078 3.46446
# Velocity P-wave (km/s) = 4.80609 6.31127 5.60939
#
# Compressibility (1/GPa) = 0.03107054
#
# Stress axis : x y z
#
# Youngs Moduli (GPa) = 57.74865 33.96095 165.64153
#
# Poissons Ratio (x) = 0.26568 0.44184
# Poissons Ratio (y) = 0.45178 0.06189
# Poissons Ratio (z) = 0.15404 0.01269
#
# Static dielectric constant tensor:
#      x y z
#    x 2.178390 0.098800 0.047520 
#    y 0.098800 2.367040 -0.044470 
#    z 0.047520 -0.044470 2.224770 
# 
# From -- ./inp_files/318871.got.cif
#   From: 2010.05.17/outbox.cif.g08.bks.cpg/sg2_160_cif.got.tgz:318871.got - 2010.06.03 11:33:40.
