data_PCOD9026796
_publ_section_title
;
Structure prediction by ZEFSAII (Michael W. Deem and Ramdas Pophale) SiO2 
 PCOD9026796
Probable space group: P -1
;
_chemical_formula_sum "Si O2"
_cell_formula_units_Z 13
_cell_length_a 18.426618
_cell_length_b 6.792543
_cell_length_c 5.055425
_cell_angle_alpha 105.826661
_cell_angle_beta 100.026080
_cell_angle_gamma 60.477622
_cell_volume 529.131587
_symmetry_space_group_name_H-M "P -1"
_symmetry_group_IT_number 2
_symmetry_cell_setting 'triclinic'
loop_
_space_group_symop_operation_xyz
x,y,z
-x,-y,-z
loop_
_atom_site_type_symbol
_atom_site_label
_atom_site_fract_x
_atom_site_fract_y
_atom_site_fract_z
Si Si1 0.274994 0.171593 0.898043
Si Si2 0.911361 0.025177 0.547442
Si Si3 0.870783 0.326527 0.154453
Si Si4 0.000000 0.500000 0.500000
Si Si5 0.495929 0.245223 0.541429
Si Si6 0.390195 0.394991 0.019914
Si Si7 0.686615 0.122823 0.680869
O O1 0.278965 0.985157 0.619593
O O2 0.202268 0.424214 0.879747
O O3 0.358151 0.203504 0.933990
O O4 0.270884 0.077831 0.149257
O O5 0.924754 0.764658 0.466652
O O6 0.852495 0.211202 0.359004
O O7 0.000000 0.000000 0.500000
O O8 0.949055 0.377237 0.278447
O O9 0.890656 0.146359 0.862782
O O10 0.425843 0.412813 0.764895
O O11 0.587687 0.204273 0.645319
O O12 0.500000 0.000000 0.500000
O O13 0.535985 0.679376 0.746877
O O14 0.314229 0.639958 0.151381
#
# Coordination Sequence:
#
# PCOD9026796 Si02
#       7
#     2   2   2   1   2   2   2
#     4  12  25  43  61  92 130 167 205 257 312 375
#     4  10  22  41  65  97 123 157 204 254 304 367
#     4  11  25  41  65  95 129 163 207 253 309 372
#     4  10  22  42  70  92 124 160 204 254 304 360
#     4  12  21  41  67  88 124 166 211 267 315 355
#     4  12  24  41  63  91 126 166 209 270 312 363
#     4  12  25  41  65  92 124 167 217 251 316 374
#
# _framework density 24.568557999999999
#
# number of rings (size 3 to 8) (size 9 to 14) (size 15 to 20)
#    0.000    0.615    3.077    6.000    0.000    8.000 
#    0.000    0.000    0.000    0.000    0.000    0.000 
#    0.000    0.000    0.000    0.000    0.000    0.000 
#
# Total GULP energy -72556.741013 kJ/mol
# GULP energy per Si atom -5581.287770 kJ/mol
# Density = 2.451264 g / cm^3
# Si number density = 24.568558 Si / 1000 Ang^3
#
#
#
# Elastic Constant Matrix: (Units=GPa)
#
#
# Indices 1 2 3 4 5 6 
#
# 1 102.5108 -32.9687 -47.2204 15.0608 -5.2627 -34.6660
# 2 -32.9687 206.4698 91.2415 2.1988 25.3583 22.5715
# 3 -47.2204 91.2415 205.7744 -16.5348 14.7244 51.0511
# 4 15.0608 2.1988 -16.5348 52.9760 -16.3210 -1.1540
# 5 -5.2627 25.3583 14.7244 -16.3210 12.7523 -0.0735
# 6 -34.6660 22.5715 51.0511 -1.1540 -0.0735 50.5942
#
#
#
# Elastic Compliance Matrix: (Units=1/GPa)
#
#
# Indices 1 2 3 4 5 6 
#
# 1 0.013767 0.001873 0.000215 -0.005289 -0.005014 0.008252
# 2 0.001873 0.010442 -0.002585 -0.011619 -0.031884 -0.001078
# 3 0.000215 -0.002585 0.007990 0.001899 -0.001604 -0.006721
# 4 -0.005289 -0.011619 0.001899 0.044979 0.076300 0.000780
# 5 -0.005014 -0.031884 -0.001604 0.076300 0.239340 0.014496
# 6 0.008252 -0.001078 -0.006721 0.000780 0.014496 0.032720
#
#
# Mechanical properties :
#
#
# Convention : Reuss Voigt Hill
#
# Bulk Modulus (GPa) = 32.04524 59.65107 45.84816
# Shear Modulus (GPa) = 13.86445 56.84466 35.35456
#
# Velocity S-wave (km/s) = 2.37811 4.81533 3.79755
# Velocity P-wave (km/s) = 4.54005 7.43294 6.15876
#
# Compressibility (1/GPa) = 0.03120588
#
# Stress axis : x y z
#
# Youngs Moduli (GPa) = 72.63778 95.76354 125.15662
#
# Poissons Ratio (x) = -0.17939 -0.02691
# Poissons Ratio (y) = -0.13607 0.32353
# Poissons Ratio (z) = -0.01562 0.24755
#
# Static dielectric constant tensor:
#      x y z
#    x 2.010310 -0.027840 0.054280 
#    y -0.027840 1.950750 -0.000840 
#    z 0.054280 -0.000840 1.924580 
# 
# From -- ./inp_files/102570.got.cif
#   From: 2010.05.17/outbox.cif.g08.bks.cpg/sg2_52_cif.got.tgz:102570.got - 2010.06.03 11:33:40.
