data_PCOD9026778
_publ_section_title
;
Structure prediction by ZEFSAII (Michael W. Deem and Ramdas Pophale) SiO2 
 PCOD9026778
Probable space group: P -1
;
_chemical_formula_sum "Si O2"
_cell_formula_units_Z 16
_cell_length_a 16.163479
_cell_length_b 12.812948
_cell_length_c 9.903709
_cell_angle_alpha 133.641373
_cell_angle_beta 133.975499
_cell_angle_gamma 35.738885
_cell_volume 822.138309
_symmetry_space_group_name_H-M "P -1"
_symmetry_group_IT_number 2
_symmetry_cell_setting 'triclinic'
loop_
_space_group_symop_operation_xyz
x,y,z
-x,-y,-z
loop_
_atom_site_type_symbol
_atom_site_label
_atom_site_fract_x
_atom_site_fract_y
_atom_site_fract_z
Si Si1 0.603009 0.810893 0.770827
Si Si2 0.919632 0.611002 0.371957
Si Si3 0.408801 0.726727 0.958559
Si Si4 0.922598 0.643376 0.916716
Si Si5 0.932254 0.938118 0.067861
Si Si6 0.854574 0.984738 0.706388
Si Si7 0.384032 0.244474 0.956690
Si Si8 0.482414 0.687237 0.308810
O O1 0.746442 0.790898 0.876362
O O2 0.573588 0.720965 0.538453
O O3 0.460399 0.027648 0.823723
O O4 0.635667 0.717664 0.871795
O O5 0.774752 0.631520 0.187841
O O6 0.000000 0.500000 0.500000
O O7 0.041360 0.487673 0.284983
O O8 0.867125 0.817969 0.505885
O O9 0.449122 0.526690 0.810513
O O10 0.230496 0.886610 0.904541
O O11 0.499086 0.736792 0.954753
O O12 0.467790 0.741803 0.183143
O O13 0.978193 0.758450 0.041720
O O14 0.000000 0.500000 0.000000
O O15 0.047411 0.978119 0.231343
O O16 0.913352 0.919330 0.869270
O O17 0.685902 0.176251 0.701501
#
# Coordination Sequence:
#
# PCOD9026778 Si02
#       8
#     2   2   2   2   2   2   2   2
#     4  11  24  43  66  90 132 173 214 267 322 389
#     4  12  25  40  67 100 126 172 222 270 326 387
#     4  10  23  40  66  98 127 165 220 267 324 384
#     4  12  25  43  64  96 134 171 217 266 330 388
#     4  10  22  42  64  94 133 171 208 273 326 385
#     4  10  22  41  65  96 131 166 219 265 326 387
#     4  11  24  43  66  92 129 173 218 265 322 388
#     4  10  23  40  66  97 128 167 213 272 324 383
#
# _framework density 19.461445000000001
#
# number of rings (size 3 to 8) (size 9 to 14) (size 15 to 20)
#    0.000    1.250    5.000    0.000    5.250    2.000 
#    0.000    0.625    0.000    0.000    0.000    0.000 
#    0.000    0.000    0.000    0.000    0.000    0.000 
#
# Total GULP energy -89330.352096 kJ/mol
# GULP energy per Si atom -5583.147006 kJ/mol
# Density = 1.941715 g / cm^3
# Si number density = 19.461445 Si / 1000 Ang^3
#
#
#
# Elastic Constant Matrix: (Units=GPa)
#
#
# Indices 1 2 3 4 5 6 
#
# 1 114.8360 24.2985 8.1382 -1.9568 1.8700 0.9300
# 2 24.2985 90.5046 15.8146 0.6010 -3.5495 1.2961
# 3 8.1382 15.8146 47.7538 2.5459 -6.6090 3.0269
# 4 -1.9568 0.6010 2.5459 33.1376 -3.5032 -1.1136
# 5 1.8700 -3.5495 -6.6090 -3.5032 30.4947 2.8416
# 6 0.9300 1.2961 3.0269 -1.1136 2.8416 29.3243
#
#
#
# Elastic Compliance Matrix: (Units=1/GPa)
#
#
# Indices 1 2 3 4 5 6 
#
# 1 0.009304 -0.002372 -0.000970 0.000563 -0.000995 0.000028
# 2 -0.002372 0.012343 -0.003557 -0.000009 0.000827 -0.000184
# 3 -0.000970 -0.003557 0.023189 -0.001362 0.004768 -0.002719
# 4 0.000563 -0.000009 -0.001362 0.030676 0.003101 0.000988
# 5 -0.000995 0.000827 0.004768 0.003101 0.034688 -0.003741
# 6 0.000028 -0.000184 -0.002719 0.000988 -0.003741 0.034789
#
#
# Mechanical properties :
#
#
# Convention : Reuss Voigt Hill
#
# Bulk Modulus (GPa) = 32.21698 38.84410 35.53054
# Shear Modulus (GPa) = 29.56282 32.24754 30.90518
#
# Velocity S-wave (km/s) = 3.90172 4.07504 3.98932
# Velocity P-wave (km/s) = 6.07356 6.49185 6.28618
#
# Compressibility (1/GPa) = 0.03103953
#
# Stress axis : x y z
#
# Youngs Moduli (GPa) = 107.47858 81.02072 43.12452
#
# Poissons Ratio (x) = 0.19216 0.04181
# Poissons Ratio (y) = 0.25490 0.15338
# Poissons Ratio (z) = 0.10421 0.28816
#
# Static dielectric constant tensor:
#      x y z
#    x 1.653310 0.005670 0.003920 
#    y 0.005670 1.685300 -0.009640 
#    z 0.003920 -0.009640 1.656330 
# 
# From -- ./inp_files/184140.got.cif
#   From: 2010.05.17/outbox.cif.g08.bks.cpg/sg2_93_cif.got.tgz:184140.got - 2010.06.03 11:33:40.
