data_PCOD9026853
_publ_section_title
;
Structure prediction by ZEFSAII (Michael W. Deem and Ramdas Pophale) SiO2 
 PCOD9026853
Probable space group: P -1
;
_chemical_formula_sum "Si O2"
_cell_formula_units_Z 14
_cell_length_a 12.638687
_cell_length_b 5.256070
_cell_length_c 11.100815
_cell_angle_alpha 60.490107
_cell_angle_beta 59.697337
_cell_angle_gamma 82.492540
_cell_volume 547.215651
_symmetry_space_group_name_H-M "P -1"
_symmetry_group_IT_number 2
_symmetry_cell_setting 'triclinic'
loop_
_space_group_symop_operation_xyz
x,y,z
-x,-y,-z
loop_
_atom_site_type_symbol
_atom_site_label
_atom_site_fract_x
_atom_site_fract_y
_atom_site_fract_z
Si Si1 0.910703 0.927185 0.681100
Si Si2 0.092543 0.263161 0.020048
Si Si3 0.506689 0.861650 0.830677
Si Si4 0.697137 0.487262 0.855107
Si Si5 0.345435 0.640002 0.758861
Si Si6 0.277674 0.640873 0.388396
Si Si7 0.245887 0.231828 0.713897
O O1 0.954805 0.942693 0.790873
O O2 0.837681 0.593911 0.784067
O O3 0.810595 0.142279 0.665306
O O4 0.000000 0.000000 0.500000
O O5 0.228708 0.441290 0.937849
O O6 0.133803 0.141077 0.895353
O O7 0.000000 0.500000 0.000000
O O8 0.598043 0.700053 0.900113
O O9 0.460364 0.717347 0.763310
O O10 0.591162 0.174650 0.690063
O O11 0.374751 0.829744 0.986025
O O12 0.697363 0.542423 0.699679
O O13 0.350373 0.444347 0.682805
O O14 0.297399 0.953231 0.693199
O O15 0.212706 0.442869 0.578421
#
# Coordination Sequence:
#
# PCOD9026853 Si02
#       7
#     2   2   2   2   2   2   2
#     4  11  24  43  70 101 137 178 236 293 350 414
#     4  10  23  44  70  97 138 185 237 290 351 415
#     4  10  22  41  66  98 139 181 231 281 351 414
#     4  10  22  41  65  99 138 178 229 285 353 416
#     4  10  24  43  69  96 142 182 234 279 354 409
#     4  11  25  39  70 100 138 181 231 288 348 420
#     4  10  25  43  67 101 141 184 232 284 348 415
#
# _framework density 25.584064000000001
#
# number of rings (size 3 to 8) (size 9 to 14) (size 15 to 20)
#    0.857    0.857    1.429    1.286    8.000    2.286 
#    0.000    0.000    0.000    0.000    0.000    0.000 
#    0.000    0.000    0.000    0.000    0.000    0.000 
#
# Total GULP energy -78090.979343 kJ/mol
# GULP energy per Si atom -5577.927096 kJ/mol
# Density = 2.552583 g / cm^3
# Si number density = 25.584064 Si / 1000 Ang^3
#
#
#
# Elastic Constant Matrix: (Units=GPa)
#
#
# Indices 1 2 3 4 5 6 
#
# 1 52.5869 -1.9988 33.9688 -6.2049 -4.3567 -15.3957
# 2 -1.9988 49.9180 5.9471 -5.1964 -9.0729 -4.1673
# 3 33.9688 5.9471 165.4904 -2.1894 14.4079 2.1446
# 4 -6.2049 -5.1964 -2.1894 15.0863 -5.1555 -1.8114
# 5 -4.3567 -9.0729 14.4079 -5.1555 32.3764 -10.4847
# 6 -15.3957 -4.1673 2.1446 -1.8114 -10.4847 40.1433
#
#
#
# Elastic Compliance Matrix: (Units=1/GPa)
#
#
# Indices 1 2 3 4 5 6 
#
# 1 0.040624 0.013627 -0.011175 0.032505 0.027972 0.026364
# 2 0.013627 0.028786 -0.005544 0.023710 0.021024 0.015072
# 3 -0.011175 -0.005544 0.009545 -0.010232 -0.011823 -0.008921
# 4 0.032505 0.023710 -0.010232 0.104557 0.042341 0.031251
# 5 0.027972 0.021024 -0.011823 0.042341 0.062867 0.031872
# 6 0.026364 0.015072 -0.008921 0.031251 0.031872 0.046798
#
#
# Mechanical properties :
#
#
# Convention : Reuss Voigt Hill
#
# Bulk Modulus (GPa) = 13.74153 38.20326 25.97239
# Shear Modulus (GPa) = 15.45023 32.85975 24.15499
#
# Velocity S-wave (km/s) = 2.46010 3.58772 3.07602
# Velocity P-wave (km/s) = 3.66773 5.66808 4.77386
#
# Compressibility (1/GPa) = 0.07277213
#
# Stress axis : x y z
#
# Youngs Moduli (GPa) = 24.61590 34.73851 104.76364
#
# Poissons Ratio (x) = -0.47337 1.17075
# Poissons Ratio (y) = -0.33544 0.58076
# Poissons Ratio (z) = 0.27509 0.19257
#
# Static dielectric constant tensor:
#      x y z
#    x 2.072900 0.009020 -0.008110 
#    y 0.009020 2.244980 0.069280 
#    z -0.008110 0.069280 2.124140 
# 
# From -- ./inp_files/440769.got.cif
#   From: 2010.05.17/outbox.cif.g08.bks.cpg/sg2_221_cif.got.tgz:440769.got - 2010.06.03 11:33:40.
