data_PCOD9026903
_publ_section_title
;
Structure prediction by ZEFSAII (Michael W. Deem and Ramdas Pophale) SiO2 
 PCOD9026903
Probable space group: P -1
;
_chemical_formula_sum "Si O2"
_cell_formula_units_Z 14
_cell_length_a 8.443383
_cell_length_b 12.121700
_cell_length_c 15.687929
_cell_angle_alpha 36.678309
_cell_angle_beta 50.314769
_cell_angle_gamma 59.645679
_cell_volume 737.991440
_symmetry_space_group_name_H-M "P -1"
_symmetry_group_IT_number 2
_symmetry_cell_setting 'triclinic'
loop_
_space_group_symop_operation_xyz
x,y,z
-x,-y,-z
loop_
_atom_site_type_symbol
_atom_site_label
_atom_site_fract_x
_atom_site_fract_y
_atom_site_fract_z
Si Si1 0.607374 0.410563 0.635650
Si Si2 0.085162 0.054166 0.635844
Si Si3 0.624216 0.841520 0.375166
Si Si4 0.807693 0.787213 0.162875
Si Si5 0.170544 0.862618 0.560611
Si Si6 0.739457 0.060180 0.877507
Si Si7 0.066594 0.591203 0.625612
O O1 0.604421 0.620867 0.534350
O O2 0.382859 0.323879 0.748758
O O3 0.731038 0.282474 0.738725
O O4 0.731247 0.400345 0.510081
O O5 0.232852 0.075061 0.652661
O O6 0.858948 0.010794 0.779823
O O7 0.075389 0.253868 0.466587
O O8 0.160106 0.895812 0.644387
O O9 0.720504 0.858432 0.238102
O O10 0.395123 0.916962 0.414767
O O11 0.977357 0.628659 0.217467
O O12 0.850873 0.958986 0.979565
O O13 0.113177 0.668981 0.655743
O O14 0.000000 0.000000 0.500000
O O15 0.500000 0.000000 0.000000
#
# Coordination Sequence:
#
# PCOD9026903 Si02
#       7
#     2   2   2   2   2   2   2
#     4   9  16  31  55  79 103 131 175 215 261 300
#     4  10  22  33  50  82 108 139 168 213 266 299
#     4  11  19  33  56  80 108 129 173 225 258 299
#     4  10  17  31  57  76 105 136 172 213 258 308
#     4  10  19  33  55  76 104 136 178 214 250 312
#     4   9  20  34  52  77 110 136 171 213 257 314
#     4   9  16  32  53  78  99 133 178 210 251 306
#
# _framework density 18.970409
#
# number of rings (size 3 to 8) (size 9 to 14) (size 15 to 20)
#    0.000    2.286    2.857    1.286    2.000    5.714 
#    0.000    0.714    0.000    0.000    0.000    5.000 
#    0.000    0.000    0.000    0.000    0.000    0.000 
#
# Total GULP energy -77960.365277 kJ/mol
# GULP energy per Si atom -5568.597520 kJ/mol
# Density = 1.892723 g / cm^3
# Si number density = 18.970409 Si / 1000 Ang^3
#
#
#
# Elastic Constant Matrix: (Units=GPa)
#
#
# Indices 1 2 3 4 5 6 
#
# 1 60.0222 41.0000 25.7847 4.4097 8.5503 9.1824
# 2 41.0000 117.5352 34.5353 14.8735 8.6609 3.3922
# 3 25.7847 34.5353 80.9687 -5.4251 27.9704 -2.4462
# 4 4.4097 14.8735 -5.4251 17.1172 -6.0701 11.4801
# 5 8.5503 8.6609 27.9704 -6.0701 34.0233 -0.4365
# 6 9.1824 3.3922 -2.4462 11.4801 -0.4365 29.2454
#
#
#
# Elastic Compliance Matrix: (Units=1/GPa)
#
#
# Indices 1 2 3 4 5 6 
#
# 1 0.024974 -0.007746 -0.004715 0.005234 0.000385 -0.009386
# 2 -0.007746 0.014511 -0.004229 -0.017166 -0.001242 0.007115
# 3 -0.004715 -0.004229 0.020862 0.005751 -0.013847 0.001252
# 4 0.005234 -0.017166 0.005751 0.107364 0.016954 -0.041064
# 5 0.000385 -0.001242 -0.013847 0.016954 0.043928 -0.007135
# 6 -0.009386 0.007115 0.001252 -0.041064 -0.007135 0.052433
#
#
# Mechanical properties :
#
#
# Convention : Reuss Voigt Hill
#
# Bulk Modulus (GPa) = 37.08169 51.24066 44.16117
# Shear Modulus (GPa) = 16.31634 26.55758 21.43696
#
# Velocity S-wave (km/s) = 2.93592 3.74565 3.36523
# Velocity P-wave (km/s) = 5.57516 6.76579 6.19913
#
# Compressibility (1/GPa) = 0.02696749
#
# Stress axis : x y z
#
# Youngs Moduli (GPa) = 40.04217 68.91221 47.93339
#
# Poissons Ratio (x) = 0.53380 0.22600
# Poissons Ratio (y) = 0.31017 0.20270
# Poissons Ratio (z) = 0.18880 0.29141
#
# Static dielectric constant tensor:
#      x y z
#    x 1.720440 -0.018840 0.028680 
#    y -0.018840 1.676350 -0.013760 
#    z 0.028680 -0.013760 1.690140 
# 
# From -- ./inp_files/232372.got.cif
#   From: 2010.05.17/outbox.cif.g08.bks.cpg/sg2_117_cif.got.tgz:232372.got - 2010.06.03 11:33:40.
