data_PCOD9026525
_publ_section_title
;
Structure prediction by ZEFSAII (Michael W. Deem and Ramdas Pophale) SiO2 
 PCOD9026525
Probable space group: P -1
;
_chemical_formula_sum "Si O2"
_cell_formula_units_Z 15
_cell_length_a 13.815562
_cell_length_b 6.772449
_cell_length_c 13.023752
_cell_angle_alpha 77.131459
_cell_angle_beta 133.699421
_cell_angle_gamma 127.922945
_cell_volume 649.956171
_symmetry_space_group_name_H-M "P -1"
_symmetry_group_IT_number 2
_symmetry_cell_setting 'triclinic'
loop_
_space_group_symop_operation_xyz
x,y,z
-x,-y,-z
loop_
_atom_site_type_symbol
_atom_site_label
_atom_site_fract_x
_atom_site_fract_y
_atom_site_fract_z
Si Si1 0.112068 0.895803 0.986265
Si Si2 0.023673 0.909084 0.260996
Si Si3 0.500000 0.000000 0.500000
Si Si4 0.815571 0.854591 0.438287
Si Si5 0.622593 0.436730 0.058186
Si Si6 0.429645 0.020175 0.792643
Si Si7 0.097022 0.623928 0.213104
Si Si8 0.499437 0.764234 0.719875
O O1 0.076834 0.744506 0.083477
O O2 0.320583 0.144699 0.110974
O O3 0.057338 0.692472 0.876664
O O4 0.990247 0.966417 0.864859
O O5 0.824017 0.705948 0.179855
O O6 0.075857 0.736921 0.285379
O O7 0.149174 0.112245 0.418071
O O8 0.293679 0.731267 0.350017
O O9 0.521984 0.817830 0.609269
O O10 0.668694 0.539702 0.343071
O O11 0.738006 0.998225 0.336045
O O12 0.000000 0.000000 0.500000
O O13 0.597950 0.212497 0.136251
O O14 0.500000 0.500000 0.000000
O O15 0.572904 0.299989 0.924523
O O16 0.477915 0.974195 0.722422
#
# Coordination Sequence:
#
# PCOD9026525 Si02
#       8
#     2   2   1   2   2   2   2   2
#     4  10  22  41  66  93 127 164 212 274 322 385
#     4  12  23  39  64  92 126 169 214 263 327 391
#     4  10  22  42  66  94 134 168 210 274 328 388
#     4  12  27  42  62  95 136 176 220 273 326 389
#     4  11  24  42  66  96 127 164 221 277 326 389
#     4  11  23  42  66  91 125 173 215 265 330 388
#     4  10  22  41  64  95 126 166 214 265 330 392
#     4  11  23  43  66  94 131 172 221 270 328 390
#
# _framework density 23.078476999999999
#
# number of rings (size 3 to 8) (size 9 to 14) (size 15 to 20)
#    0.000    1.067    0.000    6.800    0.000    6.400 
#    0.000   16.000    0.000    0.000    0.000    0.000 
#    0.000    0.000    0.000    0.000    0.000    0.000 
#
# Total GULP energy -83608.987165 kJ/mol
# GULP energy per Si atom -5573.932478 kJ/mol
# Density = 2.302595 g / cm^3
# Si number density = 23.078477 Si / 1000 Ang^3
#
#
#
# Elastic Constant Matrix: (Units=GPa)
#
#
# Indices 1 2 3 4 5 6 
#
# 1 43.1067 18.4358 19.8301 9.4422 3.0361 -22.6739
# 2 18.4358 104.3880 56.3133 12.2955 9.1978 -11.8871
# 3 19.8301 56.3133 142.8778 12.7026 0.7293 -12.9987
# 4 9.4422 12.2955 12.7026 45.3624 -7.8404 0.3058
# 5 3.0361 9.1978 0.7293 -7.8404 16.9548 5.7304
# 6 -22.6739 -11.8871 -12.9987 0.3058 5.7304 35.9856
#
#
#
# Elastic Compliance Matrix: (Units=1/GPa)
#
#
# Indices 1 2 3 4 5 6 
#
# 1 0.045967 0.000789 -0.002360 -0.013831 -0.025981 0.032626
# 2 0.000789 0.014187 -0.004733 -0.004732 -0.011636 0.005367
# 3 -0.002360 -0.004733 0.009202 -0.000377 0.002459 -0.000115
# 4 -0.013831 -0.004732 -0.000377 0.030576 0.024104 -0.014512
# 5 -0.025981 -0.011636 0.002459 0.024104 0.092569 -0.034271
# 6 0.032626 0.005367 -0.000115 -0.014512 -0.034271 0.055658
#
#
# Mechanical properties :
#
#
# Convention : Reuss Voigt Hill
#
# Bulk Modulus (GPa) = 17.62170 53.28120 35.45145
# Shear Modulus (GPa) = 17.87731 32.71344 25.29537
#
# Velocity S-wave (km/s) = 2.78624 3.76904 3.31427
# Velocity P-wave (km/s) = 4.24299 6.48675 5.48092
#
# Compressibility (1/GPa) = 0.05674822
#
# Stress axis : x y z
#
# Youngs Moduli (GPa) = 21.75462 70.48561 108.66639
#
# Poissons Ratio (x) = -0.05558 0.25646
# Poissons Ratio (y) = -0.01715 0.51430
# Poissons Ratio (z) = 0.05134 0.33360
#
# Static dielectric constant tensor:
#      x y z
#    x 1.955680 0.020050 -0.070170 
#    y 0.020050 1.879470 -0.026290 
#    z -0.070170 -0.026290 1.860900 
# 
# From -- ./inp_files/90370.got.cif
#   From: 2010.05.17/outbox.cif.g08.bks.cpg/sg2_46_cif.got.tgz:90370.got - 2010.06.03 11:33:40.
