data_PCOD9026486
_publ_section_title
;
Structure prediction by ZEFSAII (Michael W. Deem and Ramdas Pophale) SiO2 
 PCOD9026486
Probable space group: P -1
;
_chemical_formula_sum "Si O2"
_cell_formula_units_Z 16
_cell_length_a 7.950109
_cell_length_b 19.057848
_cell_length_c 11.808640
_cell_angle_alpha 38.153680
_cell_angle_beta 109.814924
_cell_angle_gamma 133.754856
_cell_volume 709.264488
_symmetry_space_group_name_H-M "P -1"
_symmetry_group_IT_number 2
_symmetry_cell_setting 'triclinic'
loop_
_space_group_symop_operation_xyz
x,y,z
-x,-y,-z
loop_
_atom_site_type_symbol
_atom_site_label
_atom_site_fract_x
_atom_site_fract_y
_atom_site_fract_z
Si Si1 0.711463 0.056282 0.566060
Si Si2 0.108061 0.505731 0.366564
Si Si3 0.612052 0.902524 0.963616
Si Si4 0.913358 0.558204 0.819694
Si Si5 0.846910 0.960676 0.155015
Si Si6 0.964022 0.939785 0.693816
Si Si7 0.373656 0.584236 0.534876
Si Si8 0.405361 0.424774 0.948075
O O1 0.946941 0.256480 0.358398
O O2 0.500000 0.000000 0.500000
O O3 0.611355 0.998094 0.746106
O O4 0.791055 0.965006 0.668972
O O5 0.053097 0.448459 0.297208
O O6 0.244695 0.481754 0.517239
O O7 0.833240 0.415721 0.472920
O O8 0.331401 0.709429 0.152472
O O9 0.715280 0.986841 0.004220
O O10 0.851019 0.925926 0.952874
O O11 0.608569 0.429314 0.938481
O O12 0.000000 0.500000 0.000000
O O13 0.663812 0.764574 0.347065
O O14 0.828116 0.976927 0.263241
O O15 0.863275 0.766356 0.870505
O O16 0.000000 0.000000 0.500000
O O17 0.392505 0.515360 0.736602
O O18 0.500000 0.500000 0.000000
#
# Coordination Sequence:
#
# PCOD9026486 Si02
#       8
#     2   2   2   2   2   2   2   2
#     4  11  23  39  59  86 120 158 203 254 309 369
#     4  10  22  41  64  93 129 166 208 261 318 375
#     4   9  18  36  61  87 118 157 202 250 302 364
#     4  12  24  40  64  92 125 166 214 263 317 378
#     4   9  18  36  61  87 118 157 202 250 302 364
#     4  11  23  39  59  86 120 158 203 254 309 369
#     4  10  22  41  64  93 129 166 208 261 318 375
#     4  12  24  40  64  92 125 166 214 263 317 378
#
# _framework density 22.558581
#
# number of rings (size 3 to 8) (size 9 to 14) (size 15 to 20)
#    0.000    1.500    0.000    6.750    0.000    3.500 
#    0.000    0.000    0.000    5.250    0.000    0.000 
#    0.000    0.000    0.000    0.000    0.000    0.000 
#
# Total GULP energy -89181.931691 kJ/mol
# GULP energy per Si atom -5573.870731 kJ/mol
# Density = 2.250724 g / cm^3
# Si number density = 22.558581 Si / 1000 Ang^3
#
#
#
# Elastic Constant Matrix: (Units=GPa)
#
#
# Indices 1 2 3 4 5 6 
#
# 1 33.5340 16.7554 0.5229 8.7633 -5.8225 -3.5987
# 2 16.7554 169.2154 45.7940 51.1494 13.0079 -5.4359
# 3 0.5229 45.7940 112.6348 27.0210 1.7409 -0.8572
# 4 8.7633 51.1494 27.0210 64.5201 3.9994 -1.0344
# 5 -5.8225 13.0079 1.7409 3.9994 28.4490 3.9391
# 6 -3.5987 -5.4359 -0.8572 -1.0344 3.9391 24.0533
#
#
#
# Elastic Compliance Matrix: (Units=1/GPa)
#
#
# Indices 1 2 3 4 5 6 
#
# 1 0.034153 -0.003515 0.001913 -0.003136 0.008526 0.002852
# 2 -0.003515 0.008844 -0.002226 -0.005316 -0.004135 0.001842
# 3 0.001913 -0.002226 0.010463 -0.002955 0.001208 -0.000169
# 4 -0.003136 -0.005316 -0.002955 0.021424 -0.000945 -0.000700
# 5 0.008526 -0.004135 0.001208 -0.000945 0.039698 -0.006158
# 6 0.002852 0.001842 -0.000169 -0.000700 -0.006158 0.043390
#
#
# Mechanical properties :
#
#
# Convention : Reuss Voigt Hill
#
# Bulk Modulus (GPa) = 21.83265 49.05876 35.44571
# Shear Modulus (GPa) = 27.64010 40.22528 33.93269
#
# Velocity S-wave (km/s) = 3.50417 4.22731 3.88261
# Velocity P-wave (km/s) = 5.10602 6.75436 5.98719
#
# Compressibility (1/GPa) = 0.04580296
#
# Stress axis : x y z
#
# Youngs Moduli (GPa) = 29.27990 113.07137 95.57174
#
# Poissons Ratio (x) = 0.39749 -0.18282
# Poissons Ratio (y) = 0.10293 0.21277
# Poissons Ratio (z) = -0.05601 0.25173
#
# Static dielectric constant tensor:
#      x y z
#    x 1.936620 0.177350 0.070340 
#    y 0.177350 2.241850 0.064510 
#    z 0.070340 0.064510 1.894540 
# 
# From -- ./inp_files/405424.got.cif
#   From: 2010.05.17/outbox.cif.g08.bks.cpg/sg2_203_cif.got.tgz:405424.got - 2010.06.03 11:33:40.
