data_PCOD9026400
_publ_section_title
;
Structure prediction by ZEFSAII (Michael W. Deem and Ramdas Pophale) SiO2 
 PCOD9026400
Probable space group: P -1
;
_chemical_formula_sum "Si O2"
_cell_formula_units_Z 16
_cell_length_a 12.115585
_cell_length_b 11.582635
_cell_length_c 8.564730
_cell_angle_alpha 95.762013
_cell_angle_beta 140.542485
_cell_angle_gamma 67.352922
_cell_volume 664.003050
_symmetry_space_group_name_H-M "P -1"
_symmetry_group_IT_number 2
_symmetry_cell_setting 'triclinic'
loop_
_space_group_symop_operation_xyz
x,y,z
-x,-y,-z
loop_
_atom_site_type_symbol
_atom_site_label
_atom_site_fract_x
_atom_site_fract_y
_atom_site_fract_z
Si Si1 0.194750 0.579033 0.057272
Si Si2 0.452641 0.056155 0.698578
Si Si3 0.637289 0.128933 0.645093
Si Si4 0.811933 0.872214 0.280779
Si Si5 0.863347 0.170095 0.149717
Si Si6 0.447587 0.651187 0.927454
Si Si7 0.356588 0.638510 0.507924
Si Si8 0.139487 0.396015 0.763998
O O1 0.193778 0.613944 0.240856
O O2 0.433308 0.497819 0.269707
O O3 0.101021 0.714211 0.873910
O O4 0.118799 0.479283 0.908230
O O5 0.471384 0.142465 0.591161
O O6 0.322475 0.122803 0.716891
O O7 0.367762 0.968531 0.506261
O O8 0.670312 0.966864 0.002962
O O9 0.602244 0.262419 0.540424
O O10 0.829807 0.091136 0.960939
O O11 0.902039 0.725259 0.290175
O O12 0.970352 0.901119 0.547053
O O13 0.656407 0.253702 0.028662
O O14 0.299975 0.697039 0.625267
O O15 0.500000 0.500000 0.000000
O O16 0.638914 0.654125 0.068235
O O17 0.000000 0.500000 0.500000
#
# Coordination Sequence:
#
# PCOD9026400 Si02
#       8
#     2   2   2   2   2   2   2   2
#     4   9  17  33  55  87 121 158 190 243 303 367
#     4  10  23  44  64  88 123 164 214 257 315 360
#     4  10  22  41  64  90 116 167 208 260 309 364
#     4  11  23  41  65  91 124 165 208 262 308 364
#     4  11  21  38  64  94 124 160 212 256 305 370
#     4  11  19  34  58  91 124 164 200 244 303 378
#     4   9  18  33  60  87 124 157 200 243 306 370
#     4  11  19  34  61  90 125 161 196 247 315 369
#
# _framework density 24.096274000000001
#
# number of rings (size 3 to 8) (size 9 to 14) (size 15 to 20)
#    0.000    1.750    3.750    2.250    0.000    2.000 
#    0.000    5.000    0.000    2.250    0.000    0.000 
#    0.000    0.000    0.000    0.000    0.000    0.000 
#
# Total GULP energy -89353.357283 kJ/mol
# GULP energy per Si atom -5584.584830 kJ/mol
# Density = 2.404143 g / cm^3
# Si number density = 24.096274 Si / 1000 Ang^3
#
#
#
# Elastic Constant Matrix: (Units=GPa)
#
#
# Indices 1 2 3 4 5 6 
#
# 1 69.0921 27.7718 16.5662 1.8882 -14.1905 9.7058
# 2 27.7718 101.4083 60.6514 28.1520 -18.1438 7.4787
# 3 16.5662 60.6514 153.5795 37.0554 -13.2732 4.9902
# 4 1.8882 28.1520 37.0554 34.6396 -5.7882 -12.4948
# 5 -14.1905 -18.1438 -13.2732 -5.7882 35.2751 4.0765
# 6 9.7058 7.4787 4.9902 -12.4948 4.0765 26.4298
#
#
#
# Elastic Compliance Matrix: (Units=1/GPa)
#
#
# Indices 1 2 3 4 5 6 
#
# 1 0.018050 -0.003562 0.000056 0.000627 0.006282 -0.006304
# 2 -0.003562 0.018483 -0.002211 -0.015737 0.006032 -0.011875
# 3 0.000056 -0.002211 0.010653 -0.011949 0.001781 -0.007330
# 4 0.000627 -0.015737 -0.011949 0.067632 -0.005788 0.039345
# 5 0.006282 0.006032 0.001781 -0.005788 0.035144 -0.012507
# 6 -0.006304 -0.011875 -0.007330 0.039345 -0.012507 0.065425
#
#
# Mechanical properties :
#
#
# Convention : Reuss Voigt Hill
#
# Bulk Modulus (GPa) = 27.96939 59.33984 43.65462
# Shear Modulus (GPa) = 20.94346 33.87494 27.40920
#
# Velocity S-wave (km/s) = 2.95135 3.75349 3.37632
# Velocity P-wave (km/s) = 4.82146 6.59276 5.77542
#
# Compressibility (1/GPa) = 0.03575337
#
# Stress axis : x y z
#
# Youngs Moduli (GPa) = 55.40073 54.10479 93.86614
#
# Poissons Ratio (x) = 0.19273 -0.00528
# Poissons Ratio (y) = 0.19734 0.20751
# Poissons Ratio (z) = -0.00311 0.11961
#
# Static dielectric constant tensor:
#      x y z
#    x 1.890660 -0.007370 -0.003290 
#    y -0.007370 1.925380 0.043740 
#    z -0.003290 0.043740 1.901930 
# 
# From -- ./inp_files/307836.got.cif
#   From: 2010.05.17/outbox.cif.g08.bks.cpg/sg2_154_cif.got.tgz:307836.got - 2010.06.03 11:33:40.
