data_PCOD9026263
_publ_section_title
;
Structure prediction by ZEFSAII (Michael W. Deem and Ramdas Pophale) SiO2 
 PCOD9026263
Probable space group: P -1
;
_chemical_formula_sum "Si O2"
_cell_formula_units_Z 10
_cell_length_a 12.899263
_cell_length_b 9.961879
_cell_length_c 9.413946
_cell_angle_alpha 69.461401
_cell_angle_beta 127.833111
_cell_angle_gamma 148.019297
_cell_volume 462.655562
_symmetry_space_group_name_H-M "P -1"
_symmetry_group_IT_number 2
_symmetry_cell_setting 'triclinic'
loop_
_space_group_symop_operation_xyz
x,y,z
-x,-y,-z
loop_
_atom_site_type_symbol
_atom_site_label
_atom_site_fract_x
_atom_site_fract_y
_atom_site_fract_z
Si Si1 0.422843 0.709370 0.625683
Si Si2 0.512937 0.308907 0.730407
Si Si3 0.329755 0.472234 0.917974
Si Si4 0.214800 0.157199 0.298422
Si Si5 0.249252 0.714951 0.223715
O O1 0.298700 0.543028 0.728876
O O2 0.573959 0.722601 0.668066
O O3 0.228798 0.600516 0.392172
O O4 0.632670 0.024715 0.725155
O O5 0.274670 0.160327 0.508132
O O6 0.739402 0.630411 0.753566
O O7 0.554686 0.193145 0.741006
O O8 0.529400 0.321948 0.908222
O O9 0.500000 0.500000 0.000000
O O10 0.060499 0.156377 0.855950
O O11 0.000000 0.500000 0.000000
#
# Coordination Sequence:
#
# PCOD9026263 Si02
#       5
#     2   2   2   2   2
#     4  10  23  43  62  93 123 162 207 249 310 365
#     4  10  22  41  63  92 123 166 204 253 308 359
#     4  12  24  37  66  97 123 160 205 258 311 358
#     4  10  22  43  62  90 130 157 208 257 299 367
#     4  10  22  41  66  86 125 169 201 249 308 367
#
# _framework density 21.614350999999999
#
# number of rings (size 3 to 8) (size 9 to 14) (size 15 to 20)
#    0.000    1.600    2.000    1.800    2.800    3.200 
#    0.000   14.000    0.000    0.000    0.000    0.000 
#    0.000    0.000    0.000    0.000    0.000    0.000 
#
# Total GULP energy -55873.341319 kJ/mol
# GULP energy per Si atom -5587.334132 kJ/mol
# Density = 2.156516 g / cm^3
# Si number density = 21.614351 Si / 1000 Ang^3
#
#
#
# Elastic Constant Matrix: (Units=GPa)
#
#
# Indices 1 2 3 4 5 6 
#
# 1 57.1816 5.1878 10.7216 -4.5468 -21.8266 -18.3626
# 2 5.1878 31.2668 14.5772 -8.5494 -3.3110 -6.1211
# 3 10.7216 14.5772 142.3064 3.2355 -28.6235 7.4405
# 4 -4.5468 -8.5494 3.2355 30.6758 1.1831 -7.1572
# 5 -21.8266 -3.3110 -28.6235 1.1831 37.3067 2.7633
# 6 -18.3626 -6.1211 7.4405 -7.1572 2.7633 28.7322
#
#
#
# Elastic Compliance Matrix: (Units=1/GPa)
#
#
# Indices 1 2 3 4 5 6 
#
# 1 0.031391 0.004175 -0.000978 0.010501 0.016003 0.022281
# 2 0.004175 0.042146 -0.005983 0.017082 -0.000243 0.017475
# 3 -0.000978 -0.005983 0.009501 -0.004508 0.006784 -0.006135
# 4 0.010501 0.017082 -0.004508 0.044603 0.001119 0.022521
# 5 0.016003 -0.000243 0.006784 0.001119 0.040963 0.004758
# 6 0.022281 0.017475 -0.006135 0.022521 0.004758 0.059508
#
#
# Mechanical properties :
#
#
# Convention : Reuss Voigt Hill
#
# Bulk Modulus (GPa) = 12.90858 32.41424 22.66141
# Shear Modulus (GPa) = 19.26743 32.69415 25.98079
#
# Velocity S-wave (km/s) = 2.98890 3.89345 3.47077
# Velocity P-wave (km/s) = 4.23043 5.93642 5.15450
#
# Compressibility (1/GPa) = 0.07746784
#
# Stress axis : x y z
#
# Youngs Moduli (GPa) = 31.85614 23.72731 105.24686
#
# Poissons Ratio (x) = -0.09907 0.10290
# Poissons Ratio (y) = -0.13301 0.62967
# Poissons Ratio (z) = 0.03115 0.14195
#
# Static dielectric constant tensor:
#      x y z
#    x 1.754500 0.011300 -0.019380 
#    y 0.011300 1.762700 -0.034140 
#    z -0.019380 -0.034140 1.846580 
# 
# From -- ./inp_files/18066.got.cif
#   From: 2010.05.17/outbox.cif.g08.bks.cpg/sg2_10_cif.got.tgz:18066.got - 2010.06.03 11:33:40.
