data_PCOD9026575
_publ_section_title
;
Structure prediction by ZEFSAII (Michael W. Deem and Ramdas Pophale) SiO2 
 PCOD9026575
Probable space group: P -1
;
_chemical_formula_sum "Si O2"
_cell_formula_units_Z 16
_cell_length_a 13.301961
_cell_length_b 15.105616
_cell_length_c 14.831693
_cell_angle_alpha 26.805584
_cell_angle_beta 37.443979
_cell_angle_gamma 51.141281
_cell_volume 780.426331
_symmetry_space_group_name_H-M "P -1"
_symmetry_group_IT_number 2
_symmetry_cell_setting 'triclinic'
loop_
_space_group_symop_operation_xyz
x,y,z
-x,-y,-z
loop_
_atom_site_type_symbol
_atom_site_label
_atom_site_fract_x
_atom_site_fract_y
_atom_site_fract_z
Si Si1 0.709259 0.295967 0.092709
Si Si2 0.421197 0.073785 0.077355
Si Si3 0.018912 0.578020 0.061249
Si Si4 0.711095 0.034872 0.016298
Si Si5 0.321297 0.324216 0.780647
Si Si6 0.071670 0.808532 0.624974
Si Si7 0.660072 0.874853 0.401008
Si Si8 0.924990 0.643365 0.488888
O O1 0.520173 0.266627 0.298278
O O2 0.699602 0.091871 0.228007
O O3 0.796392 0.494637 0.787797
O O4 0.841357 0.313826 0.064255
O O5 0.574818 0.148997 0.971620
O O6 0.276422 0.882473 0.394895
O O7 0.318790 0.223307 0.973504
O O8 0.500000 0.000000 0.000000
O O9 0.827597 0.574628 0.228344
O O10 0.019526 0.349841 0.243907
O O11 0.046977 0.701010 0.836329
O O12 0.696753 0.851870 0.121320
O O13 0.654356 0.933224 0.246784
O O14 0.904614 0.191170 0.741229
O O15 0.500000 0.500000 0.500000
O O16 0.000000 0.000000 0.500000
O O17 0.811021 0.768154 0.405842
O O18 0.000000 0.500000 0.500000
#
# Coordination Sequence:
#
# PCOD9026575 Si02
#       8
#     2   2   2   2   2   2   2   2
#     4  11  26  45  74 100 140 184 232 287 348 417
#     4  10  22  41  64  97 136 176 219 271 333 406
#     4  11  24  41  70 100 134 183 225 273 347 405
#     4  11  24  43  73 100 139 181 231 285 343 406
#     4  11  24  40  68 102 144 179 225 285 335 414
#     4  11  23  44  64  97 140 174 225 276 332 402
#     4  11  25  50  69 101 141 182 233 290 350 413
#     4  12  26  44  71 106 136 179 235 294 343 411
#
# _framework density 20.501614
#
# number of rings (size 3 to 8) (size 9 to 14) (size 15 to 20)
#    0.000    1.000    2.500    3.750    7.000    2.000 
#    2.250    0.000    0.000    0.000    0.000    0.000 
#    0.000    0.000    0.000    0.000    0.000    0.000 
#
# Total GULP energy -89349.743515 kJ/mol
# GULP energy per Si atom -5584.358970 kJ/mol
# Density = 2.045495 g / cm^3
# Si number density = 20.501614 Si / 1000 Ang^3
#
#
#
# Elastic Constant Matrix: (Units=GPa)
#
#
# Indices 1 2 3 4 5 6 
#
# 1 133.0702 52.9504 44.0479 -0.8635 -18.7708 5.9974
# 2 52.9504 95.7104 43.6709 -4.7828 -7.2537 -4.1523
# 3 44.0479 43.6709 136.7424 8.6657 -16.9096 12.8808
# 4 -0.8635 -4.7828 8.6657 31.7201 -1.2162 -1.7930
# 5 -18.7708 -7.2537 -16.9096 -1.2162 33.3080 0.3247
# 6 5.9974 -4.1523 12.8808 -1.7930 0.3247 26.5190
#
#
#
# Elastic Compliance Matrix: (Units=1/GPa)
#
#
# Indices 1 2 3 4 5 6 
#
# 1 0.010673 -0.005289 -0.000917 -0.000249 0.004417 -0.002867
# 2 -0.005289 0.015653 -0.004301 0.003666 -0.001680 0.006005
# 3 -0.000917 -0.004301 0.010202 -0.003644 0.003649 -0.005713
# 4 -0.000249 0.003666 -0.003644 0.033329 -0.000020 0.004654
# 5 0.004417 -0.001680 0.003649 -0.000020 0.034031 -0.003452
# 6 -0.002867 0.006005 -0.005713 0.004654 -0.003452 0.042429
#
#
# Mechanical properties :
#
#
# Convention : Reuss Voigt Hill
#
# Bulk Modulus (GPa) = 64.45378 71.87347 68.16362
# Shear Modulus (GPa) = 28.98490 33.29969 31.14229
#
# Velocity S-wave (km/s) = 3.76411 4.03457 3.90168
# Velocity P-wave (km/s) = 7.09916 7.53905 7.32241
#
# Compressibility (1/GPa) = 0.01551499
#
# Stress axis : x y z
#
# Youngs Moduli (GPa) = 93.69069 63.88575 98.01737
#
# Poissons Ratio (x) = 0.33786 0.08989
# Poissons Ratio (y) = 0.49549 0.42158
# Poissons Ratio (z) = 0.08593 0.27478
#
# Static dielectric constant tensor:
#      x y z
#    x 1.717680 -0.027060 0.011780 
#    y -0.027060 1.780970 0.045810 
#    z 0.011780 0.045810 1.727900 
# 
# From -- ./inp_files/354570.got.cif
#   From: 2010.05.17/outbox.cif.g08.bks.cpg/sg2_178_cif.got.tgz:354570.got - 2010.06.03 11:33:40.
