data_PCOD9026746
_publ_section_title
;
Structure prediction by ZEFSAII (Michael W. Deem and Ramdas Pophale) SiO2 
 PCOD9026746
Probable space group: P -1
;
_chemical_formula_sum "Si O2"
_cell_formula_units_Z 16
_cell_length_a 9.649722
_cell_length_b 12.322895
_cell_length_c 9.932749
_cell_angle_alpha 88.376201
_cell_angle_beta 63.603087
_cell_angle_gamma 45.726506
_cell_volume 680.361840
_symmetry_space_group_name_H-M "P -1"
_symmetry_group_IT_number 2
_symmetry_cell_setting 'triclinic'
loop_
_space_group_symop_operation_xyz
x,y,z
-x,-y,-z
loop_
_atom_site_type_symbol
_atom_site_label
_atom_site_fract_x
_atom_site_fract_y
_atom_site_fract_z
Si Si1 0.576170 0.891299 0.653920
Si Si2 0.648818 0.453645 0.611014
Si Si3 0.886421 0.992175 0.169037
Si Si4 0.962049 0.089125 0.380506
Si Si5 0.757817 0.483287 0.282185
Si Si6 0.229355 0.273458 0.718158
Si Si7 0.760978 0.873300 0.833179
Si Si8 0.222124 0.614763 0.140813
O O1 0.704690 0.783927 0.465943
O O2 0.763854 0.806928 0.693807
O O3 0.362092 0.923929 0.777454
O O4 0.429527 0.084561 0.700638
O O5 0.664316 0.527831 0.477280
O O6 0.394056 0.527352 0.731080
O O7 0.756754 0.427015 0.708417
O O8 0.807735 0.271759 0.489518
O O9 0.064628 0.804966 0.159928
O O10 0.835524 0.091838 0.317824
O O11 0.000000 0.000000 0.000000
O O12 0.190651 0.025568 0.218411
O O13 0.000000 0.000000 0.500000
O O14 0.737223 0.621048 0.251070
O O15 0.029668 0.293150 0.163971
O O16 0.949502 0.385890 0.851660
O O17 0.500000 0.000000 0.000000
O O18 0.500000 0.500000 0.000000
#
# Coordination Sequence:
#
# PCOD9026746 Si02
#       8
#     2   2   2   2   2   2   2   2
#     4  10  23  40  67  92 130 164 220 273 323 394
#     4  10  22  42  66  97 125 170 227 271 322 400
#     4  11  24  42  67 101 130 170 219 272 332 386
#     4  11  22  40  73  94 127 177 225 268 327 400
#     4  10  23  41  68  93 129 169 220 274 327 391
#     4  10  22  41  65  95 121 168 220 270 328 390
#     4  11  25  42  61  96 135 173 219 275 330 396
#     4  11  25  41  61  92 135 169 214 270 331 394
#
# _framework density 23.5169
#
# number of rings (size 3 to 8) (size 9 to 14) (size 15 to 20)
#    0.000    1.500    1.250    3.000    5.250   10.000 
#    0.000    1.250    0.000    0.000    0.000    0.000 
#    0.000    0.000    0.000    0.000    0.000    0.000 
#
# Total GULP energy -89388.347345 kJ/mol
# GULP energy per Si atom -5586.771709 kJ/mol
# Density = 2.346337 g / cm^3
# Si number density = 23.516900 Si / 1000 Ang^3
#
#
#
# Elastic Constant Matrix: (Units=GPa)
#
#
# Indices 1 2 3 4 5 6 
#
# 1 85.0097 33.2147 -1.9939 5.9397 -17.4290 -8.4202
# 2 33.2147 42.7597 28.9889 -7.2075 -20.7736 4.0368
# 3 -1.9939 28.9889 56.7403 9.1951 -22.6233 0.6090
# 4 5.9397 -7.2075 9.1951 30.1141 -13.5209 -5.3956
# 5 -17.4290 -20.7736 -22.6233 -13.5209 45.0424 -4.6709
# 6 -8.4202 4.0368 0.6090 -5.3956 -4.6709 38.4303
#
#
#
# Elastic Compliance Matrix: (Units=1/GPa)
#
#
# Indices 1 2 3 4 5 6 
#
# 1 0.046470 -0.079418 0.046207 -0.043697 -0.007439 0.010752
# 2 -0.079418 0.192775 -0.103934 0.106885 0.036340 -0.016580
# 3 0.046207 -0.103934 0.079034 -0.059411 -0.007095 0.010586
# 4 -0.043697 0.106885 -0.059411 0.099690 0.032271 -0.001941
# 5 -0.007439 0.036340 -0.007095 0.032271 0.042661 0.004381
# 6 0.010752 -0.016580 0.010586 -0.001941 0.004381 0.030211
#
#
# Mechanical properties :
#
#
# Convention : Reuss Voigt Hill
#
# Bulk Modulus (GPa) = 22.73274 33.88102 28.30688
# Shear Modulus (GPa) = 6.41197 31.00401 18.70799
#
# Velocity S-wave (km/s) = 1.65301 3.63488 2.82354
# Velocity P-wave (km/s) = 3.65114 5.66170 4.76370
#
# Compressibility (1/GPa) = 0.04398941
#
# Stress axis : x y z
#
# Youngs Moduli (GPa) = 21.51937 5.18740 12.65280
#
# Poissons Ratio (x) = 0.41197 -0.58465
# Poissons Ratio (y) = 1.70902 1.31506
# Poissons Ratio (z) = -0.99436 0.53915
#
# Static dielectric constant tensor:
#      x y z
#    x 1.882360 0.045140 -0.068090 
#    y 0.045140 1.930030 -0.055660 
#    z -0.068090 -0.055660 1.992830 
# 
# From -- ./inp_files/262975.got.cif
#   From: 2010.05.17/outbox.cif.g08.bks.cpg/sg2_132_cif.got.tgz:262975.got - 2010.06.03 11:33:40.
