data_PCOD9026199
_publ_section_title
;
Structure prediction by ZEFSAII (Michael W. Deem and Ramdas Pophale) SiO2 
 PCOD9026199
Probable space group: P -1
;
_chemical_formula_sum "Si O2"
_cell_formula_units_Z 16
_cell_length_a 13.910906
_cell_length_b 11.328722
_cell_length_c 9.174131
_cell_angle_alpha 89.953040
_cell_angle_beta 118.851042
_cell_angle_gamma 41.384152
_cell_volume 652.405335
_symmetry_space_group_name_H-M "P -1"
_symmetry_group_IT_number 2
_symmetry_cell_setting 'triclinic'
loop_
_space_group_symop_operation_xyz
x,y,z
-x,-y,-z
loop_
_atom_site_type_symbol
_atom_site_label
_atom_site_fract_x
_atom_site_fract_y
_atom_site_fract_z
Si Si1 0.882370 0.379976 0.809658
Si Si2 0.598355 0.568470 0.367791
Si Si3 0.941459 0.955423 0.833976
Si Si4 0.224898 0.073999 0.824213
Si Si5 0.689910 0.276835 0.042966
Si Si6 0.424066 0.864849 0.470606
Si Si7 0.862688 0.722952 0.543556
Si Si8 0.293209 0.346297 0.760480
O O1 0.764919 0.390451 0.617375
O O2 0.057179 0.271032 0.825762
O O3 0.669768 0.645391 0.703698
O O4 0.993963 0.221381 0.029331
O O5 0.427989 0.629447 0.200181
O O6 0.710002 0.518018 0.307349
O O7 0.466788 0.804363 0.330433
O O8 0.709843 0.134035 0.599442
O O9 0.104978 0.832120 0.824838
O O10 0.000000 0.000000 0.000000
O O11 0.163590 0.166183 0.615775
O O12 0.241461 0.917233 0.857585
O O13 0.464969 0.899731 0.018631
O O14 0.500000 0.500000 0.000000
O O15 0.285144 0.096277 0.435058
O O16 0.784443 0.671009 0.422539
O O17 0.116141 0.491384 0.755368
#
# Coordination Sequence:
#
# PCOD9026199 Si02
#       8
#     2   2   2   2   2   2   2   2
#     4  10  22  41  63  84 125 164 201 251 299 367
#     4   9  20  43  58  87 125 162 196 254 306 355
#     4  12  21  41  61  88 121 169 202 245 308 358
#     4  11  22  43  63  87 127 166 201 252 311 363
#     4  11  25  38  62  92 125 162 206 252 301 367
#     4  10  24  38  64  89 124 160 202 258 302 358
#     4  11  23  41  63  98 119 161 207 257 308 366
#     4  10  22  41  68  87 128 159 204 254 313 367
#
# _framework density 24.524629999999998
#
# number of rings (size 3 to 8) (size 9 to 14) (size 15 to 20)
#    0.750    0.750    3.750    1.125    5.250    2.500 
#    0.000    1.875    0.000    0.000    0.000    0.000 
#    0.000    0.000    0.000    0.000    0.000    0.000 
#
# Total GULP energy -89191.526034 kJ/mol
# GULP energy per Si atom -5574.470377 kJ/mol
# Density = 2.446881 g / cm^3
# Si number density = 24.524630 Si / 1000 Ang^3
#
#
#
# Elastic Constant Matrix: (Units=GPa)
#
#
# Indices 1 2 3 4 5 6 
#
# 1 95.3639 10.2986 33.8256 -22.4322 15.6915 -18.0675
# 2 10.2986 123.2683 16.9434 -24.8004 16.5204 -21.4023
# 3 33.8256 16.9434 104.2581 -26.0445 22.9869 -10.8818
# 4 -22.4322 -24.8004 -26.0445 32.0604 -17.6635 14.9480
# 5 15.6915 16.5204 22.9869 -17.6635 37.6617 -14.4195
# 6 -18.0675 -21.4023 -10.8818 14.9480 -14.4195 24.5639
#
#
#
# Elastic Compliance Matrix: (Units=1/GPa)
#
#
# Indices 1 2 3 4 5 6 
#
# 1 0.013890 0.001528 -0.002726 0.005644 0.000642 0.007282
# 2 0.001528 0.010320 -0.000009 0.006125 0.000205 0.006505
# 3 -0.002726 -0.000009 0.013073 0.007937 -0.004540 -0.003717
# 4 0.005644 0.006125 0.007937 0.060945 0.012228 -0.016904
# 5 0.000642 0.000205 -0.004540 0.012228 0.040414 0.014922
# 6 0.007282 0.006505 -0.003717 -0.016904 0.014922 0.069134
#
#
# Mechanical properties :
#
#
# Convention : Reuss Voigt Hill
#
# Bulk Modulus (GPa) = 28.67863 49.44729 39.06296
# Shear Modulus (GPa) = 22.54137 36.31203 29.42670
#
# Velocity S-wave (km/s) = 3.03501 3.85208 3.46769
# Velocity P-wave (km/s) = 4.89907 6.32382 5.65648
#
# Compressibility (1/GPa) = 0.03486916
#
# Stress axis : x y z
#
# Youngs Moduli (GPa) = 71.99482 96.89708 76.49100
#
# Poissons Ratio (x) = -0.14808 0.20853
# Poissons Ratio (y) = -0.11002 0.00070
# Poissons Ratio (z) = 0.19628 0.00089
#
# Static dielectric constant tensor:
#      x y z
#    x 1.935340 -0.006030 0.034420 
#    y -0.006030 2.025090 -0.046500 
#    z 0.034420 -0.046500 2.017840 
# 
# From -- ./inp_files/452380.got.cif
#   From: 2010.05.17/outbox.cif.g08.bks.cpg/sg2_227_cif.got.tgz:452380.got - 2010.06.03 11:33:40.
