data_PCOD9026532
_publ_section_title
;
Structure prediction by ZEFSAII (Michael W. Deem and Ramdas Pophale) SiO2 
 PCOD9026532
Probable space group: P -1
;
_chemical_formula_sum "Si O2"
_cell_formula_units_Z 16
_cell_length_a 9.949036
_cell_length_b 9.402595
_cell_length_c 11.508540
_cell_angle_alpha 91.694858
_cell_angle_beta 94.826792
_cell_angle_gamma 44.939064
_cell_volume 757.066821
_symmetry_space_group_name_H-M "P -1"
_symmetry_group_IT_number 2
_symmetry_cell_setting 'triclinic'
loop_
_space_group_symop_operation_xyz
x,y,z
-x,-y,-z
loop_
_atom_site_type_symbol
_atom_site_label
_atom_site_fract_x
_atom_site_fract_y
_atom_site_fract_z
Si Si1 0.760469 0.749866 0.513161
Si Si2 0.612424 0.977149 0.896440
Si Si3 0.641843 0.385460 0.615924
Si Si4 0.460193 0.853341 0.344443
Si Si5 0.982278 0.343598 0.651455
Si Si6 0.450728 0.451972 0.141843
Si Si7 0.869847 0.530404 0.890672
Si Si8 0.775204 0.139450 0.994741
O O1 0.648942 0.710371 0.433253
O O2 0.902024 0.552135 0.598063
O O3 0.829579 0.804824 0.416674
O O4 0.648141 0.934851 0.597381
O O5 0.740865 0.758125 0.844710
O O6 0.498572 0.135571 0.785964
O O7 0.500000 0.000000 0.000000
O O8 0.748123 0.996353 0.958519
O O9 0.500000 0.500000 0.500000
O O10 0.649533 0.213953 0.650629
O O11 0.844830 0.312741 0.613675
O O12 0.553556 0.541172 0.720224
O O13 0.985900 0.367315 0.790986
O O14 0.294638 0.457048 0.080834
O O15 0.662937 0.260148 0.108285
O O16 0.357965 0.668760 0.097147
O O17 0.000000 0.500000 0.000000
O O18 0.000000 0.000000 0.000000
#
# Coordination Sequence:
#
# PCOD9026532 Si02
#       8
#     2   2   2   2   2   2   2   2
#     4  10  22  41  65  94 130 165 213 270 324 383
#     4  12  24  42  65  95 129 165 220 275 324 393
#     4  11  22  43  67  94 129 177 215 259 333 391
#     4  11  23  43  66  93 128 171 215 267 332 387
#     4  10  22  41  64  95 130 166 217 269 316 394
#     4  10  23  43  67  93 137 172 218 282 324 394
#     4  11  23  41  65  95 127 175 222 269 334 392
#     4  11  23  44  64  94 132 175 219 270 335 391
#
# _framework density 21.134198000000001
#
# number of rings (size 3 to 8) (size 9 to 14) (size 15 to 20)
#    0.000    1.250    5.000    0.750    1.750    0.500 
#    4.500    0.000    0.000    0.000    0.000    0.000 
#    0.000    0.000    0.000    0.000    0.000    0.000 
#
# Total GULP energy -89158.757047 kJ/mol
# GULP energy per Si atom -5572.422315 kJ/mol
# Density = 2.108610 g / cm^3
# Si number density = 21.134198 Si / 1000 Ang^3
#
#
#
# Elastic Constant Matrix: (Units=GPa)
#
#
# Indices 1 2 3 4 5 6 
#
# 1 142.9545 11.1573 39.0941 23.6087 1.3668 8.9679
# 2 11.1573 28.2889 0.3437 7.2989 -4.2810 3.9112
# 3 39.0941 0.3437 102.0726 14.3139 0.7580 -7.8518
# 4 23.6087 7.2989 14.3139 20.2241 3.2458 -8.0966
# 5 1.3668 -4.2810 0.7580 3.2458 28.7708 4.5646
# 6 8.9679 3.9112 -7.8518 -8.0966 4.5646 36.4570
#
#
#
# Elastic Compliance Matrix: (Units=1/GPa)
#
#
# Indices 1 2 3 4 5 6 
#
# 1 0.010205 0.000617 -0.002562 -0.013206 0.002169 -0.006333
# 2 0.000617 0.044716 0.002119 -0.024704 0.011160 -0.011376
# 3 -0.002562 0.002119 0.011657 -0.005444 0.000483 0.001644
# 4 -0.013206 -0.024704 -0.005444 0.091335 -0.017525 0.027205
# 5 0.002169 0.011160 0.000483 -0.017525 0.039948 -0.010521
# 6 -0.006333 -0.011376 0.001644 0.027205 -0.010521 0.037921
#
#
# Mechanical properties :
#
#
# Convention : Reuss Voigt Hill
#
# Bulk Modulus (GPa) = 14.94148 41.61177 28.27663
# Shear Modulus (GPa) = 19.39917 31.93846 25.66882
#
# Velocity S-wave (km/s) = 3.03298 3.89166 3.48884
# Velocity P-wave (km/s) = 4.39892 6.31866 5.44407
#
# Compressibility (1/GPa) = 0.06692778
#
# Stress axis : x y z
#
# Youngs Moduli (GPa) = 97.98947 22.36334 85.78240
#
# Poissons Ratio (x) = -0.01380 0.21978
# Poissons Ratio (y) = -0.06048 -0.18180
# Poissons Ratio (z) = 0.25105 -0.04740
#
# Static dielectric constant tensor:
#      x y z
#    x 1.817520 -0.047130 -0.036540 
#    y -0.047130 1.813020 -0.016150 
#    z -0.036540 -0.016150 1.804130 
# 
# From -- ./inp_files/382375.got.cif
#   From: 2010.05.17/outbox.cif.g08.bks.cpg/sg2_192_cif.got.tgz:382375.got - 2010.06.03 11:33:40.
