data_PCOD9026465
_publ_section_title
;
Structure prediction by ZEFSAII (Michael W. Deem and Ramdas Pophale) SiO2 
 PCOD9026465
Probable space group: P -1
;
_chemical_formula_sum "Si O2"
_cell_formula_units_Z 13
_cell_length_a 8.759542
_cell_length_b 17.683994
_cell_length_c 13.965875
_cell_angle_alpha 158.467718
_cell_angle_beta 128.721639
_cell_angle_gamma 42.100211
_cell_volume 513.623241
_symmetry_space_group_name_H-M "P -1"
_symmetry_group_IT_number 2
_symmetry_cell_setting 'triclinic'
loop_
_space_group_symop_operation_xyz
x,y,z
-x,-y,-z
loop_
_atom_site_type_symbol
_atom_site_label
_atom_site_fract_x
_atom_site_fract_y
_atom_site_fract_z
Si Si1 0.243039 0.730474 0.040490
Si Si2 0.976384 0.266849 0.516999
Si Si3 0.683447 0.466027 0.456011
Si Si4 0.156000 0.234690 0.196839
Si Si5 0.994089 0.272183 0.879338
Si Si6 0.000000 0.000000 0.000000
Si Si7 0.279495 0.726384 0.395468
O O1 0.472927 0.491094 0.805339
O O2 0.002518 0.762290 0.946501
O O3 0.215666 0.706737 0.115089
O O4 0.200867 0.996478 0.314210
O O5 0.930625 0.271561 0.388941
O O6 0.766631 0.300081 0.542104
O O7 0.988263 0.499924 0.818698
O O8 0.500000 0.500000 0.500000
O O9 0.649002 0.722937 0.718739
O O10 0.769714 0.260954 0.167311
O O11 0.000000 0.500000 0.500000
O O12 0.191363 0.037150 0.054591
O O13 0.920505 0.280737 0.750778
O O14 0.222501 0.998693 0.671493
#
# Coordination Sequence:
#
# PCOD9026465 Si02
#       7
#     2   2   2   2   2   1   2
#     4  11  22  42  65  94 128 170 214 267 326 384
#     4  11  23  40  64  95 132 162 219 270 317 393
#     4  11  24  41  64  93 129 174 214 265 327 385
#     4  10  22  41  64  92 131 170 213 270 316 387
#     4  10  22  45  62  95 129 165 216 271 319 387
#     4  10  22  44  62  90 130 162 216 268 314 384
#     4  10  24  40  67  93 129 168 215 264 329 387
#
# _framework density 25.310381
#
# number of rings (size 3 to 8) (size 9 to 14) (size 15 to 20)
#    0.000    1.538    3.077    0.923    4.308    2.462 
#    5.538    0.000    0.000    0.000    0.000    0.000 
#    0.000    0.000    0.000    0.000    0.000    0.000 
#
# Total GULP energy -72453.230491 kJ/mol
# GULP energy per Si atom -5573.325422 kJ/mol
# Density = 2.525277 g / cm^3
# Si number density = 25.310381 Si / 1000 Ang^3
#
#
#
# Elastic Constant Matrix: (Units=GPa)
#
#
# Indices 1 2 3 4 5 6 
#
# 1 146.9627 23.5803 57.9557 28.0928 4.4990 21.2225
# 2 23.5803 69.4251 15.2620 0.0966 7.4978 25.3464
# 3 57.9557 15.2620 213.6163 34.0725 17.8961 -4.7251
# 4 28.0928 0.0966 34.0725 43.6932 0.6358 -6.1763
# 5 4.4990 7.4978 17.8961 0.6358 70.0434 8.7968
# 6 21.2225 25.3464 -4.7251 -6.1763 8.7968 31.2600
#
#
#
# Elastic Compliance Matrix: (Units=1/GPa)
#
#
# Indices 1 2 3 4 5 6 
#
# 1 0.009958 0.000116 -0.002018 -0.006065 0.001004 -0.008640
# 2 0.000116 0.021272 -0.001782 -0.001279 0.000439 -0.017972
# 3 -0.002018 -0.001782 0.006032 -0.002866 -0.001650 0.003624
# 4 -0.006065 -0.001279 -0.002866 0.030566 -0.000384 0.010869
# 5 0.001004 0.000439 -0.001650 -0.000384 0.015302 -0.005669
# 6 -0.008640 -0.017972 0.003624 0.010869 -0.005669 0.056719
#
#
# Mechanical properties :
#
#
# Convention : Reuss Voigt Hill
#
# Bulk Modulus (GPa) = 33.45072 69.28889 51.36981
# Shear Modulus (GPa) = 31.81054 51.21306 41.51180
#
# Velocity S-wave (km/s) = 3.54901 4.50310 4.05422
# Velocity P-wave (km/s) = 5.48077 7.38054 6.50043
#
# Compressibility (1/GPa) = 0.02989472
#
# Stress axis : x y z
#
# Youngs Moduli (GPa) = 100.42213 47.00988 165.79619
#
# Poissons Ratio (x) = -0.00545 0.33453
# Poissons Ratio (y) = -0.01163 0.29538
# Poissons Ratio (z) = 0.20262 0.08375
#
# Static dielectric constant tensor:
#      x y z
#    x 2.133370 -0.052080 0.212070 
#    y -0.052080 2.083460 0.111880 
#    z 0.212070 0.111880 1.437550 
# 
# From -- ./inp_files/33439.got.cif
#   From: 2010.05.17/outbox.cif.g08.bks.cpg/sg2_17_cif.got.tgz:33439.got - 2010.06.03 11:33:40.
