data_PCOD9026580
_publ_section_title
;
Structure prediction by ZEFSAII (Michael W. Deem and Ramdas Pophale) SiO2 
 PCOD9026580
Probable space group: P -1
;
_chemical_formula_sum "Si O2"
_cell_formula_units_Z 16
_cell_length_a 14.732170
_cell_length_b 21.712662
_cell_length_c 10.963493
_cell_angle_alpha 146.332992
_cell_angle_beta 152.376483
_cell_angle_gamma 27.210054
_cell_volume 727.088346
_symmetry_space_group_name_H-M "P -1"
_symmetry_group_IT_number 2
_symmetry_cell_setting 'triclinic'
loop_
_space_group_symop_operation_xyz
x,y,z
-x,-y,-z
loop_
_atom_site_type_symbol
_atom_site_label
_atom_site_fract_x
_atom_site_fract_y
_atom_site_fract_z
Si Si1 0.140667 0.076100 0.156272
Si Si2 0.584477 0.298333 0.820625
Si Si3 0.585340 0.432225 0.796208
Si Si4 0.272505 0.454379 0.231370
Si Si5 0.047710 0.693199 0.172457
Si Si6 0.460799 0.103770 0.022193
Si Si7 0.266059 0.847089 0.734346
Si Si8 0.459885 0.930884 0.519976
O O1 0.312916 0.115357 0.372483
O O2 0.231930 0.008273 0.285356
O O3 0.866481 0.206126 0.040545
O O4 0.180730 0.960564 0.921325
O O5 0.562016 0.350705 0.742423
O O6 0.505049 0.198010 0.583289
O O7 0.455648 0.432381 0.973469
O O8 0.392219 0.465582 0.515018
O O9 0.851637 0.342718 0.903724
O O10 0.231739 0.559945 0.253040
O O11 0.468267 0.296579 0.160705
O O12 0.000000 0.500000 0.000000
O O13 0.077451 0.811031 0.440910
O O14 0.775414 0.750134 0.974108
O O15 0.423121 0.044657 0.757172
O O16 0.685273 0.107257 0.261046
O O17 0.500000 0.000000 0.000000
#
# Coordination Sequence:
#
# PCOD9026580 Si02
#       8
#     2   2   2   2   2   2   2   2
#     4  10  23  42  67  94 128 171 218 266 323 382
#     4  11  24  46  65  92 136 170 214 275 317 389
#     4  10  26  43  65  97 129 174 222 258 332 390
#     4  11  23  43  69  97 131 170 218 274 321 388
#     4  11  24  42  68  92 128 172 211 268 324 377
#     4  11  25  40  65  99 131 166 214 267 326 385
#     4  10  22  41  64  98 124 165 218 262 321 381
#     4  10  24  40  67  97 126 170 218 265 324 387
#
# _framework density 22.005578
#
# number of rings (size 3 to 8) (size 9 to 14) (size 15 to 20)
#    0.000    1.500    1.250    2.625   12.250    1.500 
#    0.000    1.250    0.000    0.000    0.000    0.000 
#    0.000    0.000    0.000    0.000    0.000    0.000 
#
# Total GULP energy -89471.603170 kJ/mol
# GULP energy per Si atom -5591.975198 kJ/mol
# Density = 2.195549 g / cm^3
# Si number density = 22.005578 Si / 1000 Ang^3
#
#
#
# Elastic Constant Matrix: (Units=GPa)
#
#
# Indices 1 2 3 4 5 6 
#
# 1 75.9413 4.2456 17.2308 11.6901 3.7175 12.8822
# 2 4.2456 53.5147 -4.1525 17.4894 1.7390 12.2603
# 3 17.2308 -4.1525 49.3476 10.9089 11.2736 -1.0456
# 4 11.6901 17.4894 10.9089 26.4396 0.2249 9.2636
# 5 3.7175 1.7390 11.2736 0.2249 32.8339 4.2941
# 6 12.8822 12.2603 -1.0456 9.2636 4.2941 34.3807
#
#
#
# Elastic Compliance Matrix: (Units=1/GPa)
#
#
# Indices 1 2 3 4 5 6 
#
# 1 0.015663 0.000748 -0.004879 -0.003517 0.000594 -0.005411
# 2 0.000748 0.026459 0.006874 -0.019271 -0.003202 -0.003915
# 3 -0.004879 0.006874 0.028595 -0.016163 -0.010289 0.005887
# 4 -0.003517 -0.019271 -0.016163 0.062249 0.007857 -0.010056
# 5 0.000594 -0.003202 -0.010289 0.007857 0.034804 -0.005857
# 6 -0.005411 -0.003915 0.005887 -0.010056 -0.005857 0.036130
#
#
# Mechanical properties :
#
#
# Convention : Reuss Voigt Hill
#
# Bulk Modulus (GPa) = 13.12276 23.71684 18.41980
# Shear Modulus (GPa) = 22.33988 29.49617 25.91803
#
# Velocity S-wave (km/s) = 3.18966 3.66511 3.43562
# Velocity P-wave (km/s) = 4.42059 5.35834 4.91189
#
# Compressibility (1/GPa) = 0.07620346
#
# Stress axis : x y z
#
# Youngs Moduli (GPa) = 63.84300 37.79389 34.97148
#
# Poissons Ratio (x) = -0.02828 0.17063
# Poissons Ratio (y) = -0.04778 -0.24039
# Poissons Ratio (z) = 0.31150 -0.25979
#
# Static dielectric constant tensor:
#      x y z
#    x 1.820940 0.001190 0.041720 
#    y 0.001190 1.848540 -0.013130 
#    z 0.041720 -0.013130 1.812610 
# 
# From -- ./inp_files/457388.got.cif
#   From: 2010.05.17/outbox.cif.g08.bks.cpg/sg2_229_cif.got.tgz:457388.got - 2010.06.03 11:33:40.
