data_PCOD9026449
_publ_section_title
;
Structure prediction by ZEFSAII (Michael W. Deem and Ramdas Pophale) SiO2 
 PCOD9026449
Probable space group: P -1
;
_chemical_formula_sum "Si O2"
_cell_formula_units_Z 8
_cell_length_a 12.281509
_cell_length_b 15.900802
_cell_length_c 7.762983
_cell_angle_alpha 45.575680
_cell_angle_beta 144.528228
_cell_angle_gamma 157.653249
_cell_volume 324.589495
_symmetry_space_group_name_H-M "P -1"
_symmetry_group_IT_number 2
_symmetry_cell_setting 'triclinic'
loop_
_space_group_symop_operation_xyz
x,y,z
-x,-y,-z
loop_
_atom_site_type_symbol
_atom_site_label
_atom_site_fract_x
_atom_site_fract_y
_atom_site_fract_z
Si Si1 0.262628 0.489399 0.234011
Si Si2 0.484651 0.922432 0.308602
Si Si3 0.195271 0.119958 0.394828
Si Si4 0.521495 0.173463 0.197490
O O1 0.500000 0.500000 0.500000
O O2 0.405251 0.618501 0.414643
O O3 0.358901 0.639953 0.999240
O O4 0.843098 0.237571 0.019075
O O5 0.767488 0.982877 0.506563
O O6 0.342184 0.781972 0.501136
O O7 0.614985 0.117454 0.269347
O O8 0.000000 0.000000 0.500000
O O9 0.922298 0.059195 0.030701
#
# Coordination Sequence:
#
# PCOD9026449 Si02
#       4
#     2   2   2   2
#     4  11  22  41  63  93 129 160 210 256 307 377
#     4  11  22  42  67  90 127 165 204 259 315 362
#     4  10  22  41  64  92 125 164 210 257 303 371
#     4  10  23  42  64  93 126 162 208 257 312 373
#
# _framework density 24.646514
#
# number of rings (size 3 to 8) (size 9 to 14) (size 15 to 20)
#    0.000    1.500    2.500    2.250    0.000    4.000 
#    9.000    1.250    0.000    0.000    0.000    0.000 
#    0.000    0.000    0.000    0.000    0.000    0.000 
#
# Total GULP energy -44768.925901 kJ/mol
# GULP energy per Si atom -5596.115738 kJ/mol
# Density = 2.459042 g / cm^3
# Si number density = 24.646514 Si / 1000 Ang^3
#
#
#
# Elastic Constant Matrix: (Units=GPa)
#
#
# Indices 1 2 3 4 5 6 
#
# 1 150.5855 32.7877 56.6832 -13.1846 27.6346 -31.4850
# 2 32.7877 83.2760 29.1529 -17.5853 4.0033 -2.8742
# 3 56.6832 29.1529 119.9541 0.1827 3.0590 -24.6120
# 4 -13.1846 -17.5853 0.1827 62.7301 -13.9513 5.0392
# 5 27.6346 4.0033 3.0590 -13.9513 48.4672 -7.1305
# 6 -31.4850 -2.8742 -24.6120 5.0392 -7.1305 26.1618
#
#
#
# Elastic Compliance Matrix: (Units=1/GPa)
#
#
# Indices 1 2 3 4 5 6 
#
# 1 0.010985 -0.003000 -0.002408 -0.000298 -0.004560 0.009439
# 2 -0.003000 0.015057 -0.003453 0.004301 0.001078 -0.005739
# 3 -0.002408 -0.003453 0.012105 -0.001854 0.001673 0.008923
# 4 -0.000298 0.004301 -0.001854 0.018441 0.004664 -0.003911
# 5 -0.004560 0.001078 0.001673 0.004664 0.024680 0.002033
# 6 0.009439 -0.005739 0.008923 -0.003911 0.002033 0.058655
#
#
# Mechanical properties :
#
#
# Convention : Reuss Voigt Hill
#
# Bulk Modulus (GPa) = 48.96331 65.67370 57.31850
# Shear Modulus (GPa) = 30.40379 43.15128 36.77754
#
# Velocity S-wave (km/s) = 3.51607 4.18880 3.86709
# Velocity P-wave (km/s) = 6.03266 7.07805 6.57616
#
# Compressibility (1/GPa) = 0.02042346
#
# Stress axis : x y z
#
# Youngs Moduli (GPa) = 91.03452 66.41576 82.61148
#
# Poissons Ratio (x) = 0.19923 0.19895
# Poissons Ratio (y) = 0.27308 0.28529
# Poissons Ratio (z) = 0.21924 0.22936
#
# Static dielectric constant tensor:
#      x y z
#    x 1.907520 0.026840 -0.011620 
#    y 0.026840 2.094870 0.063470 
#    z -0.011620 0.063470 1.946220 
# 
# From -- ./inp_files/2116.got.cif
#   From: 2010.05.17/outbox.cif.g08.bks.cpg/sg2_2_cif.got.tgz:2116.got - 2010.06.03 11:33:40.
