data_PCOD9026112
_publ_section_title
;
Structure prediction by ZEFSAII (Michael W. Deem and Ramdas Pophale) SiO2 
 PCOD9026112
Probable space group: P -1
;
_chemical_formula_sum "Si O2"
_cell_formula_units_Z 16
_cell_length_a 13.962415
_cell_length_b 11.026092
_cell_length_c 12.054018
_cell_angle_alpha 60.996957
_cell_angle_beta 150.151780
_cell_angle_gamma 133.945435
_cell_volume 628.513613
_symmetry_space_group_name_H-M "P -1"
_symmetry_group_IT_number 2
_symmetry_cell_setting 'triclinic'
loop_
_space_group_symop_operation_xyz
x,y,z
-x,-y,-z
loop_
_atom_site_type_symbol
_atom_site_label
_atom_site_fract_x
_atom_site_fract_y
_atom_site_fract_z
Si Si1 0.975991 0.668921 0.166283
Si Si2 0.858845 0.833871 0.793683
Si Si3 0.199018 0.353507 0.399593
Si Si4 0.771767 0.259822 0.139427
Si Si5 0.277681 0.171191 0.734311
Si Si6 0.891623 0.293749 0.483983
Si Si7 0.552974 0.263691 0.452900
Si Si8 0.616878 0.822604 0.912579
O O1 0.863420 0.462497 0.139274
O O2 0.971599 0.713127 0.271315
O O3 0.257565 0.774056 0.360644
O O4 0.856160 0.718305 0.938449
O O5 0.756915 0.717901 0.631907
O O6 0.692751 0.879188 0.660690
O O7 0.132695 0.001633 0.962039
O O8 0.319561 0.325574 0.634534
O O9 0.311609 0.556822 0.419119
O O10 0.905281 0.242442 0.180028
O O11 0.892800 0.249715 0.377406
O O12 0.478257 0.145942 0.908056
O O13 0.322018 0.217526 0.889097
O O14 0.000000 0.000000 0.500000
O O15 0.602110 0.170035 0.278487
O O16 0.000000 0.500000 0.500000
O O17 0.501559 0.301066 0.260913
#
# Coordination Sequence:
#
# PCOD9026112 Si02
#       8
#     2   2   2   2   2   2   2   2
#     4   9  20  38  63  90 122 160 202 248 306 353
#     4  12  23  39  60  91 130 163 202 246 302 365
#     4  11  24  40  63  93 119 164 208 245 305 367
#     4   9  20  38  63  90 120 154 207 252 296 365
#     4  11  22  42  62  89 127 158 194 260 316 350
#     4   8  16  36  61  86 117 154 195 253 298 350
#     4  10  23  41  63  89 123 160 208 251 294 362
#     4  10  22  41  62  91 124 157 207 253 300 366
#
# _framework density 25.456886000000001
#
# number of rings (size 3 to 8) (size 9 to 14) (size 15 to 20)
#    0.000    2.000    1.250    2.250    0.000    7.000 
#    0.000    0.000    0.000    0.000    0.000    0.000 
#    0.000    0.000    0.000    0.000    0.000    0.000 
#
# Total GULP energy -89482.334141 kJ/mol
# GULP energy per Si atom -5592.645884 kJ/mol
# Density = 2.539895 g / cm^3
# Si number density = 25.456886 Si / 1000 Ang^3
#
#
#
# Elastic Constant Matrix: (Units=GPa)
#
#
# Indices 1 2 3 4 5 6 
#
# 1 154.2453 17.8326 48.3092 -2.7835 7.1078 14.4722
# 2 17.8326 56.3083 3.3282 -0.8800 2.6231 8.2649
# 3 48.3092 3.3282 80.8536 3.2059 10.6219 12.4264
# 4 -2.7835 -0.8800 3.2059 33.9930 6.3747 0.5771
# 5 7.1078 2.6231 10.6219 6.3747 41.3440 5.9481
# 6 14.4722 8.2649 12.4264 0.5771 5.9481 35.1752
#
#
#
# Elastic Compliance Matrix: (Units=1/GPa)
#
#
# Indices 1 2 3 4 5 6 
#
# 1 0.008362 -0.002162 -0.004748 0.001111 -0.000070 -0.001261
# 2 -0.002162 0.018980 0.001175 0.000389 -0.000636 -0.003884
# 3 -0.004748 0.001175 0.016105 -0.001314 -0.002685 -0.003537
# 4 0.001111 0.000389 -0.001314 0.030504 -0.004609 0.000195
# 5 -0.000070 -0.000636 -0.002685 -0.004609 0.026102 -0.003212
# 6 -0.001261 -0.003884 -0.003537 0.000195 -0.003212 0.031650
#
#
# Mechanical properties :
#
#
# Convention : Reuss Voigt Hill
#
# Bulk Modulus (GPa) = 31.27121 47.81635 39.54378
# Shear Modulus (GPa) = 32.50311 36.89824 34.70067
#
# Velocity S-wave (km/s) = 3.57710 3.81128 3.69604
# Velocity P-wave (km/s) = 5.41955 6.17996 5.81220
#
# Compressibility (1/GPa) = 0.03197830
#
# Stress axis : x y z
#
# Youngs Moduli (GPa) = 119.59095 52.68601 62.09301
#
# Poissons Ratio (x) = 0.11389 0.29482
# Poissons Ratio (y) = 0.25852 -0.07299
# Poissons Ratio (z) = 0.56783 -0.06193
#
# Static dielectric constant tensor:
#      x y z
#    x 1.986000 -0.001420 0.053560 
#    y -0.001420 2.026770 0.043570 
#    z 0.053560 0.043570 2.044830 
# 
# From -- ./inp_files/455670.got.cif
#   From: 2010.05.17/outbox.cif.g08.bks.cpg/sg2_228_cif.got.tgz:455670.got - 2010.06.03 11:33:40.
