data_PCOD9026168
_publ_section_title
;
Structure prediction by ZEFSAII (Michael W. Deem and Ramdas Pophale) SiO2 
 PCOD9026168
Probable space group: P -1
;
_chemical_formula_sum "Si O2"
_cell_formula_units_Z 16
_cell_length_a 5.068743
_cell_length_b 11.469424
_cell_length_c 13.244946
_cell_angle_alpha 125.979316
_cell_angle_beta 94.413130
_cell_angle_gamma 103.325199
_cell_volume 583.869448
_symmetry_space_group_name_H-M "P -1"
_symmetry_group_IT_number 2
_symmetry_cell_setting 'triclinic'
loop_
_space_group_symop_operation_xyz
x,y,z
-x,-y,-z
loop_
_atom_site_type_symbol
_atom_site_label
_atom_site_fract_x
_atom_site_fract_y
_atom_site_fract_z
Si Si1 0.030260 0.334892 0.388904
Si Si2 0.823082 0.360109 0.105109
Si Si3 0.943255 0.084260 0.860910
Si Si4 0.438127 0.113912 0.743017
Si Si5 0.856641 0.195289 0.515108
Si Si6 0.506458 0.854891 0.860350
Si Si7 0.653532 0.465979 0.652043
Si Si8 0.737751 0.636644 0.228435
O O1 0.057089 0.250145 0.449538
O O2 0.757435 0.224775 0.263631
O O3 0.000000 0.500000 0.500000
O O4 0.313569 0.403652 0.364676
O O5 0.544055 0.266209 0.111971
O O6 0.781316 0.492700 0.100989
O O7 0.055612 0.456535 0.239905
O O8 0.943963 0.236887 0.997466
O O9 0.720741 0.086526 0.768893
O O10 0.233904 0.090127 0.822859
O O11 0.794667 0.932157 0.845955
O O12 0.448181 0.278406 0.787616
O O13 0.290022 0.984376 0.591645
O O14 0.659807 0.297599 0.540042
O O15 0.985643 0.238223 0.651907
O O16 0.500000 0.000000 0.000000
O O17 0.412389 0.437773 0.710743
#
# Coordination Sequence:
#
# PCOD9026168 Si02
#       8
#     2   2   2   2   2   2   2   2
#     4   9  17  35  64  97 132 168 219 282 340 405
#     4   9  22  44  66  99 131 171 225 278 341 400
#     4  11  26  46  69 100 134 179 225 280 332 403
#     4  12  28  43  68  98 137 181 230 271 331 400
#     4  10  22  41  62  96 131 171 227 277 337 398
#     4   9  18  41  67  97 134 172 220 280 347 404
#     4   9  21  39  66  94 134 168 221 279 340 397
#     4  11  25  41  65  95 129 186 222 279 332 399
#
# _framework density 27.403385
#
# number of rings (size 3 to 8) (size 9 to 14) (size 15 to 20)
#    0.000    2.000    1.250    1.125    7.000    3.000 
#    0.000    1.875    0.000    0.000    0.000    0.000 
#    0.000    0.000    0.000    0.000    0.000    0.000 
#
# Total GULP energy -89507.551752 kJ/mol
# GULP energy per Si atom -5594.221985 kJ/mol
# Density = 2.734101 g / cm^3
# Si number density = 27.403385 Si / 1000 Ang^3
#
#
#
# Elastic Constant Matrix: (Units=GPa)
#
#
# Indices 1 2 3 4 5 6 
#
# 1 66.7988 21.0594 24.9593 -7.5901 4.2907 2.5154
# 2 21.0594 50.4216 55.9561 30.0476 -7.2398 3.7426
# 3 24.9593 55.9561 131.3308 29.6004 -0.4807 -3.4449
# 4 -7.5901 30.0476 29.6004 38.0226 -4.0419 -23.7132
# 5 4.2907 -7.2398 -0.4807 -4.0419 30.3087 -2.6704
# 6 2.5154 3.7426 -3.4449 -23.7132 -2.6704 35.9908
#
#
#
# Elastic Compliance Matrix: (Units=1/GPa)
#
#
# Indices 1 2 3 4 5 6 
#
# 1 0.000008 0.041875 -0.007102 -0.052262 -0.000562 -0.039510
# 2 0.041875 -0.095170 0.002306 0.146435 0.000038 0.103675
# 3 -0.007102 0.002306 0.012345 -0.020841 -0.002124 -0.012451
# 4 -0.052262 0.146435 -0.020841 -0.153330 0.011578 -0.113735
# 5 -0.000562 0.000038 -0.002124 0.011578 0.035482 0.010093
# 6 -0.039510 0.103675 -0.012451 -0.113735 0.010093 -0.055614
#
#
# Mechanical properties :
#
#
# Convention : Reuss Voigt Hill
#
# Bulk Modulus (GPa) = -115.46114 50.27786 -32.59164
# Shear Modulus (GPa) = -15.00049 30.63618 7.81784
#
# Velocity S-wave (km/s) = -2.34219 3.34723 1.69088
# Velocity P-wave (km/s) = 7.03845 5.77285 2.84728
#
# Compressibility (1/GPa) = -0.00866092
#
# Stress axis : x y z
#
# Youngs Moduli (GPa) = 124949.60206 -10.50748 81.00620
#
# Poissons Ratio (x) = 0.44000 0.57534
# Poissons Ratio (y) = -5232.24099 -0.18679
# Poissons Ratio (z) = 887.44131 0.02423
#
# Static dielectric constant tensor:
#      x y z
#    x 2.181040 0.077400 -0.039870 
#    y 0.077400 2.194900 -0.010100 
#    z -0.039870 -0.010100 2.256250 
# 
# From -- ./inp_files/99933.got.cif
#   From: 2010.05.17/outbox.cif.g08.bks.cpg/sg2_50_cif.got.tgz:99933.got - 2010.06.03 11:33:40.
