data_PCOD9026432
_publ_section_title
;
Structure prediction by ZEFSAII (Michael W. Deem and Ramdas Pophale) SiO2 
 PCOD9026432
Probable space group: P -1
;
_chemical_formula_sum "Si O2"
_cell_formula_units_Z 16
_cell_length_a 14.294092
_cell_length_b 9.397042
_cell_length_c 10.869180
_cell_angle_alpha 63.447144
_cell_angle_beta 146.100924
_cell_angle_gamma 110.948551
_cell_volume 728.118047
_symmetry_space_group_name_H-M "P -1"
_symmetry_group_IT_number 2
_symmetry_cell_setting 'triclinic'
loop_
_space_group_symop_operation_xyz
x,y,z
-x,-y,-z
loop_
_atom_site_type_symbol
_atom_site_label
_atom_site_fract_x
_atom_site_fract_y
_atom_site_fract_z
Si Si1 0.550973 0.216103 0.270771
Si Si2 0.747778 0.081721 0.758878
Si Si3 0.167723 0.872307 0.883380
Si Si4 0.594361 0.159447 0.073401
Si Si5 0.021759 0.442085 0.182428
Si Si6 0.683501 0.560852 0.332802
Si Si7 0.937842 0.752066 0.088278
Si Si8 0.841861 0.771507 0.236778
O O1 0.598966 0.130468 0.484088
O O2 0.608183 0.397130 0.271400
O O3 0.642432 0.144938 0.275912
O O4 0.352034 0.213695 0.028907
O O5 0.740801 0.120166 0.883561
O O6 0.902323 0.183292 0.834702
O O7 0.801166 0.895993 0.868670
O O8 0.274352 0.821576 0.899842
O O9 0.027916 0.740640 0.791675
O O10 0.113129 0.055975 0.729563
O O11 0.463611 0.307945 0.868426
O O12 0.500000 0.000000 0.000000
O O13 0.908157 0.572405 0.083049
O O14 0.214277 0.461701 0.422498
O O15 0.000000 0.500000 0.000000
O O16 0.825925 0.631865 0.371206
O O17 0.962170 0.739316 0.266101
#
# Coordination Sequence:
#
# PCOD9026432 Si02
#       8
#     2   2   2   2   2   2   2   2
#     4  11  22  43  69  94 132 167 219 270 318 388
#     4  10  22  45  66  93 128 172 217 263 319 391
#     4  11  23  44  65  94 138 166 215 270 320 384
#     4  11  23  45  65  99 130 169 215 267 328 382
#     4  12  25  44  62  95 137 168 217 272 317 380
#     4  11  24  43  65  95 132 170 214 268 322 385
#     4  10  22  41  64  91 127 168 219 256 320 384
#     4  10  23  42  64  96 126 167 221 262 324 390
#
# _framework density 21.974459
#
# number of rings (size 3 to 8) (size 9 to 14) (size 15 to 20)
#    0.000    1.250    5.000    1.500    3.500    5.000 
#    2.250    1.250    0.000    0.000    0.000    0.000 
#    0.000    0.000    0.000    0.000    0.000    0.000 
#
# Total GULP energy -89325.997641 kJ/mol
# GULP energy per Si atom -5582.874853 kJ/mol
# Density = 2.192444 g / cm^3
# Si number density = 21.974459 Si / 1000 Ang^3
#
#
#
# Elastic Constant Matrix: (Units=GPa)
#
#
# Indices 1 2 3 4 5 6 
#
# 1 89.8115 13.8517 5.1942 5.7447 -29.3630 7.1555
# 2 13.8517 162.9024 3.6160 13.0492 5.5514 -2.9945
# 3 5.1942 3.6160 64.0805 10.7036 -5.8359 -7.9518
# 4 5.7447 13.0492 10.7036 33.8956 -0.1859 -2.8117
# 5 -29.3630 5.5514 -5.8359 -0.1859 21.6603 5.5963
# 6 7.1555 -2.9945 -7.9518 -2.8117 5.5963 29.0170
#
#
#
# Elastic Compliance Matrix: (Units=1/GPa)
#
#
# Indices 1 2 3 4 5 6 
#
# 1 0.026465 -0.003584 0.000633 -0.004327 0.040807 -0.015012
# 2 -0.003584 0.006896 -0.000120 -0.001816 -0.007401 0.002814
# 3 0.000633 -0.000120 0.017250 -0.005221 0.004678 0.003150
# 4 -0.004327 -0.001816 -0.005221 0.032882 -0.007583 0.004097
# 5 0.040807 -0.007401 0.004678 -0.007583 0.112857 -0.032045
# 6 -0.015012 0.002814 0.003150 0.004097 -0.032045 0.045895
#
#
# Mechanical properties :
#
#
# Convention : Reuss Voigt Hill
#
# Bulk Modulus (GPa) = 22.48803 40.23536 31.36169
# Shear Modulus (GPa) = 18.99626 36.52340 27.75983
#
# Velocity S-wave (km/s) = 2.94338 4.08129 3.55812
# Velocity P-wave (km/s) = 4.66982 6.36860 5.58419
#
# Compressibility (1/GPa) = 0.04446810
#
# Stress axis : x y z
#
# Youngs Moduli (GPa) = 37.78612 145.02123 57.97125
#
# Poissons Ratio (x) = 0.51981 -0.03671
# Poissons Ratio (y) = 0.13544 0.00696
# Poissons Ratio (z) = -0.02393 0.01740
#
# Static dielectric constant tensor:
#      x y z
#    x 1.863520 0.008360 -0.016090 
#    y 0.008360 1.811060 -0.010590 
#    z -0.016090 -0.010590 1.867990 
# 
# From -- ./inp_files/298057.got.cif
#   From: 2010.05.17/outbox.cif.g08.bks.cpg/sg2_150_cif.got.tgz:298057.got - 2010.06.03 11:33:40.
