data_PCOD9026955
_publ_section_title
;
Structure prediction by ZEFSAII (Michael W. Deem and Ramdas Pophale) SiO2 
 PCOD9026955
Probable space group: P -1
;
_chemical_formula_sum "Si O2"
_cell_formula_units_Z 16
_cell_length_a 10.747303
_cell_length_b 12.612067
_cell_length_c 14.102583
_cell_angle_alpha 44.415677
_cell_angle_beta 69.252181
_cell_angle_gamma 35.268223
_cell_volume 636.551880
_symmetry_space_group_name_H-M "P -1"
_symmetry_group_IT_number 2
_symmetry_cell_setting 'triclinic'
loop_
_space_group_symop_operation_xyz
x,y,z
-x,-y,-z
loop_
_atom_site_type_symbol
_atom_site_label
_atom_site_fract_x
_atom_site_fract_y
_atom_site_fract_z
Si Si1 0.754686 0.258687 0.019259
Si Si2 0.546157 0.194109 0.705621
Si Si3 0.141042 0.432310 0.758280
Si Si4 0.228325 0.427741 0.115500
Si Si5 0.623917 0.323835 0.294163
Si Si6 0.681041 0.937918 0.432795
Si Si7 0.721955 0.329574 0.660832
Si Si8 0.055148 0.703993 0.784029
O O1 0.500000 0.500000 0.000000
O O2 0.825870 0.364070 0.944803
O O3 0.633462 0.343990 0.895488
O O4 0.999329 0.922270 0.202926
O O5 0.436755 0.158904 0.815554
O O6 0.693251 0.182567 0.731616
O O7 0.314643 0.517227 0.512599
O O8 0.759470 0.941644 0.731414
O O9 0.128954 0.590743 0.729394
O O10 0.996605 0.457734 0.851873
O O11 0.968103 0.601881 0.600289
O O12 0.528557 0.089670 0.276964
O O13 0.200813 0.484255 0.974926
O O14 0.662999 0.124629 0.361456
O O15 0.527803 0.396609 0.379759
O O16 0.868484 0.193532 0.294895
O O17 0.500000 0.000000 0.500000
#
# Coordination Sequence:
#
# PCOD9026955 Si02
#       8
#     2   2   2   2   2   2   2   2
#     4  11  21  40  66  91 128 168 216 270 323 380
#     4  11  25  38  63  94 133 168 210 267 327 386
#     4  11  24  42  66  91 133 173 211 270 325 383
#     4  10  22  41  66  92 125 174 219 259 326 385
#     4  11  22  38  70  94 127 170 215 274 318 378
#     4   9  22  41  65  92 125 172 216 260 324 384
#     4  11  23  40  58 101 128 161 221 268 321 386
#     4  12  23  42  65 101 129 167 223 264 323 384
#
# _framework density 25.13542
#
# number of rings (size 3 to 8) (size 9 to 14) (size 15 to 20)
#    0.000    1.250    3.750    1.500    7.000    1.500 
#    0.000    0.000    5.500   10.500    0.000    0.000 
#    0.000    0.000    0.000    0.000    0.000    0.000 
#
# Total GULP energy -89342.158315 kJ/mol
# GULP energy per Si atom -5583.884895 kJ/mol
# Density = 2.507821 g / cm^3
# Si number density = 25.135420 Si / 1000 Ang^3
#
#
#
# Elastic Constant Matrix: (Units=GPa)
#
#
# Indices 1 2 3 4 5 6 
#
# 1 86.6299 27.6818 11.4790 8.3348 -13.1117 -40.6898
# 2 27.6818 114.1749 12.7222 9.5680 1.2596 -28.6783
# 3 11.4790 12.7222 93.6456 14.1925 26.0809 -10.1563
# 4 8.3348 9.5680 14.1925 29.1756 -5.0431 -2.4589
# 5 -13.1117 1.2596 26.0809 -5.0431 35.8908 7.2196
# 6 -40.6898 -28.6783 -10.1563 -2.4589 7.2196 37.8179
#
#
#
# Elastic Compliance Matrix: (Units=1/GPa)
#
#
# Indices 1 2 3 4 5 6 
#
# 1 0.024418 0.000959 -0.000696 -0.004149 0.003608 0.025855
# 2 0.000959 0.011407 0.001089 -0.004281 -0.003529 0.010370
# 3 -0.000696 0.001089 0.017460 -0.010806 -0.015928 0.007104
# 4 -0.004149 -0.004281 -0.010806 0.043782 0.014768 -0.010585
# 5 0.003608 -0.003529 -0.015928 0.014768 0.045111 -0.010722
# 6 0.025855 0.010370 0.007104 -0.010585 -0.010722 0.065391
#
#
# Mechanical properties :
#
#
# Convention : Reuss Voigt Hill
#
# Bulk Modulus (GPa) = 17.86016 44.24627 31.05321
# Shear Modulus (GPa) = 22.36866 36.74800 29.55833
#
# Velocity S-wave (km/s) = 2.98640 3.82776 3.43295
# Velocity P-wave (km/s) = 4.36032 6.09730 5.30045
#
# Compressibility (1/GPa) = 0.05599055
#
# Stress axis : x y z
#
# Youngs Moduli (GPa) = 40.95305 87.66565 57.27346
#
# Poissons Ratio (x) = -0.08410 0.03984
# Poissons Ratio (y) = -0.03929 -0.06236
# Poissons Ratio (z) = 0.02849 -0.09546
#
# Static dielectric constant tensor:
#      x y z
#    x 2.021830 0.048570 0.033040 
#    y 0.048570 2.001930 0.010030 
#    z 0.033040 0.010030 2.149420 
# 
# From -- ./inp_files/522265.got.cif
#   From: 2010.05.17/outbox.cif.g08.bks.cpg/sg2_262_cif.got.tgz:522265.got - 2010.06.03 11:33:40.
