data_PCOD9026959
_publ_section_title
;
Structure prediction by ZEFSAII (Michael W. Deem and Ramdas Pophale) SiO2 
 PCOD9026959
Probable space group: P -1
;
_chemical_formula_sum "Si O2"
_cell_formula_units_Z 16
_cell_length_a 8.492052
_cell_length_b 7.954702
_cell_length_c 20.088234
_cell_angle_alpha 127.536643
_cell_angle_beta 121.081372
_cell_angle_gamma 98.452483
_cell_volume 676.049787
_symmetry_space_group_name_H-M "P -1"
_symmetry_group_IT_number 2
_symmetry_cell_setting 'triclinic'
loop_
_space_group_symop_operation_xyz
x,y,z
-x,-y,-z
loop_
_atom_site_type_symbol
_atom_site_label
_atom_site_fract_x
_atom_site_fract_y
_atom_site_fract_z
Si Si1 0.063307 0.658352 0.155906
Si Si2 0.105368 0.901456 0.611925
Si Si3 0.375177 0.524629 0.171885
Si Si4 0.179181 0.128622 0.914620
Si Si5 0.547671 0.086501 0.954082
Si Si6 0.669491 0.570987 0.705021
Si Si7 0.328926 0.200892 0.432947
Si Si8 0.321531 0.669455 0.682005
O O1 0.923093 0.734843 0.104923
O O2 0.231071 0.626378 0.143266
O O3 0.839177 0.349844 0.066453
O O4 0.248604 0.927764 0.311195
O O5 0.236924 0.805778 0.653808
O O6 0.923936 0.877080 0.618446
O O7 0.923633 0.673435 0.458602
O O8 0.329585 0.223426 0.714154
O O9 0.323503 0.465698 0.224348
O O10 0.268950 0.252992 0.038695
O O11 0.398664 0.191138 0.936436
O O12 0.942529 0.787757 0.785263
O O13 0.422077 0.822438 0.812141
O O14 0.500000 0.000000 0.000000
O O15 0.487593 0.279749 0.552970
O O16 0.542506 0.705977 0.704904
O O17 0.500000 0.500000 0.500000
#
# Coordination Sequence:
#
# PCOD9026959 Si02
#       8
#     2   2   2   2   2   2   2   2
#     4  12  25  42  67  94 130 174 220 266 318 388
#     4  10  23  41  68  94 124 171 216 269 317 383
#     4  12  25  41  65  99 132 165 222 265 328 385
#     4  12  23  42  67  90 135 174 217 265 319 389
#     4  12  25  41  65  99 135 170 213 270 326 384
#     4  11  24  42  66  95 132 175 206 276 325 376
#     4  11  24  44  68  95 132 166 224 265 321 384
#     4  10  22  41  66  92 127 166 221 252 326 383
#
# _framework density 23.666893999999999
#
# number of rings (size 3 to 8) (size 9 to 14) (size 15 to 20)
#    0.000    0.750    1.250    6.375    3.500    3.500 
#    0.000    0.000    0.000    0.000    0.000    0.000 
#    0.000    0.000    0.000    0.000    0.000    0.000 
#
# Total GULP energy -89618.390588 kJ/mol
# GULP energy per Si atom -5601.149412 kJ/mol
# Density = 2.361303 g / cm^3
# Si number density = 23.666894 Si / 1000 Ang^3
#
#
#
# Elastic Constant Matrix: (Units=GPa)
#
#
# Indices 1 2 3 4 5 6 
#
# 1 109.9130 -4.9503 45.0674 11.6315 11.6681 -2.3607
# 2 -4.9503 35.0071 13.2004 -0.6579 10.4705 5.1017
# 3 45.0674 13.2004 156.5774 -3.8550 -11.5884 10.2256
# 4 11.6315 -0.6579 -3.8550 29.0472 14.4379 4.1368
# 5 11.6681 10.4705 -11.5884 14.4379 52.5568 6.1378
# 6 -2.3607 5.1017 10.2256 4.1368 6.1378 35.2148
#
#
#
# Elastic Compliance Matrix: (Units=1/GPa)
#
#
# Indices 1 2 3 4 5 6 
#
# 1 0.011868 0.003929 -0.004274 -0.003796 -0.003614 0.002543
# 2 0.003929 0.033980 -0.004459 0.003559 -0.009351 -0.002153
# 3 -0.004274 -0.004459 0.008488 0.001318 0.003686 -0.002902
# 4 -0.003796 0.003559 0.001318 0.042098 -0.010645 -0.004243
# 5 -0.003614 -0.009351 0.003686 -0.010645 0.025803 -0.003205
# 6 0.002543 -0.002153 -0.002902 -0.004243 -0.003205 0.030779
#
#
# Mechanical properties :
#
#
# Convention : Reuss Voigt Hill
#
# Bulk Modulus (GPa) = 22.35841 45.34805 33.85323
# Shear Modulus (GPa) = 28.16361 39.90909 34.03635
#
# Velocity S-wave (km/s) = 3.45338 4.11089 3.79640
# Velocity P-wave (km/s) = 5.03674 6.46027 5.79240
#
# Compressibility (1/GPa) = 0.04472591
#
# Stress axis : x y z
#
# Youngs Moduli (GPa) = 84.26342 29.42879 117.81989
#
# Poissons Ratio (x) = -0.11562 0.50357
# Poissons Ratio (y) = -0.33105 0.52541
# Poissons Ratio (z) = 0.36015 0.13124
#
# Static dielectric constant tensor:
#      x y z
#    x 1.845570 -0.047600 0.003800 
#    y -0.047600 1.960880 -0.041160 
#    z 0.003800 -0.041160 1.876530 
# 
# From -- ./inp_files/205717.got.cif
#   From: 2010.05.17/outbox.cif.g08.bks.cpg/sg2_103_cif.got.tgz:205717.got - 2010.06.03 11:33:40.
