data_PCOD9026330
_publ_section_title
;
Structure prediction by ZEFSAII (Michael W. Deem and Ramdas Pophale) SiO2 
 PCOD9026330
Probable space group: P -1
;
_chemical_formula_sum "Si O2"
_cell_formula_units_Z 12
_cell_length_a 13.297109
_cell_length_b 9.247931
_cell_length_c 9.533419
_cell_angle_alpha 106.058036
_cell_angle_beta 55.695746
_cell_angle_gamma 145.703212
_cell_volume 498.679558
_symmetry_space_group_name_H-M "P -1"
_symmetry_group_IT_number 2
_symmetry_cell_setting 'triclinic'
loop_
_space_group_symop_operation_xyz
x,y,z
-x,-y,-z
loop_
_atom_site_type_symbol
_atom_site_label
_atom_site_fract_x
_atom_site_fract_y
_atom_site_fract_z
Si Si1 0.339576 0.225941 0.242484
Si Si2 0.286393 0.882703 0.600893
Si Si3 0.004723 0.183801 0.078580
Si Si4 0.678433 0.476920 0.824122
Si Si5 0.136354 0.427745 0.563828
Si Si6 0.396875 0.616322 0.684509
O O1 0.331475 0.374881 0.209107
O O2 0.493219 0.399087 0.308775
O O3 0.469875 0.252537 0.036214
O O4 0.089425 0.902073 0.375638
O O5 0.222288 0.953672 0.773337
O O6 0.087824 0.551250 0.673792
O O7 0.500000 0.000000 0.500000
O O8 0.377875 0.050102 0.430167
O O9 0.102414 0.297353 0.188358
O O10 0.185576 0.446362 0.900975
O O11 0.000000 0.000000 0.000000
O O12 0.717164 0.404137 0.648246
O O13 0.276516 0.486755 0.591987
#
# Coordination Sequence:
#
# PCOD9026330 Si02
#       6
#     2   2   2   2   2   2
#     4  10  22  41  63  96 136 175 218 267 330 396
#     4  10  25  43  65 100 136 174 222 274 332 393
#     4  11  24  44  69  98 134 177 224 273 331 398
#     4  10  23  40  64  99 133 170 221 275 329 391
#     4  11  23  41  65  93 132 174 218 274 328 389
#     4  10  24  41  66  97 131 176 223 267 327 397
#
# _framework density 24.063548999999998
#
# number of rings (size 3 to 8) (size 9 to 14) (size 15 to 20)
#    0.000    1.667    0.000    2.500    0.000   20.000 
#    0.000    3.333    0.000    0.000    0.000    0.000 
#    0.000    0.000    0.000    0.000    0.000    0.000 
#
# Total GULP energy -66881.332526 kJ/mol
# GULP energy per Si atom -5573.444377 kJ/mol
# Density = 2.400878 g / cm^3
# Si number density = 24.063549 Si / 1000 Ang^3
#
#
#
# Elastic Constant Matrix: (Units=GPa)
#
#
# Indices 1 2 3 4 5 6 
#
# 1 86.8296 15.2659 48.4634 5.7293 -0.9821 21.1228
# 2 15.2659 68.2535 34.8066 1.8234 -9.5204 7.1289
# 3 48.4634 34.8066 132.6535 1.4866 -6.7363 -4.4602
# 4 5.7293 1.8234 1.4866 38.6317 4.6657 5.8779
# 5 -0.9821 -9.5204 -6.7363 4.6657 43.4457 12.6783
# 6 21.1228 7.1289 -4.4602 5.8779 12.6783 44.5594
#
#
#
# Elastic Compliance Matrix: (Units=1/GPa)
#
#
# Indices 1 2 3 4 5 6 
#
# 1 0.017691 0.000973 -0.006906 -0.001220 0.002531 -0.009793
# 2 0.000973 0.018245 -0.005066 -0.000604 0.004810 -0.005176
# 3 -0.006906 -0.005066 0.011519 0.000111 -0.001108 0.005538
# 4 -0.001220 -0.000604 0.000111 0.026707 -0.002380 -0.002160
# 5 0.002531 0.004810 -0.001108 -0.002380 0.026967 -0.009439
# 6 -0.009793 -0.005176 0.005538 -0.002160 -0.009439 0.031437
#
#
# Mechanical properties :
#
#
# Convention : Reuss Voigt Hill
#
# Bulk Modulus (GPa) = 39.27937 53.86759 46.57348
# Shear Modulus (GPa) = 30.66573 37.94074 34.30323
#
# Velocity S-wave (km/s) = 3.57370 3.97506 3.77971
# Velocity P-wave (km/s) = 5.77815 6.59563 6.20038
#
# Compressibility (1/GPa) = 0.02545865
#
# Stress axis : x y z
#
# Youngs Moduli (GPa) = 56.52447 54.81082 86.81142
#
# Poissons Ratio (x) = -0.05334 0.59950
# Poissons Ratio (y) = -0.05501 0.43976
# Poissons Ratio (z) = 0.39034 0.27765
#
# Static dielectric constant tensor:
#      x y z
#    x 1.975690 -0.018660 -0.058100 
#    y -0.018660 2.003180 0.007530 
#    z -0.058100 0.007530 1.966490 
# 
# From -- ./inp_files/244479.got.cif
#   From: 2010.05.17/outbox.cif.g08.bks.cpg/sg2_123_cif.got.tgz:244479.got - 2010.06.03 11:33:40.
