data_PCOD9026237
_publ_section_title
;
Structure prediction by ZEFSAII (Michael W. Deem and Ramdas Pophale) SiO2 
 PCOD9026237
Probable space group: P -1
;
_chemical_formula_sum "Si O2"
_cell_formula_units_Z 16
_cell_length_a 26.531909
_cell_length_b 14.607860
_cell_length_c 9.010906
_cell_angle_alpha 55.429502
_cell_angle_beta 44.477687
_cell_angle_gamma 20.610104
_cell_volume 786.661297
_symmetry_space_group_name_H-M "P -1"
_symmetry_group_IT_number 2
_symmetry_cell_setting 'triclinic'
loop_
_space_group_symop_operation_xyz
x,y,z
-x,-y,-z
loop_
_atom_site_type_symbol
_atom_site_label
_atom_site_fract_x
_atom_site_fract_y
_atom_site_fract_z
Si Si1 0.211467 0.288534 0.077063
Si Si2 0.791287 0.208713 0.917427
Si Si3 0.681559 0.956935 0.237551
Si Si4 0.627077 0.422357 0.752998
Si Si5 0.580888 0.780620 0.237550
Si Si6 0.553095 0.180493 0.767421
Si Si7 0.820511 0.913080 0.232585
Si Si8 0.119927 0.830638 0.752998
O O1 0.999787 0.627882 0.214851
O O2 0.285360 0.086972 0.214850
O O3 0.339155 0.211379 0.920571
O O4 0.240270 0.209197 0.920573
O O5 0.611181 0.523177 0.076971
O O6 0.811840 0.053806 0.076982
O O7 0.761825 0.248637 0.767559
O O8 0.970621 0.018912 0.767558
O O9 0.515235 0.274117 0.245162
O O10 0.595570 0.987513 0.500000
O O11 0.814399 0.845818 0.158907
O O12 0.751623 0.248891 0.500000
O O13 0.500000 0.500000 0.000000
O O14 0.526689 0.813099 0.158904
O O15 0.739600 0.471049 0.245161
O O16 0.640450 0.134431 0.500004
O O17 0.000000 0.000000 0.000000
#
# Coordination Sequence:
#
# PCOD9026237 Si02
#       8
#     2   2   2   2   2   2   2   2
#     4  12  22  42  64  90 124 168 224 262 326 376
#     4  12  22  42  66  94 129 170 215 260 327 384
#     4  10  22  41  63  90 126 168 215 265 324 387
#     4  11  23  42  67  99 132 168 216 271 320 382
#     4  10  22  41  63  90 126 168 215 265 324 387
#     4  11  24  40  63  94 131 168 214 270 324 385
#     4  11  24  40  63  94 131 168 214 270 324 385
#     4  11  23  42  67  99 132 168 216 271 320 382
#
# _framework density 20.339120999999999
#
# number of rings (size 3 to 8) (size 9 to 14) (size 15 to 20)
#    0.000    1.000    5.000    2.250    0.000    1.000 
#    0.000    0.000    0.000    0.000    0.000    0.000 
#    0.000    0.000    0.000    0.000    0.000    0.000 
#
# Total GULP energy -89327.203844 kJ/mol
# GULP energy per Si atom -5582.950240 kJ/mol
# Density = 2.029283 g / cm^3
# Si number density = 20.339121 Si / 1000 Ang^3
#
#
#
# Elastic Constant Matrix: (Units=GPa)
#
#
# Indices 1 2 3 4 5 6 
#
# 1 70.9699 19.6118 48.7971 0.6815 2.1820 -10.9919
# 2 19.6118 97.0568 22.3108 3.7199 -0.3545 -19.8882
# 3 48.7971 22.3108 124.6361 -0.9164 1.2601 12.0755
# 4 0.6815 3.7199 -0.9164 67.7386 -14.8858 2.0377
# 5 2.1820 -0.3545 1.2601 -14.8858 32.3992 0.1227
# 6 -10.9919 -19.8882 12.0755 2.0377 0.1227 36.6553
#
#
#
# Elastic Compliance Matrix: (Units=1/GPa)
#
#
# Indices 1 2 3 4 5 6 
#
# 1 0.022383 -0.000259 -0.009658 -0.000995 -0.001629 0.009814
# 2 -0.000259 0.012669 -0.002929 -0.001018 -0.000227 0.007818
# 3 -0.009658 -0.002929 0.013190 0.000817 0.000514 -0.008878
# 4 -0.000995 -0.001018 0.000817 0.016583 0.007651 -0.002067
# 5 -0.001629 -0.000227 0.000514 0.007651 0.034472 -0.001322
# 6 0.009814 0.007818 -0.008878 -0.002067 -0.001322 0.037510
#
#
# Mechanical properties :
#
#
# Convention : Reuss Voigt Hill
#
# Bulk Modulus (GPa) = 44.34923 52.67802 48.51362
# Shear Modulus (GPa) = 29.40875 40.82148 35.11512
#
# Velocity S-wave (km/s) = 3.80665 4.48486 4.15960
# Velocity P-wave (km/s) = 6.41662 7.26462 6.85375
#
# Compressibility (1/GPa) = 0.02254831
#
# Stress axis : x y z
#
# Youngs Moduli (GPa) = 44.67741 78.93125 75.81466
#
# Poissons Ratio (x) = 0.02047 0.73225
# Poissons Ratio (y) = 0.01159 0.22206
# Poissons Ratio (z) = 0.43151 0.23119
#
# Static dielectric constant tensor:
#      x y z
#    x 1.727060 -0.012840 0.001360 
#    y -0.012840 1.688970 0.003240 
#    z 0.001360 0.003240 1.746190 
# 
# From -- ./inp_files/175303.got.cif
#   From: 2010.05.17/outbox.cif.g08.bks.cpg/sg2_88_cif.got.tgz:175303.got - 2010.06.03 11:33:40.
