data_PCOD9026316
_publ_section_title
;
Structure prediction by ZEFSAII (Michael W. Deem and Ramdas Pophale) SiO2 
 PCOD9026316
Probable space group: P -1
;
_chemical_formula_sum "Si O2"
_cell_formula_units_Z 14
_cell_length_a 8.975928
_cell_length_b 17.855124
_cell_length_c 16.580382
_cell_angle_alpha 157.116137
_cell_angle_beta 146.565299
_cell_angle_gamma 35.595054
_cell_volume 557.033271
_symmetry_space_group_name_H-M "P -1"
_symmetry_group_IT_number 2
_symmetry_cell_setting 'triclinic'
loop_
_space_group_symop_operation_xyz
x,y,z
-x,-y,-z
loop_
_atom_site_type_symbol
_atom_site_label
_atom_site_fract_x
_atom_site_fract_y
_atom_site_fract_z
Si Si1 0.388221 0.127961 0.694782
Si Si2 0.123501 0.145985 0.424718
Si Si3 0.008015 0.491796 0.363402
Si Si4 0.731735 0.905104 0.215187
Si Si5 0.375594 0.724999 0.581566
Si Si6 0.166317 0.777774 0.853441
Si Si7 0.973332 0.484817 0.069937
O O1 0.239832 0.076839 0.496441
O O2 0.244286 0.064587 0.647332
O O3 0.314744 0.365259 0.894606
O O4 0.700793 0.008723 0.710428
O O5 0.162464 0.366442 0.639751
O O6 0.793849 0.178099 0.320169
O O7 0.312187 0.379416 0.361457
O O8 0.056731 0.653302 0.611251
O O9 0.870337 0.338555 0.197023
O O10 0.634453 0.104990 0.320964
O O11 0.478819 0.789591 0.988450
O O12 0.974978 0.748672 0.126742
O O13 0.199739 0.577431 0.313854
O O14 0.000000 0.000000 0.000000
O O15 0.000000 0.500000 0.000000
#
# Coordination Sequence:
#
# PCOD9026316 Si02
#       7
#     2   2   2   2   2   2   2
#     4   9  21  41  64  89 129 172 218 262 310 376
#     4  10  22  41  63  95 133 174 211 259 326 391
#     4  11  23  40  66  95 131 171 207 266 327 385
#     4  11  21  40  69  97 125 164 224 271 316 376
#     4  11  22  40  66  99 131 169 209 269 330 380
#     4  11  22  39  65  98 125 162 219 266 317 378
#     4   9  20  38  62  94 125 166 214 266 311 371
#
# _framework density 25.133147999999998
#
# number of rings (size 3 to 8) (size 9 to 14) (size 15 to 20)
#    0.000    1.714    2.857    1.286    2.000    5.143 
#    0.000   15.000    0.000    0.000    0.000    0.000 
#    0.000    0.000    0.000    0.000    0.000    0.000 
#
# Total GULP energy -78255.403319 kJ/mol
# GULP energy per Si atom -5589.671666 kJ/mol
# Density = 2.507594 g / cm^3
# Si number density = 25.133148 Si / 1000 Ang^3
#
#
#
# Elastic Constant Matrix: (Units=GPa)
#
#
# Indices 1 2 3 4 5 6 
#
# 1 130.5637 52.9467 53.0964 33.1020 -5.0197 -15.0336
# 2 52.9467 118.8534 51.8489 39.2370 -5.2168 -8.3262
# 3 53.0964 51.8489 111.7953 33.2531 6.5865 -6.6158
# 4 33.1020 39.2370 33.2531 46.5117 -5.4111 -11.3182
# 5 -5.0197 -5.2168 6.5865 -5.4111 29.3754 26.0019
# 6 -15.0336 -8.3262 -6.6158 -11.3182 26.0019 51.2809
#
#
#
# Elastic Compliance Matrix: (Units=1/GPa)
#
#
# Indices 1 2 3 4 5 6 
#
# 1 0.010836 -0.002347 -0.003021 -0.003156 0.000032 0.001693
# 2 -0.002347 0.013280 -0.003158 -0.007439 0.003283 -0.002246
# 3 -0.003021 -0.003158 0.014151 -0.005433 -0.008287 0.003430
# 4 -0.003156 -0.007439 -0.005433 0.035082 0.002676 0.003552
# 5 0.000032 0.003283 -0.008287 0.002676 0.066993 -0.033905
# 6 0.001693 -0.002246 0.003430 0.003552 -0.033905 0.038050
#
#
# Mechanical properties :
#
#
# Convention : Reuss Voigt Hill
#
# Bulk Modulus (GPa) = 47.13543 75.22183 61.17863
# Shear Modulus (GPa) = 24.68965 38.98828 31.83896
#
# Velocity S-wave (km/s) = 3.13765 3.94289 3.56309
# Velocity P-wave (km/s) = 5.64991 7.12199 6.42823
#
# Compressibility (1/GPa) = 0.02121546
#
# Stress axis : x y z
#
# Youngs Moduli (GPa) = 92.28680 75.30403 70.66497
#
# Poissons Ratio (x) = 0.17677 0.21345
# Poissons Ratio (y) = 0.21664 0.22313
# Poissons Ratio (z) = 0.27876 0.23777
#
# Static dielectric constant tensor:
#      x y z
#    x 2.066080 -0.018280 -0.039600 
#    y -0.018280 2.062720 -0.052200 
#    z -0.039600 -0.052200 1.995230 
# 
# From -- ./inp_files/562155.got.cif
#   From: 2010.05.17/outbox.cif.g08.bks.cpg/sg2_282_cif.got.tgz:562155.got - 2010.06.03 11:33:40.
