data_PCOD9026127
_publ_section_title
;
Structure prediction by ZEFSAII (Michael W. Deem and Ramdas Pophale) SiO2 
 PCOD9026127
Probable space group: P -1
;
_chemical_formula_sum "Si O2"
_cell_formula_units_Z 14
_cell_length_a 19.868181
_cell_length_b 7.134798
_cell_length_c 11.559429
_cell_angle_alpha 84.788559
_cell_angle_beta 154.818951
_cell_angle_gamma 80.152732
_cell_volume 556.690102
_symmetry_space_group_name_H-M "P -1"
_symmetry_group_IT_number 2
_symmetry_cell_setting 'triclinic'
loop_
_space_group_symop_operation_xyz
x,y,z
-x,-y,-z
loop_
_atom_site_type_symbol
_atom_site_label
_atom_site_fract_x
_atom_site_fract_y
_atom_site_fract_z
Si Si1 0.971470 0.336360 0.134978
Si Si2 0.474538 0.323978 0.228601
Si Si3 0.313687 0.144850 0.116018
Si Si4 0.326361 0.120055 0.869831
Si Si5 0.433890 0.665374 0.998392
Si Si6 0.992705 0.912301 0.239679
Si Si7 0.858920 0.804925 0.845967
O O1 0.119898 0.277853 0.473633
O O2 0.101925 0.222824 0.227141
O O3 0.888102 0.189156 0.042264
O O4 0.839350 0.609593 0.879382
O O5 0.315974 0.368577 0.075403
O O6 0.673133 0.066130 0.571725
O O7 0.397503 0.280804 0.992700
O O8 0.510939 0.511405 0.243454
O O9 0.500000 0.000000 0.500000
O O10 0.324766 0.057152 0.006473
O O11 0.135662 0.153746 0.892269
O O12 0.465271 0.867183 0.038422
O O13 0.195857 0.814539 0.623700
O O14 0.500000 0.500000 0.000000
O O15 0.035714 0.785593 0.188869
#
# Coordination Sequence:
#
# PCOD9026127 Si02
#       7
#     2   2   2   2   2   2   2
#     4  10  23  38  62  98 123 171 216 261 325 386
#     4  10  22  41  62  92 131 167 212 266 320 375
#     4  10  22  47  66  92 132 170 223 268 318 382
#     4   9  22  43  64  94 127 170 214 264 319 381
#     4  11  24  40  66 102 129 167 215 264 329 387
#     4  11  22  43  65  92 130 173 215 265 318 382
#     4  11  22  40  63  94 134 167 212 267 325 379
#
# _framework density 25.148643
#
# number of rings (size 3 to 8) (size 9 to 14) (size 15 to 20)
#    0.857    0.857    1.429    3.000    0.000    8.571 
#    2.571    1.429    0.000    0.000    0.000    0.000 
#    0.000    0.000    0.000    0.000    0.000    0.000 
#
# Total GULP energy -78078.099156 kJ/mol
# GULP energy per Si atom -5577.007083 kJ/mol
# Density = 2.509140 g / cm^3
# Si number density = 25.148643 Si / 1000 Ang^3
#
#
#
# Elastic Constant Matrix: (Units=GPa)
#
#
# Indices 1 2 3 4 5 6 
#
# 1 93.2685 37.3601 27.1429 -9.8477 -24.5553 21.0392
# 2 37.3601 100.9180 19.9783 -16.5001 -6.9121 29.7209
# 3 27.1429 19.9783 76.7617 -2.0326 -19.2573 0.7956
# 4 -9.8477 -16.5001 -2.0326 35.1818 -4.0702 -18.9880
# 5 -24.5553 -6.9121 -19.2573 -4.0702 32.1324 5.7220
# 6 21.0392 29.7209 0.7956 -18.9880 5.7220 48.4755
#
#
#
# Elastic Compliance Matrix: (Units=1/GPa)
#
#
# Indices 1 2 3 4 5 6 
#
# 1 0.017602 -0.003014 -0.002098 0.001213 0.012911 -0.006806
# 2 -0.003014 0.013720 -0.002201 0.002139 0.000724 -0.006315
# 3 -0.002098 -0.002201 0.016238 0.000996 0.007515 0.001497
# 4 0.001213 0.002139 0.000996 0.036847 0.004506 0.012047
# 5 0.012911 0.000724 0.007515 0.004506 0.048012 -0.010074
# 6 -0.006806 -0.006315 0.001497 0.012047 -0.010074 0.033338
#
#
# Mechanical properties :
#
#
# Convention : Reuss Voigt Hill
#
# Bulk Modulus (GPa) = 30.36387 48.87897 39.62142
# Shear Modulus (GPa) = 26.12854 35.58909 30.85881
#
# Velocity S-wave (km/s) = 3.22679 3.76593 3.50674
# Velocity P-wave (km/s) = 5.09734 6.19579 5.67322
#
# Compressibility (1/GPa) = 0.03293388
#
# Stress axis : x y z
#
# Youngs Moduli (GPa) = 56.81106 72.88757 61.58361
#
# Poissons Ratio (x) = 0.21968 0.12920
# Poissons Ratio (y) = 0.17123 0.13556
# Poissons Ratio (z) = 0.11919 0.16044
#
# Static dielectric constant tensor:
#      x y z
#    x 2.047660 -0.013710 0.016540 
#    y -0.013710 2.014990 -0.012580 
#    z 0.016540 -0.012580 2.062390 
# 
# From -- ./inp_files/468913.got.cif
#   From: 2010.05.17/outbox.cif.g08.bks.cpg/sg2_235_cif.got.tgz:468913.got - 2010.06.03 11:33:40.
