data_PCOD9026728
_publ_section_title
;
Structure prediction by ZEFSAII (Michael W. Deem and Ramdas Pophale) SiO2 
 PCOD9026728
Probable space group: P -1
;
_chemical_formula_sum "Si O2"
_cell_formula_units_Z 12
_cell_length_a 7.724760
_cell_length_b 8.918231
_cell_length_c 15.368796
_cell_angle_alpha 57.222932
_cell_angle_beta 54.951066
_cell_angle_gamma 31.911485
_cell_volume 454.620136
_symmetry_space_group_name_H-M "P -1"
_symmetry_group_IT_number 2
_symmetry_cell_setting 'triclinic'
loop_
_space_group_symop_operation_xyz
x,y,z
-x,-y,-z
loop_
_atom_site_type_symbol
_atom_site_label
_atom_site_fract_x
_atom_site_fract_y
_atom_site_fract_z
Si Si1 0.563331 0.791010 0.803218
Si Si2 0.402588 0.519520 0.260230
Si Si3 0.877130 0.915729 0.851922
Si Si4 0.842540 0.780141 0.086267
Si Si5 0.942232 0.244723 0.536669
Si Si6 0.497782 0.789107 0.402406
O O1 0.566030 0.650199 0.768377
O O2 0.901288 0.521120 0.844887
O O3 0.251950 0.989036 0.898781
O O4 0.508380 0.023758 0.705721
O O5 0.231795 0.811115 0.182362
O O6 0.164483 0.630181 0.375851
O O7 0.798195 0.298248 0.238412
O O8 0.529003 0.060416 0.872521
O O9 0.980783 0.744271 0.963481
O O10 0.845667 0.463506 0.427584
O O11 0.716663 0.219568 0.584688
O O12 0.319948 0.941373 0.499274
#
# Coordination Sequence:
#
# PCOD9026728 Si02
#       6
#     2   2   2   2   2   2
#     4  12  25  41  67 101 135 170 212 272 334 385
#     4  12  25  41  67 101 135 170 212 272 334 385
#     4  11  25  45  68  94 129 176 224 267 318 388
#     4  11  25  45  68  94 129 176 224 267 318 388
#     4  10  22  41  65  94 129 172 219 266 319 385
#     4  10  22  41  65  94 129 172 219 266 319 385
#
# _framework density 26.395665999999999
#
# number of rings (size 3 to 8) (size 9 to 14) (size 15 to 20)
#    0.000    1.000    0.000    6.000    0.000   13.333 
#    0.000    0.000    0.000    0.000    0.000    0.000 
#    0.000    0.000    0.000    0.000    0.000    0.000 
#
# Total GULP energy -67282.611443 kJ/mol
# GULP energy per Si atom -5606.884287 kJ/mol
# Density = 2.633559 g / cm^3
# Si number density = 26.395666 Si / 1000 Ang^3
#
#
#
# Elastic Constant Matrix: (Units=GPa)
#
#
# Indices 1 2 3 4 5 6 
#
# 1 58.5742 22.6360 29.6300 -17.6792 4.2547 11.1591
# 2 22.6360 135.2142 24.8881 -14.7443 -2.2750 8.0663
# 3 29.6300 24.8881 117.4413 -10.4543 5.3437 8.0594
# 4 -17.6792 -14.7443 -10.4543 58.4845 -0.4409 1.7797
# 5 4.2547 -2.2750 5.3437 -0.4409 24.9617 7.6759
# 6 11.1591 8.0663 8.0594 1.7797 7.6759 44.1630
#
#
#
# Elastic Compliance Matrix: (Units=1/GPa)
#
#
# Indices 1 2 3 4 5 6 
#
# 1 0.022835 -0.002148 -0.004414 0.005697 -0.001654 -0.004514
# 2 -0.002148 0.008187 -0.001082 0.001268 0.001705 -0.001103
# 3 -0.004414 -0.001082 0.009955 0.000170 -0.001392 -0.000269
# 4 0.005697 0.001268 0.000170 0.019249 0.000222 -0.002516
# 5 -0.001654 0.001705 -0.001392 0.000222 0.042990 -0.007120
# 6 -0.004514 -0.001103 -0.000269 -0.002516 -0.007120 0.025373
#
#
# Mechanical properties :
#
#
# Convention : Reuss Voigt Hill
#
# Bulk Modulus (GPa) = 38.92670 51.72643 45.32657
# Shear Modulus (GPa) = 32.79984 41.12687 36.96335
#
# Velocity S-wave (km/s) = 3.52891 3.95155 3.74619
# Velocity P-wave (km/s) = 5.60211 6.36072 5.99343
#
# Compressibility (1/GPa) = 0.02568931
#
# Stress axis : x y z
#
# Youngs Moduli (GPa) = 43.79285 122.14301 100.45472
#
# Poissons Ratio (x) = 0.26232 0.44339
# Poissons Ratio (y) = 0.09405 0.10872
# Poissons Ratio (z) = 0.19329 0.13219
#
# Static dielectric constant tensor:
#      x y z
#    x 2.151180 0.010690 0.008900 
#    y 0.010690 1.957610 0.032550 
#    z 0.008900 0.032550 2.062730 
# 
# From -- ./inp_files/494452.got.cif
#   From: 2010.05.17/outbox.cif.g08.bks.cpg/sg2_248_cif.got.tgz:494452.got - 2010.06.03 11:33:40.
