data_PCOD9026578
_publ_section_title
;
Structure prediction by ZEFSAII (Michael W. Deem and Ramdas Pophale) SiO2 
 PCOD9026578
Probable space group: P -1
;
_chemical_formula_sum "Si O2"
_cell_formula_units_Z 16
_cell_length_a 7.239514
_cell_length_b 14.725967
_cell_length_c 7.286789
_cell_angle_alpha 77.450977
_cell_angle_beta 120.224906
_cell_angle_gamma 103.182154
_cell_volume 648.676472
_symmetry_space_group_name_H-M "P -1"
_symmetry_group_IT_number 2
_symmetry_cell_setting 'triclinic'
loop_
_space_group_symop_operation_xyz
x,y,z
-x,-y,-z
loop_
_atom_site_type_symbol
_atom_site_label
_atom_site_fract_x
_atom_site_fract_y
_atom_site_fract_z
Si Si1 0.582332 0.187697 0.175517
Si Si2 0.632861 0.644561 0.888784
Si Si3 0.348413 0.981210 0.180158
Si Si4 0.756528 0.505926 0.317925
Si Si5 0.979440 0.225981 0.630695
Si Si6 0.682390 0.643509 0.503113
Si Si7 0.675151 0.225708 0.794535
Si Si8 0.993877 0.980028 0.290808
O O1 0.395630 0.251593 0.101302
O O2 0.501672 0.076479 0.171148
O O3 0.758471 0.202613 0.416126
O O4 0.687902 0.224516 0.020275
O O5 0.385277 0.591636 0.765916
O O6 0.742607 0.642145 0.746619
O O7 0.738136 0.579548 0.112678
O O8 0.431166 0.880660 0.269118
O O9 0.227292 0.997690 0.302466
O O10 0.163227 0.967749 0.935221
O O11 0.643991 0.545629 0.420139
O O12 0.000000 0.500000 0.500000
O O13 0.897739 0.247274 0.783482
O O14 0.083679 0.130380 0.728464
O O15 0.132355 0.299997 0.555936
O O16 0.477647 0.698811 0.368437
O O17 0.000000 0.000000 0.500000
#
# Coordination Sequence:
#
# PCOD9026578 Si02
#       8
#     2   2   2   2   2   2   2   2
#     4  12  23  44  70 104 145 190 246 305 357 435
#     4  11  26  48  77 115 142 192 247 296 385 445
#     4  10  24  41  66 103 144 196 246 296 359 422
#     4  11  26  51  80 111 148 186 242 310 379 451
#     4  11  26  41  67 106 139 196 249 287 368 435
#     4  12  25  48  75 106 152 189 239 309 359 445
#     4  11  24  45  69 100 149 197 239 295 361 427
#     4  10  22  41  64  97 142 192 253 300 350 424
#
# _framework density 24.665609
#
# number of rings (size 3 to 8) (size 9 to 14) (size 15 to 20)
#    0.000    1.000    2.500    3.000    1.750    5.500 
#    0.000    0.000    0.000    0.000    0.000    0.000 
#    0.000    0.000    0.000    0.000    0.000    0.000 
#
# Total GULP energy -89697.174319 kJ/mol
# GULP energy per Si atom -5606.073395 kJ/mol
# Density = 2.460947 g / cm^3
# Si number density = 24.665609 Si / 1000 Ang^3
#
#
#
# Elastic Constant Matrix: (Units=GPa)
#
#
# Indices 1 2 3 4 5 6 
#
# 1 124.8394 27.8600 52.5756 0.6435 -42.1274 -14.9458
# 2 27.8600 86.6350 16.0132 -6.9966 7.9283 -20.0400
# 3 52.5756 16.0132 118.2788 -6.6646 -23.6180 -15.6844
# 4 0.6435 -6.9966 -6.6646 31.0561 -8.0561 -0.3913
# 5 -42.1274 7.9283 -23.6180 -8.0561 62.2758 1.1144
# 6 -14.9458 -20.0400 -15.6844 -0.3913 1.1144 49.4700
#
#
#
# Elastic Compliance Matrix: (Units=1/GPa)
#
#
# Indices 1 2 3 4 5 6 
#
# 1 0.013322 -0.004117 -0.003584 0.000162 0.008179 0.001038
# 2 -0.004117 0.014604 -0.000313 0.002183 -0.004565 0.004693
# 3 -0.003584 -0.000313 0.010976 0.002937 0.002118 0.002246
# 4 0.000162 0.002183 0.002937 0.034746 0.005404 0.002018
# 5 0.008179 -0.004565 0.002118 0.005404 0.023659 0.000803
# 6 0.001038 0.004693 0.002246 0.002018 0.000803 0.023139
#
#
# Mechanical properties :
#
#
# Convention : Reuss Voigt Hill
#
# Bulk Modulus (GPa) = 43.71914 58.07231 50.89573
# Shear Modulus (GPa) = 34.69807 44.11402 39.40605
#
# Velocity S-wave (km/s) = 3.75472 4.23363 4.00135
# Velocity P-wave (km/s) = 6.04652 6.89153 6.48281
#
# Compressibility (1/GPa) = 0.02287328
#
# Stress axis : x y z
#
# Youngs Moduli (GPa) = 75.06354 68.47390 91.10417
#
# Poissons Ratio (x) = 0.28190 0.32656
# Poissons Ratio (y) = 0.30903 0.02854
# Poissons Ratio (z) = 0.26906 0.02145
#
# Static dielectric constant tensor:
#      x y z
#    x 1.953360 0.020340 0.025280 
#    y 0.020340 1.986520 0.014590 
#    z 0.025280 0.014590 1.964190 
# 
# From -- ./inp_files/206574.got.cif
#   From: 2010.05.17/outbox.cif.g08.bks.cpg/sg2_104_cif.got.tgz:206574.got - 2010.06.03 11:33:40.
