data_PCOD9026833
_publ_section_title
;
Structure prediction by ZEFSAII (Michael W. Deem and Ramdas Pophale) SiO2 
 PCOD9026833
Probable space group: P -1
;
_chemical_formula_sum "Si O2"
_cell_formula_units_Z 14
_cell_length_a 11.733711
_cell_length_b 11.843458
_cell_length_c 11.777121
_cell_angle_alpha 90.792652
_cell_angle_beta 27.448424
_cell_angle_gamma 73.776597
_cell_volume 584.096219
_symmetry_space_group_name_H-M "P -1"
_symmetry_group_IT_number 2
_symmetry_cell_setting 'triclinic'
loop_
_space_group_symop_operation_xyz
x,y,z
-x,-y,-z
loop_
_atom_site_type_symbol
_atom_site_label
_atom_site_fract_x
_atom_site_fract_y
_atom_site_fract_z
Si Si1 0.738864 0.378542 0.876011
Si Si2 0.083782 0.406969 0.756056
Si Si3 0.837359 0.701056 0.057095
Si Si4 0.327042 0.807659 0.923613
Si Si5 0.129769 0.088510 0.859602
Si Si6 0.823835 0.888518 0.644149
Si Si7 0.842065 0.093890 0.460171
O O1 0.795531 0.439945 0.936628
O O2 0.074625 0.253714 0.513039
O O3 0.500000 0.500000 0.000000
O O4 0.608097 0.294738 0.031410
O O5 0.123758 0.354082 0.848917
O O6 0.392343 0.275354 0.415168
O O7 0.043596 0.554446 0.798332
O O8 0.946886 0.799387 0.971945
O O9 0.472185 0.801418 0.336564
O O10 0.042389 0.830747 0.104460
O O11 0.170642 0.971482 0.100225
O O12 0.500000 0.000000 0.500000
O O13 0.000000 0.000000 0.000000
O O14 0.094393 0.829974 0.500569
O O15 0.811527 0.989352 0.561448
O O16 0.500000 0.000000 0.000000
#
# Coordination Sequence:
#
# PCOD9026833 Si02
#       7
#     2   2   2   2   2   2   2
#     4  11  24  44  68  97 142 190 242 304 368 451
#     4  11  25  45  68 102 152 191 244 302 378 450
#     4  11  24  46  68 106 145 192 244 307 372 452
#     4  11  24  42  68 102 141 187 246 297 372 440
#     4  12  25  45  74 110 150 196 244 306 379 446
#     4  10  22  41  65  98 133 182 242 300 358 432
#     4  10  22  41  66  98 140 180 242 304 359 436
#
# _framework density 23.968653
#
# number of rings (size 3 to 8) (size 9 to 14) (size 15 to 20)
#    0.000    1.143    2.857    2.571    0.000    3.429 
#    2.571    0.000    0.000    0.000    0.000    0.000 
#    0.000    0.000    0.000    0.000    0.000    0.000 
#
# Total GULP energy -78247.701435 kJ/mol
# GULP energy per Si atom -5589.121531 kJ/mol
# Density = 2.391410 g / cm^3
# Si number density = 23.968653 Si / 1000 Ang^3
#
#
#
# Elastic Constant Matrix: (Units=GPa)
#
#
# Indices 1 2 3 4 5 6 
#
# 1 171.2118 53.6173 24.6167 21.8480 -4.1577 4.5438
# 2 53.6173 111.3795 26.8593 9.0965 1.4056 6.7600
# 3 24.6167 26.8593 87.8051 6.8198 15.0122 0.5581
# 4 21.8480 9.0965 6.8198 29.6591 1.9189 2.5945
# 5 -4.1577 1.4056 15.0122 1.9189 40.8245 12.7428
# 6 4.5438 6.7600 0.5581 2.5945 12.7428 49.5529
#
#
#
# Elastic Compliance Matrix: (Units=1/GPa)
#
#
# Indices 1 2 3 4 5 6 
#
# 1 0.007563 -0.002996 -0.001136 -0.004457 0.001645 -0.000462
# 2 -0.002996 0.011180 -0.002657 -0.000538 0.000744 -0.001384
# 3 -0.001136 -0.002657 0.013548 -0.001264 -0.005508 0.001797
# 4 -0.004457 -0.000538 -0.001264 0.037643 -0.001391 -0.001117
# 5 0.001645 0.000744 -0.005508 -0.001391 0.029100 -0.007601
# 6 -0.000462 -0.001384 0.001797 -0.001117 -0.007601 0.022404
#
#
# Mechanical properties :
#
#
# Convention : Reuss Voigt Hill
#
# Bulk Modulus (GPa) = 53.43406 64.50921 58.97163
# Shear Modulus (GPa) = 35.39724 41.69416 38.54570
#
# Velocity S-wave (km/s) = 3.84710 4.17529 4.01455
# Velocity P-wave (km/s) = 6.48655 7.08636 6.79308
#
# Compressibility (1/GPa) = 0.01871466
#
# Stress axis : x y z
#
# Youngs Moduli (GPa) = 132.21976 89.44899 73.80911
#
# Poissons Ratio (x) = 0.26795 0.08386
# Poissons Ratio (y) = 0.39607 0.19608
# Poissons Ratio (z) = 0.15022 0.23763
#
# Static dielectric constant tensor:
#      x y z
#    x 1.969770 0.031420 0.007710 
#    y 0.031420 1.933010 -0.013520 
#    z 0.007710 -0.013520 1.989360 
# 
# From -- ./inp_files/428268.got.cif
#   From: 2010.05.17/outbox.cif.g08.bks.cpg/sg2_215_cif.got.tgz:428268.got - 2010.06.03 11:33:40.
