data_PCOD9026096
_publ_section_title
;
Structure prediction by ZEFSAII (Michael W. Deem and Ramdas Pophale) SiO2 
 PCOD9026096
Probable space group: P -1
;
_chemical_formula_sum "Si O2"
_cell_formula_units_Z 14
_cell_length_a 9.333064
_cell_length_b 19.375571
_cell_length_c 7.585691
_cell_angle_alpha 136.756978
_cell_angle_beta 110.859387
_cell_angle_gamma 44.395647
_cell_volume 617.577866
_symmetry_space_group_name_H-M "P -1"
_symmetry_group_IT_number 2
_symmetry_cell_setting 'triclinic'
loop_
_space_group_symop_operation_xyz
x,y,z
-x,-y,-z
loop_
_atom_site_type_symbol
_atom_site_label
_atom_site_fract_x
_atom_site_fract_y
_atom_site_fract_z
Si Si1 0.348277 0.276503 0.968577
Si Si2 0.308961 0.618382 0.774569
Si Si3 0.459504 0.111306 0.373707
Si Si4 0.609654 0.080096 0.011263
Si Si5 0.994383 0.773683 0.623176
Si Si6 0.687201 0.534033 0.950310
Si Si7 0.911208 0.455934 0.248132
O O1 0.478452 0.160936 0.655733
O O2 0.499137 0.214571 0.090893
O O3 0.260771 0.419433 0.107675
O O4 0.135061 0.312725 0.991865
O O5 0.500000 0.500000 0.500000
O O6 0.115364 0.748554 0.808914
O O7 0.432312 0.629736 0.992049
O O8 0.215280 0.566672 0.737584
O O9 0.585461 0.103457 0.253264
O O10 0.200458 0.217159 0.412595
O O11 0.523405 0.964107 0.154413
O O12 0.854170 0.934099 0.792547
O O13 0.172745 0.634163 0.321591
O O14 0.757654 0.554826 0.199445
O O15 0.000000 0.500000 0.500000
#
# Coordination Sequence:
#
# PCOD9026096 Si02
#       7
#     2   2   2   2   2   2   2
#     4  12  23  37  65 100 130 160 213 273 318 373
#     4  10  22  41  62  88 129 175 209 256 327 388
#     4   9  19  36  61  91 129 161 217 257 318 369
#     4   9  20  36  61  92 128 167 207 266 317 375
#     4   9  18  40  60  87 121 170 210 253 309 389
#     4  11  24  40  61  98 136 163 211 265 324 390
#     4  12  24  37  66  96 128 170 216 269 319 367
#
# _framework density 22.669207
#
# number of rings (size 3 to 8) (size 9 to 14) (size 15 to 20)
#    0.857    0.857    1.429    3.857    4.000    0.000 
#    0.000    0.714    0.000    0.857    0.000    0.000 
#    0.000    0.000    0.000    0.000    0.000    0.000 
#
# Total GULP energy -78070.881354 kJ/mol
# GULP energy per Si atom -5576.491525 kJ/mol
# Density = 2.261761 g / cm^3
# Si number density = 22.669207 Si / 1000 Ang^3
#
#
#
# Elastic Constant Matrix: (Units=GPa)
#
#
# Indices 1 2 3 4 5 6 
#
# 1 82.3156 29.8488 16.4635 -18.0899 -5.4243 -10.7752
# 2 29.8488 118.7583 10.7770 -29.5118 4.3222 -8.8025
# 3 16.4635 10.7770 76.9892 -19.6888 0.4184 9.0278
# 4 -18.0899 -29.5118 -19.6888 34.5900 -6.5510 7.5953
# 5 -5.4243 4.3222 0.4184 -6.5510 26.3852 -13.3513
# 6 -10.7752 -8.8025 9.0278 7.5953 -13.3513 22.0958
#
#
#
# Elastic Compliance Matrix: (Units=1/GPa)
#
#
# Indices 1 2 3 4 5 6 
#
# 1 0.017724 -0.002437 -0.004528 0.003540 0.013246 0.016309
# 2 -0.002437 0.011126 0.001367 0.009065 -0.000450 -0.000703
# 3 -0.004528 0.001367 0.019079 0.012222 -0.007685 -0.018304
# 4 0.003540 0.009065 0.012222 0.049337 0.004164 -0.014100
# 5 0.013246 -0.000450 -0.007685 0.004164 0.066108 0.047935
# 6 0.016309 -0.000703 -0.018304 -0.014100 0.047935 0.094220
#
#
# Mechanical properties :
#
#
# Convention : Reuss Voigt Hill
#
# Bulk Modulus (GPa) = 27.22430 43.58239 35.40334
# Shear Modulus (GPa) = 17.79136 31.34578 24.56857
#
# Velocity S-wave (km/s) = 2.80451 3.72257 3.29566
# Velocity P-wave (km/s) = 4.74579 6.14360 5.48936
#
# Compressibility (1/GPa) = 0.03673189
#
# Stress axis : x y z
#
# Youngs Moduli (GPa) = 56.42226 89.87952 52.41236
#
# Poissons Ratio (x) = 0.21907 0.23733
# Poissons Ratio (y) = 0.13752 -0.07164
# Poissons Ratio (z) = 0.25548 -0.12285
#
# Static dielectric constant tensor:
#      x y z
#    x 1.849330 0.006300 0.027200 
#    y 0.006300 1.862270 0.008480 
#    z 0.027200 0.008480 1.911220 
# 
# From -- ./inp_files/42658.got.cif
#   From: 2010.05.17/outbox.cif.g08.bks.cpg/sg2_22_cif.got.tgz:42658.got - 2010.06.03 11:33:40.
