data_PCOD9026030
_publ_section_title
;
Structure prediction by ZEFSAII (Michael W. Deem and Ramdas Pophale) SiO2 
 PCOD9026030
Probable space group: P -1
;
_chemical_formula_sum "Si O2"
_cell_formula_units_Z 16
_cell_length_a 9.360549
_cell_length_b 12.104194
_cell_length_c 18.888973
_cell_angle_alpha 55.309204
_cell_angle_beta 158.765326
_cell_angle_gamma 120.034104
_cell_volume 634.108167
_symmetry_space_group_name_H-M "P -1"
_symmetry_group_IT_number 2
_symmetry_cell_setting 'triclinic'
loop_
_space_group_symop_operation_xyz
x,y,z
-x,-y,-z
loop_
_atom_site_type_symbol
_atom_site_label
_atom_site_fract_x
_atom_site_fract_y
_atom_site_fract_z
Si Si1 0.652990 0.615597 0.355002
Si Si2 0.283995 0.263473 0.968630
Si Si3 0.396037 0.668368 0.593160
Si Si4 0.373831 0.937211 0.539686
Si Si5 0.021286 0.864977 0.009449
Si Si6 0.065098 0.456200 0.336665
Si Si7 0.450729 0.214751 0.534105
Si Si8 0.497484 0.993339 0.918556
O O1 0.422757 0.487283 0.272054
O O2 0.363408 0.739878 0.204532
O O3 0.922556 0.566520 0.565505
O O4 0.944477 0.650556 0.414152
O O5 0.328361 0.212385 0.088998
O O6 0.248968 0.420429 0.876206
O O7 0.826635 0.231131 0.751319
O O8 0.515189 0.158777 0.060163
O O9 0.433907 0.732345 0.509447
O O10 0.549227 0.779437 0.677015
O O11 0.387354 0.057920 0.558103
O O12 0.902710 0.927384 0.322928
O O13 0.500000 0.000000 0.500000
O O14 0.117434 0.938347 0.953615
O O15 0.000000 0.000000 0.000000
O O16 0.500000 0.500000 0.500000
O O17 0.075796 0.313579 0.352692
O O18 0.500000 0.000000 0.000000
#
# Coordination Sequence:
#
# PCOD9026030 Si02
#       8
#     2   2   2   2   2   2   2   2
#     4  11  18  31  54  81 114 134 188 236 271 313
#     4  10  19  35  56  84 112 143 186 232 274 331
#     4  10  19  29  50  78 109 139 179 232 267 315
#     4  10  21  35  52  82 116 145 185 225 284 333
#     4  10  20  33  51  82 115 140 178 233 284 318
#     4  10  17  31  55  82 109 140 186 224 276 323
#     4  10  18  35  56  81 114 146 181 228 279 331
#     4  11  22  35  55  78 112 148 191 229 274 328
#
# _framework density 25.232288
#
# number of rings (size 3 to 8) (size 9 to 14) (size 15 to 20)
#    0.000    1.750    6.250    1.500    0.000    0.000 
#    0.000    3.125    0.000    1.500    0.000   27.125 
#    0.000    0.000    0.000    0.000    0.000    0.000 
#
# Total GULP energy -89167.047898 kJ/mol
# GULP energy per Si atom -5572.940494 kJ/mol
# Density = 2.517486 g / cm^3
# Si number density = 25.232288 Si / 1000 Ang^3
#
#
#
# Elastic Constant Matrix: (Units=GPa)
#
#
# Indices 1 2 3 4 5 6 
#
# 1 145.4712 39.0981 14.7597 -16.9581 18.5927 -7.1923
# 2 39.0981 179.4065 41.1298 -44.1085 3.9279 -25.0449
# 3 14.7597 41.1298 63.4767 -38.3561 13.0758 -4.5162
# 4 -16.9581 -44.1085 -38.3561 46.5732 -5.1964 10.8063
# 5 18.5927 3.9279 13.0758 -5.1964 25.9654 -5.3479
# 6 -7.1923 -25.0449 -4.5162 10.8063 -5.3479 38.1982
#
#
#
# Elastic Compliance Matrix: (Units=1/GPa)
#
#
# Indices 1 2 3 4 5 6 
#
# 1 0.008152 -0.001566 0.001864 0.002525 -0.006210 -0.000856
# 2 -0.001566 0.008047 -0.002480 0.004435 0.002830 0.003829
# 3 0.001864 -0.002480 0.036884 0.028664 -0.015272 -0.007162
# 4 0.002525 0.004435 0.028664 0.051325 -0.008483 -0.008935
# 5 -0.006210 0.002830 -0.015272 -0.008483 0.050237 0.008314
# 6 -0.000856 0.003829 -0.007162 -0.008935 0.008314 0.031374
#
#
# Mechanical properties :
#
#
# Convention : Reuss Voigt Hill
#
# Bulk Modulus (GPa) = 20.52663 64.25884 42.39274
# Shear Modulus (GPa) = 24.19856 41.70515 32.95185
#
# Velocity S-wave (km/s) = 3.10018 4.06993 3.61770
# Velocity P-wave (km/s) = 4.57904 6.89986 5.85558
#
# Compressibility (1/GPa) = 0.04871720
#
# Stress axis : x y z
#
# Youngs Moduli (GPa) = 122.67155 124.27017 27.11178
#
# Poissons Ratio (x) = 0.19466 -0.05053
# Poissons Ratio (y) = 0.19216 0.06724
# Poissons Ratio (z) = -0.22861 0.30821
#
# Static dielectric constant tensor:
#      x y z
#    x 2.033150 -0.042260 -0.113230 
#    y -0.042260 2.063070 -0.001380 
#    z -0.113230 -0.001380 2.078330 
# 
# From -- ./inp_files/589548.got.cif
#   From: 2010.05.17/outbox.cif.g08.bks.cpg/sg2_295_cif.got.tgz:589548.got - 2010.06.03 11:33:40.
