data_PCOD9026245
_publ_section_title
;
Structure prediction by ZEFSAII (Michael W. Deem and Ramdas Pophale) SiO2 
 PCOD9026245
Probable space group: P -1
;
_chemical_formula_sum "Si O2"
_cell_formula_units_Z 14
_cell_length_a 10.590145
_cell_length_b 14.451753
_cell_length_c 9.369424
_cell_angle_alpha 37.929508
_cell_angle_beta 131.825482
_cell_angle_gamma 119.049244
_cell_volume 654.265917
_symmetry_space_group_name_H-M "P -1"
_symmetry_group_IT_number 2
_symmetry_cell_setting 'triclinic'
loop_
_space_group_symop_operation_xyz
x,y,z
-x,-y,-z
loop_
_atom_site_type_symbol
_atom_site_label
_atom_site_fract_x
_atom_site_fract_y
_atom_site_fract_z
Si Si1 0.104080 0.127178 0.846240
Si Si2 0.665499 0.384690 0.271124
Si Si3 0.640295 0.108841 0.807610
Si Si4 0.271699 0.096584 0.479470
Si Si5 0.131855 0.342001 0.869943
Si Si6 0.904608 0.232373 0.062684
Si Si7 0.192515 0.774796 0.703526
O O1 0.116831 0.259004 0.809610
O O2 0.989698 0.186197 0.555687
O O3 0.279594 0.042203 0.027351
O O4 0.000000 0.000000 0.000000
O O5 0.657962 0.247355 0.542319
O O6 0.699463 0.319167 0.218464
O O7 0.811798 0.491503 0.294486
O O8 0.500000 0.500000 0.000000
O O9 0.440064 0.103936 0.690892
O O10 0.762092 0.138553 0.996467
O O11 0.083142 0.135664 0.354817
O O12 0.267879 0.933783 0.601356
O O13 0.271006 0.227372 0.199074
O O14 0.970233 0.335983 0.860910
O O15 0.830293 0.303477 0.065919
#
# Coordination Sequence:
#
# PCOD9026245 Si02
#       7
#     2   2   2   2   2   2   2
#     4  12  20  41  67 101 121 171 217 272 323 376
#     4  12  25  42  64 100 129 174 217 271 316 387
#     4  12  23  41  72  92 136 165 220 269 324 377
#     4  10  22  41  68  96 127 169 212 274 314 384
#     4  10  22  41  63  90 133 165 217 256 324 372
#     4  10  23  45  64  97 131 172 211 270 319 390
#     4  12  24  42  69  92 137 167 216 268 324 381
#
# _framework density 21.398028
#
# number of rings (size 3 to 8) (size 9 to 14) (size 15 to 20)
#    0.857    0.000    7.143    0.429    2.000    4.571 
#    0.000    0.714    0.000    0.000    0.000    0.000 
#    0.000    0.000    0.000    0.000    0.000    0.000 
#
# Total GULP energy -78183.850010 kJ/mol
# GULP energy per Si atom -5584.560715 kJ/mol
# Density = 2.134933 g / cm^3
# Si number density = 21.398028 Si / 1000 Ang^3
#
#
#
# Elastic Constant Matrix: (Units=GPa)
#
#
# Indices 1 2 3 4 5 6 
#
# 1 78.2283 32.1543 40.3681 9.1375 1.3483 -7.8832
# 2 32.1543 74.9962 16.9802 0.7987 -6.7258 -16.8662
# 3 40.3681 16.9802 105.9196 8.5357 11.6118 -14.7176
# 4 9.1375 0.7987 8.5357 39.2055 -1.0197 1.4429
# 5 1.3483 -6.7258 11.6118 -1.0197 36.1984 5.4683
# 6 -7.8832 -16.8662 -14.7176 1.4429 5.4683 37.2709
#
#
#
# Elastic Compliance Matrix: (Units=1/GPa)
#
#
# Indices 1 2 3 4 5 6 
#
# 1 0.019025 -0.007072 -0.006097 -0.002906 0.000075 -0.001482
# 2 -0.007072 0.017934 0.000336 0.001043 0.002560 0.006336
# 3 -0.006097 0.000336 0.013020 -0.001716 -0.004653 0.004753
# 4 -0.002906 0.001043 -0.001716 0.026665 0.001926 -0.002135
# 5 0.000075 0.002560 -0.004653 0.001926 0.030431 -0.005202
# 6 -0.001482 0.006336 0.004753 -0.002135 -0.005202 0.032107
#
#
# Mechanical properties :
#
#
# Convention : Reuss Voigt Hill
#
# Bulk Modulus (GPa) = 41.13176 48.68325 44.90751
# Shear Modulus (GPa) = 28.90972 33.84441 31.37707
#
# Velocity S-wave (km/s) = 3.67965 3.98132 3.83345
# Velocity P-wave (km/s) = 6.10876 6.62837 6.37386
#
# Compressibility (1/GPa) = 0.02431211
#
# Stress axis : x y z
#
# Youngs Moduli (GPa) = 52.56237 55.76144 76.80578
#
# Poissons Ratio (x) = 0.39435 0.46829
# Poissons Ratio (y) = 0.37173 -0.02581
# Poissons Ratio (z) = 0.32048 -0.01874
#
# Static dielectric constant tensor:
#      x y z
#    x 1.801560 0.035650 0.019970 
#    y 0.035650 1.728970 0.008140 
#    z 0.019970 0.008140 1.825550 
# 
# From -- ./inp_files/269894.got.cif
#   From: 2010.05.17/outbox.cif.g08.bks.cpg/sg2_135_cif.got.tgz:269894.got - 2010.06.03 11:33:40.
