data_PCOD9026559
_publ_section_title
;
Structure prediction by ZEFSAII (Michael W. Deem and Ramdas Pophale) SiO2 
 PCOD9026559
Probable space group: P -1
;
_chemical_formula_sum "Si O2"
_cell_formula_units_Z 14
_cell_length_a 14.726028
_cell_length_b 5.208298
_cell_length_c 11.471911
_cell_angle_alpha 61.315546
_cell_angle_beta 124.718782
_cell_angle_gamma 115.354242
_cell_volume 619.658429
_symmetry_space_group_name_H-M "P -1"
_symmetry_group_IT_number 2
_symmetry_cell_setting 'triclinic'
loop_
_space_group_symop_operation_xyz
x,y,z
-x,-y,-z
loop_
_atom_site_type_symbol
_atom_site_label
_atom_site_fract_x
_atom_site_fract_y
_atom_site_fract_z
Si Si1 0.558679 0.078072 0.239180
Si Si2 0.336209 0.245984 0.805260
Si Si3 0.578566 0.804441 0.537700
Si Si4 0.205831 0.383042 0.890833
Si Si5 0.910164 0.217126 0.041451
Si Si6 0.103435 0.908532 0.661442
Si Si7 0.319673 0.625955 0.152798
O O1 0.578655 0.431148 0.199273
O O2 0.601721 0.978584 0.169030
O O3 0.628143 0.972006 0.420073
O O4 0.431469 0.883721 0.197643
O O5 0.287090 0.227928 0.904618
O O6 0.213341 0.179890 0.667218
O O7 0.500000 0.500000 0.500000
O O8 0.660322 0.684782 0.711483
O O9 0.500000 0.000000 0.500000
O O10 0.148429 0.609471 0.723998
O O11 0.107429 0.131675 0.932750
O O12 0.285287 0.565258 0.006823
O O13 0.921835 0.171310 0.201355
O O14 0.791789 0.290234 0.896381
O O15 0.000000 0.500000 0.000000
O O16 0.000000 0.000000 0.500000
#
# Coordination Sequence:
#
# PCOD9026559 Si02
#       7
#     2   2   2   2   2   2   2
#     4  11  23  41  68 103 144 185 230 282 353 428
#     4  11  23  43  67 106 141 176 238 283 349 432
#     4  10  22  41  64  96 139 187 234 282 339 415
#     4  10  23  46  69 102 140 183 240 293 364 424
#     4  10  24  45  69 104 138 184 247 296 358 433
#     4  10  23  47  71 100 143 187 237 308 357 419
#     4  10  24  41  69  99 142 190 228 296 356 423
#
# _framework density 22.593091999999999
#
# number of rings (size 3 to 8) (size 9 to 14) (size 15 to 20)
#    0.000    1.714    1.429    1.714    6.000    6.857 
#    5.143    0.000    0.000    0.000    0.000    0.000 
#    0.000    0.000    0.000    0.000    0.000    0.000 
#
# Total GULP energy -77975.003697 kJ/mol
# GULP energy per Si atom -5569.643121 kJ/mol
# Density = 2.254167 g / cm^3
# Si number density = 22.593092 Si / 1000 Ang^3
#
#
#
# Elastic Constant Matrix: (Units=GPa)
#
#
# Indices 1 2 3 4 5 6 
#
# 1 53.4941 50.4151 36.7033 1.3976 6.3782 6.8617
# 2 50.4151 157.6778 41.0317 -6.5982 6.2270 11.4660
# 3 36.7033 41.0317 143.0218 -17.4733 30.5150 3.3652
# 4 1.3976 -6.5982 -17.4733 31.8523 2.2002 3.4740
# 5 6.3782 6.2270 30.5150 2.2002 34.5492 1.9201
# 6 6.8617 11.4660 3.3652 3.4740 1.9201 55.0779
#
#
#
# Elastic Compliance Matrix: (Units=1/GPa)
#
#
# Indices 1 2 3 4 5 6 
#
# 1 0.031668 -0.008593 -0.007003 -0.007028 0.002411 -0.001369
# 2 -0.008593 0.009299 -0.000141 0.002340 -0.000059 -0.001002
# 3 -0.007003 -0.000141 0.011768 0.007388 -0.009549 0.000050
# 4 -0.007028 0.002340 0.007388 0.037017 -0.007889 -0.002123
# 5 0.002411 -0.000059 -0.009549 -0.007889 0.037475 -0.000514
# 6 -0.001369 -0.001002 0.000050 -0.002123 -0.000514 0.018684
#
#
# Mechanical properties :
#
#
# Convention : Reuss Voigt Hill
#
# Bulk Modulus (GPa) = 47.02938 67.83265 57.43102
# Shear Modulus (GPa) = 27.10429 39.36546 33.23487
#
# Velocity S-wave (km/s) = 3.46738 4.17870 3.83955
# Velocity P-wave (km/s) = 6.07383 7.30553 6.71797
#
# Compressibility (1/GPa) = 0.02126330
#
# Stress axis : x y z
#
# Youngs Moduli (GPa) = 31.57713 107.53544 84.97443
#
# Poissons Ratio (x) = 0.92405 0.59504
# Poissons Ratio (y) = 0.27134 0.01196
# Poissons Ratio (z) = 0.22112 0.01513
#
# Static dielectric constant tensor:
#      x y z
#    x 1.895580 -0.023560 -0.037940 
#    y -0.023560 1.957770 -0.063950 
#    z -0.037940 -0.063950 1.913100 
# 
# From -- ./inp_files/440955.got.cif
#   From: 2010.05.17/outbox.cif.g08.bks.cpg/sg2_221_cif.got.tgz:440955.got - 2010.06.03 11:33:40.
