data_PCOD9026554
_publ_section_title
;
Structure prediction by ZEFSAII (Michael W. Deem and Ramdas Pophale) SiO2 
 PCOD9026554
Probable space group: P -1
;
_chemical_formula_sum "Si O2"
_cell_formula_units_Z 13
_cell_length_a 7.676432
_cell_length_b 17.430825
_cell_length_c 13.825803
_cell_angle_alpha 24.614431
_cell_angle_beta 52.722189
_cell_angle_gamma 67.607593
_cell_volume 526.653961
_symmetry_space_group_name_H-M "P -1"
_symmetry_group_IT_number 2
_symmetry_cell_setting 'triclinic'
loop_
_space_group_symop_operation_xyz
x,y,z
-x,-y,-z
loop_
_atom_site_type_symbol
_atom_site_label
_atom_site_fract_x
_atom_site_fract_y
_atom_site_fract_z
Si Si1 0.888025 0.625881 0.161961
Si Si2 0.383051 0.594425 0.302875
Si Si3 0.640576 0.648651 0.872596
Si Si4 0.702023 0.070432 0.173881
Si Si5 0.626820 0.734137 0.449858
Si Si6 0.500000 0.000000 0.500000
Si Si7 0.899120 0.359428 0.292267
O O1 0.681153 0.676302 0.127879
O O2 0.748523 0.458185 0.487994
O O3 0.967635 0.514415 0.183179
O O4 0.136069 0.824564 0.900173
O O5 0.270603 0.357090 0.563330
O O6 0.320620 0.751341 0.083904
O O7 0.563824 0.820945 0.717645
O O8 0.941418 0.758271 0.626678
O O9 0.500000 0.500000 0.000000
O O10 0.533259 0.484916 0.185277
O O11 0.790637 0.933709 0.236812
O O12 0.449614 0.906234 0.505164
O O13 0.406824 0.782403 0.435103
O O14 0.000000 0.500000 0.000000
#
# Coordination Sequence:
#
# PCOD9026554 Si02
#       7
#     2   2   2   2   2   1   2
#     4  10  23  44  71  97 135 187 222 275 347 393
#     4  10  23  47  67  95 142 176 230 281 322 414
#     4  11  20  39  60  92 135 170 217 275 325 401
#     4  12  24  40  66 104 134 177 228 276 341 405
#     4  10  22  41  64  96 134 174 221 281 333 390
#     4  12  24  36  66  98 134 174 218 266 344 392
#     4   9  21  40  66  95 133 176 221 279 338 395
#
# _framework density 24.684139999999999
#
# number of rings (size 3 to 8) (size 9 to 14) (size 15 to 20)
#    0.000    1.538    3.077    1.385    2.154    1.846 
#    0.000   10.000    0.000    0.000    0.000    0.000 
#    0.000    0.000    0.000    0.000    0.000    0.000 
#
# Total GULP energy -72437.679688 kJ/mol
# GULP energy per Si atom -5572.129207 kJ/mol
# Density = 2.462796 g / cm^3
# Si number density = 24.684140 Si / 1000 Ang^3
#
#
#
# Elastic Constant Matrix: (Units=GPa)
#
#
# Indices 1 2 3 4 5 6 
#
# 1 82.0817 35.1324 38.0104 -15.2332 9.5390 0.3615
# 2 35.1324 166.0128 38.8999 -19.6204 10.5955 17.6360
# 3 38.0104 38.8999 77.4507 -16.1990 7.5026 -5.1238
# 4 -15.2332 -19.6204 -16.1990 37.0246 2.9484 7.9437
# 5 9.5390 10.5955 7.5026 2.9484 32.0456 -3.0860
# 6 0.3615 17.6360 -5.1238 7.9437 -3.0860 47.7015
#
#
#
# Elastic Compliance Matrix: (Units=1/GPa)
#
#
# Indices 1 2 3 4 5 6 
#
# 1 0.016917 -0.001193 -0.006604 0.004002 -0.003588 -0.001295
# 2 -0.001193 0.007888 -0.002668 0.003553 -0.002334 -0.003937
# 3 -0.006604 -0.002668 0.018559 0.003618 -0.001606 0.002323
# 4 0.004002 0.003553 0.003618 0.034207 -0.007045 -0.007108
# 5 -0.003588 -0.002334 -0.001606 -0.007045 0.034467 0.004121
# 6 -0.001295 -0.003937 0.002323 -0.007108 0.004121 0.024129
#
#
# Mechanical properties :
#
#
# Convention : Reuss Voigt Hill
#
# Bulk Modulus (GPa) = 44.57484 61.07006 52.82245
# Shear Modulus (GPa) = 30.38129 37.58783 33.98456
#
# Velocity S-wave (km/s) = 3.51208 3.90648 3.71452
# Velocity P-wave (km/s) = 5.87738 6.71876 6.31211
#
# Compressibility (1/GPa) = 0.02243418
#
# Stress axis : x y z
#
# Youngs Moduli (GPa) = 59.11068 126.77084 53.88353
#
# Poissons Ratio (x) = 0.15124 0.35587
# Poissons Ratio (y) = 0.07052 0.14374
# Poissons Ratio (z) = 0.39039 0.33818
#
# Static dielectric constant tensor:
#      x y z
#    x 1.927010 0.211680 0.173060 
#    y 0.211680 1.848840 -0.239820 
#    z 0.173060 -0.239820 1.543910 
# 
# From -- ./inp_files/506880.got.cif
#   From: 2010.05.17/outbox.cif.g08.bks.cpg/sg2_254_cif.got.tgz:506880.got - 2010.06.03 11:33:40.
