data_PCOD9026151
_publ_section_title
;
Structure prediction by ZEFSAII (Michael W. Deem and Ramdas Pophale) SiO2 
 PCOD9026151
Probable space group: P -1
;
_chemical_formula_sum "Si O2"
_cell_formula_units_Z 16
_cell_length_a 6.604783
_cell_length_b 12.166146
_cell_length_c 23.114356
_cell_angle_alpha 28.930384
_cell_angle_beta 61.193320
_cell_angle_gamma 53.293934
_cell_volume 716.238238
_symmetry_space_group_name_H-M "P -1"
_symmetry_group_IT_number 2
_symmetry_cell_setting 'triclinic'
loop_
_space_group_symop_operation_xyz
x,y,z
-x,-y,-z
loop_
_atom_site_type_symbol
_atom_site_label
_atom_site_fract_x
_atom_site_fract_y
_atom_site_fract_z
Si Si1 0.816424 0.225487 0.645213
Si Si2 0.483363 0.692499 0.084546
Si Si3 0.281314 0.503982 0.615403
Si Si4 0.412843 0.245183 0.839903
Si Si5 0.821245 0.618387 0.557161
Si Si6 0.149881 0.486940 0.160532
Si Si7 0.983044 0.650650 0.874912
Si Si8 0.736500 0.025321 0.554478
O O1 0.515539 0.326457 0.626077
O O2 0.822247 0.384661 0.628058
O O3 0.011114 0.272470 0.554016
O O4 0.904731 0.933442 0.773332
O O5 0.417882 0.705376 0.156281
O O6 0.287298 0.655457 0.085886
O O7 0.741637 0.455449 0.144038
O O8 0.506903 0.952454 0.949142
O O9 0.354961 0.402371 0.717183
O O10 0.283250 0.775881 0.484708
O O11 0.002599 0.524169 0.630955
O O12 0.144016 0.342727 0.864695
O O13 0.534129 0.828502 0.508457
O O14 0.185811 0.398141 0.129746
O O15 0.234006 0.236976 0.303243
O O16 0.000000 0.500000 0.000000
O O17 0.000000 0.000000 0.500000
#
# Coordination Sequence:
#
# PCOD9026151 Si02
#       8
#     2   2   2   2   2   2   2   2
#     4  10  22  41  62  94 135 170 221 268 324 390
#     4  10  23  42  66  90 131 172 214 269 329 390
#     4  11  22  40  65  96 131 174 218 273 325 393
#     4  10  22  42  62  94 129 169 215 273 324 387
#     4  10  23  40  66  95 128 180 218 267 334 390
#     4  11  23  41  65  92 128 174 213 267 333 390
#     4  11  24  41  64  96 128 168 216 273 322 384
#     4  11  23  42  62  97 136 169 219 273 326 390
#
# _framework density 22.338937999999999
#
# number of rings (size 3 to 8) (size 9 to 14) (size 15 to 20)
#    0.000    1.500    1.250    3.000    0.000    8.000 
#    0.000    0.000    0.000    0.000    0.000    0.000 
#    0.000    0.000    0.000    0.000    0.000    0.000 
#
# Total GULP energy -89288.048647 kJ/mol
# GULP energy per Si atom -5580.503040 kJ/mol
# Density = 2.228809 g / cm^3
# Si number density = 22.338938 Si / 1000 Ang^3
#
#
#
# Elastic Constant Matrix: (Units=GPa)
#
#
# Indices 1 2 3 4 5 6 
#
# 1 121.8944 33.7983 34.5599 6.7016 1.4853 -0.0537
# 2 33.7983 84.7044 50.8608 -9.1805 2.4464 -3.5758
# 3 34.5599 50.8608 95.0603 -24.1636 2.6880 18.4926
# 4 6.7016 -9.1805 -24.1636 45.4343 4.3836 12.5728
# 5 1.4853 2.4464 2.6880 4.3836 23.5339 -4.7764
# 6 -0.0537 -3.5758 18.4926 12.5728 -4.7764 41.9210
#
#
#
# Elastic Compliance Matrix: (Units=1/GPa)
#
#
# Indices 1 2 3 4 5 6 
#
# 1 0.010496 -0.001368 -0.005617 -0.006272 0.002204 0.004507
# 2 -0.001368 0.020497 -0.014112 -0.006244 0.002793 0.010163
# 3 -0.005617 -0.014112 0.029951 0.020902 -0.009922 -0.021823
# 4 -0.006272 -0.006244 0.020902 0.040612 -0.013677 -0.023500
# 5 0.002204 0.002793 -0.009922 -0.013677 0.048638 0.014262
# 6 0.004507 0.010163 -0.021823 -0.023500 0.014262 0.043027
#
#
# Mechanical properties :
#
#
# Convention : Reuss Voigt Hill
#
# Bulk Modulus (GPa) = 53.33616 60.01080 56.67348
# Shear Modulus (GPa) = 20.68973 34.34052 27.51512
#
# Velocity S-wave (km/s) = 3.04661 3.92503 3.51338
# Velocity P-wave (km/s) = 6.02524 6.88936 6.47174
#
# Compressibility (1/GPa) = 0.01874901
#
# Stress axis : x y z
#
# Youngs Moduli (GPa) = 95.27716 48.78709 33.38747
#
# Poissons Ratio (x) = 0.06676 0.18753
# Poissons Ratio (y) = 0.13039 0.47118
# Poissons Ratio (z) = 0.53515 0.68850
#
# Static dielectric constant tensor:
#      x y z
#    x 1.931970 0.021110 0.045650 
#    y 0.021110 1.867160 0.038660 
#    z 0.045650 0.038660 1.820060 
# 
# From -- ./inp_files/604389.got.cif
#   From: 2010.05.17/outbox.cif.g08.bks.cpg/sg2_303_cif.got.tgz:604389.got - 2010.06.03 11:33:40.
