data_PCOD9026001
_publ_section_title
;
Structure prediction by ZEFSAII (Michael W. Deem and Ramdas Pophale) SiO2 
 PCOD9026001
Probable space group: P -1
;
_chemical_formula_sum "Si O2"
_cell_formula_units_Z 12
_cell_length_a 11.985579
_cell_length_b 15.192063
_cell_length_c 13.783282
_cell_angle_alpha 142.520273
_cell_angle_beta 30.806609
_cell_angle_gamma 153.769768
_cell_volume 565.125250
_symmetry_space_group_name_H-M "P -1"
_symmetry_group_IT_number 2
_symmetry_cell_setting 'triclinic'
loop_
_space_group_symop_operation_xyz
x,y,z
-x,-y,-z
loop_
_atom_site_type_symbol
_atom_site_label
_atom_site_fract_x
_atom_site_fract_y
_atom_site_fract_z
Si Si1 0.225219 0.037933 0.942097
Si Si2 0.620675 0.756941 0.807188
Si Si3 0.940846 0.184977 0.935386
Si Si4 0.718639 0.818175 0.484670
Si Si5 0.212614 0.864731 0.382104
Si Si6 0.187514 0.541860 0.778742
O O1 0.519136 0.094206 0.726769
O O2 0.367004 0.226050 0.071533
O O3 0.045928 0.853838 0.993975
O O4 0.000000 0.000000 0.000000
O O5 0.318613 0.580476 0.821934
O O6 0.919014 0.801285 0.595749
O O7 0.677681 0.949513 0.896460
O O8 0.202024 0.245557 0.722005
O O9 0.887478 0.327377 0.078843
O O10 0.471348 0.636698 0.579783
O O11 0.614930 0.923428 0.611124
O O12 0.000000 0.000000 0.500000
O O13 0.074676 0.690034 0.254377
#
# Coordination Sequence:
#
# PCOD9026001 Si02
#       6
#     2   2   2   2   2   2
#     4  10  22  41  61  80 116 161 205 239 275 339
#     4   9  21  36  59  91 117 152 192 227 303 350
#     4   9  21  36  59  86 114 162 190 229 299 342
#     4  11  20  37  58  85 128 153 183 236 296 358
#     4  11  23  36  60  92 117 155 191 236 300 345
#     4  12  21  36  62  94 125 142 186 245 299 359
#
# _framework density 21.234231000000001
#
# number of rings (size 3 to 8) (size 9 to 14) (size 15 to 20)
#    1.000    0.667    5.000    1.000    2.333    2.667 
#    0.000    0.833    0.000    2.000    0.000    0.000 
#    0.000    0.000    0.000    0.000    0.000    0.000 
#
# Total GULP energy -66874.499715 kJ/mol
# GULP energy per Si atom -5572.874976 kJ/mol
# Density = 2.118590 g / cm^3
# Si number density = 21.234231 Si / 1000 Ang^3
#
#
#
# Elastic Constant Matrix: (Units=GPa)
#
#
# Indices 1 2 3 4 5 6 
#
# 1 125.4305 26.1185 59.6603 -3.4239 -25.1648 2.7501
# 2 26.1185 68.4883 38.0450 4.1178 -8.0751 -9.3752
# 3 59.6603 38.0450 125.0279 7.3670 -15.3316 -5.1528
# 4 -3.4239 4.1178 7.3670 37.0051 -5.7227 -0.5648
# 5 -25.1648 -8.0751 -15.3316 -5.7227 31.6190 -5.8120
# 6 2.7501 -9.3752 -5.1528 -0.5648 -5.8120 23.4403
#
#
#
# Elastic Compliance Matrix: (Units=1/GPa)
#
#
# Indices 1 2 3 4 5 6 
#
# 1 0.012096 -0.001517 -0.004649 0.003338 0.007381 -0.001137
# 2 -0.001517 0.019002 -0.004363 -0.000846 0.002752 0.007481
# 3 -0.004649 -0.004363 0.011836 -0.002150 0.000821 0.001554
# 4 0.003338 -0.000846 -0.002150 0.028932 0.006853 0.001194
# 5 0.007381 0.002752 0.000821 0.006853 0.041856 0.010959
# 6 -0.001137 0.007481 0.001554 0.001194 0.010959 0.048875
#
#
# Mechanical properties :
#
#
# Convention : Reuss Voigt Hill
#
# Bulk Modulus (GPa) = 45.70944 62.95489 54.33217
# Shear Modulus (GPa) = 26.18514 31.42107 28.80311
#
# Velocity S-wave (km/s) = 3.51544 3.85091 3.68699
# Velocity P-wave (km/s) = 6.16853 7.03455 6.61573
#
# Compressibility (1/GPa) = 0.02187732
#
# Stress axis : x y z
#
# Youngs Moduli (GPa) = 82.66855 52.62472 84.49021
#
# Poissons Ratio (x) = 0.07981 0.39281
# Poissons Ratio (y) = 0.12538 0.36862
# Poissons Ratio (z) = 0.38434 0.22960
#
# Static dielectric constant tensor:
#      x y z
#    x 1.740510 -0.026070 0.028790 
#    y -0.026070 1.820050 -0.013390 
#    z 0.028790 -0.013390 1.910480 
# 
# From -- ./inp_files/491958.got.cif
#   From: 2010.05.17/outbox.cif.g08.bks.cpg/sg2_246_cif.got.tgz:491958.got - 2010.06.03 11:33:40.
