data_PCOD9026287
_publ_section_title
;
Structure prediction by ZEFSAII (Michael W. Deem and Ramdas Pophale) SiO2 
 PCOD9026287
Probable space group: P -1
;
_chemical_formula_sum "Si O2"
_cell_formula_units_Z 16
_cell_length_a 6.848639
_cell_length_b 11.107657
_cell_length_c 17.415613
_cell_angle_alpha 131.012226
_cell_angle_beta 118.877617
_cell_angle_gamma 43.972916
_cell_volume 693.957899
_symmetry_space_group_name_H-M "P -1"
_symmetry_group_IT_number 2
_symmetry_cell_setting 'triclinic'
loop_
_space_group_symop_operation_xyz
x,y,z
-x,-y,-z
loop_
_atom_site_type_symbol
_atom_site_label
_atom_site_fract_x
_atom_site_fract_y
_atom_site_fract_z
Si Si1 0.912102 0.097488 0.724242
Si Si2 0.765649 0.502611 0.822453
Si Si3 0.017324 0.671556 0.849518
Si Si4 0.264830 0.561242 0.682383
Si Si5 0.504706 0.639397 0.996384
Si Si6 0.666931 0.932724 0.661904
Si Si7 0.553511 0.982546 0.180835
Si Si8 0.718442 0.087755 0.531030
O O1 0.881588 0.272892 0.744139
O O2 0.859944 0.993593 0.602170
O O3 0.182782 0.024203 0.793296
O O4 0.688582 0.117043 0.747259
O O5 0.972741 0.543008 0.844513
O O6 0.476536 0.615178 0.765561
O O7 0.702452 0.539175 0.916506
O O8 0.146686 0.564933 0.746420
O O9 0.198535 0.739000 0.943726
O O10 0.705575 0.868518 0.859708
O O11 0.471333 0.332404 0.593423
O O12 0.994824 0.726598 0.647544
O O13 0.500000 0.500000 0.000000
O O14 0.579163 0.781282 0.099950
O O15 0.455710 0.971783 0.571123
O O16 0.525225 0.931254 0.712022
O O17 0.000000 0.000000 0.500000
#
# Coordination Sequence:
#
# PCOD9026287 Si02
#       8
#     2   2   2   2   2   2   2   2
#     4  11  23  39  63  91 125 169 210 263 326 378
#     4  10  22  41  63  93 131 169 216 265 315 388
#     4  10  22  42  64  91 128 171 215 264 324 376
#     4   9  22  42  66  94 127 170 215 262 323 386
#     4  11  23  39  62  96 130 170 215 263 324 383
#     4  11  22  42  65  92 131 169 215 265 324 383
#     4  11  23  39  63  92 128 168 217 269 314 386
#     4  11  22  43  65  95 132 166 214 270 324 386
#
# _framework density 23.056153999999999
#
# number of rings (size 3 to 8) (size 9 to 14) (size 15 to 20)
#    0.000    1.500    1.250    3.375    0.000    5.500 
#    4.500    0.625    0.000    0.000    0.000    0.000 
#    0.000    0.000    0.000    0.000    0.000    0.000 
#
# Total GULP energy -89072.622270 kJ/mol
# GULP energy per Si atom -5567.038892 kJ/mol
# Density = 2.300368 g / cm^3
# Si number density = 23.056154 Si / 1000 Ang^3
#
#
#
# Elastic Constant Matrix: (Units=GPa)
#
#
# Indices 1 2 3 4 5 6 
#
# 1 133.7307 35.2716 43.9958 0.1912 30.8541 -7.3043
# 2 35.2716 111.9443 31.0765 -16.1424 15.0229 -10.2075
# 3 43.9958 31.0765 86.2340 -16.5672 24.8465 -19.3651
# 4 0.1912 -16.1424 -16.5672 28.1209 -3.6907 8.6478
# 5 30.8541 15.0229 24.8465 -3.6907 32.3884 -8.0355
# 6 -7.3043 -10.2075 -19.3651 8.6478 -8.0355 38.1322
#
#
#
# Elastic Compliance Matrix: (Units=1/GPa)
#
#
# Indices 1 2 3 4 5 6 
#
# 1 0.010880 -0.002108 -0.003711 -0.004127 -0.007248 -0.000956
# 2 -0.002108 0.010945 -0.001418 0.005181 -0.001302 0.000356
# 3 -0.003711 -0.001418 0.019006 0.007769 -0.008246 0.005062
# 4 -0.004127 0.005181 0.007769 0.044819 -0.000759 -0.005782
# 5 -0.007248 -0.001302 -0.008246 -0.000759 0.045579 0.003852
# 6 -0.000956 0.000356 0.005062 -0.005782 0.003852 0.030831
#
#
# Mechanical properties :
#
#
# Convention : Reuss Voigt Hill
#
# Bulk Modulus (GPa) = 37.93931 61.39964 49.66947
# Shear Modulus (GPa) = 26.98036 34.49931 30.73984
#
# Velocity S-wave (km/s) = 3.42453 3.87242 3.65534
# Velocity P-wave (km/s) = 5.66811 6.83246 6.27734
#
# Compressibility (1/GPa) = 0.02635789
#
# Stress axis : x y z
#
# Youngs Moduli (GPa) = 91.90867 91.36393 52.61485
#
# Poissons Ratio (x) = 0.19257 0.19524
# Poissons Ratio (y) = 0.19372 0.07463
# Poissons Ratio (z) = 0.34104 0.12960
#
# Static dielectric constant tensor:
#      x y z
#    x 1.918080 0.020860 -0.047000 
#    y 0.020860 2.014850 -0.026080 
#    z -0.047000 -0.026080 1.955670 
# 
# From -- ./inp_files/49040.got.cif
#   From: 2010.05.17/outbox.cif.g08.bks.cpg/sg2_25_cif.got.tgz:49040.got - 2010.06.03 11:33:40.
