data_PCOD9026850
_publ_section_title
;
Structure prediction by ZEFSAII (Michael W. Deem and Ramdas Pophale) SiO2 
 PCOD9026850
Probable space group: P -1
;
_chemical_formula_sum "Si O2"
_cell_formula_units_Z 12
_cell_length_a 10.693838
_cell_length_b 8.439555
_cell_length_c 5.486413
_cell_angle_alpha 112.969110
_cell_angle_beta 97.846606
_cell_angle_gamma 95.873753
_cell_volume 445.007334
_symmetry_space_group_name_H-M "P -1"
_symmetry_group_IT_number 2
_symmetry_cell_setting 'triclinic'
loop_
_space_group_symop_operation_xyz
x,y,z
-x,-y,-z
loop_
_atom_site_type_symbol
_atom_site_label
_atom_site_fract_x
_atom_site_fract_y
_atom_site_fract_z
Si Si1 0.594368 0.660272 0.498626
Si Si2 0.628989 0.033607 0.821589
Si Si3 0.218547 0.984823 0.644151
Si Si4 0.169561 0.314402 0.071516
Si Si5 0.683882 0.406043 0.026521
Si Si6 0.072960 0.686697 0.704922
O O1 0.500000 0.500000 0.500000
O O2 0.732323 0.705244 0.695706
O O3 0.620970 0.567136 0.198687
O O4 0.544806 0.844198 0.628554
O O5 0.731240 0.043919 0.629594
O O6 0.680443 0.020701 0.105152
O O7 0.586204 0.222408 0.888375
O O8 0.101005 0.836196 0.601010
O O9 0.183891 0.175852 0.782133
O O10 0.023190 0.267016 0.087399
O O11 0.226358 0.512714 0.124348
O O12 0.790139 0.352857 0.201233
O O13 0.000000 0.500000 0.500000
#
# Coordination Sequence:
#
# PCOD9026850 Si02
#       6
#     2   2   2   2   2   2
#     4  11  25  46  67  95 132 179 227 278 329 389
#     4  10  23  44  67  98 135 173 224 276 330 396
#     4  10  22  41  65  99 137 176 218 270 334 403
#     4  11  22  42  66  97 136 176 220 273 333 399
#     4  11  23  42  69  96 135 173 220 276 335 399
#     4  11  21  38  66 100 135 173 216 270 337 403
#
# _framework density 26.965847
#
# number of rings (size 3 to 8) (size 9 to 14) (size 15 to 20)
#    0.000    1.333    3.333    2.000    2.333    2.667 
#    0.000    6.667    0.000    0.000    0.000    0.000 
#    0.000    0.000    0.000    0.000    0.000    0.000 
#
# Total GULP energy -67028.646705 kJ/mol
# GULP energy per Si atom -5585.720559 kJ/mol
# Density = 2.690447 g / cm^3
# Si number density = 26.965847 Si / 1000 Ang^3
#
#
#
# Elastic Constant Matrix: (Units=GPa)
#
#
# Indices 1 2 3 4 5 6 
#
# 1 79.6766 28.2702 40.0271 8.1245 -4.5327 7.4206
# 2 28.2702 224.3574 38.5199 29.4485 -22.3248 35.4911
# 3 40.0271 38.5199 91.8156 14.5644 -20.1476 7.2837
# 4 8.1245 29.4485 14.5644 52.4269 2.0706 -14.6129
# 5 -4.5327 -22.3248 -20.1476 2.0706 61.8913 -4.3738
# 6 7.4206 35.4911 7.2837 -14.6129 -4.3738 32.7906
#
#
#
# Elastic Compliance Matrix: (Units=1/GPa)
#
#
# Indices 1 2 3 4 5 6 
#
# 1 0.016439 -0.000575 -0.006928 -0.000835 -0.001380 -0.002115
# 2 -0.000575 0.007402 -0.000477 -0.006974 0.001955 -0.010623
# 3 -0.006928 -0.000477 0.015933 -0.003997 0.004454 -0.002643
# 4 -0.000835 -0.006974 -0.003997 0.030422 -0.003360 0.021735
# 5 -0.001380 0.001955 0.004454 -0.003360 0.018192 -0.001864
# 6 -0.002115 -0.010623 -0.002643 0.021735 -0.001864 0.052497
#
#
# Mechanical properties :
#
#
# Convention : Reuss Voigt Hill
#
# Bulk Modulus (GPa) = 41.99187 67.72044 54.85616
# Shear Modulus (GPa) = 30.34312 48.69059 39.51685
#
# Velocity S-wave (km/s) = 3.35810 4.25389 3.83226
# Velocity P-wave (km/s) = 5.53551 7.02107 6.32207
#
# Compressibility (1/GPa) = 0.02381413
#
# Stress axis : x y z
#
# Youngs Moduli (GPa) = 60.83198 135.10167 62.76388
#
# Poissons Ratio (x) = 0.07770 0.43482
# Poissons Ratio (y) = 0.03499 0.02991
# Poissons Ratio (z) = 0.42144 0.06438
#
# Static dielectric constant tensor:
#      x y z
#    x 2.358090 0.074100 -0.078290 
#    y 0.074100 2.164270 0.016330 
#    z -0.078290 0.016330 2.242160 
# 
# From -- ./inp_files/18769.got.cif
#   From: 2010.05.17/outbox.cif.g08.bks.cpg/sg2_10_cif.got.tgz:18769.got - 2010.06.03 11:33:40.
