data_PCOD9026584
_publ_section_title
;
Structure prediction by ZEFSAII (Michael W. Deem and Ramdas Pophale) SiO2 
 PCOD9026584
Probable space group: P -1
;
_chemical_formula_sum "Si O2"
_cell_formula_units_Z 16
_cell_length_a 12.157368
_cell_length_b 14.129955
_cell_length_c 6.537984
_cell_angle_alpha 115.720896
_cell_angle_beta 81.376394
_cell_angle_gamma 138.326248
_cell_volume 643.673512
_symmetry_space_group_name_H-M "P -1"
_symmetry_group_IT_number 2
_symmetry_cell_setting 'triclinic'
loop_
_space_group_symop_operation_xyz
x,y,z
-x,-y,-z
loop_
_atom_site_type_symbol
_atom_site_label
_atom_site_fract_x
_atom_site_fract_y
_atom_site_fract_z
Si Si1 0.302907 0.107836 0.386423
Si Si2 0.769830 0.434561 0.179199
Si Si3 0.038325 0.804634 0.369780
Si Si4 0.500171 0.577277 0.765584
Si Si5 0.326553 0.834215 0.778220
Si Si6 0.765285 0.014756 0.146172
Si Si7 0.237233 0.258284 0.811019
Si Si8 0.434565 0.786547 0.328729
O O1 0.225605 0.941412 0.338578
O O2 0.219853 0.145597 0.561527
O O3 0.496320 0.247219 0.554046
O O4 0.270082 0.081512 0.131796
O O5 0.942182 0.629446 0.296234
O O6 0.611499 0.400552 0.238383
O O7 0.755455 0.325290 0.233165
O O8 0.730991 0.365425 0.896979
O O9 0.931859 0.793196 0.218959
O O10 0.079240 0.896344 0.657060
O O11 0.500000 0.500000 0.500000
O O12 0.376528 0.433421 0.829790
O O13 0.683101 0.716486 0.968197
O O14 0.201912 0.843622 0.810227
O O15 0.383734 0.845707 0.542952
O O16 0.500000 0.000000 0.000000
O O17 0.587488 0.896056 0.217485
#
# Coordination Sequence:
#
# PCOD9026584 Si02
#       8
#     2   2   2   2   2   2   2   2
#     4  11  22  41  70  93 134 172 223 266 323 394
#     4  11  24  42  63 100 130 172 215 268 337 386
#     4  10  26  43  61  97 141 175 216 264 331 392
#     4  10  23  37  66  97 134 164 217 274 328 382
#     4  12  24  40  71 100 125 169 223 275 332 384
#     4  11  25  43  65 100 129 174 225 271 325 387
#     4  10  22  41  64  98 129 178 215 266 327 388
#     4  11  22  41  70  95 131 160 224 282 321 386
#
# _framework density 24.857322
#
# number of rings (size 3 to 8) (size 9 to 14) (size 15 to 20)
#    0.000    1.250    3.750    0.750    3.500    4.000 
#    0.000    1.250    0.000    0.000    0.000    0.000 
#    0.000    0.000    0.000    0.000    0.000    0.000 
#
# Total GULP energy -89293.354765 kJ/mol
# GULP energy per Si atom -5580.834673 kJ/mol
# Density = 2.480075 g / cm^3
# Si number density = 24.857322 Si / 1000 Ang^3
#
#
#
# Elastic Constant Matrix: (Units=GPa)
#
#
# Indices 1 2 3 4 5 6 
#
# 1 60.6996 3.3964 13.3564 -13.7520 4.5462 -26.5725
# 2 3.3964 113.9677 19.2015 -0.2632 19.7255 -27.6219
# 3 13.3564 19.2015 185.2446 -11.5910 1.7660 0.5958
# 4 -13.7520 -0.2632 -11.5910 33.9947 -3.0833 9.3609
# 5 4.5462 19.7255 1.7660 -3.0833 40.5800 -2.9917
# 6 -26.5725 -27.6219 0.5958 9.3609 -2.9917 32.9888
#
#
#
# Elastic Compliance Matrix: (Units=1/GPa)
#
#
# Indices 1 2 3 4 5 6 
#
# 1 0.030848 0.007669 -0.002894 0.002845 -0.004623 0.030095
# 2 0.007669 0.014654 -0.002278 -0.003358 -0.006750 0.018829
# 3 -0.002894 -0.002278 0.005993 0.002296 0.000983 -0.004909
# 4 0.002845 -0.003358 0.002296 0.034367 0.003085 -0.010033
# 5 -0.004623 -0.006750 0.000983 0.003085 0.028064 -0.007724
# 6 0.030095 0.018829 -0.004909 -0.010033 -0.007724 0.072555
#
#
# Mechanical properties :
#
#
# Convention : Reuss Voigt Hill
#
# Bulk Modulus (GPa) = 17.70279 47.98007 32.84143
# Shear Modulus (GPa) = 24.96052 43.10987 34.03520
#
# Velocity S-wave (km/s) = 3.17227 4.16900 3.70431
# Velocity P-wave (km/s) = 4.53376 6.52060 5.61574
#
# Compressibility (1/GPa) = 0.05648826
#
# Stress axis : x y z
#
# Youngs Moduli (GPa) = 32.41743 68.24200 166.85722
#
# Poissons Ratio (x) = -0.52334 0.48285
# Poissons Ratio (y) = -0.24860 0.38013
# Poissons Ratio (z) = 0.09381 0.15547
#
# Static dielectric constant tensor:
#      x y z
#    x 2.066900 -0.012600 0.008340 
#    y -0.012600 2.060340 0.034650 
#    z 0.008340 0.034650 2.013280 
# 
# From -- ./inp_files/98460.got.cif
#   From: 2010.05.17/outbox.cif.g08.bks.cpg/sg2_50_cif.got.tgz:98460.got - 2010.06.03 11:33:40.
