data_PCOD9026132
_publ_section_title
;
Structure prediction by ZEFSAII (Michael W. Deem and Ramdas Pophale) SiO2 
 PCOD9026132
Probable space group: P -1
;
_chemical_formula_sum "Si O2"
_cell_formula_units_Z 14
_cell_length_a 7.402137
_cell_length_b 19.144728
_cell_length_c 15.615008
_cell_angle_alpha 21.823737
_cell_angle_beta 134.383974
_cell_angle_gamma 132.162257
_cell_volume 585.904310
_symmetry_space_group_name_H-M "P -1"
_symmetry_group_IT_number 2
_symmetry_cell_setting 'triclinic'
loop_
_space_group_symop_operation_xyz
x,y,z
-x,-y,-z
loop_
_atom_site_type_symbol
_atom_site_label
_atom_site_fract_x
_atom_site_fract_y
_atom_site_fract_z
Si Si1 0.379731 0.925521 0.655483
Si Si2 0.143186 0.925697 0.259757
Si Si3 0.385403 0.552676 0.994631
Si Si4 0.621170 0.050815 0.873505
Si Si5 0.985538 0.742120 0.856991
Si Si6 0.089643 0.490963 0.730830
Si Si7 0.619631 0.322186 0.698957
O O1 0.247340 0.828634 0.806244
O O2 0.671595 0.987342 0.704101
O O3 0.211451 0.097560 0.384080
O O4 0.345550 0.769851 0.747078
O O5 0.315227 0.930267 0.225946
O O6 0.055521 0.707046 0.494924
O O7 0.890596 0.024256 0.040472
O O8 0.140553 0.408776 0.081043
O O9 0.611872 0.518602 0.173558
O O10 0.500000 0.500000 0.000000
O O11 0.525728 0.237984 0.672089
O O12 0.442980 0.863180 0.051148
O O13 0.996936 0.636013 0.071254
O O14 0.912214 0.403931 0.696550
O O15 0.500000 0.500000 0.500000
#
# Coordination Sequence:
#
# PCOD9026132 Si02
#       7
#     2   2   2   2   2   2   2
#     4  11  22  42  68  90 130 170 203 266 312 377
#     4  11  22  43  65  95 126 167 214 258 321 367
#     4  10  22  41  62  93 127 162 213 253 310 375
#     4  10  24  43  65  93 129 165 213 264 309 381
#     4  10  23  42  63  95 127 164 214 253 318 377
#     4  11  22  41  62  95 128 163 212 257 313 379
#     4  11  22  44  65  92 127 167 210 261 318 371
#
# _framework density 23.894687000000001
#
# number of rings (size 3 to 8) (size 9 to 14) (size 15 to 20)
#    0.000    1.429    2.857    2.143    0.000    2.857 
#   10.286    2.857    0.000    0.000    0.000    0.000 
#    0.000    0.000    0.000    0.000    0.000    0.000 
#
# Total GULP energy -78267.899323 kJ/mol
# GULP energy per Si atom -5590.564237 kJ/mol
# Density = 2.384030 g / cm^3
# Si number density = 23.894687 Si / 1000 Ang^3
#
#
#
# Elastic Constant Matrix: (Units=GPa)
#
#
# Indices 1 2 3 4 5 6 
#
# 1 57.5492 14.0395 19.8075 -11.2345 -2.5995 -11.4376
# 2 14.0395 136.4260 51.5517 -44.0695 17.4187 17.8572
# 3 19.8075 51.5517 93.2627 -35.9176 5.3960 -22.0841
# 4 -11.2345 -44.0695 -35.9176 41.5117 -8.6622 6.4952
# 5 -2.5995 17.4187 5.3960 -8.6622 36.3061 -12.6921
# 6 -11.4376 17.8572 -22.0841 6.4952 -12.6921 34.7306
#
#
#
# Elastic Compliance Matrix: (Units=1/GPa)
#
#
# Indices 1 2 3 4 5 6 
#
# 1 0.021595 -0.005550 0.001775 0.001181 0.009204 0.014237
# 2 -0.005550 0.023286 -0.012851 0.013315 -0.017236 -0.030761
# 3 0.001775 -0.012851 0.026315 0.008216 0.013951 0.027487
# 4 0.001181 0.013315 0.008216 0.047271 0.000266 -0.009976
# 5 0.009204 -0.017236 0.013951 0.000266 0.047812 0.038187
# 6 0.014237 -0.030761 0.027487 -0.009976 0.038187 0.082597
#
#
# Mechanical properties :
#
#
# Convention : Reuss Voigt Hill
#
# Bulk Modulus (GPa) = 26.35554 50.89280 38.62417
# Shear Modulus (GPa) = 16.96198 35.96561 26.46380
#
# Velocity S-wave (km/s) = 2.66722 3.88386 3.33155
# Velocity P-wave (km/s) = 4.53202 6.43875 5.56762
#
# Compressibility (1/GPa) = 0.03794269
#
# Stress axis : x y z
#
# Youngs Moduli (GPa) = 46.30625 42.94466 38.00109
#
# Poissons Ratio (x) = 0.23836 -0.06745
# Poissons Ratio (y) = 0.25701 0.48837
# Poissons Ratio (z) = -0.08219 0.55190
#
# Static dielectric constant tensor:
#      x y z
#    x 1.956370 -0.000300 0.027850 
#    y -0.000300 1.940940 0.021070 
#    z 0.027850 0.021070 1.943950 
# 
# From -- ./inp_files/562607.got.cif
#   From: 2010.05.17/outbox.cif.g08.bks.cpg/sg2_282_cif.got.tgz:562607.got - 2010.06.03 11:33:40.
