data_PCOD9026193
_publ_section_title
;
Structure prediction by ZEFSAII (Michael W. Deem and Ramdas Pophale) SiO2 
 PCOD9026193
Probable space group: P -1
;
_chemical_formula_sum "Si O2"
_cell_formula_units_Z 14
_cell_length_a 24.702238
_cell_length_b 14.804302
_cell_length_c 5.820565
_cell_angle_alpha 84.872253
_cell_angle_beta 80.638500
_cell_angle_gamma 16.105255
_cell_volume 564.936797
_symmetry_space_group_name_H-M "P -1"
_symmetry_group_IT_number 2
_symmetry_cell_setting 'triclinic'
loop_
_space_group_symop_operation_xyz
x,y,z
-x,-y,-z
loop_
_atom_site_type_symbol
_atom_site_label
_atom_site_fract_x
_atom_site_fract_y
_atom_site_fract_z
Si Si1 0.754204 0.056754 0.551494
Si Si2 0.108265 0.315110 0.721034
Si Si3 0.808300 0.629267 0.350175
Si Si4 0.346747 0.274018 0.243564
Si Si5 0.949691 0.260307 0.024209
Si Si6 0.363797 0.579992 0.706417
Si Si7 0.216012 0.632188 0.554233
O O1 0.584853 0.257035 0.724269
O O2 0.670938 0.288029 0.495766
O O3 0.806598 0.921078 0.307572
O O4 0.962216 0.735276 0.620081
O O5 0.259020 0.160328 0.652685
O O6 0.000000 0.500000 0.500000
O O7 0.000000 0.500000 0.000000
O O8 0.669171 0.783767 0.557132
O O9 0.849768 0.514060 0.108951
O O10 0.363557 0.344984 0.336691
O O11 0.121673 0.639402 0.208015
O O12 0.500000 0.000000 0.000000
O O13 0.847189 0.344865 0.224701
O O14 0.190806 0.870817 0.951729
O O15 0.315428 0.559199 0.633831
O O16 0.000000 0.000000 0.500000
#
# Coordination Sequence:
#
# PCOD9026193 Si02
#       7
#     2   2   2   2   2   2   2
#     4  10  22  41  63 101 135 175 226 278 342 424
#     4  10  22  41  67  96 137 186 233 284 353 422
#     4  10  22  42  68  97 138 175 227 291 351 423
#     4  11  25  43  69 100 133 179 236 291 353 415
#     4  11  22  41  72  91 137 177 223 292 352 411
#     4  11  21  39  68  95 136 175 224 276 346 424
#     4  11  23  43  66 101 133 177 229 282 352 419
#
# _framework density 24.781533
#
# number of rings (size 3 to 8) (size 9 to 14) (size 15 to 20)
#    0.000    1.429    2.857    2.143    2.000    5.143 
#    0.000    2.857    0.000    0.000    0.000    0.000 
#    0.000    0.000    0.000    0.000    0.000    0.000 
#
# Total GULP energy -78160.214092 kJ/mol
# GULP energy per Si atom -5582.872435 kJ/mol
# Density = 2.472513 g / cm^3
# Si number density = 24.781533 Si / 1000 Ang^3
#
#
#
# Elastic Constant Matrix: (Units=GPa)
#
#
# Indices 1 2 3 4 5 6 
#
# 1 145.5404 8.1862 33.7588 9.7731 5.6968 -13.9088
# 2 8.1862 81.8129 14.5956 12.0211 -0.6043 -20.9521
# 3 33.7588 14.5956 96.6682 32.8192 12.3129 -2.8073
# 4 9.7731 12.0211 32.8192 40.1247 1.5494 -4.0815
# 5 5.6968 -0.6043 12.3129 1.5494 36.3253 6.3735
# 6 -13.9088 -20.9521 -2.8073 -4.0815 6.3735 41.9670
#
#
#
# Elastic Compliance Matrix: (Units=1/GPa)
#
#
# Indices 1 2 3 4 5 6 
#
# 1 0.007747 0.000324 -0.002780 0.000596 -0.000770 0.002718
# 2 0.000324 0.014625 -0.001081 -0.002827 -0.000575 0.007149
# 3 -0.002780 -0.001081 0.016120 -0.012106 -0.004372 -0.000896
# 4 0.000596 -0.002827 -0.012106 0.035550 0.002255 0.001091
# 5 -0.000770 -0.000575 -0.004372 0.002255 0.029932 -0.005161
# 6 0.002718 0.007149 -0.000896 0.001091 -0.005161 0.029128
#
#
# Mechanical properties :
#
#
# Convention : Reuss Voigt Hill
#
# Bulk Modulus (GPa) = 31.82789 48.56695 40.19742
# Shear Modulus (GPa) = 33.18978 41.51545 37.35262
#
# Velocity S-wave (km/s) = 3.66361 4.09743 3.88658
# Velocity P-wave (km/s) = 5.54683 6.48273 6.03296
#
# Compressibility (1/GPa) = 0.03141899
#
# Stress axis : x y z
#
# Youngs Moduli (GPa) = 129.07561 68.37397 62.03638
#
# Poissons Ratio (x) = -0.02212 0.17245
# Poissons Ratio (y) = -0.04176 0.06703
# Poissons Ratio (z) = 0.35880 0.07388
#
# Static dielectric constant tensor:
#      x y z
#    x 2.002680 -0.010290 -0.016100 
#    y -0.010290 2.107700 0.026590 
#    z -0.016100 0.026590 1.985750 
# 
# From -- ./inp_files/82420.got.cif
#   From: 2010.05.17/outbox.cif.g08.bks.cpg/sg2_42_cif.got.tgz:82420.got - 2010.06.03 11:33:40.
