data_PCOD9026773
_publ_section_title
;
Structure prediction by ZEFSAII (Michael W. Deem and Ramdas Pophale) SiO2 
 PCOD9026773
Probable space group: P -1
;
_chemical_formula_sum "Si O2"
_cell_formula_units_Z 16
_cell_length_a 12.495390
_cell_length_b 10.650437
_cell_length_c 18.338789
_cell_angle_alpha 64.925835
_cell_angle_beta 162.399277
_cell_angle_gamma 114.559032
_cell_volume 667.823462
_symmetry_space_group_name_H-M "P -1"
_symmetry_group_IT_number 2
_symmetry_cell_setting 'triclinic'
loop_
_space_group_symop_operation_xyz
x,y,z
-x,-y,-z
loop_
_atom_site_type_symbol
_atom_site_label
_atom_site_fract_x
_atom_site_fract_y
_atom_site_fract_z
Si Si1 0.726421 0.071053 0.888911
Si Si2 0.396300 0.203335 0.060253
Si Si3 0.570932 0.794148 0.634529
Si Si4 0.300056 0.054988 0.469643
Si Si5 0.208157 0.209957 0.622612
Si Si6 0.623317 0.206036 0.042451
Si Si7 0.552793 0.508163 0.915920
Si Si8 0.735585 0.476208 0.435360
O O1 0.581207 0.068443 0.714135
O O2 0.403330 0.104607 0.724404
O O3 0.837326 0.919847 0.025248
O O4 0.047009 0.180004 0.085573
O O5 0.456841 0.181387 0.019504
O O6 0.289816 0.358112 0.972703
O O7 0.787212 0.194975 0.352021
O O8 0.622694 0.843221 0.573314
O O9 0.420214 0.638862 0.583535
O O10 0.322833 0.900741 0.489407
O O11 0.926769 0.099780 0.248981
O O12 0.309956 0.362143 0.618503
O O13 0.353314 0.200717 0.800828
O O14 0.765314 0.368221 0.094934
O O15 0.467575 0.548623 0.767537
O O16 0.158012 0.467177 0.700412
#
# Coordination Sequence:
#
# PCOD9026773 Si02
#       8
#     2   2   2   2   2   2   2   2
#     4  12  24  43  66  95 128 173 211 260 317 378
#     4  11  23  40  69  96 130 165 210 265 316 375
#     4  11  25  46  66  88 129 175 213 258 313 382
#     4  11  25  43  64  94 131 166 218 261 310 381
#     4  10  22  41  65  96 128 160 213 264 313 370
#     4  11  22  41  66  99 128 164 211 266 321 369
#     4   9  20  41  68  98 125 161 212 264 317 375
#     4   9  20  43  69  92 126 171 210 259 318 373
#
# _framework density 23.958428999999999
#
# number of rings (size 3 to 8) (size 9 to 14) (size 15 to 20)
#    0.000    1.500    2.500    2.625    0.000    4.000 
#    0.000    5.625    0.000    0.000    0.000    0.000 
#    0.000    0.000    0.000    0.000    0.000    0.000 
#
# Total GULP energy -89694.183082 kJ/mol
# GULP energy per Si atom -5605.886443 kJ/mol
# Density = 2.390390 g / cm^3
# Si number density = 23.958429 Si / 1000 Ang^3
#
#
#
# Elastic Constant Matrix: (Units=GPa)
#
#
# Indices 1 2 3 4 5 6 
#
# 1 77.7190 28.3989 8.1346 -3.5173 -27.6598 -12.8712
# 2 28.3989 126.0743 11.6238 -0.2321 -3.4655 6.2450
# 3 8.1346 11.6238 81.6360 -0.4298 -18.5641 1.7722
# 4 -3.5173 -0.2321 -0.4298 28.3984 -1.4565 5.6247
# 5 -27.6598 -3.4655 -18.5641 -1.4565 37.5984 -7.7338
# 6 -12.8712 6.2450 1.7722 5.6247 -7.7338 31.8936
#
#
#
# Elastic Compliance Matrix: (Units=1/GPa)
#
#
# Indices 1 2 3 4 5 6 
#
# 1 0.026368 -0.006449 0.003399 0.001060 0.024096 0.017371
# 2 -0.006449 0.009692 -0.001981 0.000104 -0.006033 -0.005872
# 3 0.003399 -0.001981 0.014431 0.000483 0.010147 0.003333
# 4 0.001060 0.000104 0.000483 0.036558 0.001259 -0.005762
# 5 0.024096 -0.006033 0.010147 0.001259 0.053580 0.023112
# 6 0.017371 -0.005872 0.003333 -0.005762 0.023112 0.045950
#
#
# Mechanical properties :
#
#
# Convention : Reuss Voigt Hill
#
# Bulk Modulus (GPa) = 24.73547 42.41598 33.57573
# Shear Modulus (GPa) = 23.79604 35.39623 29.59613
#
# Velocity S-wave (km/s) = 3.15496 3.84787 3.51851
# Velocity P-wave (km/s) = 4.85988 6.12241 5.52731
#
# Compressibility (1/GPa) = 0.04042777
#
# Stress axis : x y z
#
# Youngs Moduli (GPa) = 37.92443 103.17360 69.29735
#
# Poissons Ratio (x) = 0.66538 -0.23552
# Poissons Ratio (y) = 0.24458 0.13730
# Poissons Ratio (z) = -0.12889 0.20442
#
# Static dielectric constant tensor:
#      x y z
#    x 1.877730 -0.015340 0.003020 
#    y -0.015340 1.922340 -0.003760 
#    z 0.003020 -0.003760 1.924430 
# 
# From -- ./inp_files/569160.got.cif
#   From: 2010.05.17/outbox.cif.g08.bks.cpg/sg2_285_cif.got.tgz:569160.got - 2010.06.03 11:33:40.
