data_PCOD9026592
_publ_section_title
;
Structure prediction by ZEFSAII (Michael W. Deem and Ramdas Pophale) SiO2 
 PCOD9026592
Probable space group: P -1
;
_chemical_formula_sum "Si O2"
_cell_formula_units_Z 16
_cell_length_a 5.396438
_cell_length_b 11.741693
_cell_length_c 11.237971
_cell_angle_alpha 119.131209
_cell_angle_beta 88.148892
_cell_angle_gamma 93.722889
_cell_volume 620.689974
_symmetry_space_group_name_H-M "P -1"
_symmetry_group_IT_number 2
_symmetry_cell_setting 'triclinic'
loop_
_space_group_symop_operation_xyz
x,y,z
-x,-y,-z
loop_
_atom_site_type_symbol
_atom_site_label
_atom_site_fract_x
_atom_site_fract_y
_atom_site_fract_z
Si Si1 0.535208 0.786032 0.998842
Si Si2 0.843859 0.145025 0.771409
Si Si3 0.164888 0.377402 0.906391
Si Si4 0.193551 0.961969 0.811488
Si Si5 0.585034 0.871980 0.592698
Si Si6 0.994303 0.494514 0.638744
Si Si7 0.528261 0.628056 0.320249
Si Si8 0.189927 0.233242 0.229558
O O1 0.297384 0.782404 0.083915
O O2 0.729957 0.696187 0.017622
O O3 0.606345 0.941156 0.080939
O O4 0.556895 0.754626 0.843887
O O5 0.995750 0.269478 0.776146
O O6 0.675047 0.025939 0.652397
O O7 0.047161 0.059194 0.782455
O O8 0.407948 0.404816 0.833784
O O9 0.000000 0.500000 0.000000
O O10 0.329115 0.871783 0.670127
O O11 0.000391 0.886624 0.861355
O O12 0.560724 0.781863 0.431628
O O13 0.755557 0.798170 0.649045
O O14 0.743487 0.420085 0.654434
O O15 0.957263 0.644204 0.743186
O O16 0.000000 0.500000 0.500000
O O17 0.251623 0.442767 0.652482
#
# Coordination Sequence:
#
# PCOD9026592 Si02
#       8
#     2   2   2   2   2   2   2   2
#     4  10  22  41  64  98 134 181 233 288 342 423
#     4   9  22  42  66  96 133 179 232 288 347 413
#     4  11  26  46  70  96 139 185 237 289 343 424
#     4   9  20  39  63  99 134 177 229 289 353 413
#     4  10  22  41  67  99 135 175 233 290 356 414
#     4  12  26  46  70 109 143 181 235 286 360 424
#     4  12  28  46  73 106 141 192 232 293 350 417
#     4  11  22  36  68  96 140 181 226 294 352 416
#
# _framework density 25.777767999999998
#
# number of rings (size 3 to 8) (size 9 to 14) (size 15 to 20)
#    0.000    1.500    1.250    2.250    7.000    7.500 
#    0.000    5.625    0.000    0.000    0.000    0.000 
#    0.000    0.000    0.000    0.000    0.000    0.000 
#
# Total GULP energy -89382.971506 kJ/mol
# GULP energy per Si atom -5586.435719 kJ/mol
# Density = 2.571910 g / cm^3
# Si number density = 25.777768 Si / 1000 Ang^3
#
#
#
# Elastic Constant Matrix: (Units=GPa)
#
#
# Indices 1 2 3 4 5 6 
#
# 1 112.5035 49.6593 9.0154 -0.4418 -16.2239 -4.1010
# 2 49.6593 118.6287 47.9931 10.2343 2.6252 -2.3360
# 3 9.0154 47.9931 87.5346 6.5493 -18.0410 -4.9197
# 4 -0.4418 10.2343 6.5493 42.5263 -2.0246 -2.7215
# 5 -16.2239 2.6252 -18.0410 -2.0246 31.1531 1.5850
# 6 -4.1010 -2.3360 -4.9197 -2.7215 1.5850 50.8341
#
#
#
# Elastic Compliance Matrix: (Units=1/GPa)
#
#
# Indices 1 2 3 4 5 6 
#
# 1 0.013759 -0.008300 0.005318 0.001910 0.011017 0.001002
# 2 -0.008300 0.016709 -0.010595 -0.003094 -0.012031 -0.000718
# 3 0.005318 -0.010595 0.019852 0.000357 0.015110 0.001411
# 4 0.001910 -0.003094 0.000357 0.024447 0.002987 0.001262
# 5 0.011017 -0.012031 0.015110 0.002987 0.047772 0.000469
# 6 0.001002 -0.000718 0.001411 0.001262 0.000469 0.019909
#
#
# Mechanical properties :
#
#
# Convention : Reuss Voigt Hill
#
# Bulk Modulus (GPa) = 43.16627 59.11136 51.13881
# Shear Modulus (GPa) = 28.19685 39.03596 33.61640
#
# Velocity S-wave (km/s) = 3.31092 3.89566 3.61513
# Velocity P-wave (km/s) = 5.60340 6.57387 6.10794
#
# Compressibility (1/GPa) = 0.02316624
#
# Stress axis : x y z
#
# Youngs Moduli (GPa) = 72.68054 59.84643 50.37254
#
# Poissons Ratio (x) = 0.49671 -0.26786
# Poissons Ratio (y) = 0.60323 0.53369
# Poissons Ratio (z) = -0.38649 0.63407
#
# Static dielectric constant tensor:
#      x y z
#    x 2.090780 0.025910 0.002120 
#    y 0.025910 2.059630 0.055090 
#    z 0.002120 0.055090 2.147550 
# 
# From -- ./inp_files/363835.got.cif
#   From: 2010.05.17/outbox.cif.g08.bks.cpg/sg2_182_cif.got.tgz:363835.got - 2010.06.03 11:33:40.
