data_PCOD9026040
_publ_section_title
;
Structure prediction by ZEFSAII (Michael W. Deem and Ramdas Pophale) SiO2 
 PCOD9026040
Probable space group: P -1
;
_chemical_formula_sum "Si O2"
_cell_formula_units_Z 16
_cell_length_a 13.651317
_cell_length_b 12.355851
_cell_length_c 8.591227
_cell_angle_alpha 65.406486
_cell_angle_beta 112.210296
_cell_angle_gamma 56.647029
_cell_volume 661.923067
_symmetry_space_group_name_H-M "P -1"
_symmetry_group_IT_number 2
_symmetry_cell_setting 'triclinic'
loop_
_space_group_symop_operation_xyz
x,y,z
-x,-y,-z
loop_
_atom_site_type_symbol
_atom_site_label
_atom_site_fract_x
_atom_site_fract_y
_atom_site_fract_z
Si Si1 0.607480 0.528352 0.389584
Si Si2 0.890272 0.475858 0.966637
Si Si3 0.444332 0.692932 0.520770
Si Si4 0.461982 0.677501 0.888232
Si Si5 0.162843 0.250802 0.796014
Si Si6 0.981137 0.813415 0.033185
Si Si7 0.165224 0.125605 0.553116
Si Si8 0.444332 0.059182 0.611880
O O1 0.513367 0.670791 0.405032
O O2 0.509298 0.491152 0.339630
O O3 0.835967 0.304178 0.699256
O O4 0.581634 0.608555 0.154023
O O5 0.961571 0.287600 0.040475
O O6 0.693063 0.695548 0.628140
O O7 0.000000 0.500000 0.000000
O O8 0.947313 0.380750 0.231924
O O9 0.506545 0.683371 0.735561
O O10 0.211601 0.927382 0.241492
O O11 0.243086 0.923519 0.664320
O O12 0.500000 0.500000 0.000000
O O13 0.198378 0.124670 0.752810
O O14 0.000000 0.500000 0.500000
O O15 0.074589 0.258372 0.877634
O O16 0.367603 0.108820 0.065437
O O17 0.312836 0.073426 0.578945
O O18 0.500000 0.000000 0.500000
#
# Coordination Sequence:
#
# PCOD9026040 Si02
#       8
#     2   2   2   2   2   2   2   2
#     4  10  24  43  72 102 135 175 235 284 351 420
#     4  10  22  41  61  93 128 175 227 276 331 415
#     4  10  22  47  70 100 135 179 225 293 349 410
#     4  10  22  42  69 102 136 175 230 287 345 417
#     4  12  26  42  63 100 140 180 227 290 347 413
#     4  12  24  42  68  94 138 175 232 277 350 406
#     4  11  22  42  66  93 137 178 228 285 351 413
#     4  11  24  41  67  94 133 180 230 284 347 415
#
# _framework density 24.171994000000002
#
# number of rings (size 3 to 8) (size 9 to 14) (size 15 to 20)
#    0.000    1.250    1.250    5.250    5.250    0.000 
#    2.250    0.000    0.000    7.500    0.000    0.000 
#    0.000    0.000    0.000    0.000    0.000    0.000 
#
# Total GULP energy -89198.430725 kJ/mol
# GULP energy per Si atom -5574.901920 kJ/mol
# Density = 2.411698 g / cm^3
# Si number density = 24.171994 Si / 1000 Ang^3
#
#
#
# Elastic Constant Matrix: (Units=GPa)
#
#
# Indices 1 2 3 4 5 6 
#
# 1 13.1341 -7.1461 13.1654 5.4013 6.1506 -0.3670
# 2 -7.1461 113.6150 53.5738 2.5987 4.1878 -2.5086
# 3 13.1654 53.5738 172.5292 9.4945 0.6523 -3.9921
# 4 5.4013 2.5987 9.4945 51.3680 0.7901 -13.6477
# 5 6.1506 4.1878 0.6523 0.7901 27.7606 2.7801
# 6 -0.3670 -2.5086 -3.9921 -13.6477 2.7801 34.4820
#
#
#
# Elastic Compliance Matrix: (Units=1/GPa)
#
#
# Indices 1 2 3 4 5 6 
#
# 1 0.112686 0.014088 -0.012340 -0.010167 -0.026402 -0.001100
# 2 0.014088 0.012146 -0.004761 -0.001016 -0.004860 0.000472
# 3 -0.012340 -0.004761 0.008207 0.000031 0.003236 0.000224
# 4 -0.010167 -0.001016 0.000031 0.022912 0.000870 0.008820
# 5 -0.026402 -0.004860 0.003236 0.000870 0.042842 -0.003370
# 6 -0.001100 0.000472 0.000224 0.008820 -0.003370 0.032812
#
#
# Mechanical properties :
#
#
# Convention : Reuss Voigt Hill
#
# Bulk Modulus (GPa) = 7.87322 46.49606 27.18464
# Shear Modulus (GPa) = 17.85915 38.70112 28.28013
#
# Velocity S-wave (km/s) = 2.72110 4.00568 3.42417
# Velocity P-wave (km/s) = 3.62447 6.37740 5.18691
#
# Compressibility (1/GPa) = 0.12701290
#
# Stress axis : x y z
#
# Youngs Moduli (GPa) = 8.87421 82.33402 121.84075
#
# Poissons Ratio (x) = -1.15989 1.50345
# Poissons Ratio (y) = -0.12502 0.58012
# Poissons Ratio (z) = 0.10950 0.39202
#
# Static dielectric constant tensor:
#      x y z
#    x 1.964550 -0.004870 0.150120 
#    y -0.004870 2.008840 0.249720 
#    z 0.150120 0.249720 2.721730 
# 
# From -- ./inp_files/272148.got.cif
#   From: 2010.05.17/outbox.cif.g08.bks.cpg/sg2_137_cif.got.tgz:272148.got - 2010.06.03 11:33:40.
