data_PCOD9026780
_publ_section_title
;
Structure prediction by ZEFSAII (Michael W. Deem and Ramdas Pophale) SiO2 
 PCOD9026780
Probable space group: P -1
;
_chemical_formula_sum "Si O2"
_cell_formula_units_Z 16
_cell_length_a 19.170748
_cell_length_b 13.216629
_cell_length_c 14.877893
_cell_angle_alpha 140.379119
_cell_angle_beta 23.702365
_cell_angle_gamma 155.098295
_cell_volume 596.280016
_symmetry_space_group_name_H-M "P -1"
_symmetry_group_IT_number 2
_symmetry_cell_setting 'triclinic'
loop_
_space_group_symop_operation_xyz
x,y,z
-x,-y,-z
loop_
_atom_site_type_symbol
_atom_site_label
_atom_site_fract_x
_atom_site_fract_y
_atom_site_fract_z
Si Si1 0.400046 0.625513 0.172222
Si Si2 0.751303 0.369854 0.817462
Si Si3 0.008205 0.314482 0.592404
Si Si4 0.486150 0.680564 0.636242
Si Si5 0.897493 0.908894 0.877235
Si Si6 0.271048 0.550790 0.623630
Si Si7 0.263698 0.941294 0.688207
Si Si8 0.669619 0.784775 0.674476
O O1 0.283422 0.676737 0.280088
O O2 0.265666 0.522527 0.360690
O O3 0.288677 0.384233 0.091254
O O4 0.730623 0.872983 0.967539
O O5 0.764596 0.218374 0.754726
O O6 0.016334 0.661834 0.742145
O O7 0.467613 0.255796 0.100433
O O8 0.058797 0.430438 0.709223
O O9 0.941424 0.084353 0.535558
O O10 0.500000 0.500000 0.500000
O O11 0.262528 0.584569 0.762909
O O12 0.455478 0.689975 0.783835
O O13 0.800008 0.936355 0.403055
O O14 0.879810 0.027160 0.057247
O O15 0.297483 0.378634 0.476454
O O16 0.556653 0.834209 0.443339
O O17 0.500000 0.000000 0.500000
#
# Coordination Sequence:
#
# PCOD9026780 Si02
#       8
#     2   2   2   2   2   2   2   2
#     4  11  24  42  71 101 135 176 233 285 332 403
#     4  12  26  43  69 103 141 182 221 279 351 404
#     4  12  24  47  66 103 142 178 225 282 346 405
#     4  10  22  41  65  96 131 172 227 283 330 395
#     4  11  22  42  66 100 132 171 235 278 331 396
#     4  11  23  43  71  97 132 182 226 281 337 399
#     4  12  23  42  68 100 141 173 221 285 345 405
#     4  11  25  44  69  96 136 184 233 279 331 410
#
# _framework density 26.833030999999998
#
# number of rings (size 3 to 8) (size 9 to 14) (size 15 to 20)
#    0.000    0.750    3.750    4.125    1.750    3.500 
#    0.000    0.625    0.000    0.000    0.000    0.000 
#    0.000    0.000    0.000    0.000    0.000    0.000 
#
# Total GULP energy -89434.619261 kJ/mol
# GULP energy per Si atom -5589.663704 kJ/mol
# Density = 2.677196 g / cm^3
# Si number density = 26.833031 Si / 1000 Ang^3
#
#
#
# Elastic Constant Matrix: (Units=GPa)
#
#
# Indices 1 2 3 4 5 6 
#
# 1 201.4108 18.1114 28.9795 -10.2973 -10.0045 -4.7723
# 2 18.1114 107.9220 -2.6609 -7.5535 9.6492 -12.1865
# 3 28.9795 -2.6609 48.5568 11.5511 -5.6474 5.0417
# 4 -10.2973 -7.5535 11.5511 27.1408 5.0925 9.2844
# 5 -10.0045 9.6492 -5.6474 5.0925 40.0084 3.7474
# 6 -4.7723 -12.1865 5.0417 9.2844 3.7474 23.8991
#
#
#
# Elastic Compliance Matrix: (Units=1/GPa)
#
#
# Indices 1 2 3 4 5 6 
#
# 1 0.005898 -0.000876 -0.004397 0.003713 0.000581 0.000125
# 2 -0.000876 0.010400 -0.000204 0.001545 -0.003431 0.005109
# 3 -0.004397 -0.000204 0.027176 -0.013406 0.004703 -0.002245
# 4 0.003713 0.001545 -0.013406 0.050466 -0.006426 -0.014240
# 5 0.000581 -0.003431 0.004703 -0.006426 0.027871 -0.004499
# 6 0.000125 0.005109 -0.002245 -0.014240 -0.004499 0.051184
#
#
# Mechanical properties :
#
#
# Convention : Reuss Voigt Hill
#
# Bulk Modulus (GPa) = 30.75054 49.63885 40.19470
# Shear Modulus (GPa) = 25.66874 39.10698 32.38786
#
# Velocity S-wave (km/s) = 3.09627 3.82176 3.47798
# Velocity P-wave (km/s) = 4.92619 6.16553 5.58037
#
# Compressibility (1/GPa) = 0.03251975
#
# Stress axis : x y z
#
# Youngs Moduli (GPa) = 169.54697 96.15591 36.79657
#
# Poissons Ratio (x) = 0.08425 0.16179
# Poissons Ratio (y) = 0.14855 0.00752
# Poissons Ratio (z) = 0.74547 0.01964
#
# Static dielectric constant tensor:
#      x y z
#    x 2.130360 0.135620 -0.126830 
#    y 0.135620 1.980720 0.112310 
#    z -0.126830 0.112310 2.006880 
# 
# From -- ./inp_files/538464.got.cif
#   From: 2010.05.17/outbox.cif.g08.bks.cpg/sg2_270_cif.got.tgz:538464.got - 2010.06.03 11:33:40.
