data_PCOD9026864
_publ_section_title
;
Structure prediction by ZEFSAII (Michael W. Deem and Ramdas Pophale) SiO2 
 PCOD9026864
Probable space group: P -1
;
_chemical_formula_sum "Si O2"
_cell_formula_units_Z 14
_cell_length_a 9.210429
_cell_length_b 8.917688
_cell_length_c 11.905177
_cell_angle_alpha 142.410187
_cell_angle_beta 98.081577
_cell_angle_gamma 79.130925
_cell_volume 585.722534
_symmetry_space_group_name_H-M "P -1"
_symmetry_group_IT_number 2
_symmetry_cell_setting 'triclinic'
loop_
_space_group_symop_operation_xyz
x,y,z
-x,-y,-z
loop_
_atom_site_type_symbol
_atom_site_label
_atom_site_fract_x
_atom_site_fract_y
_atom_site_fract_z
Si Si1 0.444382 0.721815 0.414259
Si Si2 0.444312 0.812025 0.214242
Si Si3 0.883222 0.097610 0.452649
Si Si4 0.732578 0.825513 0.113283
Si Si5 0.896012 0.649579 0.807691
Si Si6 0.801985 0.167167 0.984967
Si Si7 0.419899 0.775658 0.810470
O O1 0.465015 0.683086 0.260789
O O2 0.281838 0.867261 0.494922
O O3 0.467192 0.468014 0.334818
O O4 0.555865 0.899262 0.581133
O O5 0.297392 0.795171 0.115333
O O6 0.595693 0.739944 0.116167
O O7 0.874824 0.881674 0.232241
O O8 0.909897 0.378652 0.592649
O O9 0.000000 0.000000 0.500000
O O10 0.666613 0.105270 0.234348
O O11 0.783531 0.673027 0.916497
O O12 0.844265 0.875604 0.850431
O O13 0.049932 0.706470 0.913331
O O14 0.697695 0.278415 0.141397
O O15 0.500000 0.000000 0.000000
#
# Coordination Sequence:
#
# PCOD9026864 Si02
#       7
#     2   2   2   2   2   2   2
#     4  10  24  41  66  99 133 168 219 282 326 382
#     4  10  22  41  66 100 130 168 222 272 330 386
#     4  11  26  44  65  96 137 177 221 266 328 405
#     4  10  23  43  72  99 128 177 224 268 331 387
#     4  10  24  45  64  99 136 176 218 268 331 395
#     4  10  22  41  68  98 132 170 219 272 332 392
#     4  11  21  42  67 101 127 166 225 274 323 394
#
# _framework density 23.902103
#
# number of rings (size 3 to 8) (size 9 to 14) (size 15 to 20)
#    0.000    1.714    1.429    1.714    4.000    5.714 
#    2.571    2.143    0.000    0.000    0.000    0.000 
#    0.000    0.000    0.000    0.000    0.000    0.000 
#
# Total GULP energy -78276.548577 kJ/mol
# GULP energy per Si atom -5591.182041 kJ/mol
# Density = 2.384770 g / cm^3
# Si number density = 23.902103 Si / 1000 Ang^3
#
#
#
# Elastic Constant Matrix: (Units=GPa)
#
#
# Indices 1 2 3 4 5 6 
#
# 1 89.0682 5.7273 -0.3442 -14.6736 11.3789 -7.4314
# 2 5.7273 50.4212 -3.2931 -9.7184 4.2218 -19.7431
# 3 -0.3442 -3.2931 78.5396 2.4311 16.0944 -7.0525
# 4 -14.6736 -9.7184 2.4311 40.8135 -5.0294 0.7279
# 5 11.3789 4.2218 16.0944 -5.0294 36.7436 -10.8369
# 6 -7.4314 -19.7431 -7.0525 0.7279 -10.8369 44.2990
#
#
#
# Elastic Compliance Matrix: (Units=1/GPa)
#
#
# Indices 1 2 3 4 5 6 
#
# 1 0.012414 0.000262 0.000728 0.004061 -0.003206 0.001464
# 2 0.000262 0.025644 0.001859 0.005934 0.000445 0.011780
# 3 0.000728 0.001859 0.014293 -0.000957 -0.006331 0.001693
# 4 0.004061 0.005934 -0.000957 0.027778 0.003323 0.003530
# 5 -0.003206 0.000445 -0.006331 0.003323 0.033380 0.006764
# 6 0.001464 0.011780 0.001693 0.003530 0.006764 0.029936
#
#
# Mechanical properties :
#
#
# Convention : Reuss Voigt Hill
#
# Bulk Modulus (GPa) = 17.22668 24.68989 20.95828
# Shear Modulus (GPa) = 31.82768 38.76716 35.29742
#
# Velocity S-wave (km/s) = 3.65305 4.03167 3.84702
# Velocity P-wave (km/s) = 5.00158 5.65902 5.34043
#
# Compressibility (1/GPa) = 0.05804949
#
# Stress axis : x y z
#
# Youngs Moduli (GPa) = 80.55371 38.99568 69.96600
#
# Poissons Ratio (x) = -0.01022 -0.05094
# Poissons Ratio (y) = -0.02110 -0.13009
# Poissons Ratio (z) = -0.05865 -0.07251
#
# Static dielectric constant tensor:
#      x y z
#    x 1.932580 0.027150 0.028000 
#    y 0.027150 1.938250 0.002870 
#    z 0.028000 0.002870 2.011560 
# 
# From -- ./inp_files/183846.got.cif
#   From: 2010.05.17/outbox.cif.g08.bks.cpg/sg2_92_cif.got.tgz:183846.got - 2010.06.03 11:33:40.
