data_PCOD9026828
_publ_section_title
;
Structure prediction by ZEFSAII (Michael W. Deem and Ramdas Pophale) SiO2 
 PCOD9026828
Probable space group: P -1
;
_chemical_formula_sum "Si O2"
_cell_formula_units_Z 16
_cell_length_a 13.432059
_cell_length_b 17.942024
_cell_length_c 8.095357
_cell_angle_alpha 102.476281
_cell_angle_beta 103.548493
_cell_angle_gamma 145.415156
_cell_volume 722.945654
_symmetry_space_group_name_H-M "P -1"
_symmetry_group_IT_number 2
_symmetry_cell_setting 'triclinic'
loop_
_space_group_symop_operation_xyz
x,y,z
-x,-y,-z
loop_
_atom_site_type_symbol
_atom_site_label
_atom_site_fract_x
_atom_site_fract_y
_atom_site_fract_z
Si Si1 0.976544 0.213295 0.427417
Si Si2 0.053812 0.448272 0.013315
Si Si3 0.431095 0.345774 0.027923
Si Si4 0.626299 0.773839 0.404627
Si Si5 0.026729 0.947765 0.818312
Si Si6 0.686031 0.128162 0.473126
Si Si7 0.800930 0.155655 0.982686
Si Si8 0.998794 0.851483 0.122473
O O1 0.265738 0.434953 0.706928
O O2 0.952164 0.107534 0.327816
O O3 0.759766 0.097792 0.411512
O O4 0.919884 0.215549 0.231768
O O5 0.953490 0.346771 0.750316
O O6 0.883281 0.295800 0.022638
O O7 0.342155 0.615064 0.242613
O O8 0.000000 0.500000 0.000000
O O9 0.379907 0.277310 0.792810
O O10 0.289275 0.329320 0.005371
O O11 0.267878 0.171656 0.990976
O O12 0.753898 0.803553 0.601749
O O13 0.818445 0.978472 0.595782
O O14 0.026425 0.911743 0.983175
O O15 0.500000 0.000000 0.500000
O O16 0.515519 0.062041 0.248779
O O17 0.917999 0.177297 0.901221
#
# Coordination Sequence:
#
# PCOD9026828 Si02
#       8
#     2   2   2   2   2   2   2   2
#     4  11  24  43  67 102 131 171 224 268 330 400
#     4  11  24  40  63  95 123 169 223 271 323 394
#     4  11  23  39  63 100 140 168 218 265 324 396
#     4  11  22  40  63  95 133 171 216 264 333 381
#     4  10  24  40  67  97 138 173 209 276 324 394
#     4  10  22  45  63  91 129 171 220 271 324 388
#     4  10  24  41  70  90 129 177 215 276 329 385
#     4  10  22  41  65  98 131 174 216 265 332 391
#
# _framework density 22.131678000000001
#
# number of rings (size 3 to 8) (size 9 to 14) (size 15 to 20)
#    0.000    1.500    1.250    4.125    5.250    7.500 
#    0.000    0.625    0.000    0.000    0.000    0.000 
#    0.000    0.000    0.000    0.000    0.000    0.000 
#
# Total GULP energy -89368.953371 kJ/mol
# GULP energy per Si atom -5585.559586 kJ/mol
# Density = 2.208131 g / cm^3
# Si number density = 22.131678 Si / 1000 Ang^3
#
#
#
# Elastic Constant Matrix: (Units=GPa)
#
#
# Indices 1 2 3 4 5 6 
#
# 1 171.1638 33.3727 48.7100 6.0607 -2.6144 10.2765
# 2 33.3727 49.7171 23.8655 -6.5635 2.7179 0.8654
# 3 48.7100 23.8655 112.6682 -3.1916 10.3763 14.4020
# 4 6.0607 -6.5635 -3.1916 28.6792 10.5232 8.0869
# 5 -2.6144 2.7179 10.3763 10.5232 44.4003 -3.0628
# 6 10.2765 0.8654 14.4020 8.0869 -3.0628 42.3843
#
#
#
# Elastic Compliance Matrix: (Units=1/GPa)
#
#
# Indices 1 2 3 4 5 6 
#
# 1 0.007640 -0.004465 -0.002674 -0.003764 0.002242 0.000028
# 2 -0.004465 0.025727 -0.003024 0.007594 -0.002936 -0.000076
# 3 -0.002674 -0.003024 0.011685 0.003808 -0.003900 -0.004269
# 4 -0.003764 0.007594 0.003808 0.045481 -0.013056 -0.010158
# 5 0.002242 -0.002936 -0.003900 -0.013056 0.027206 0.005299
# 6 0.000028 -0.000076 -0.004269 -0.010158 0.005299 0.027360
#
#
# Mechanical properties :
#
#
# Convention : Reuss Voigt Hill
#
# Bulk Modulus (GPa) = 40.44284 60.60506 50.52395
# Shear Modulus (GPa) = 28.79121 38.26614 33.52868
#
# Velocity S-wave (km/s) = 3.61072 4.16266 3.89648
# Velocity P-wave (km/s) = 5.97465 7.10964 6.56671
#
# Compressibility (1/GPa) = 0.02472626
#
# Stress axis : x y z
#
# Youngs Moduli (GPa) = 130.89630 38.87027 85.58082
#
# Poissons Ratio (x) = 0.17354 0.22883
# Poissons Ratio (y) = 0.58440 0.25880
# Poissons Ratio (z) = 0.34999 0.11754
#
# Static dielectric constant tensor:
#      x y z
#    x 1.864260 0.027360 0.049930 
#    y 0.027360 1.857200 0.020890 
#    z 0.049930 0.020890 1.891450 
# 
# From -- ./inp_files/278161.got.cif
#   From: 2010.05.17/outbox.cif.g08.bks.cpg/sg2_140_cif.got.tgz:278161.got - 2010.06.03 11:33:40.
