data_PCOD9026644
_publ_section_title
;
Structure prediction by ZEFSAII (Michael W. Deem and Ramdas Pophale) SiO2 
 PCOD9026644
Probable space group: P -1
;
_chemical_formula_sum "Si O2"
_cell_formula_units_Z 12
_cell_length_a 24.769647
_cell_length_b 11.080463
_cell_length_c 25.287466
_cell_angle_alpha 26.162540
_cell_angle_beta 11.684280
_cell_angle_gamma 24.826612
_cell_volume 587.007926
_symmetry_space_group_name_H-M "P -1"
_symmetry_group_IT_number 2
_symmetry_cell_setting 'triclinic'
loop_
_space_group_symop_operation_xyz
x,y,z
-x,-y,-z
loop_
_atom_site_type_symbol
_atom_site_label
_atom_site_fract_x
_atom_site_fract_y
_atom_site_fract_z
Si Si1 0.963893 0.327948 0.049621
Si Si2 0.864111 0.869985 0.756133
Si Si3 0.787274 0.911172 0.935862
Si Si4 0.608848 0.378145 0.716591
Si Si5 0.223860 0.213442 0.421757
Si Si6 0.411891 0.080464 0.410024
O O1 0.776062 0.123851 0.319321
O O2 0.825589 0.578280 0.041644
O O3 0.000000 0.500000 0.000000
O O4 0.269716 0.125244 0.819384
O O5 0.797302 0.964606 0.843074
O O6 0.191589 0.727106 0.484361
O O7 0.743876 0.143439 0.725307
O O8 0.697278 0.646447 0.990418
O O9 0.056133 0.981730 0.673993
O O10 0.501357 0.105071 0.161841
O O11 0.612712 0.683485 0.614116
O O12 0.318315 0.240115 0.380568
O O13 0.000000 0.500000 0.500000
#
# Coordination Sequence:
#
# PCOD9026644 Si02
#       6
#     2   2   2   2   2   2
#     4  12  23  42  63  89 130 173 202 249 309 374
#     4  10  22  42  64  89 124 164 205 252 316 364
#     4  12  24  41  63  92 125 165 209 248 314 370
#     4  10  22  41  65  89 123 164 204 258 308 366
#     4  12  24  38  63  95 126 154 202 269 315 366
#     4  12  23  41  64  94 124 164 215 249 310 370
#
# _framework density 20.442654000000001
#
# number of rings (size 3 to 8) (size 9 to 14) (size 15 to 20)
#    0.000    0.667    3.333    5.000    0.000    4.000 
#    0.000    5.000    0.000    0.000    0.000    0.000 
#    0.000    0.000    0.000    0.000    0.000    0.000 
#
# Total GULP energy -67138.157360 kJ/mol
# GULP energy per Si atom -5594.846447 kJ/mol
# Density = 2.039613 g / cm^3
# Si number density = 20.442654 Si / 1000 Ang^3
#
#
#
# Elastic Constant Matrix: (Units=GPa)
#
#
# Indices 1 2 3 4 5 6 
#
# 1 27.6488 -8.8211 6.8950 2.5878 10.5186 -0.0946
# 2 -8.8211 44.0279 25.9442 -3.1559 1.7383 6.2664
# 3 6.8950 25.9442 135.1778 3.8266 10.5329 15.4670
# 4 2.5878 -3.1559 3.8266 40.1673 6.9754 -7.0278
# 5 10.5186 1.7383 10.5329 6.9754 30.1377 -7.6553
# 6 -0.0946 6.2664 15.4670 -7.0278 -7.6553 33.5626
#
#
#
# Elastic Compliance Matrix: (Units=1/GPa)
#
#
# Indices 1 2 3 4 5 6 
#
# 1 0.047605 0.012688 -0.002951 0.000433 -0.017636 -0.004807
# 2 0.012688 0.029414 -0.005488 0.002353 -0.005700 -0.003735
# 3 -0.002951 -0.005488 0.009326 -0.001400 -0.002650 -0.004179
# 4 0.000433 0.002353 -0.001400 0.026849 -0.004810 0.004732
# 5 -0.017636 -0.005700 -0.002650 -0.004810 0.044601 0.011402
# 6 -0.004807 -0.003735 -0.004179 0.004732 0.011402 0.035996
#
#
# Mechanical properties :
#
#
# Convention : Reuss Voigt Hill
#
# Bulk Modulus (GPa) = 10.54377 28.32120 19.43248
# Shear Modulus (GPa) = 23.05141 32.96262 28.00701
#
# Velocity S-wave (km/s) = 3.36164 4.01988 3.70540
# Velocity P-wave (km/s) = 4.49849 5.95231 5.27572
#
# Compressibility (1/GPa) = 0.09484273
#
# Stress axis : x y z
#
# Youngs Moduli (GPa) = 21.00639 33.99743 107.23008
#
# Poissons Ratio (x) = -0.43137 0.31649
# Poissons Ratio (y) = -0.26654 0.58844
# Poissons Ratio (z) = 0.06200 0.18657
#
# Static dielectric constant tensor:
#      x y z
#    x 1.722420 -0.013760 0.004810 
#    y -0.013760 1.730770 -0.036590 
#    z 0.004810 -0.036590 1.708530 
# 
# From -- ./inp_files/28987.got.cif
#   From: 2010.05.17/outbox.cif.g08.bks.cpg/sg2_15_cif.got.tgz:28987.got - 2010.06.03 11:33:40.
