data_PCOD9026820
_publ_section_title
;
Structure prediction by ZEFSAII (Michael W. Deem and Ramdas Pophale) SiO2 
 PCOD9026820
Probable space group: P -1
;
_chemical_formula_sum "Si O2"
_cell_formula_units_Z 14
_cell_length_a 7.457347
_cell_length_b 14.861074
_cell_length_c 10.726876
_cell_angle_alpha 32.880959
_cell_angle_beta 124.800322
_cell_angle_gamma 120.737600
_cell_volume 528.609973
_symmetry_space_group_name_H-M "P -1"
_symmetry_group_IT_number 2
_symmetry_cell_setting 'triclinic'
loop_
_space_group_symop_operation_xyz
x,y,z
-x,-y,-z
loop_
_atom_site_type_symbol
_atom_site_label
_atom_site_fract_x
_atom_site_fract_y
_atom_site_fract_z
Si Si1 0.534833 0.523470 0.133947
Si Si2 0.825383 0.102811 0.544173
Si Si3 0.764257 0.199823 0.670277
Si Si4 0.248531 0.319768 0.415297
Si Si5 0.927793 0.761875 0.065841
Si Si6 0.736883 0.006411 0.363424
Si Si7 0.371582 0.768532 0.166637
O O1 0.685975 0.382991 0.410066
O O2 0.315488 0.489208 0.169421
O O3 0.689232 0.686769 0.028345
O O4 0.500000 0.500000 0.000000
O O5 0.713259 0.113814 0.620758
O O6 0.678652 0.070880 0.402714
O O7 0.998424 0.263592 0.413844
O O8 0.955449 0.939056 0.803743
O O9 0.665275 0.120316 0.851547
O O10 0.019434 0.214158 0.794758
O O11 0.408518 0.312865 0.607787
O O12 0.307187 0.176938 0.502251
O O13 0.132046 0.663208 0.207618
O O14 0.645046 0.136994 0.078419
O O15 0.000000 0.000000 0.500000
#
# Coordination Sequence:
#
# PCOD9026820 Si02
#       7
#     2   2   2   2   2   2   2
#     4  11  23  39  62  84 119 157 203 231 288 358
#     4  11  21  37  64  91 120 145 195 253 297 323
#     4   9  21  40  60  87 118 158 190 240 296 349
#     4  10  20  35  59  89 112 156 201 240 274 359
#     4  10  20  38  64  84 116 162 195 229 292 362
#     4  10  17  31  56  90 115 151 192 243 285 340
#     4   9  19  34  61  82 116 154 205 221 284 354
#
# _framework density 26.484552999999998
#
# number of rings (size 3 to 8) (size 9 to 14) (size 15 to 20)
#    0.857    1.143    2.857    2.143    2.000    0.000 
#    0.000    9.286    0.000    0.000    0.000    0.000 
#    0.000    0.000    0.000    0.000    0.000    0.000 
#
# Total GULP energy -78019.341457 kJ/mol
# GULP energy per Si atom -5572.810104 kJ/mol
# Density = 2.642427 g / cm^3
# Si number density = 26.484553 Si / 1000 Ang^3
#
#
#
# Elastic Constant Matrix: (Units=GPa)
#
#
# Indices 1 2 3 4 5 6 
#
# 1 66.9786 26.4891 30.3814 16.9680 -23.4632 -2.1882
# 2 26.4891 91.2371 23.9761 26.6787 -7.1752 16.7520
# 3 30.3814 23.9761 122.5558 42.2743 -17.9912 -2.8786
# 4 16.9680 26.6787 42.2743 42.1561 -8.3826 -20.4470
# 5 -23.4632 -7.1752 -17.9912 -8.3826 38.7222 9.0312
# 6 -2.1882 16.7520 -2.8786 -20.4470 9.0312 46.3627
#
#
#
# Elastic Compliance Matrix: (Units=1/GPa)
#
#
# Indices 1 2 3 4 5 6 
#
# 1 0.022066 -0.004245 -0.002355 -0.001888 0.011218 -0.000589
# 2 -0.004245 0.023638 0.006888 -0.030285 0.003673 -0.022385
# 3 -0.002355 0.006888 0.016839 -0.026074 0.005314 -0.014089
# 4 -0.001888 -0.030285 -0.026074 0.093031 -0.010952 0.052397
# 5 0.011218 0.003673 0.005314 -0.010952 0.036286 -0.012366
# 6 -0.000589 -0.022385 -0.014089 0.052397 -0.012366 0.054272
#
#
# Mechanical properties :
#
#
# Convention : Reuss Voigt Hill
#
# Bulk Modulus (GPa) = 15.84338 49.16273 32.50306
# Shear Modulus (GPa) = 18.75495 38.77653 28.76574
#
# Velocity S-wave (km/s) = 2.66399 3.83053 3.29923
# Velocity P-wave (km/s) = 3.93161 6.17795 5.17806
#
# Compressibility (1/GPa) = 0.06311784
#
# Stress axis : x y z
#
# Youngs Moduli (GPa) = 45.31761 42.30555 59.38531
#
# Poissons Ratio (x) = 0.17959 0.13988
# Poissons Ratio (y) = 0.19238 -0.40904
# Poissons Ratio (z) = 0.10674 -0.29140
#
# Static dielectric constant tensor:
#      x y z
#    x 2.354870 0.045220 0.016140 
#    y 0.045220 2.218400 -0.023110 
#    z 0.016140 -0.023110 2.014200 
# 
# From -- ./inp_files/402727.got.cif
#   From: 2010.05.17/outbox.cif.g08.bks.cpg/sg2_202_cif.got.tgz:402727.got - 2010.06.03 11:33:40.
