data_PCOD9026871
_publ_section_title
;
Structure prediction by ZEFSAII (Michael W. Deem and Ramdas Pophale) SiO2 
 PCOD9026871
Probable space group: P -1
;
_chemical_formula_sum "Si O2"
_cell_formula_units_Z 16
_cell_length_a 12.079335
_cell_length_b 5.633108
_cell_length_c 12.831521
_cell_angle_alpha 70.941379
_cell_angle_beta 115.181601
_cell_angle_gamma 114.584117
_cell_volume 706.549730
_symmetry_space_group_name_H-M "P -1"
_symmetry_group_IT_number 2
_symmetry_cell_setting 'triclinic'
loop_
_space_group_symop_operation_xyz
x,y,z
-x,-y,-z
loop_
_atom_site_type_symbol
_atom_site_label
_atom_site_fract_x
_atom_site_fract_y
_atom_site_fract_z
Si Si1 0.098316 0.339213 0.576067
Si Si2 0.928667 0.136485 0.246313
Si Si3 0.821155 0.905260 0.013547
Si Si4 0.997294 0.377551 0.903297
Si Si5 0.413306 0.463677 0.311964
Si Si6 0.287086 0.776145 0.710346
Si Si7 0.582060 0.935379 0.817274
Si Si8 0.304919 0.271873 0.516284
O O1 0.205824 0.483400 0.684236
O O2 0.183369 0.327788 0.511852
O O3 0.000000 0.500000 0.500000
O O4 0.021979 0.054418 0.634943
O O5 0.022978 0.433515 0.221530
O O6 0.799509 0.140251 0.252066
O O7 0.889039 0.022678 0.131733
O O8 0.674814 0.892270 0.950541
O O9 0.860410 0.643932 0.052699
O O10 0.890465 0.091741 0.915886
O O11 0.000000 0.500000 0.000000
O O12 0.395468 0.244110 0.245164
O O13 0.325143 0.332477 0.394117
O O14 0.562794 0.547811 0.398997
O O15 0.390849 0.746388 0.235541
O O16 0.430585 0.815968 0.798592
O O17 0.296116 0.972189 0.587106
#
# Coordination Sequence:
#
# PCOD9026871 Si02
#       8
#     2   2   2   2   2   2   2   2
#     4  11  23  43  63  98 133 178 230 277 338 408
#     4  10  22  42  66  93 131 180 219 275 341 400
#     4  10  22  42  67  97 131 175 220 282 336 408
#     4   9  20  42  63  88 128 173 224 275 333 395
#     4  10  22  41  66 100 134 178 224 283 342 401
#     4  10  22  42  64  92 137 174 222 278 337 410
#     4  11  24  41  69 103 138 172 230 279 343 404
#     4   9  21  40  65  89 134 179 222 281 341 396
#
# _framework density 22.645256
#
# number of rings (size 3 to 8) (size 9 to 14) (size 15 to 20)
#    0.000    2.000    1.250    0.750    5.250    4.000 
#   11.250    2.500    0.000    0.000    0.000    0.000 
#    0.000    0.000    0.000    0.000    0.000    0.000 
#
# Total GULP energy -89369.969783 kJ/mol
# GULP energy per Si atom -5585.623111 kJ/mol
# Density = 2.259371 g / cm^3
# Si number density = 22.645256 Si / 1000 Ang^3
#
#
#
# Elastic Constant Matrix: (Units=GPa)
#
#
# Indices 1 2 3 4 5 6 
#
# 1 70.0653 34.2740 40.2101 -10.2800 10.4046 -11.1362
# 2 34.2740 80.3728 24.5553 -20.8160 -5.4571 -12.2234
# 3 40.2101 24.5553 57.6272 -17.4284 -3.7800 -3.1480
# 4 -10.2800 -20.8160 -17.4284 35.3661 2.0187 -7.5707
# 5 10.4046 -5.4571 -3.7800 2.0187 33.8269 -0.0050
# 6 -11.1362 -12.2234 -3.1480 -7.5707 -0.0050 33.4299
#
#
#
# Elastic Compliance Matrix: (Units=1/GPa)
#
#
# Indices 1 2 3 4 5 6 
#
# 1 0.032868 -0.008888 -0.021073 -0.004267 -0.013643 0.004747
# 2 -0.008888 0.020065 0.001830 0.011338 0.005500 0.007117
# 3 -0.021073 0.001830 0.035484 0.011793 0.010038 -0.000337
# 4 -0.004267 0.011338 0.011793 0.042280 0.001938 0.013410
# 5 -0.013643 0.005500 0.010038 0.001938 0.035652 -0.001144
# 6 0.004747 0.007117 -0.000337 0.013410 -0.001144 0.037102
#
#
# Mechanical properties :
#
#
# Convention : Reuss Voigt Hill
#
# Bulk Modulus (GPa) = 31.09881 45.12714 38.11298
# Shear Modulus (GPa) = 18.48904 27.79298 23.14101
#
# Velocity S-wave (km/s) = 2.86048 3.50711 3.20017
# Velocity P-wave (km/s) = 4.96716 6.03083 5.52465
#
# Compressibility (1/GPa) = 0.03215557
#
# Stress axis : x y z
#
# Youngs Moduli (GPa) = 30.42471 49.83763 28.18192
#
# Poissons Ratio (x) = 0.44294 0.59388
# Poissons Ratio (y) = 0.27040 -0.05157
# Poissons Ratio (z) = 0.64114 -0.09121
#
# Static dielectric constant tensor:
#      x y z
#    x 1.835000 0.004710 0.017090 
#    y 0.004710 1.914430 -0.015800 
#    z 0.017090 -0.015800 1.844290 
# 
# From -- ./inp_files/70674.got.cif
#   From: 2010.05.17/outbox.cif.g08.bks.cpg/sg2_36_cif.got.tgz:70674.got - 2010.06.03 11:33:40.
