data_PCOD9026539
_publ_section_title
;
Structure prediction by ZEFSAII (Michael W. Deem and Ramdas Pophale) SiO2 
 PCOD9026539
Probable space group: P -1
;
_chemical_formula_sum "Si O2"
_cell_formula_units_Z 15
_cell_length_a 14.245671
_cell_length_b 26.078201
_cell_length_c 26.311889
_cell_angle_alpha 168.701150
_cell_angle_beta 158.220115
_cell_angle_gamma 23.592548
_cell_volume 708.342950
_symmetry_space_group_name_H-M "P -1"
_symmetry_group_IT_number 2
_symmetry_cell_setting 'triclinic'
loop_
_space_group_symop_operation_xyz
x,y,z
-x,-y,-z
loop_
_atom_site_type_symbol
_atom_site_label
_atom_site_fract_x
_atom_site_fract_y
_atom_site_fract_z
Si Si1 0.892779 0.995412 0.785522
Si Si2 0.461327 0.965962 0.623293
Si Si3 0.895644 0.154779 0.763020
Si Si4 0.209930 0.641169 0.390098
Si Si5 0.500000 0.000000 0.500000
Si Si6 0.164849 0.250080 0.318150
Si Si7 0.034772 0.274891 0.757511
Si Si8 0.787982 0.560575 0.588881
O O1 0.692012 0.024432 0.759253
O O2 0.734844 0.977336 0.637316
O O3 0.074262 0.730746 0.627856
O O4 0.048688 0.251354 0.112876
O O5 0.255859 0.835132 0.357339
O O6 0.582342 0.800175 0.569773
O O7 0.312283 0.227374 0.824935
O O8 0.692214 0.096568 0.646285
O O9 0.108179 0.912677 0.628872
O O10 0.028472 0.417163 0.096582
O O11 0.504374 0.561043 0.468016
O O12 0.161537 0.675637 0.338934
O O13 0.219924 0.307584 0.343045
O O14 0.000000 0.500000 0.500000
O O15 0.000000 0.000000 0.000000
O O16 0.000000 0.000000 0.500000
O O17 0.000000 0.500000 0.000000
#
# Coordination Sequence:
#
# PCOD9026539 Si02
#       8
#     2   2   2   2   1   2   2   2
#     4  11  25  44  70  99 130 177 221 291 347 393
#     4  10  22  41  64  95 135 171 231 277 323 397
#     4  10  24  44  72  98 129 176 227 287 338 396
#     4  11  24  43  65  97 140 179 218 272 343 404
#     4  10  26  50  78 100 128 164 238 292 354 404
#     4  12  23  38  62  98 139 184 225 263 332 395
#     4  11  23  38  61  92 131 184 230 269 318 389
#     4  12  24  43  65 100 144 178 222 271 337 414
#
# _framework density 21.176183000000002
#
# number of rings (size 3 to 8) (size 9 to 14) (size 15 to 20)
#    0.000    1.067    2.667    3.200    0.000   14.933 
#    0.000    4.000    0.000    0.000    0.000    0.000 
#    0.000    0.000    0.000    0.000    0.000    0.000 
#
# Total GULP energy -83678.507510 kJ/mol
# GULP energy per Si atom -5578.567167 kJ/mol
# Density = 2.112799 g / cm^3
# Si number density = 21.176183 Si / 1000 Ang^3
#
#
#
# Elastic Constant Matrix: (Units=GPa)
#
#
# Indices 1 2 3 4 5 6 
#
# 1 64.5580 29.4453 3.2504 1.3252 13.3180 12.0744
# 2 29.4453 111.2727 21.3695 -6.1654 -11.0841 -21.6014
# 3 3.2504 21.3695 65.4965 24.9566 3.2162 -14.8120
# 4 1.3252 -6.1654 24.9566 28.0173 -6.9160 -1.2293
# 5 13.3180 -11.0841 3.2162 -6.9160 5.3994 -12.0370
# 6 12.0744 -21.6014 -14.8120 -1.2293 -12.0370 30.2030
#
#
#
# Elastic Compliance Matrix: (Units=1/GPa)
#
#
# Indices 1 2 3 4 5 6 
#
# 1 0.007313 0.003742 -0.005738 0.012058 0.024898 0.007352
# 2 0.003742 0.004431 -0.000668 -0.004077 -0.020890 -0.007146
# 3 -0.005738 -0.000668 0.027627 -0.021603 0.008497 0.017872
# 4 0.012058 -0.004077 -0.021603 0.046174 -0.024859 -0.026358
# 5 0.024898 -0.020890 0.008497 -0.024859 -0.039958 -0.037664
# 6 0.007352 -0.007146 0.017872 -0.026358 -0.037664 0.017740
#
#
# Mechanical properties :
#
#
# Convention : Reuss Voigt Hill
#
# Bulk Modulus (GPa) = 29.37518 38.82862 34.10190
# Shear Modulus (GPa) = 62.49792 25.20807 43.85300
#
# Velocity S-wave (km/s) = 5.43851 3.45396 4.55561
# Velocity P-wave (km/s) = 7.30332 5.85510 6.61894
#
# Compressibility (1/GPa) = 0.03404235
#
# Stress axis : x y z
#
# Youngs Moduli (GPa) = 136.74308 225.68613 36.19707
#
# Poissons Ratio (x) = -0.84460 0.20770
# Poissons Ratio (y) = -0.51174 0.02419
# Poissons Ratio (z) = 0.78465 0.15082
#
# Static dielectric constant tensor:
#      x y z
#    x 1.770620 -0.011910 0.019180 
#    y -0.011910 1.763040 -0.018500 
#    z 0.019180 -0.018500 1.758250 
# 
# From -- ./inp_files/620013.got.cif
#   From: 2010.05.17/outbox.cif.g08.bks.cpg/sg2_311_cif.got.tgz:620013.got - 2010.06.03 11:33:40.
