data_PCOD9026699
_publ_section_title
;
Structure prediction by ZEFSAII (Michael W. Deem and Ramdas Pophale) SiO2 
 PCOD9026699
Probable space group: P -1
;
_chemical_formula_sum "Si O2"
_cell_formula_units_Z 16
_cell_length_a 14.129166
_cell_length_b 14.185696
_cell_length_c 12.118103
_cell_angle_alpha 131.326465
_cell_angle_beta 108.485451
_cell_angle_gamma 32.459455
_cell_volume 786.234435
_symmetry_space_group_name_H-M "P -1"
_symmetry_group_IT_number 2
_symmetry_cell_setting 'triclinic'
loop_
_space_group_symop_operation_xyz
x,y,z
-x,-y,-z
loop_
_atom_site_type_symbol
_atom_site_label
_atom_site_fract_x
_atom_site_fract_y
_atom_site_fract_z
Si Si1 0.822564 0.305767 0.692349
Si Si2 0.400576 0.473087 0.454173
Si Si3 0.799740 0.303786 0.212268
Si Si4 0.171977 0.373880 0.335230
Si Si5 0.639449 0.962893 0.231666
Si Si6 0.927270 0.776978 0.750186
Si Si7 0.469426 0.582463 0.928584
Si Si8 0.041740 0.573878 0.201321
O O1 0.686402 0.464265 0.650418
O O2 0.674965 0.424235 0.830477
O O3 0.924151 0.328967 0.767282
O O4 0.000000 0.000000 0.500000
O O5 0.500000 0.500000 0.500000
O O6 0.225208 0.671813 0.644932
O O7 0.572238 0.174154 0.323426
O O8 0.588634 0.472830 0.212616
O O9 0.860560 0.377580 0.258382
O O10 0.000000 0.000000 0.000000
O O11 0.144030 0.255453 0.221468
O O12 0.124990 0.489365 0.290858
O O13 0.993245 0.631397 0.550768
O O14 0.412264 0.140370 0.289524
O O15 0.788175 0.817356 0.282456
O O16 0.801423 0.704513 0.012372
O O17 0.731493 0.093888 0.902994
O O18 0.500000 0.500000 0.000000
#
# Coordination Sequence:
#
# PCOD9026699 Si02
#       8
#     2   2   2   2   2   2   2   2
#     4  12  26  42  70 103 140 178 232 289 344 407
#     4  12  23  42  70  99 133 181 229 284 341 405
#     4  10  22  41  65  92 133 173 223 271 335 408
#     4  11  22  43  73  89 140 174 226 287 330 414
#     4  11  24  42  67  98 137 174 225 285 345 405
#     4  10  23  43  64  99 124 184 229 263 348 407
#     4  11  26  43  65  98 142 179 220 284 343 409
#     4  11  25  43  67 103 134 178 228 288 343 406
#
# _framework density 20.350166000000002
#
# number of rings (size 3 to 8) (size 9 to 14) (size 15 to 20)
#    0.000    1.000    3.750    1.875    7.000    0.000 
#    6.750    1.250    0.000    0.000    0.000    0.000 
#    0.000    0.000    0.000    0.000    0.000    0.000 
#
# Total GULP energy -89310.693498 kJ/mol
# GULP energy per Si atom -5581.918344 kJ/mol
# Density = 2.030385 g / cm^3
# Si number density = 20.350166 Si / 1000 Ang^3
#
#
#
# Elastic Constant Matrix: (Units=GPa)
#
#
# Indices 1 2 3 4 5 6 
#
# 1 166.2556 25.6992 23.7104 4.0633 6.8431 -1.6146
# 2 25.6992 48.4846 17.6892 3.3580 -11.2680 1.5170
# 3 23.7104 17.6892 83.1784 10.8297 1.5681 15.2856
# 4 4.0633 3.3580 10.8297 31.6515 4.6445 3.4946
# 5 6.8431 -11.2680 1.5681 4.6445 41.1680 1.7487
# 6 -1.6146 1.5170 15.2856 3.4946 1.7487 28.7422
#
#
#
# Elastic Compliance Matrix: (Units=1/GPa)
#
#
# Indices 1 2 3 4 5 6 
#
# 1 0.006889 -0.003695 -0.001424 0.000155 -0.002181 0.001453
# 2 -0.003695 0.026258 -0.004524 -0.002025 0.008178 0.000561
# 3 -0.001424 -0.004524 0.015247 -0.003604 -0.000859 -0.007459
# 4 0.000155 -0.002025 -0.003604 0.033838 -0.004183 -0.001827
# 5 -0.002181 0.008178 -0.000859 -0.004183 0.027450 -0.001259
# 6 0.001453 0.000561 -0.007459 -0.001827 -0.001259 0.039110
#
#
# Mechanical properties :
#
#
# Convention : Reuss Voigt Hill
#
# Bulk Modulus (GPa) = 34.35674 48.01290 41.18482
# Shear Modulus (GPa) = 28.12452 35.70032 31.91242
#
# Velocity S-wave (km/s) = 3.72160 4.19298 3.96430
# Velocity P-wave (km/s) = 5.94865 6.86193 6.42155
#
# Compressibility (1/GPa) = 0.02910637
#
# Stress axis : x y z
#
# Youngs Moduli (GPa) = 145.15370 38.08385 65.58794
#
# Poissons Ratio (x) = 0.14073 0.09340
# Poissons Ratio (y) = 0.53638 0.29675
# Poissons Ratio (z) = 0.20670 0.17231
#
# Static dielectric constant tensor:
#      x y z
#    x 1.776940 -0.020010 0.003340 
#    y -0.020010 1.742270 0.007330 
#    z 0.003340 0.007330 1.713720 
# 
# From -- ./inp_files/281806.got.cif
#   From: 2010.05.17/outbox.cif.g08.bks.cpg/sg2_141_cif.got.tgz:281806.got - 2010.06.03 11:33:40.
