data_PCOD9026248
_publ_section_title
;
Structure prediction by ZEFSAII (Michael W. Deem and Ramdas Pophale) SiO2 
 PCOD9026248
Probable space group: P -1
;
_chemical_formula_sum "Si O2"
_cell_formula_units_Z 14
_cell_length_a 5.043679
_cell_length_b 5.323511
_cell_length_c 20.302513
_cell_angle_alpha 71.423383
_cell_angle_beta 83.593691
_cell_angle_gamma 79.882563
_cell_volume 507.782913
_symmetry_space_group_name_H-M "P -1"
_symmetry_group_IT_number 2
_symmetry_cell_setting 'triclinic'
loop_
_space_group_symop_operation_xyz
x,y,z
-x,-y,-z
loop_
_atom_site_type_symbol
_atom_site_label
_atom_site_fract_x
_atom_site_fract_y
_atom_site_fract_z
Si Si1 0.235408 0.316534 0.874455
Si Si2 0.037429 0.105284 0.291374
Si Si3 0.581103 0.476643 0.422202
Si Si4 0.296569 0.306172 0.728824
Si Si5 0.871538 0.826525 0.570820
Si Si6 0.279007 0.300518 0.014575
Si Si7 0.672958 0.682595 0.847720
O O1 0.354857 0.203826 0.810753
O O2 0.391915 0.569706 0.862552
O O3 0.918577 0.427082 0.864520
O O4 0.287411 0.151981 0.955622
O O5 0.829099 0.383627 0.279192
O O6 0.106082 0.047444 0.369644
O O7 0.279610 0.175579 0.233951
O O8 0.912964 0.876935 0.276759
O O9 0.500000 0.500000 0.500000
O O10 0.514742 0.663645 0.342978
O O11 0.906571 0.440223 0.416061
O O12 0.429800 0.226296 0.427874
O O13 0.000000 0.000000 0.500000
O O14 0.275552 0.168689 0.097742
O O15 0.500000 0.500000 0.000000
O O16 0.000000 0.500000 0.000000
#
# Coordination Sequence:
#
# PCOD9026248 Si02
#       7
#     2   2   2   2   2   2   2
#     4   9  17  33  55  85 118 157 200 249 302 361
#     4  10  22  41  63  91 124 163 206 254 307 366
#     4  11  23  41  64  94 126 164 206 255 308 367
#     4  10  22  41  63  91 124 163 206 254 307 366
#     4  11  23  41  64  94 126 164 206 255 308 367
#     4   8  14  26  51  80 114 152 196 244 298 356
#     4   9  17  33  55  85 118 157 200 249 302 361
#
# _framework density 27.570837000000001
#
# number of rings (size 3 to 8) (size 9 to 14) (size 15 to 20)
#    0.000    2.286    0.000    2.571    0.000    2.286 
#    0.000   17.857    0.000    0.000    0.000   30.000 
#    0.000    0.000    0.000    0.000    0.000    0.000 
#
# Total GULP energy -78246.268921 kJ/mol
# GULP energy per Si atom -5589.019209 kJ/mol
# Density = 2.750808 g / cm^3
# Si number density = 27.570837 Si / 1000 Ang^3
#
#
#
# Elastic Constant Matrix: (Units=GPa)
#
#
# Indices 1 2 3 4 5 6 
#
# 1 103.1623 25.9016 13.3997 4.7857 -9.1692 4.1656
# 2 25.9016 68.8024 36.9384 13.3176 9.8222 15.4452
# 3 13.3997 36.9384 275.8004 37.3102 25.8652 3.4618
# 4 4.7857 13.3176 37.3102 57.0571 5.0131 -12.1064
# 5 -9.1692 9.8222 25.8652 5.0131 49.6031 14.2661
# 6 4.1656 15.4452 3.4618 -12.1064 14.2661 50.2818
#
#
#
# Elastic Compliance Matrix: (Units=1/GPa)
#
#
# Indices 1 2 3 4 5 6 
#
# 1 0.011136 -0.004385 -0.000228 -0.000151 0.003206 -0.000506
# 2 -0.004385 0.019462 -0.001582 -0.004281 -0.001662 -0.006065
# 3 -0.000228 -0.001582 0.004319 -0.002238 -0.001807 0.000181
# 4 -0.000151 -0.004281 -0.002238 0.021775 -0.002338 0.007388
# 5 0.003206 -0.001662 -0.001807 -0.002338 0.024299 -0.007088
# 6 -0.000506 -0.006065 0.000181 0.007388 -0.007088 0.025570
#
#
# Mechanical properties :
#
#
# Convention : Reuss Voigt Hill
#
# Bulk Modulus (GPa) = 44.39150 66.69382 55.54266
# Shear Modulus (GPa) = 39.53791 56.15678 47.84735
#
# Velocity S-wave (km/s) = 3.79099 4.51801 4.17037
# Velocity P-wave (km/s) = 5.94121 7.17350 6.58624
#
# Compressibility (1/GPa) = 0.02252684
#
# Stress axis : x y z
#
# Youngs Moduli (GPa) = 89.79499 51.38138 231.54672
#
# Poissons Ratio (x) = 0.22532 0.05273
# Poissons Ratio (y) = 0.39377 0.36640
# Poissons Ratio (z) = 0.02045 0.08131
#
# Static dielectric constant tensor:
#      x y z
#    x 2.195590 -0.215800 0.085820 
#    y -0.215800 2.152350 -0.054880 
#    z 0.085820 -0.054880 2.242100 
# 
# From -- ./inp_files/120912.got.cif
#   From: 2010.05.17/outbox.cif.g08.bks.cpg/sg2_61_cif.got.tgz:120912.got - 2010.06.03 11:33:40.
