data_PCOD9026835
_publ_section_title
;
Structure prediction by ZEFSAII (Michael W. Deem and Ramdas Pophale) SiO2 
 PCOD9026835
Probable space group: P -1
;
_chemical_formula_sum "Si O2"
_cell_formula_units_Z 9
_cell_length_a 10.715029
_cell_length_b 12.857297
_cell_length_c 13.856368
_cell_angle_alpha 157.759414
_cell_angle_beta 149.887516
_cell_angle_gamma 31.245526
_cell_volume 347.373923
_symmetry_space_group_name_H-M "P -1"
_symmetry_group_IT_number 2
_symmetry_cell_setting 'triclinic'
loop_
_space_group_symop_operation_xyz
x,y,z
-x,-y,-z
loop_
_atom_site_type_symbol
_atom_site_label
_atom_site_fract_x
_atom_site_fract_y
_atom_site_fract_z
Si Si1 0.000000 0.000000 0.000000
Si Si2 0.047998 0.300218 0.767219
Si Si3 0.826137 0.038601 0.745818
Si Si4 0.461497 0.541321 0.810731
Si Si5 0.858284 0.524190 0.632339
O O1 0.802484 0.300715 0.176395
O O2 0.745562 0.958742 0.726925
O O3 0.862284 0.469695 0.702188
O O4 0.348034 0.257079 0.903180
O O5 0.000000 0.000000 0.500000
O O6 0.000000 0.500000 0.000000
O O7 0.641923 0.293428 0.784053
O O8 0.940953 0.769516 0.524664
O O9 0.039065 0.192999 0.071604
O O10 0.390147 0.455913 0.582173
#
# Coordination Sequence:
#
# PCOD9026835 Si02
#       5
#     1   2   2   2   2
#     4  10  22  42  70 100 130 174 216 264 330 388
#     4  11  24  43  67  95 129 172 220 269 322 384
#     4  10  22  41  65  98 136 170 213 266 323 391
#     4  10  23  43  68  97 136 171 216 271 324 387
#     4  10  23  42  66  97 130 173 219 264 328 386
#
# _framework density 25.90868
#
# number of rings (size 3 to 8) (size 9 to 14) (size 15 to 20)
#    0.000    1.778    0.000    3.333    0.000   16.000 
#    0.000   20.000    0.000    0.000    0.000    0.000 
#    0.000    0.000    0.000    0.000    0.000    0.000 
#
# Total GULP energy -50236.622880 kJ/mol
# GULP energy per Si atom -5581.846987 kJ/mol
# Density = 2.584971 g / cm^3
# Si number density = 25.908680 Si / 1000 Ang^3
#
#
#
# Elastic Constant Matrix: (Units=GPa)
#
#
# Indices 1 2 3 4 5 6 
#
# 1 111.0030 58.6380 57.5054 -6.6853 -22.2652 34.1731
# 2 58.6380 155.0240 77.8332 4.2920 3.3090 42.5827
# 3 57.5054 77.8332 189.8647 -0.5844 -5.1891 23.7576
# 4 -6.6853 4.2920 -0.5844 59.5438 -1.9060 -13.9407
# 5 -22.2652 3.3090 -5.1891 -1.9060 70.2438 -12.1819
# 6 34.1731 42.5827 23.7576 -13.9407 -12.1819 54.9366
#
#
#
# Elastic Compliance Matrix: (Units=1/GPa)
#
#
# Indices 1 2 3 4 5 6 
#
# 1 0.013919 -0.003019 -0.002341 0.000875 0.003664 -0.004272
# 2 -0.003019 0.011038 -0.002846 -0.002855 -0.002948 -0.006826
# 3 -0.002341 -0.002846 0.007062 0.000167 0.000032 0.000658
# 4 0.000875 -0.002855 0.000167 0.018766 0.002117 0.006829
# 5 0.003664 -0.002948 0.000032 0.002117 0.016315 0.004147
# 6 -0.004272 -0.006826 0.000658 0.006829 0.004147 0.028519
#
#
# Mechanical properties :
#
#
# Convention : Reuss Voigt Hill
#
# Bulk Modulus (GPa) = 64.07109 93.76056 78.91582
# Shear Modulus (GPa) = 42.65023 54.40585 48.52804
#
# Velocity S-wave (km/s) = 4.06171 4.58745 4.33256
# Velocity P-wave (km/s) = 6.83959 8.02041 7.45342
#
# Compressibility (1/GPa) = 0.01560766
#
# Stress axis : x y z
#
# Youngs Moduli (GPa) = 71.84594 90.59464 141.60909
#
# Poissons Ratio (x) = 0.27346 0.33149
# Poissons Ratio (y) = 0.21687 0.40302
# Poissons Ratio (z) = 0.16818 0.25783
#
# Static dielectric constant tensor:
#      x y z
#    x 2.304280 0.163490 0.046810 
#    y 0.163490 2.127210 -0.097240 
#    z 0.046810 -0.097240 2.165320 
# 
# From -- ./inp_files/62684.got.cif
#   From: 2010.05.17/outbox.cif.g08.bks.cpg/sg2_32_cif.got.tgz:62684.got - 2010.06.03 11:33:40.
