data_PCOD9026178
_publ_section_title
;
Structure prediction by ZEFSAII (Michael W. Deem and Ramdas Pophale) SiO2 
 PCOD9026178
Probable space group: P -1
;
_chemical_formula_sum "Si O2"
_cell_formula_units_Z 14
_cell_length_a 7.313814
_cell_length_b 5.247792
_cell_length_c 18.341627
_cell_angle_alpha 95.574849
_cell_angle_beta 62.505230
_cell_angle_gamma 123.122281
_cell_volume 511.465265
_symmetry_space_group_name_H-M "P -1"
_symmetry_group_IT_number 2
_symmetry_cell_setting 'triclinic'
loop_
_space_group_symop_operation_xyz
x,y,z
-x,-y,-z
loop_
_atom_site_type_symbol
_atom_site_label
_atom_site_fract_x
_atom_site_fract_y
_atom_site_fract_z
Si Si1 0.944240 0.141871 0.386752
Si Si2 0.532141 0.726334 0.324841
Si Si3 0.322212 0.934328 0.917546
Si Si4 0.751888 0.553880 0.489890
Si Si5 0.212418 0.462870 0.209915
Si Si6 0.693996 0.830875 0.935241
Si Si7 0.247378 0.641126 0.775056
O O1 0.819855 0.315228 0.445707
O O2 0.179843 0.373612 0.297553
O O3 0.748143 0.922782 0.352710
O O4 0.950943 0.898252 0.431312
O O5 0.294547 0.506332 0.416410
O O6 0.631048 0.547104 0.260068
O O7 0.558737 0.013546 0.284842
O O8 0.504505 0.266610 0.854130
O O9 0.522686 0.900549 0.922349
O O10 0.194408 0.690301 0.869283
O O11 0.170910 0.947171 0.013624
O O12 0.500000 0.500000 0.500000
O O13 0.142765 0.196950 0.155721
O O14 0.008735 0.533842 0.229240
O O15 0.500000 0.500000 0.000000
#
# Coordination Sequence:
#
# PCOD9026178 Si02
#       7
#     2   2   2   2   2   2   2
#     4  10  19  31  58  90 120 162 207 250 302 356
#     4  10  20  36  56  93 129 161 208 255 301 367
#     4  10  23  42  64  89 124 165 201 253 318 365
#     4  10  17  31  55  86 126 162 202 253 302 355
#     4  10  22  38  64  92 124 158 210 258 300 370
#     4   9  21  42  64  89 121 161 206 250 308 380
#     4  11  24  38  65  95 126 162 208 255 306 363
#
# _framework density 27.372337000000002
#
# number of rings (size 3 to 8) (size 9 to 14) (size 15 to 20)
#    0.000    2.000    0.000    6.000   10.000    0.571 
#    0.000    6.429    0.000    5.143    0.000    0.000 
#    0.000    0.000    0.000    0.000    0.000    0.000 
#
# Total GULP energy -78369.160322 kJ/mol
# GULP energy per Si atom -5597.797166 kJ/mol
# Density = 2.731004 g / cm^3
# Si number density = 27.372337 Si / 1000 Ang^3
#
#
#
# Elastic Constant Matrix: (Units=GPa)
#
#
# Indices 1 2 3 4 5 6 
#
# 1 93.1400 -2.4816 24.9502 18.1300 13.0003 -25.4934
# 2 -2.4816 136.3661 64.5121 -15.7043 2.1333 -31.4756
# 3 24.9502 64.5121 219.2731 16.7863 38.0448 -23.4732
# 4 18.1300 -15.7043 16.7863 65.1763 -0.6410 -6.5136
# 5 13.0003 2.1333 38.0448 -0.6410 47.7780 -5.7671
# 6 -25.4934 -31.4756 -23.4732 -6.5136 -5.7671 32.5118
#
#
#
# Elastic Compliance Matrix: (Units=1/GPa)
#
#
# Indices 1 2 3 4 5 6 
#
# 1 0.015764 0.003972 -0.000895 -0.001732 -0.001984 0.014861
# 2 0.003972 0.012867 -0.003544 0.004378 0.002966 0.014416
# 3 -0.000895 -0.003544 0.006694 -0.002447 -0.005044 -0.000685
# 4 -0.001732 0.004378 -0.002447 0.018069 0.003105 0.005285
# 5 -0.001984 0.002966 -0.005044 0.003105 0.025741 0.002862
# 6 0.014861 0.014416 -0.000685 0.005285 0.002862 0.057440
#
#
# Mechanical properties :
#
#
# Convention : Reuss Voigt Hill
#
# Bulk Modulus (GPa) = 29.07670 69.19339 49.13505
# Shear Modulus (GPa) = 33.56306 53.21313 43.38809
#
# Velocity S-wave (km/s) = 3.50547 4.41392 3.98566
# Velocity P-wave (km/s) = 5.19905 7.16313 6.25861
#
# Compressibility (1/GPa) = 0.03439179
#
# Stress axis : x y z
#
# Youngs Moduli (GPa) = 63.43700 77.71520 149.38008
#
# Poissons Ratio (x) = -0.30868 0.13364
# Poissons Ratio (y) = -0.25197 0.52943
# Poissons Ratio (z) = 0.05675 0.27544
#
# Static dielectric constant tensor:
#      x y z
#    x 2.222140 0.243240 -0.015000 
#    y 0.243240 2.408110 -0.038950 
#    z -0.015000 -0.038950 2.162380 
# 
# From -- ./inp_files/553613.got.cif
#   From: 2010.05.17/outbox.cif.g08.bks.cpg/sg2_277_cif.got.tgz:553613.got - 2010.06.03 11:33:40.
