data_PCOD9026927
_publ_section_title
;
Structure prediction by ZEFSAII (Michael W. Deem and Ramdas Pophale) SiO2 
 PCOD9026927
Probable space group: P -1
;
_chemical_formula_sum "Si O2"
_cell_formula_units_Z 16
_cell_length_a 9.066610
_cell_length_b 16.110782
_cell_length_c 15.489251
_cell_angle_alpha 37.398980
_cell_angle_beta 132.320010
_cell_angle_gamma 102.329868
_cell_volume 709.812860
_symmetry_space_group_name_H-M "P -1"
_symmetry_group_IT_number 2
_symmetry_cell_setting 'triclinic'
loop_
_space_group_symop_operation_xyz
x,y,z
-x,-y,-z
loop_
_atom_site_type_symbol
_atom_site_label
_atom_site_fract_x
_atom_site_fract_y
_atom_site_fract_z
Si Si1 0.879399 0.093526 0.163613
Si Si2 0.857029 0.921110 0.018446
Si Si3 0.701599 0.468321 0.032305
Si Si4 0.693950 0.197522 0.177869
Si Si5 0.999606 0.727816 0.049834
Si Si6 0.800804 0.679050 0.538167
Si Si7 0.844993 0.831152 0.272100
Si Si8 0.481798 0.844248 0.686374
O O1 0.653121 0.170811 0.085923
O O2 0.152947 0.012230 0.392753
O O3 0.816639 0.242225 0.947357
O O4 0.946338 0.921039 0.283681
O O5 0.523044 0.118600 0.739114
O O6 0.928549 0.804645 0.055864
O O7 0.947367 0.792442 0.246122
O O8 0.000000 0.000000 0.000000
O O9 0.686546 0.365822 0.035925
O O10 0.013101 0.330790 0.309597
O O11 0.500000 0.500000 0.000000
O O12 0.603616 0.670820 0.811728
O O13 0.492504 0.235379 0.141239
O O14 0.000000 0.000000 0.500000
O O15 0.149762 0.507365 0.281697
O O16 0.695536 0.864526 0.765531
O O17 0.915391 0.672813 0.494781
O O18 0.500000 0.000000 0.000000
#
# Coordination Sequence:
#
# PCOD9026927 Si02
#       8
#     2   2   2   2   2   2   2   2
#     4  11  21  39  62  93 129 165 208 263 323 377
#     4  11  24  45  66  91 129 173 214 265 329 372
#     4   9  17  36  58  93 130 160 204 260 319 377
#     4   9  18  30  57  86 120 164 201 250 310 373
#     4  11  24  42  64  97 129 166 211 264 328 384
#     4  10  23  42  68  94 128 166 216 271 313 381
#     4  10  22  41  66  90 121 168 218 265 311 379
#     4   9  20  36  61  90 126 163 206 260 313 389
#
# _framework density 22.541152
#
# number of rings (size 3 to 8) (size 9 to 14) (size 15 to 20)
#    0.000    2.000    1.250    2.625    7.000    1.000 
#    2.250    3.750    0.000    0.000    0.000    0.000 
#    0.000    0.000    0.000    0.000    0.000    0.000 
#
# Total GULP energy -89255.989329 kJ/mol
# GULP energy per Si atom -5578.499333 kJ/mol
# Density = 2.248985 g / cm^3
# Si number density = 22.541152 Si / 1000 Ang^3
#
#
#
# Elastic Constant Matrix: (Units=GPa)
#
#
# Indices 1 2 3 4 5 6 
#
# 1 97.1856 21.6391 15.6322 2.6320 -19.4019 1.0845
# 2 21.6391 84.5425 -4.5584 -3.6474 -3.4105 -12.8622
# 3 15.6322 -4.5584 22.1629 -1.1016 -4.1599 -7.6035
# 4 2.6320 -3.6474 -1.1016 22.9254 2.9130 -0.5367
# 5 -19.4019 -3.4105 -4.1599 2.9130 27.7210 3.5990
# 6 1.0845 -12.8622 -7.6035 -0.5367 3.5990 32.4924
#
#
#
# Elastic Compliance Matrix: (Units=1/GPa)
#
#
# Indices 1 2 3 4 5 6 
#
# 1 0.015817 -0.005627 -0.013104 -0.004752 0.009818 -0.006988
# 2 -0.005627 0.015238 0.009937 0.004028 -0.002145 0.008849
# 3 -0.013104 0.009937 0.063090 0.006790 -0.001719 0.019437
# 4 -0.004752 0.004028 0.006790 0.046175 -0.007302 0.004913
# 5 0.009818 -0.002145 -0.001719 -0.007302 0.044045 -0.006578
# 6 -0.006988 0.008849 0.019437 0.004913 -0.006578 0.039871
#
#
# Mechanical properties :
#
#
# Convention : Reuss Voigt Hill
#
# Bulk Modulus (GPa) = 13.06244 29.92410 21.49327
# Shear Modulus (GPa) = 18.70245 28.03962 23.37104
#
# Velocity S-wave (km/s) = 2.88358 3.53077 3.22346
# Velocity P-wave (km/s) = 4.11026 5.47046 4.83839
#
# Compressibility (1/GPa) = 0.07655537
#
# Stress axis : x y z
#
# Youngs Moduli (GPa) = 63.22281 65.62563 15.85033
#
# Poissons Ratio (x) = 0.36928 0.20771
# Poissons Ratio (y) = 0.35576 -0.15750
# Poissons Ratio (z) = 0.82850 -0.65209
#
# Static dielectric constant tensor:
#      x y z
#    x 1.882080 0.011420 -0.021930 
#    y 0.011420 1.803000 0.028340 
#    z -0.021930 0.028340 1.883020 
# 
# From -- ./inp_files/382965.got.cif
#   From: 2010.05.17/outbox.cif.g08.bks.cpg/sg2_192_cif.got.tgz:382965.got - 2010.06.03 11:33:40.
