data_PCOD9026253
_publ_section_title
;
Structure prediction by ZEFSAII (Michael W. Deem and Ramdas Pophale) SiO2 
 PCOD9026253
Probable space group: P -1
;
_chemical_formula_sum "Si O2"
_cell_formula_units_Z 16
_cell_length_a 9.712147
_cell_length_b 26.294957
_cell_length_c 9.295070
_cell_angle_alpha 31.408476
_cell_angle_beta 134.102374
_cell_angle_gamma 133.333116
_cell_volume 860.905330
_symmetry_space_group_name_H-M "P -1"
_symmetry_group_IT_number 2
_symmetry_cell_setting 'triclinic'
loop_
_space_group_symop_operation_xyz
x,y,z
-x,-y,-z
loop_
_atom_site_type_symbol
_atom_site_label
_atom_site_fract_x
_atom_site_fract_y
_atom_site_fract_z
Si Si1 0.751255 0.232088 0.811480
Si Si2 0.269781 0.963062 0.384817
Si Si3 0.716735 0.479750 0.697852
Si Si4 0.908001 0.343503 0.369275
Si Si5 0.009637 0.246518 0.391863
Si Si6 0.008565 0.928514 0.546536
Si Si7 0.699399 0.873565 0.221023
Si Si8 0.879570 0.400889 0.731694
O O1 0.791135 0.277082 0.572752
O O2 0.533559 0.162580 0.844735
O O3 0.777336 0.322698 0.725052
O O4 0.906401 0.165490 0.118002
O O5 0.177554 0.844762 0.571068
O O6 0.150911 0.984230 0.387340
O O7 0.500000 0.000000 0.500000
O O8 0.239242 0.025364 0.072372
O O9 0.500000 0.500000 0.500000
O O10 0.739167 0.431898 0.674066
O O11 0.897455 0.579151 0.610208
O O12 0.768618 0.405119 0.037528
O O13 0.980299 0.277720 0.457806
O O14 0.201475 0.205406 0.598800
O O15 0.013102 0.342753 0.062134
O O16 0.798684 0.890145 0.409300
O O17 0.000000 0.000000 0.500000
O O18 0.000000 0.500000 0.500000
#
# Coordination Sequence:
#
# PCOD9026253 Si02
#       8
#     2   2   2   2   2   2   2   2
#     4  12  24  42  63  97 130 165 217 260 321 380
#     4  11  21  43  66  93 127 170 216 263 324 385
#     4  10  23  43  65  91 125 167 216 256 323 372
#     4  10  24  41  61  93 129 162 209 270 309 377
#     4  10  22  41  63  91 127 166 213 259 320 381
#     4  11  25  42  64  96 132 166 214 267 318 379
#     4  11  24  42  66  92 128 170 216 260 328 383
#     4  11  21  42  66  91 132 168 206 269 310 378
#
# _framework density 18.585087999999999
#
# number of rings (size 3 to 8) (size 9 to 14) (size 15 to 20)
#    0.000    1.250    5.000    1.500    5.250    3.500 
#    0.000    1.250    0.000    0.000    0.000    0.000 
#    0.000    0.000    0.000    0.000    0.000    0.000 
#
# Total GULP energy -89336.780950 kJ/mol
# GULP energy per Si atom -5583.548809 kJ/mol
# Density = 1.854279 g / cm^3
# Si number density = 18.585088 Si / 1000 Ang^3
#
#
#
# Elastic Constant Matrix: (Units=GPa)
#
#
# Indices 1 2 3 4 5 6 
#
# 1 67.4468 48.4357 46.9881 -1.8733 -13.1531 -25.5237
# 2 48.4357 92.1884 35.6439 -0.9401 0.1435 -19.2472
# 3 46.9881 35.6439 116.5506 -6.1567 -11.9167 0.5285
# 4 -1.8733 -0.9401 -6.1567 25.8498 2.8809 -0.2953
# 5 -13.1531 0.1435 -11.9167 2.8809 38.2006 -2.0309
# 6 -25.5237 -19.2472 0.5285 -0.2953 -2.0309 39.1779
#
#
#
# Elastic Compliance Matrix: (Units=1/GPa)
#
#
# Indices 1 2 3 4 5 6 
#
# 1 0.044961 -0.013860 -0.012751 -0.001455 0.012904 0.023312
# 2 -0.013860 0.018270 -0.000507 0.000096 -0.005023 -0.000307
# 3 -0.012751 -0.000507 0.013971 0.002360 -0.000674 -0.008761
# 4 -0.001455 0.000096 0.002360 0.039446 -0.002781 -0.000779
# 5 0.012904 -0.005023 -0.000674 -0.002781 0.031040 0.007537
# 6 0.023312 -0.000307 -0.008761 -0.000779 0.007537 0.041064
#
#
# Mechanical properties :
#
#
# Convention : Reuss Voigt Hill
#
# Bulk Modulus (GPa) = 43.54106 59.81349 51.67728
# Shear Modulus (GPa) = 19.94864 30.32020 25.13442
#
# Velocity S-wave (km/s) = 3.27978 4.04347 3.68148
# Velocity P-wave (km/s) = 6.14992 7.35208 6.77770
#
# Compressibility (1/GPa) = 0.02296683
#
# Stress axis : x y z
#
# Youngs Moduli (GPa) = 22.24140 54.73389 71.57721
#
# Poissons Ratio (x) = 0.75864 0.91266
# Poissons Ratio (y) = 0.30828 0.03626
# Poissons Ratio (z) = 0.28359 0.02773
#
# Static dielectric constant tensor:
#      x y z
#    x 1.609460 -0.008820 0.002790 
#    y -0.008820 1.637590 0.006590 
#    z 0.002790 0.006590 1.656360 
# 
# From -- ./inp_files/227267.got.cif
#   From: 2010.05.17/outbox.cif.g08.bks.cpg/sg2_114_cif.got.tgz:227267.got - 2010.06.03 11:33:40.
