data_PCOD9026936
_publ_section_title
;
Structure prediction by ZEFSAII (Michael W. Deem and Ramdas Pophale) SiO2 
 PCOD9026936
Probable space group: P -1
;
_chemical_formula_sum "Si O2"
_cell_formula_units_Z 16
_cell_length_a 8.833257
_cell_length_b 10.217503
_cell_length_c 15.552548
_cell_angle_alpha 98.277824
_cell_angle_beta 47.615913
_cell_angle_gamma 64.215144
_cell_volume 703.537327
_symmetry_space_group_name_H-M "P -1"
_symmetry_group_IT_number 2
_symmetry_cell_setting 'triclinic'
loop_
_space_group_symop_operation_xyz
x,y,z
-x,-y,-z
loop_
_atom_site_type_symbol
_atom_site_label
_atom_site_fract_x
_atom_site_fract_y
_atom_site_fract_z
Si Si1 0.672836 0.596926 0.722230
Si Si2 0.342766 0.195094 0.766444
Si Si3 0.805182 0.605037 0.984852
Si Si4 0.461127 0.861151 0.981769
Si Si5 0.325921 0.576585 0.754574
Si Si6 0.324645 0.226747 0.428892
Si Si7 0.175451 0.843879 0.693390
Si Si8 0.191887 0.857587 0.493827
O O1 0.625279 0.734833 0.822162
O O2 0.373669 0.651401 0.824486
O O3 0.697529 0.653919 0.625604
O O4 0.981366 0.374234 0.605142
O O5 0.531504 0.170093 0.614419
O O6 0.992676 0.381146 0.897898
O O7 0.503183 0.980207 0.695905
O O8 0.367846 0.273191 0.850576
O O9 0.596889 0.714053 0.993834
O O10 0.056492 0.602151 0.876065
O O11 0.500000 0.000000 0.000000
O O12 0.112898 0.988721 0.122821
O O13 0.282613 0.660759 0.684418
O O14 0.646104 0.355036 0.609924
O O15 0.552827 0.181480 0.405773
O O16 0.067992 0.893932 0.640394
O O17 0.000000 0.000000 0.500000
#
# Coordination Sequence:
#
# PCOD9026936 Si02
#       8
#     2   2   2   2   2   2   2   2
#     4  10  24  41  68 101 135 167 227 276 346 386
#     4  10  22  41  66  90 136 184 220 262 334 404
#     4  10  22  41  67 100 131 178 225 272 336 399
#     4  12  24  41  66 102 131 170 216 285 334 399
#     4  10  22  42  69 100 131 175 221 289 328 397
#     4  10  23  43  66  99 135 180 216 282 327 404
#     4  11  25  40  69 101 131 173 231 275 340 390
#     4  11  23  41  65  94 137 180 227 268 330 406
#
# _framework density 22.742218000000001
#
# number of rings (size 3 to 8) (size 9 to 14) (size 15 to 20)
#    0.000    1.500    1.250    2.625    5.250    4.500 
#    2.250    0.625    0.000    0.000    0.000    0.000 
#    0.000    0.000    0.000    0.000    0.000    0.000 
#
# Total GULP energy -89185.750327 kJ/mol
# GULP energy per Si atom -5574.109395 kJ/mol
# Density = 2.269046 g / cm^3
# Si number density = 22.742218 Si / 1000 Ang^3
#
#
#
# Elastic Constant Matrix: (Units=GPa)
#
#
# Indices 1 2 3 4 5 6 
#
# 1 56.9228 17.7047 24.2787 9.3054 -8.5465 -17.6447
# 2 17.7047 86.4320 22.7524 20.0425 -6.9352 -32.2410
# 3 24.2787 22.7524 82.0700 9.3029 -6.7453 -11.7822
# 4 9.3054 20.0425 9.3029 39.0881 -3.0897 -0.9628
# 5 -8.5465 -6.9352 -6.7453 -3.0897 22.6896 -5.4427
# 6 -17.6447 -32.2410 -11.7822 -0.9628 -5.4427 36.1375
#
#
#
# Elastic Compliance Matrix: (Units=1/GPa)
#
#
# Indices 1 2 3 4 5 6 
#
# 1 0.026647 0.004962 -0.004902 -0.006218 0.013497 0.017706
# 2 0.004962 0.024076 -0.002224 -0.011360 0.012976 0.024829
# 3 -0.004902 -0.002224 0.014607 -0.001009 0.001831 0.000634
# 4 -0.006218 -0.011360 -0.001009 0.032411 -0.004909 -0.013376
# 5 0.013497 0.012976 0.001831 -0.004909 0.059623 0.027613
# 6 0.017706 0.024829 0.000634 -0.013376 0.027613 0.062479
#
#
# Mechanical properties :
#
#
# Convention : Reuss Voigt Hill
#
# Bulk Modulus (GPa) = 16.39294 39.43294 27.91294
# Shear Modulus (GPa) = 20.44946 30.29563 25.37255
#
# Velocity S-wave (km/s) = 3.00189 3.65380 3.34377
# Velocity P-wave (km/s) = 4.38622 5.93102 5.21613
#
# Compressibility (1/GPa) = 0.06100187
#
# Stress axis : x y z
#
# Youngs Moduli (GPa) = 37.52786 41.53498 68.45891
#
# Poissons Ratio (x) = -0.20609 0.33561
# Poissons Ratio (y) = -0.18621 0.15224
# Poissons Ratio (z) = 0.18397 0.09236
#
# Static dielectric constant tensor:
#      x y z
#    x 1.933810 0.032650 -0.028000 
#    y 0.032650 1.894160 0.061270 
#    z -0.028000 0.061270 1.887700 
# 
# From -- ./inp_files/500548.got.cif
#   From: 2010.05.17/outbox.cif.g08.bks.cpg/sg2_251_cif.got.tgz:500548.got - 2010.06.03 11:33:40.
