data_PCOD9026370
_publ_section_title
;
Structure prediction by ZEFSAII (Michael W. Deem and Ramdas Pophale) SiO2 
 PCOD9026370
Probable space group: P -1
;
_chemical_formula_sum "Si O2"
_cell_formula_units_Z 16
_cell_length_a 13.775638
_cell_length_b 7.929722
_cell_length_c 13.592929
_cell_angle_alpha 121.038088
_cell_angle_beta 32.026428
_cell_angle_gamma 123.596108
_cell_volume 652.255659
_symmetry_space_group_name_H-M "P -1"
_symmetry_group_IT_number 2
_symmetry_cell_setting 'triclinic'
loop_
_space_group_symop_operation_xyz
x,y,z
-x,-y,-z
loop_
_atom_site_type_symbol
_atom_site_label
_atom_site_fract_x
_atom_site_fract_y
_atom_site_fract_z
Si Si1 0.814433 0.771268 0.902169
Si Si2 0.456063 0.623802 0.771830
Si Si3 0.947644 0.028409 0.687150
Si Si4 0.037257 0.511565 0.165790
Si Si5 0.515594 0.102958 0.666231
Si Si6 0.313735 0.912257 0.288190
Si Si7 0.576290 0.701864 0.898838
Si Si8 0.622859 0.317184 0.430452
O O1 0.925938 0.630521 0.819078
O O2 0.672972 0.648760 0.900561
O O3 0.941579 0.959258 0.786891
O O4 0.683988 0.854700 0.116156
O O5 0.537280 0.866043 0.771466
O O6 0.534484 0.571745 0.796581
O O7 0.532688 0.505087 0.585167
O O8 0.230027 0.558926 0.951540
O O9 0.103440 0.936284 0.474017
O O10 0.989760 0.269063 0.713156
O O11 0.739243 0.907872 0.794879
O O12 0.845159 0.396886 0.242243
O O13 0.658128 0.176329 0.655138
O O14 0.478365 0.860488 0.609019
O O15 0.595421 0.206824 0.527504
O O16 0.388387 0.772416 0.106134
#
# Coordination Sequence:
#
# PCOD9026370 Si02
#       8
#     2   2   2   2   2   2   2   2
#     4   9  21  44  66  94 132 173 215 269 325 383
#     4  12  23  42  63  99 132 168 221 266 323 392
#     4  10  22  41  64 102 129 173 219 262 325 389
#     4  12  22  41  66  97 133 170 220 264 325 389
#     4  10  22  47  67  90 131 170 219 271 336 379
#     4  11  21  42  68  90 131 173 212 269 323 387
#     4   9  23  41  63  96 133 174 211 268 327 380
#     4  11  25  42  66  97 125 172 220 273 324 393
#
# _framework density 24.530256999999999
#
# number of rings (size 3 to 8) (size 9 to 14) (size 15 to 20)
#    0.750    0.750    3.750    1.125    0.000    3.000 
#    2.250    1.875    0.000    0.000    0.000    0.000 
#    0.000    0.000    0.000    0.000    0.000    0.000 
#
# Total GULP energy -89529.429437 kJ/mol
# GULP energy per Si atom -5595.589340 kJ/mol
# Density = 2.447443 g / cm^3
# Si number density = 24.530257 Si / 1000 Ang^3
#
#
#
# Elastic Constant Matrix: (Units=GPa)
#
#
# Indices 1 2 3 4 5 6 
#
# 1 55.3232 0.9634 30.1296 9.6758 11.5583 -7.3843
# 2 0.9634 88.1006 18.3658 20.5735 6.1537 -12.6775
# 3 30.1296 18.3658 96.1398 3.0499 -14.0874 -3.1446
# 4 9.6758 20.5735 3.0499 35.9273 -2.6730 -2.1997
# 5 11.5583 6.1537 -14.0874 -2.6730 28.7485 4.4547
# 6 -7.3843 -12.6775 -3.1446 -2.1997 4.4547 40.3459
#
#
#
# Elastic Compliance Matrix: (Units=1/GPa)
#
#
# Indices 1 2 3 4 5 6 
#
# 1 0.037700 0.010625 -0.017230 -0.016254 -0.029125 0.011225
# 2 0.010625 0.018207 -0.008281 -0.013192 -0.014681 0.007922
# 3 -0.017230 -0.008281 0.019865 0.008833 0.020178 -0.005954
# 4 -0.016254 -0.013192 0.008833 0.039999 0.018379 -0.006280
# 5 -0.029125 -0.014681 0.020178 0.018379 0.063461 -0.014376
# 6 0.011225 0.007922 -0.005954 -0.006280 -0.014376 0.030110
#
#
# Mechanical properties :
#
#
# Convention : Reuss Voigt Hill
#
# Bulk Modulus (GPa) = 21.73938 37.60903 29.67421
# Shear Modulus (GPa) = 19.65048 33.67799 26.66424
#
# Velocity S-wave (km/s) = 2.83339 3.70931 3.30054
# Velocity P-wave (km/s) = 4.42557 5.80605 5.16217
#
# Compressibility (1/GPa) = 0.04599946
#
# Stress axis : x y z
#
# Youngs Moduli (GPa) = 26.52521 54.92446 50.34009
#
# Poissons Ratio (x) = -0.58357 0.86734
# Poissons Ratio (y) = -0.28183 0.41689
# Poissons Ratio (z) = 0.45702 0.45486
#
# Static dielectric constant tensor:
#      x y z
#    x 1.992940 -0.102290 0.019730 
#    y -0.102290 1.977140 -0.049830 
#    z 0.019730 -0.049830 1.893060 
# 
# From -- ./inp_files/528907.got.cif
#   From: 2010.05.17/outbox.cif.g08.bks.cpg/sg2_265_cif.got.tgz:528907.got - 2010.06.03 11:33:40.
