data_PCOD9026785
_publ_section_title
;
Structure prediction by ZEFSAII (Michael W. Deem and Ramdas Pophale) SiO2 
 PCOD9026785
Probable space group: P -1
;
_chemical_formula_sum "Si O2"
_cell_formula_units_Z 14
_cell_length_a 5.770935
_cell_length_b 26.989315
_cell_length_c 27.044155
_cell_angle_alpha 10.301440
_cell_angle_beta 45.183076
_cell_angle_gamma 45.896692
_cell_volume 534.232363
_symmetry_space_group_name_H-M "P -1"
_symmetry_group_IT_number 2
_symmetry_cell_setting 'triclinic'
loop_
_space_group_symop_operation_xyz
x,y,z
-x,-y,-z
loop_
_atom_site_type_symbol
_atom_site_label
_atom_site_fract_x
_atom_site_fract_y
_atom_site_fract_z
Si Si1 0.770743 0.823201 0.430322
Si Si2 0.695564 0.082321 0.084368
Si Si3 0.754881 0.760153 0.651561
Si Si4 0.419982 0.271567 0.776097
Si Si5 0.642638 0.372125 0.965276
Si Si6 0.517361 0.449704 0.409576
Si Si7 0.931296 0.277855 0.169246
O O1 0.581572 0.571478 0.731129
O O2 0.130623 0.695358 0.491211
O O3 0.618998 0.952520 0.276508
O O4 0.794679 0.081775 0.210133
O O5 0.703992 0.811230 0.314001
O O6 0.469574 0.327653 0.855283
O O7 0.045271 0.226479 0.892441
O O8 0.831765 0.571923 0.777618
O O9 0.361090 0.805178 0.669143
O O10 0.921755 0.051653 0.348520
O O11 0.843068 0.575159 0.867593
O O12 0.500000 0.500000 0.500000
O O13 0.592636 0.367539 0.706324
O O14 0.500000 0.000000 0.000000
O O15 0.296230 0.293840 0.118206
#
# Coordination Sequence:
#
# PCOD9026785 Si02
#       7
#     2   2   2   2   2   2   2
#     4  12  27  46  69 103 140 183 241 286 327 413
#     4  12  26  48  74 100 142 191 225 276 349 402
#     4  10  22  41  65  96 133 173 223 284 350 416
#     4  12  26  46  74 111 142 169 231 290 327 409
#     4  12  24  42  68  98 136 180 229 288 347 398
#     4  12  26  48  74 100 142 191 225 276 349 402
#     4  10  22  41  65  96 133 173 223 284 350 416
#
# _framework density 26.205825000000001
#
# number of rings (size 3 to 8) (size 9 to 14) (size 15 to 20)
#    0.000    0.571    0.000    9.000    0.000    8.000 
#    0.000    8.571    0.000    0.000    0.000    0.000 
#    0.000    0.000    0.000    0.000    0.000    0.000 
#
# Total GULP energy -78457.619985 kJ/mol
# GULP energy per Si atom -5604.115713 kJ/mol
# Density = 2.614618 g / cm^3
# Si number density = 26.205825 Si / 1000 Ang^3
#
#
#
# Elastic Constant Matrix: (Units=GPa)
#
#
# Indices 1 2 3 4 5 6 
#
# 1 59.7024 18.4805 42.1737 -8.1035 -12.7951 22.6120
# 2 18.4805 69.4359 35.5158 -22.7226 -3.8181 19.5447
# 3 42.1737 35.5158 209.8023 -18.4681 0.7903 19.7855
# 4 -8.1035 -22.7226 -18.4681 63.5596 16.1277 -14.8689
# 5 -12.7951 -3.8181 0.7903 16.1277 61.4257 0.3594
# 6 22.6120 19.5447 19.7855 -14.8689 0.3594 34.9715
#
#
#
# Elastic Compliance Matrix: (Units=1/GPa)
#
#
# Indices 1 2 3 4 5 6 
#
# 1 0.027042 -0.001468 -0.004026 -0.003683 0.006654 -0.016021
# 2 -0.001468 0.019149 -0.001907 0.004599 -0.000259 -0.006716
# 3 -0.004026 -0.001907 0.005922 0.001039 -0.001311 0.000774
# 4 -0.003683 0.004599 0.001039 0.020601 -0.005951 0.008044
# 5 0.006654 -0.000259 -0.001311 -0.005951 0.019265 -0.006144
# 6 -0.016021 -0.006716 0.000774 0.008044 -0.006144 0.045752
#
#
# Mechanical properties :
#
#
# Convention : Reuss Voigt Hill
#
# Bulk Modulus (GPa) = 26.80170 59.03118 42.91644
# Shear Modulus (GPa) = 30.30830 48.17606 39.24218
#
# Velocity S-wave (km/s) = 3.40450 4.29228 3.87390
# Velocity P-wave (km/s) = 5.06988 6.86584 6.03504
#
# Compressibility (1/GPa) = 0.03731106
#
# Stress axis : x y z
#
# Youngs Moduli (GPa) = 36.97929 52.22151 168.86289
#
# Poissons Ratio (x) = 0.07666 0.67981
# Poissons Ratio (y) = 0.05428 0.32209
# Poissons Ratio (z) = 0.14887 0.09961
#
# Static dielectric constant tensor:
#      x y z
#    x 2.095610 -0.019060 0.017500 
#    y -0.019060 2.150110 -0.005730 
#    z 0.017500 -0.005730 1.937990 
# 
# From -- ./inp_files/615968.got.cif
#   From: 2010.05.17/outbox.cif.g08.bks.cpg/sg2_308_cif.got.tgz:615968.got - 2010.06.03 11:33:40.
