data_PCOD9026682
_publ_section_title
;
Structure prediction by ZEFSAII (Michael W. Deem and Ramdas Pophale) SiO2 
 PCOD9026682
Probable space group: P -1
;
_chemical_formula_sum "Si O2"
_cell_formula_units_Z 16
_cell_length_a 6.328936
_cell_length_b 7.011090
_cell_length_c 23.654013
_cell_angle_alpha 44.507594
_cell_angle_beta 68.025455
_cell_angle_gamma 61.987893
_cell_volume 648.264429
_symmetry_space_group_name_H-M "P -1"
_symmetry_group_IT_number 2
_symmetry_cell_setting 'triclinic'
loop_
_space_group_symop_operation_xyz
x,y,z
-x,-y,-z
loop_
_atom_site_type_symbol
_atom_site_label
_atom_site_fract_x
_atom_site_fract_y
_atom_site_fract_z
Si Si1 0.758423 0.349000 0.083215
Si Si2 0.365964 0.280153 0.302161
Si Si3 0.031809 0.860761 0.244954
Si Si4 0.671219 0.701250 0.389223
Si Si5 0.427897 0.681583 0.621255
Si Si6 0.977021 0.697699 0.049630
Si Si7 0.297875 0.239045 0.186560
Si Si8 0.916165 0.800076 0.507111
O O1 0.514592 0.275222 0.120578
O O2 0.742437 0.630013 0.063454
O O3 0.849983 0.392617 0.003172
O O4 0.942008 0.079817 0.155498
O O5 0.118682 0.530416 0.286606
O O6 0.547893 0.388928 0.299703
O O7 0.370500 0.264664 0.237822
O O8 0.434311 0.943138 0.384227
O O9 0.825210 0.881602 0.306318
O O10 0.235162 0.954772 0.237429
O O11 0.609219 0.524879 0.380516
O O12 0.850007 0.481007 0.461257
O O13 0.688280 0.717223 0.572206
O O14 0.208935 0.978461 0.576225
O O15 0.066650 0.495089 0.137022
O O16 0.000000 0.000000 0.000000
O O17 0.000000 0.000000 0.500000
#
# Coordination Sequence:
#
# PCOD9026682 Si02
#       8
#     2   2   2   2   2   2   2   2
#     4  10  22  42  63  90 132 165 209 271 314 364
#     4  12  24  39  67  97 124 174 211 252 331 381
#     4  11  24  43  62  95 135 166 208 270 314 375
#     4  11  23  43  66  94 131 166 214 266 315 380
#     4  10  22  43  66  94 130 167 214 267 316 382
#     4  10  22  41  65  92 124 172 214 258 318 378
#     4  11  24  42  63  98 131 165 216 263 314 389
#     4   9  20  43  67  91 131 167 210 273 317 365
#
# _framework density 24.681284999999999
#
# number of rings (size 3 to 8) (size 9 to 14) (size 15 to 20)
#    0.000    1.500    2.500    1.875    0.000    3.000 
#    0.000    5.625    0.000    0.000    0.000    0.000 
#    0.000    0.000    0.000    0.000    0.000    0.000 
#
# Total GULP energy -89330.567761 kJ/mol
# GULP energy per Si atom -5583.160485 kJ/mol
# Density = 2.462511 g / cm^3
# Si number density = 24.681285 Si / 1000 Ang^3
#
#
#
# Elastic Constant Matrix: (Units=GPa)
#
#
# Indices 1 2 3 4 5 6 
#
# 1 96.4817 33.7479 32.0978 -4.9477 -14.5238 30.2837
# 2 33.7479 121.3991 36.2454 -37.4031 8.4044 13.4855
# 3 32.0978 36.2454 88.0828 -8.8041 18.9123 8.9933
# 4 -4.9477 -37.4031 -8.8041 47.5188 4.2563 4.6505
# 5 -14.5238 8.4044 18.9123 4.2563 55.6880 -4.3340
# 6 30.2837 13.4855 8.9933 4.6505 -4.3340 34.6932
#
#
#
# Elastic Compliance Matrix: (Units=1/GPa)
#
#
# Indices 1 2 3 4 5 6 
#
# 1 0.017834 -0.002482 -0.005545 -0.000451 0.005982 -0.012357
# 2 -0.002482 0.013684 -0.002573 0.010725 -0.002993 -0.004297
# 3 -0.005545 -0.002573 0.015809 0.000821 -0.006425 0.000830
# 4 -0.000451 0.010725 0.000821 0.030902 -0.005059 -0.008762
# 5 0.005982 -0.002993 -0.006425 -0.005059 0.022624 0.001112
# 6 -0.012357 -0.004297 0.000830 -0.008762 0.001112 0.042379
#
#
# Mechanical properties :
#
#
# Convention : Reuss Voigt Hill
#
# Bulk Modulus (GPa) = 38.27569 56.68286 47.47928
# Shear Modulus (GPa) = 28.87807 41.17150 35.02478
#
# Velocity S-wave (km/s) = 3.42429 4.08870 3.77116
# Velocity P-wave (km/s) = 5.58355 6.73095 6.18392
#
# Compressibility (1/GPa) = 0.02612624
#
# Stress axis : x y z
#
# Youngs Moduli (GPa) = 56.07390 73.07580 63.25442
#
# Poissons Ratio (x) = 0.18141 0.35074
# Poissons Ratio (y) = 0.13920 0.16276
# Poissons Ratio (z) = 0.31092 0.18803
#
# Static dielectric constant tensor:
#      x y z
#    x 2.033110 -0.019450 0.006830 
#    y -0.019450 1.987130 -0.033040 
#    z 0.006830 -0.033040 1.994720 
# 
# From -- ./inp_files/121728.got.cif
#   From: 2010.05.17/outbox.cif.g08.bks.cpg/sg2_61_cif.got.tgz:121728.got - 2010.06.03 11:33:40.
