data_PCOD9026505
_publ_section_title
;
Structure prediction by ZEFSAII (Michael W. Deem and Ramdas Pophale) SiO2 
 PCOD9026505
Probable space group: P -1
;
_chemical_formula_sum "Si O2"
_cell_formula_units_Z 14
_cell_length_a 12.655318
_cell_length_b 9.713942
_cell_length_c 7.249269
_cell_angle_alpha 87.461271
_cell_angle_beta 83.947479
_cell_angle_gamma 35.185577
_cell_volume 509.290216
_symmetry_space_group_name_H-M "P -1"
_symmetry_group_IT_number 2
_symmetry_cell_setting 'triclinic'
loop_
_space_group_symop_operation_xyz
x,y,z
-x,-y,-z
loop_
_atom_site_type_symbol
_atom_site_label
_atom_site_fract_x
_atom_site_fract_y
_atom_site_fract_z
Si Si1 0.583122 0.764515 0.066407
Si Si2 0.288797 0.041203 0.640145
Si Si3 0.317936 0.449749 0.324904
Si Si4 0.136374 0.926075 0.616361
Si Si5 0.000000 0.000000 0.000000
Si Si6 0.797171 0.943707 0.919108
Si Si7 0.500000 0.500000 0.500000
Si Si8 0.123527 0.495029 0.648734
O O1 0.688376 0.581927 0.886417
O O2 0.719442 0.640493 0.218019
O O3 0.500000 0.000000 0.000000
O O4 0.407156 0.856280 0.137408
O O5 0.173650 0.291041 0.577528
O O6 0.507790 0.827184 0.615236
O O7 0.250481 0.941303 0.538574
O O8 0.231593 0.077644 0.862583
O O9 0.395451 0.520322 0.351213
O O10 0.148190 0.576660 0.472072
O O11 0.020237 0.071538 0.809770
O O12 0.319861 0.645861 0.657573
O O13 0.000000 0.000000 0.500000
O O14 0.884813 0.001955 0.903178
O O15 0.936746 0.703889 0.787591
#
# Coordination Sequence:
#
# PCOD9026505 Si02
#       8
#     2   2   2   2   1   2   1   2
#     4  11  24  42  65  94 131 170 210 260 328 381
#     4   9  20  38  61  87 130 161 201 268 317 367
#     4  10  22  41  64  94 126 168 211 264 313 386
#     4  10  22  42  62  89 123 169 210 261 322 375
#     4  10  22  44  64  90 134 162 214 270 312 374
#     4  10  22  41  64  94 126 168 211 264 313 386
#     4  10  22  44  64  90 134 162 214 270 312 374
#     4  12  22  41  67  94 129 167 214 265 327 375
#
# _framework density 27.489236999999999
#
# number of rings (size 3 to 8) (size 9 to 14) (size 15 to 20)
#    0.000    1.714    2.857    2.571    0.000    4.571 
#    0.000    5.714    0.000    0.000    0.000    0.000 
#    0.000    0.000    0.000    0.000    0.000    0.000 
#
# Total GULP energy -77963.967824 kJ/mol
# GULP energy per Si atom -5568.854845 kJ/mol
# Density = 2.742667 g / cm^3
# Si number density = 27.489237 Si / 1000 Ang^3
#
#
#
# Elastic Constant Matrix: (Units=GPa)
#
#
# Indices 1 2 3 4 5 6 
#
# 1 86.6449 -11.8530 7.5872 -14.7534 5.7762 -10.0064
# 2 -11.8530 63.1923 8.2468 2.7007 -19.7711 -22.2639
# 3 7.5872 8.2468 134.7900 -9.9014 4.6333 -7.4204
# 4 -14.7534 2.7007 -9.9014 39.9789 -8.7531 -2.3594
# 5 5.7762 -19.7711 4.6333 -8.7531 40.0297 -1.0518
# 6 -10.0064 -22.2639 -7.4204 -2.3594 -1.0518 41.6592
#
#
#
# Elastic Compliance Matrix: (Units=1/GPa)
#
#
# Indices 1 2 3 4 5 6 
#
# 1 0.013852 0.005341 -0.000419 0.005479 0.002056 0.006469
# 2 0.005341 0.026776 -0.001257 0.003825 0.013855 0.015935
# 3 -0.000419 -0.001257 0.007714 0.001645 -0.001076 0.000668
# 4 0.005479 0.003825 0.001645 0.029133 0.007423 0.005490
# 5 0.002056 0.013855 -0.001076 0.007423 0.033511 0.008973
# 6 0.006469 0.015935 0.000668 0.005490 0.008973 0.034731
#
#
# Mechanical properties :
#
#
# Convention : Reuss Voigt Hill
#
# Bulk Modulus (GPa) = 17.96199 32.50990 25.23595
# Shear Modulus (GPa) = 31.85847 43.04329 37.45088
#
# Velocity S-wave (km/s) = 3.40802 3.96134 3.69505
# Velocity P-wave (km/s) = 4.69409 5.72495 5.23496
#
# Compressibility (1/GPa) = 0.05567310
#
# Stress axis : x y z
#
# Youngs Moduli (GPa) = 72.19346 37.34647 129.63483
#
# Poissons Ratio (x) = -0.19947 0.05425
# Poissons Ratio (y) = -0.38559 0.16294
# Poissons Ratio (z) = 0.03021 0.04694
#
# Static dielectric constant tensor:
#      x y z
#    x 2.705910 1.854910 -0.220860 
#    y 1.854910 8.534430 -1.106990 
#    z -0.220860 -1.106990 2.396710 
# 
# From -- ./inp_files/204702.got.cif
#   From: 2010.05.17/outbox.cif.g08.bks.cpg/sg2_103_cif.got.tgz:204702.got - 2010.06.03 11:33:40.
