data_PCOD9026288
_publ_section_title
;
Structure prediction by ZEFSAII (Michael W. Deem and Ramdas Pophale) SiO2 
 PCOD9026288
Probable space group: P -1
;
_chemical_formula_sum "Si O2"
_cell_formula_units_Z 15
_cell_length_a 6.674614
_cell_length_b 10.692732
_cell_length_c 19.735052
_cell_angle_alpha 145.980576
_cell_angle_beta 62.714339
_cell_angle_gamma 119.858546
_cell_volume 680.361017
_symmetry_space_group_name_H-M "P -1"
_symmetry_group_IT_number 2
_symmetry_cell_setting 'triclinic'
loop_
_space_group_symop_operation_xyz
x,y,z
-x,-y,-z
loop_
_atom_site_type_symbol
_atom_site_label
_atom_site_fract_x
_atom_site_fract_y
_atom_site_fract_z
Si Si1 0.796476 0.704562 0.489269
Si Si2 0.315007 0.796164 0.400837
Si Si3 0.549145 0.068646 0.710170
Si Si4 0.500000 0.500000 0.000000
Si Si5 0.909325 0.246790 0.322874
Si Si6 0.345815 0.926358 0.925657
Si Si7 0.417805 0.452852 0.334547
Si Si8 0.120554 0.153364 0.960130
O O1 0.809579 0.463325 0.412607
O O2 0.596144 0.640057 0.434399
O O3 0.052090 0.801808 0.462787
O O4 0.710073 0.898451 0.631618
O O5 0.355465 0.815612 0.323453
O O6 0.360683 0.564690 0.323154
O O7 0.500000 0.000000 0.500000
O O8 0.285512 0.914163 0.673211
O O9 0.537874 0.262266 0.852820
O O10 0.777861 0.628750 0.003307
O O11 0.164364 0.350164 0.359446
O O12 0.940411 0.082222 0.180305
O O13 0.450986 0.746083 0.787993
O O14 0.326485 0.130999 0.969913
O O15 0.090642 0.824318 0.949497
O O16 0.500000 0.000000 0.000000
#
# Coordination Sequence:
#
# PCOD9026288 Si02
#       8
#     2   2   2   1   2   2   2   2
#     4  11  23  43  72  97 126 177 221 272 331 381
#     4  11  25  43  66 102 133 167 220 274 324 393
#     4  11  24  45  66  94 140 174 217 271 333 394
#     4  10  26  42  66  94 134 182 206 266 338 392
#     4  10  22  43  62  98 131 167 223 272 328 392
#     4  11  22  37  67  91 125 178 222 271 316 382
#     4  11  23  40  67 100 131 169 224 273 329 386
#     4  10  22  41  63  93 131 171 223 271 319 396
#
# _framework density 22.047117
#
# number of rings (size 3 to 8) (size 9 to 14) (size 15 to 20)
#    0.000    1.333    4.000    0.800    3.733    0.533 
#    2.400    2.000    0.000    0.000    0.000    0.000 
#    0.000    0.000    0.000    0.000    0.000    0.000 
#
# Total GULP energy -83604.343517 kJ/mol
# GULP energy per Si atom -5573.622901 kJ/mol
# Density = 2.199694 g / cm^3
# Si number density = 22.047117 Si / 1000 Ang^3
#
#
#
# Elastic Constant Matrix: (Units=GPa)
#
#
# Indices 1 2 3 4 5 6 
#
# 1 103.9301 29.8453 36.8830 1.1015 -6.4780 19.8750
# 2 29.8453 90.0212 34.7828 -2.1905 -2.4748 31.3147
# 3 36.8830 34.7828 102.5777 -0.1188 -18.3542 16.9274
# 4 1.1015 -2.1905 -0.1188 30.0917 7.6149 0.1221
# 5 -6.4780 -2.4748 -18.3542 7.6149 34.6261 -3.7719
# 6 19.8750 31.3147 16.9274 0.1221 -3.7719 33.1411
#
#
#
# Elastic Compliance Matrix: (Units=1/GPa)
#
#
# Indices 1 2 3 4 5 6 
#
# 1 0.011938 -0.001237 -0.003128 -0.000555 0.000132 -0.004376
# 2 -0.001237 0.018091 -0.003793 0.002175 -0.003036 -0.014768
# 3 -0.003128 -0.003793 0.013444 -0.001773 0.006589 -0.000650
# 4 -0.000555 0.002175 -0.001773 0.035676 -0.008948 -0.001967
# 5 0.000132 -0.003036 0.006589 -0.008948 0.034517 0.003386
# 6 -0.004376 -0.014768 -0.000650 -0.001967 0.003386 0.047477
#
#
# Mechanical properties :
#
#
# Convention : Reuss Voigt Hill
#
# Bulk Modulus (GPa) = 36.82378 55.50568 46.16473
# Shear Modulus (GPa) = 26.80799 32.57298 29.69049
#
# Velocity S-wave (km/s) = 3.49082 3.84790 3.67370
# Velocity P-wave (km/s) = 5.74337 6.70614 6.24334
#
# Compressibility (1/GPa) = 0.02715636
#
# Stress axis : x y z
#
# Youngs Moduli (GPa) = 83.76586 55.27600 74.38354
#
# Poissons Ratio (x) = 0.06838 0.23266
# Poissons Ratio (y) = 0.10363 0.28216
# Poissons Ratio (z) = 0.26201 0.20968
#
# Static dielectric constant tensor:
#      x y z
#    x 1.827510 -0.014270 0.008570 
#    y -0.014270 1.851840 0.013640 
#    z 0.008570 0.013640 1.812270 
# 
# From -- ./inp_files/604475.got.cif
#   From: 2010.05.17/outbox.cif.g08.bks.cpg/sg2_303_cif.got.tgz:604475.got - 2010.06.03 11:33:40.
