data_PCOD9026605
_publ_section_title
;
Structure prediction by ZEFSAII (Michael W. Deem and Ramdas Pophale) SiO2 
 PCOD9026605
Probable space group: P -1
;
_chemical_formula_sum "Si O2"
_cell_formula_units_Z 14
_cell_length_a 24.081032
_cell_length_b 5.016810
_cell_length_c 14.649108
_cell_angle_alpha 90.143518
_cell_angle_beta 159.220110
_cell_angle_gamma 79.073849
_cell_volume 533.348730
_symmetry_space_group_name_H-M "P -1"
_symmetry_group_IT_number 2
_symmetry_cell_setting 'triclinic'
loop_
_space_group_symop_operation_xyz
x,y,z
-x,-y,-z
loop_
_atom_site_type_symbol
_atom_site_label
_atom_site_fract_x
_atom_site_fract_y
_atom_site_fract_z
Si Si1 0.650191 0.743265 0.302254
Si Si2 0.689496 0.461778 0.662852
Si Si3 0.021665 0.464229 0.796215
Si Si4 0.934578 0.889547 0.509392
Si Si5 0.764136 0.528687 0.156919
Si Si6 0.631878 0.255668 0.397170
Si Si7 0.641897 0.094260 0.757756
O O1 0.580187 0.554587 0.253595
O O2 0.843742 0.470956 0.557139
O O3 0.705421 0.944341 0.451053
O O4 0.500000 0.000000 0.000000
O O5 0.747583 0.262308 0.660153
O O6 0.675228 0.290770 0.731954
O O7 0.472635 0.738403 0.326698
O O8 0.833360 0.566960 0.905164
O O9 0.934665 0.796878 0.612592
O O10 0.154655 0.208145 0.925469
O O11 0.829902 0.762053 0.287119
O O12 0.142658 0.675201 0.790745
O O13 0.843939 0.252090 0.353799
O O14 0.547788 0.705484 0.830383
O O15 0.500000 0.000000 0.500000
#
# Coordination Sequence:
#
# PCOD9026605 Si02
#       7
#     2   2   2   2   2   2   2
#     4  12  29  50  74 101 139 198 245 291 345 414
#     4  10  25  43  71 109 139 186 230 295 368 424
#     4  11  25  43  72  98 144 185 237 291 351 425
#     4  10  23  40  67 101 131 178 228 295 357 415
#     4  10  22  41  64  99 135 173 233 290 357 407
#     4  12  27  46  73 100 146 187 238 296 345 424
#     4   9  22  43  68 106 143 182 231 283 363 431
#
# _framework density 26.249243
#
# number of rings (size 3 to 8) (size 9 to 14) (size 15 to 20)
#    0.000    1.429    0.000    3.000   14.000    3.429 
#    0.000    0.000    0.000    0.000    0.000    0.000 
#    0.000    0.000    0.000    0.000    0.000    0.000 
#
# Total GULP energy -78336.315768 kJ/mol
# GULP energy per Si atom -5595.451126 kJ/mol
# Density = 2.618950 g / cm^3
# Si number density = 26.249243 Si / 1000 Ang^3
#
#
#
# Elastic Constant Matrix: (Units=GPa)
#
#
# Indices 1 2 3 4 5 6 
#
# 1 66.8083 18.7795 14.8663 2.1344 1.3772 -0.3054
# 2 18.7795 101.9120 7.3834 0.7661 -6.7572 -4.0629
# 3 14.8663 7.3834 96.7059 12.1037 20.1078 -5.6231
# 4 2.1344 0.7661 12.1037 33.5835 1.5337 -2.8665
# 5 1.3772 -6.7572 20.1078 1.5337 33.6862 2.6922
# 6 -0.3054 -4.0629 -5.6231 -2.8665 2.6922 54.8733
#
#
#
# Elastic Compliance Matrix: (Units=1/GPa)
#
#
# Indices 1 2 3 4 5 6 
#
# 1 0.016282 -0.002833 -0.002327 -0.000172 0.000193 -0.000376
# 2 -0.002833 0.010605 -0.000939 0.000198 0.002751 0.000549
# 3 -0.002327 -0.000939 0.012972 -0.004030 -0.007766 0.001417
# 4 -0.000172 0.000198 -0.004030 0.031294 0.000932 0.001190
# 5 0.000193 0.002751 -0.007766 0.000932 0.035003 -0.002260
# 6 -0.000376 0.000549 0.001417 0.001190 -0.002260 0.018581
#
#
# Mechanical properties :
#
#
# Convention : Reuss Voigt Hill
#
# Bulk Modulus (GPa) = 36.15173 38.60939 37.38056
# Shear Modulus (GPa) = 34.21015 39.38840 36.79928
#
# Velocity S-wave (km/s) = 3.61402 3.87790 3.74828
# Velocity P-wave (km/s) = 5.58724 5.89843 5.74494
#
# Compressibility (1/GPa) = 0.02766119
#
# Stress axis : x y z
#
# Youngs Moduli (GPa) = 61.41724 94.29357 77.09115
#
# Poissons Ratio (x) = 0.26710 0.17940
# Poissons Ratio (y) = 0.17397 0.07239
# Poissons Ratio (z) = 0.14293 0.08855
#
# Static dielectric constant tensor:
#      x y z
#    x 2.057410 -0.025900 -0.027430 
#    y -0.025900 2.185280 -0.029570 
#    z -0.027430 -0.029570 2.095560 
# 
# From -- ./inp_files/542173.got.cif
#   From: 2010.05.17/outbox.cif.g08.bks.cpg/sg2_272_cif.got.tgz:542173.got - 2010.06.03 11:33:40.
