data_PCOD9026118
_publ_section_title
;
Structure prediction by ZEFSAII (Michael W. Deem and Ramdas Pophale) SiO2 
 PCOD9026118
Probable space group: P -1
;
_chemical_formula_sum "Si O2"
_cell_formula_units_Z 16
_cell_length_a 13.844619
_cell_length_b 10.155993
_cell_length_c 12.238905
_cell_angle_alpha 143.521347
_cell_angle_beta 134.241557
_cell_angle_gamma 55.594821
_cell_volume 732.915072
_symmetry_space_group_name_H-M "P -1"
_symmetry_group_IT_number 2
_symmetry_cell_setting 'triclinic'
loop_
_space_group_symop_operation_xyz
x,y,z
-x,-y,-z
loop_
_atom_site_type_symbol
_atom_site_label
_atom_site_fract_x
_atom_site_fract_y
_atom_site_fract_z
Si Si1 0.603203 0.687524 0.075551
Si Si2 0.318598 0.459044 0.715915
Si Si3 0.512322 0.131659 0.211224
Si Si4 0.780901 0.405298 0.867205
Si Si5 0.960567 0.703549 0.878419
Si Si6 0.299916 0.463188 0.349947
Si Si7 0.660369 0.017779 0.652067
Si Si8 0.146845 0.815519 0.901638
O O1 0.657655 0.615306 0.188562
O O2 0.579194 0.949510 0.221907
O O3 0.460152 0.565547 0.862975
O O4 0.705454 0.597681 0.004933
O O5 0.286150 0.231900 0.479026
O O6 0.201101 0.641132 0.741206
O O7 0.378598 0.233907 0.230549
O O8 0.598724 0.351101 0.404310
O O9 0.500000 0.000000 0.000000
O O10 0.755247 0.446957 0.748859
O O11 0.716166 0.177604 0.708698
O O12 0.936097 0.390759 0.013601
O O13 0.822647 0.573529 0.690219
O O14 0.922457 0.960045 0.044401
O O15 0.042674 0.707094 0.832390
O O16 0.720239 0.120357 0.878754
O O17 0.500000 0.000000 0.500000
#
# Coordination Sequence:
#
# PCOD9026118 Si02
#       8
#     2   2   2   2   2   2   2   2
#     4  11  20  37  61  91 125 156 203 261 314 361
#     4  11  20  36  64  91 122 162 201 262 318 359
#     4  11  24  42  65  95 125 153 207 271 312 375
#     4  11  21  41  63  89 130 168 209 255 304 378
#     4  10  22  43  64  87 128 175 208 253 309 370
#     4  11  24  42  67  89 123 172 203 252 328 371
#     4  11  20  35  63  98 122 161 206 259 322 369
#     4  10  22  41  62  91 129 161 211 263 304 371
#
# _framework density 21.830634
#
# number of rings (size 3 to 8) (size 9 to 14) (size 15 to 20)
#    0.000    1.250    5.000    2.625    0.000    3.000 
#    0.000    8.750    0.000    0.000    0.000    0.000 
#    0.000    0.000    0.000    0.000    0.000    0.000 
#
# Total GULP energy -89546.389907 kJ/mol
# GULP energy per Si atom -5596.649369 kJ/mol
# Density = 2.178095 g / cm^3
# Si number density = 21.830634 Si / 1000 Ang^3
#
#
#
# Elastic Constant Matrix: (Units=GPa)
#
#
# Indices 1 2 3 4 5 6 
#
# 1 72.5992 31.1160 40.4428 -5.3556 12.3370 -15.1952
# 2 31.1160 104.9441 16.2985 11.3386 -10.1260 -18.2598
# 3 40.4428 16.2985 76.5085 14.6804 -0.9233 -14.7670
# 4 -5.3556 11.3386 14.6804 29.8376 -5.6038 -3.6948
# 5 12.3370 -10.1260 -0.9233 -5.6038 32.5199 -3.2570
# 6 -15.1952 -18.2598 -14.7670 -3.6948 -3.2570 35.0469
#
#
#
# Elastic Compliance Matrix: (Units=1/GPa)
#
#
# Indices 1 2 3 4 5 6 
#
# 1 0.030640 -0.008913 -0.016984 0.015222 -0.012061 0.001968
# 2 -0.008913 0.013838 0.004151 -0.006942 0.007115 0.005023
# 3 -0.016984 0.004151 0.024990 -0.015213 0.006255 0.004306
# 4 0.015222 -0.006942 -0.015213 0.046512 -0.000207 0.001457
# 5 -0.012061 0.007115 0.006255 -0.000207 0.038148 0.004636
# 6 0.001968 0.005023 0.004306 0.001457 0.004636 0.034403
#
#
# Mechanical properties :
#
#
# Convention : Reuss Voigt Hill
#
# Bulk Modulus (GPa) = 38.49779 47.75184 43.12481
# Shear Modulus (GPa) = 20.77450 30.56051 25.66751
#
# Velocity S-wave (km/s) = 3.08818 3.74557 3.43265
# Velocity P-wave (km/s) = 5.51261 6.37393 5.95885
#
# Compressibility (1/GPa) = 0.02597552
#
# Stress axis : x y z
#
# Youngs Moduli (GPa) = 32.63687 72.26733 40.01652
#
# Poissons Ratio (x) = 0.64412 0.67965
# Poissons Ratio (y) = 0.29089 -0.16612
# Poissons Ratio (z) = 0.55431 -0.30000
#
# Static dielectric constant tensor:
#      x y z
#    x 1.782850 -0.001250 0.002490 
#    y -0.001250 1.817180 -0.017250 
#    z 0.002490 -0.017250 1.796680 
# 
# From -- ./inp_files/532197.got.cif
#   From: 2010.05.17/outbox.cif.g08.bks.cpg/sg2_267_cif.got.tgz:532197.got - 2010.06.03 11:33:40.
