data_PCOD9026573
_publ_section_title
;
Structure prediction by ZEFSAII (Michael W. Deem and Ramdas Pophale) SiO2 
 PCOD9026573
Probable space group: P -1
;
_chemical_formula_sum "Si O2"
_cell_formula_units_Z 16
_cell_length_a 6.535593
_cell_length_b 20.689955
_cell_length_c 9.561828
_cell_angle_alpha 131.851114
_cell_angle_beta 52.536970
_cell_angle_gamma 127.045726
_cell_volume 720.944923
_symmetry_space_group_name_H-M "P -1"
_symmetry_group_IT_number 2
_symmetry_cell_setting 'triclinic'
loop_
_space_group_symop_operation_xyz
x,y,z
-x,-y,-z
loop_
_atom_site_type_symbol
_atom_site_label
_atom_site_fract_x
_atom_site_fract_y
_atom_site_fract_z
Si Si1 0.826341 0.773171 0.303974
Si Si2 0.745374 0.758882 0.617909
Si Si3 0.140925 0.539850 0.146716
Si Si4 0.773851 0.612446 0.909943
Si Si5 0.408792 0.892232 0.918289
Si Si6 0.271494 0.400592 0.423392
Si Si7 0.362322 0.856130 0.570091
Si Si8 0.778816 0.050054 0.650088
O O1 0.691689 0.720189 0.425692
O O2 0.598779 0.811056 0.384534
O O3 0.076546 0.863109 0.381885
O O4 0.914625 0.708595 0.068220
O O5 0.624850 0.842812 0.801763
O O6 0.632747 0.680677 0.668987
O O7 0.069680 0.799919 0.555180
O O8 0.131232 0.462464 0.155138
O O9 0.985549 0.600652 0.375386
O O10 0.454703 0.590097 0.048796
O O11 0.000000 0.500000 0.000000
O O12 0.798918 0.611643 0.730216
O O13 0.304751 0.849514 0.751285
O O14 0.222367 0.893444 0.127236
O O15 0.500000 0.000000 0.000000
O O16 0.500000 0.500000 0.500000
O O17 0.494944 0.965196 0.628021
O O18 0.000000 0.000000 0.500000
#
# Coordination Sequence:
#
# PCOD9026573 Si02
#       8
#     2   2   2   2   2   2   2   2
#     4  10  22  41  64  97 135 170 228 280 340 406
#     4  11  24  42  66  98 134 178 229 286 337 412
#     4  11  23  46  71  99 135 180 233 290 345 409
#     4  11  25  43  72  98 136 189 224 291 354 401
#     4   9  20  40  65  94 132 171 221 281 339 403
#     4  12  26  46  68 102 142 181 238 285 345 420
#     4   9  20  41  66  92 131 178 218 278 344 401
#     4   9  19  38  63  93 130 171 215 275 337 408
#
# _framework density 22.193093999999999
#
# number of rings (size 3 to 8) (size 9 to 14) (size 15 to 20)
#    0.000    1.750    1.250    2.625    3.500    3.500 
#    6.750    0.000    0.000    0.000    0.000    0.000 
#    0.000    0.000    0.000    0.000    0.000    0.000 
#
# Total GULP energy -89191.819524 kJ/mol
# GULP energy per Si atom -5574.488720 kJ/mol
# Density = 2.214258 g / cm^3
# Si number density = 22.193094 Si / 1000 Ang^3
#
#
#
# Elastic Constant Matrix: (Units=GPa)
#
#
# Indices 1 2 3 4 5 6 
#
# 1 75.5821 48.5622 34.4471 5.5495 2.9488 -15.0528
# 2 48.5622 125.5469 24.4591 11.0171 8.1601 -22.0163
# 3 34.4471 24.4591 127.6946 -0.9756 -3.0409 -21.3497
# 4 5.5495 11.0171 -0.9756 32.9106 -1.9751 3.4726
# 5 2.9488 8.1601 -3.0409 -1.9751 26.5637 -7.5778
# 6 -15.0528 -22.0163 -21.3497 3.4726 -7.5778 37.9744
#
#
#
# Elastic Compliance Matrix: (Units=1/GPa)
#
#
# Indices 1 2 3 4 5 6 
#
# 1 0.019518 -0.006314 -0.003722 -0.001518 -0.000170 0.002088
# 2 -0.006314 0.011533 0.000123 -0.003347 -0.001883 0.004183
# 3 -0.003722 0.000123 0.009640 0.000563 0.002812 0.004525
# 4 -0.001518 -0.003347 0.000563 0.032417 0.002323 -0.004726
# 5 -0.000170 -0.001883 0.002812 0.002323 0.041139 0.008418
# 6 0.002088 0.004183 0.004525 -0.004726 0.008418 0.034243
#
#
# Mechanical properties :
#
#
# Convention : Reuss Voigt Hill
#
# Bulk Modulus (GPa) = 47.92858 60.41783 54.17320
# Shear Modulus (GPa) = 28.52749 34.24675 31.38712
#
# Velocity S-wave (km/s) = 3.58917 3.93253 3.76476
# Velocity P-wave (km/s) = 6.23051 6.92116 6.58490
#
# Compressibility (1/GPa) = 0.02086438
#
# Stress axis : x y z
#
# Youngs Moduli (GPa) = 51.23503 86.70699 103.73957
#
# Poissons Ratio (x) = 0.54746 0.38615
# Poissons Ratio (y) = 0.32349 -0.01277
# Poissons Ratio (z) = 0.19071 -0.01068
#
# Static dielectric constant tensor:
#      x y z
#    x 1.843930 -0.013160 0.026860 
#    y -0.013160 1.823630 -0.053680 
#    z 0.026860 -0.053680 1.841240 
# 
# From -- ./inp_files/141577.got.cif
#   From: 2010.05.17/outbox.cif.g08.bks.cpg/sg2_71_cif.got.tgz:141577.got - 2010.06.03 11:33:40.
