data_PCOD9026420
_publ_section_title
;
Structure prediction by ZEFSAII (Michael W. Deem and Ramdas Pophale) SiO2 
 PCOD9026420
Probable space group: P -1
;
_chemical_formula_sum "Si O2"
_cell_formula_units_Z 14
_cell_length_a 11.764861
_cell_length_b 8.765512
_cell_length_c 8.573593
_cell_angle_alpha 127.948558
_cell_angle_beta 77.745306
_cell_angle_gamma 102.718612
_cell_volume 676.698099
_symmetry_space_group_name_H-M "P -1"
_symmetry_group_IT_number 2
_symmetry_cell_setting 'triclinic'
loop_
_space_group_symop_operation_xyz
x,y,z
-x,-y,-z
loop_
_atom_site_type_symbol
_atom_site_label
_atom_site_fract_x
_atom_site_fract_y
_atom_site_fract_z
Si Si1 0.736118 0.420941 0.881451
Si Si2 0.618805 0.645884 0.567370
Si Si3 0.443936 0.963472 0.323430
Si Si4 0.168211 0.532473 0.769916
Si Si5 0.653380 0.781153 0.996825
Si Si6 0.884820 0.079206 0.150226
Si Si7 0.948208 0.362405 0.570388
O O1 0.658926 0.214040 0.757792
O O2 0.655651 0.593214 0.988050
O O3 0.835795 0.436744 0.729457
O O4 0.797619 0.442598 0.044635
O O5 0.500000 0.500000 0.500000
O O6 0.724458 0.542824 0.400821
O O7 0.644251 0.705876 0.775854
O O8 0.602000 0.840740 0.600364
O O9 0.500000 0.000000 0.500000
O O10 0.545825 0.900053 0.142651
O O11 0.144056 0.738852 0.832982
O O12 0.052706 0.380810 0.676695
O O13 0.774245 0.917396 0.074331
O O14 0.910562 0.158232 0.367958
O O15 0.000000 0.000000 0.000000
O O16 0.000000 0.500000 0.500000
#
# Coordination Sequence:
#
# PCOD9026420 Si02
#       7
#     2   2   2   2   2   2   2
#     4  12  24  42  65  95 130 166 210 268 321 375
#     4  12  24  43  67  94 128 172 215 259 312 383
#     4  12  25  42  63  96 131 169 214 266 320 372
#     4  11  23  42  64  95 128 164 211 266 319 373
#     4  12  23  41  65  93 129 173 214 260 315 381
#     4  11  22  41  66  94 125 167 214 261 315 382
#     4  10  22  41  64  91 124 165 209 256 315 382
#
# _framework density 20.688694000000002
#
# number of rings (size 3 to 8) (size 9 to 14) (size 15 to 20)
#    0.000    0.571    0.000   10.714    0.000    0.000 
#    0.000    2.143    0.000    0.000    0.000    0.000 
#    0.000    0.000    0.000    0.000    0.000    0.000 
#
# Total GULP energy -78392.679296 kJ/mol
# GULP energy per Si atom -5599.477093 kJ/mol
# Density = 2.064161 g / cm^3
# Si number density = 20.688694 Si / 1000 Ang^3
#
#
#
# Elastic Constant Matrix: (Units=GPa)
#
#
# Indices 1 2 3 4 5 6 
#
# 1 126.2999 40.2140 61.5040 9.7867 1.3211 4.0269
# 2 40.2140 95.9877 39.3718 17.4619 9.0678 -19.4653
# 3 61.5040 39.3718 143.0966 -4.7506 12.3944 -5.8612
# 4 9.7867 17.4619 -4.7506 38.5482 -2.6717 -2.3722
# 5 1.3211 9.0678 12.3944 -2.6717 77.7645 1.7835
# 6 4.0269 -19.4653 -5.8612 -2.3722 1.7835 48.5973
#
#
#
# Elastic Compliance Matrix: (Units=1/GPa)
#
#
# Indices 1 2 3 4 5 6 
#
# 1 0.011242 -0.003297 -0.004183 -0.001994 0.000858 -0.002886
# 2 -0.003297 0.015350 -0.002628 -0.006195 -0.001662 0.005863
# 3 -0.004183 -0.002628 0.009744 0.003420 -0.001073 0.000676
# 4 -0.001994 -0.006195 0.003420 0.029731 0.001244 -0.000498
# 5 0.000858 -0.001662 -0.001073 0.001244 0.013282 -0.001293
# 6 -0.002886 0.005863 0.000676 -0.000498 -0.001293 0.023270
#
#
# Mechanical properties :
#
#
# Convention : Reuss Voigt Hill
#
# Bulk Modulus (GPa) = 62.03918 71.95154 66.99536
# Shear Modulus (GPa) = 38.99874 47.93496 43.46685
#
# Velocity S-wave (km/s) = 4.34640 4.81871 4.58863
# Velocity P-wave (km/s) = 7.43239 8.11256 7.77991
#
# Compressibility (1/GPa) = 0.01611884
#
# Stress axis : x y z
#
# Youngs Moduli (GPa) = 88.94917 65.14536 102.63168
#
# Poissons Ratio (x) = 0.21482 0.42936
# Poissons Ratio (y) = 0.29331 0.26969
# Poissons Ratio (z) = 0.37212 0.17118
#
# Static dielectric constant tensor:
#      x y z
#    x 1.721230 -0.001280 0.011420 
#    y -0.001280 1.733060 0.002890 
#    z 0.011420 0.002890 1.727320 
# 
# From -- ./inp_files/186349.got.cif
#   From: 2010.05.17/outbox.cif.g08.bks.cpg/sg2_94_cif.got.tgz:186349.got - 2010.06.03 11:33:40.
