data_PCOD9026086
_publ_section_title
;
Structure prediction by ZEFSAII (Michael W. Deem and Ramdas Pophale) SiO2 
 PCOD9026086
Probable space group: P -1
;
_chemical_formula_sum "Si O2"
_cell_formula_units_Z 14
_cell_length_a 9.309193
_cell_length_b 22.471766
_cell_length_c 9.745313
_cell_angle_alpha 29.682837
_cell_angle_beta 46.537736
_cell_angle_gamma 48.459939
_cell_volume 720.472125
_symmetry_space_group_name_H-M "P -1"
_symmetry_group_IT_number 2
_symmetry_cell_setting 'triclinic'
loop_
_space_group_symop_operation_xyz
x,y,z
-x,-y,-z
loop_
_atom_site_type_symbol
_atom_site_label
_atom_site_fract_x
_atom_site_fract_y
_atom_site_fract_z
Si Si1 0.329068 0.103340 0.249836
Si Si2 0.506586 0.130905 0.802715
Si Si3 0.164236 0.567766 0.829842
Si Si4 0.903883 0.244261 0.709812
Si Si5 0.548059 0.172844 0.222037
Si Si6 0.063642 0.832023 0.450414
Si Si7 0.327014 0.318479 0.321193
O O1 0.450262 0.173643 0.134811
O O2 0.114280 0.107359 0.454974
O O3 0.441878 0.962839 0.454463
O O4 0.343420 0.151787 0.990704
O O5 0.726439 0.131146 0.721099
O O6 0.460582 0.241576 0.503392
O O7 0.500000 0.000000 0.000000
O O8 0.236384 0.641143 0.506516
O O9 0.075389 0.684309 0.748717
O O10 0.305790 0.464255 0.029942
O O11 0.000000 0.500000 0.000000
O O12 0.968483 0.150232 0.728742
O O13 0.104416 0.285753 0.547662
O O14 0.772661 0.196433 0.006592
O O15 0.415708 0.266861 0.220591
#
# Coordination Sequence:
#
# PCOD9026086 Si02
#       7
#     2   2   2   2   2   2   2
#     4  11  22  38  62  86 125 159 209 250 299 366
#     4  12  26  41  56  94 132 162 196 252 312 360
#     4   8  17  40  65  89 119 157 203 258 297 351
#     4   9  20  38  62  91 113 158 204 248 298 347
#     4  11  21  35  64  95 110 166 211 244 304 362
#     4  10  22  41  62  87 125 162 199 250 305 357
#     4  11  22  40  63  91 128 153 204 257 299 360
#
# _framework density 19.431702999999999
#
# number of rings (size 3 to 8) (size 9 to 14) (size 15 to 20)
#    0.857    0.857    4.286    0.000    2.000    3.429 
#    0.000    2.143    0.000    0.000    0.000    0.000 
#    0.000    0.000    0.000    0.000    0.000    0.000 
#
# Total GULP energy -77986.138183 kJ/mol
# GULP energy per Si atom -5570.438442 kJ/mol
# Density = 1.938748 g / cm^3
# Si number density = 19.431703 Si / 1000 Ang^3
#
#
#
# Elastic Constant Matrix: (Units=GPa)
#
#
# Indices 1 2 3 4 5 6 
#
# 1 33.1540 -12.1259 -4.2331 2.7026 -10.7037 -1.0306
# 2 -12.1259 36.4654 17.1405 2.2750 -0.9607 -2.9059
# 3 -4.2331 17.1405 42.0969 1.7216 -3.0715 8.5144
# 4 2.7026 2.2750 1.7216 34.4379 -9.5112 -3.4104
# 5 -10.7037 -0.9607 -3.0715 -9.5112 30.0130 5.7060
# 6 -1.0306 -2.9059 8.5144 -3.4104 5.7060 19.4768
#
#
#
# Elastic Compliance Matrix: (Units=1/GPa)
#
#
# Indices 1 2 3 4 5 6 
#
# 1 0.039902 0.013980 -0.000662 0.000026 0.014576 0.000221
# 2 0.013980 0.042031 -0.018500 -0.001149 0.001315 0.014512
# 3 -0.000662 -0.018500 0.035876 -0.000755 0.006505 -0.020516
# 4 0.000026 -0.001149 -0.000755 0.032066 0.009488 0.002995
# 5 0.014576 0.001315 0.006505 0.009488 0.044766 -0.013329
# 6 0.000221 0.014512 -0.020516 0.002995 -0.013329 0.066918
#
#
# Mechanical properties :
#
#
# Convention : Reuss Voigt Hill
#
# Bulk Modulus (GPa) = 9.30722 12.58658 10.94690
# Shear Modulus (GPa) = 16.24764 24.18119 20.21442
#
# Velocity S-wave (km/s) = 2.89475 3.53146 3.22884
# Velocity P-wave (km/s) = 3.99661 4.80829 4.42112
#
# Compressibility (1/GPa) = 0.10744350
#
# Stress axis : x y z
#
# Youngs Moduli (GPa) = 25.06171 23.79220 27.87399
#
# Poissons Ratio (x) = -0.33261 0.01845
# Poissons Ratio (y) = -0.35036 0.51567
# Poissons Ratio (z) = 0.01659 0.44015
#
# Static dielectric constant tensor:
#      x y z
#    x 1.698590 -0.013380 0.014120 
#    y -0.013380 1.677120 -0.025460 
#    z 0.014120 -0.025460 1.700940 
# 
# From -- ./inp_files/225137.got.cif
#   From: 2010.05.17/outbox.cif.g08.bks.cpg/sg2_113_cif.got.tgz:225137.got - 2010.06.03 11:33:40.
