data_PCOD9026849
_publ_section_title
;
Structure prediction by ZEFSAII (Michael W. Deem and Ramdas Pophale) SiO2 
 PCOD9026849
Probable space group: P -1
;
_chemical_formula_sum "Si O2"
_cell_formula_units_Z 16
_cell_length_a 29.249709
_cell_length_b 8.925359
_cell_length_c 16.499943
_cell_angle_alpha 135.545703
_cell_angle_beta 18.022363
_cell_angle_gamma 144.869048
_cell_volume 715.796703
_symmetry_space_group_name_H-M "P -1"
_symmetry_group_IT_number 2
_symmetry_cell_setting 'triclinic'
loop_
_space_group_symop_operation_xyz
x,y,z
-x,-y,-z
loop_
_atom_site_type_symbol
_atom_site_label
_atom_site_fract_x
_atom_site_fract_y
_atom_site_fract_z
Si Si1 0.635679 0.670445 0.099186
Si Si2 0.556991 0.380971 0.425070
Si Si3 0.999149 0.214726 0.133803
Si Si4 0.694904 0.866408 0.653755
Si Si5 0.020939 0.680725 0.262312
Si Si6 0.283165 0.813187 0.000721
Si Si7 0.275780 0.255998 0.273076
Si Si8 0.784360 0.370727 0.787883
O O1 0.525206 0.634749 0.354491
O O2 0.483213 0.441014 0.199861
O O3 0.769272 0.586664 0.856179
O O4 0.718540 0.951694 0.869330
O O5 0.500000 0.500000 0.500000
O O6 0.543020 0.113784 0.321191
O O7 0.787355 0.595436 0.116756
O O8 0.984777 0.416324 0.180249
O O9 0.831427 0.034722 0.412544
O O10 0.000000 0.000000 0.000000
O O11 0.795716 0.842175 0.551417
O O12 0.669596 0.081165 0.819026
O O13 0.844903 0.673457 0.540907
O O14 0.068682 0.628236 0.250279
O O15 0.216609 0.997013 0.038958
O O16 0.309703 0.695733 0.990721
O O17 0.500000 0.500000 0.000000
O O18 0.000000 0.500000 0.500000
#
# Coordination Sequence:
#
# PCOD9026849 Si02
#       8
#     2   2   2   2   2   2   2   2
#     4  12  24  44  69 106 141 189 236 301 354 421
#     4  11  23  41  73 100 138 187 245 281 350 427
#     4  11  25  49  70 101 141 186 234 294 355 436
#     4  11  25  44  72 103 146 187 240 286 358 423
#     4  11  26  43  72 103 140 184 237 296 365 417
#     4  10  22  41  65  99 136 182 227 287 343 425
#     4  11  25  45  70 105 144 181 235 301 362 413
#     4  11  22  40  69 102 138 184 239 286 348 418
#
# _framework density 22.352715
#
# number of rings (size 3 to 8) (size 9 to 14) (size 15 to 20)
#    0.000    1.000    2.500    4.500    1.750    8.000 
#    2.250    0.625    0.000    0.000    0.000    0.000 
#    0.000    0.000    0.000    0.000    0.000    0.000 
#
# Total GULP energy -89090.095851 kJ/mol
# GULP energy per Si atom -5568.130991 kJ/mol
# Density = 2.230184 g / cm^3
# Si number density = 22.352715 Si / 1000 Ang^3
#
#
#
# Elastic Constant Matrix: (Units=GPa)
#
#
# Indices 1 2 3 4 5 6 
#
# 1 95.2076 38.3706 55.7667 17.8353 -0.0730 -2.9252
# 2 38.3706 124.6308 55.9654 15.5056 -6.1256 -9.0586
# 3 55.7667 55.9654 108.5550 22.7205 -6.0405 0.0417
# 4 17.8353 15.5056 22.7205 47.8073 -1.2201 -4.5980
# 5 -0.0730 -6.1256 -6.0405 -1.2201 39.7537 7.3302
# 6 -2.9252 -9.0586 0.0417 -4.5980 7.3302 29.7974
#
#
#
# Elastic Compliance Matrix: (Units=1/GPa)
#
#
# Indices 1 2 3 4 5 6 
#
# 1 0.015533 -0.001419 -0.006920 -0.001972 -0.001518 0.001173
# 2 -0.001419 0.010899 -0.004779 -0.000434 0.000380 0.003020
# 3 -0.006920 -0.004779 0.016150 -0.003803 0.002193 -0.003281
# 4 -0.001972 -0.000434 -0.003803 0.023924 -0.000561 0.003510
# 5 -0.001518 0.000380 0.002193 -0.000561 0.026763 -0.006707
# 6 0.001173 0.003020 -0.003281 0.003510 -0.006707 0.036789
#
#
# Mechanical properties :
#
#
# Convention : Reuss Voigt Hill
#
# Bulk Modulus (GPa) = 61.17920 69.84433 65.51177
# Shear Modulus (GPa) = 30.91303 35.35773 33.13538
#
# Velocity S-wave (km/s) = 3.72286 3.98151 3.85436
# Velocity P-wave (km/s) = 6.77561 7.24230 7.01284
#
# Compressibility (1/GPa) = 0.01634542
#
# Stress axis : x y z
#
# Youngs Moduli (GPa) = 64.37954 91.75337 61.91852
#
# Poissons Ratio (x) = 0.13017 0.42850
# Poissons Ratio (y) = 0.09133 0.29592
# Poissons Ratio (z) = 0.44553 0.43851
#
# Static dielectric constant tensor:
#      x y z
#    x 1.770380 -0.155490 0.048680 
#    y -0.155490 1.741450 -0.024910 
#    z 0.048680 -0.024910 1.852290 
# 
# From -- ./inp_files/469469.got.cif
#   From: 2010.05.17/outbox.cif.g08.bks.cpg/sg2_235_cif.got.tgz:469469.got - 2010.06.03 11:33:40.
