data_PCOD9026827
_publ_section_title
;
Structure prediction by ZEFSAII (Michael W. Deem and Ramdas Pophale) SiO2 
 PCOD9026827
Probable space group: P -1
;
_chemical_formula_sum "Si O2"
_cell_formula_units_Z 16
_cell_length_a 7.937531
_cell_length_b 8.081807
_cell_length_c 11.925322
_cell_angle_alpha 97.613666
_cell_angle_beta 62.455715
_cell_angle_gamma 81.525991
_cell_volume 653.095220
_symmetry_space_group_name_H-M "P -1"
_symmetry_group_IT_number 2
_symmetry_cell_setting 'triclinic'
loop_
_space_group_symop_operation_xyz
x,y,z
-x,-y,-z
loop_
_atom_site_type_symbol
_atom_site_label
_atom_site_fract_x
_atom_site_fract_y
_atom_site_fract_z
Si Si1 0.603812 0.117691 0.877769
Si Si2 0.862393 0.325182 0.219310
Si Si3 0.491275 0.702101 0.543350
Si Si4 0.300480 0.260892 0.133958
Si Si5 0.184489 0.268788 0.697511
Si Si6 0.874494 0.169292 0.610563
Si Si7 0.933931 0.165846 0.956225
Si Si8 0.779384 0.522703 0.610340
O O1 0.698079 0.133509 0.732221
O O2 0.766761 0.145154 0.919558
O O3 0.579182 0.922335 0.871875
O O4 0.409737 0.261269 0.982502
O O5 0.719540 0.235802 0.327626
O O6 0.836303 0.526308 0.271092
O O7 0.082728 0.241163 0.180011
O O8 0.843960 0.308485 0.089917
O O9 0.500000 0.500000 0.500000
O O10 0.593087 0.792599 0.423985
O O11 0.647851 0.674977 0.593976
O O12 0.277482 0.419344 0.239395
O O13 0.027751 0.232025 0.651599
O O14 0.112465 0.203617 0.830939
O O15 0.767601 0.326780 0.578337
O O16 0.000000 0.000000 0.500000
O O17 0.000000 0.000000 0.000000
O O18 0.000000 0.500000 0.500000
#
# Coordination Sequence:
#
# PCOD9026827 Si02
#       8
#     2   2   2   2   2   2   2   2
#     4  10  24  42  64  97 137 169 227 276 333 397
#     4  11  21  43  69  94 134 177 226 273 335 398
#     4  10  22  41  65  98 131 167 224 275 327 397
#     4  11  22  42  68  95 131 180 224 278 327 398
#     4  10  22  43  64  97 132 171 225 275 327 402
#     4  11  23  41  67  99 133 171 221 283 334 397
#     4  11  22  42  65  94 133 176 213 271 339 397
#     4  12  21  40  69  95 128 179 223 268 340 390
#
# _framework density 24.498722999999998
#
# number of rings (size 3 to 8) (size 9 to 14) (size 15 to 20)
#    0.000    1.250    3.750    2.625    0.000    0.500 
#    6.750    0.625    0.000    0.000    0.000    0.000 
#    0.000    0.000    0.000    0.000    0.000    0.000 
#
# Total GULP energy -89351.970099 kJ/mol
# GULP energy per Si atom -5584.498131 kJ/mol
# Density = 2.444296 g / cm^3
# Si number density = 24.498723 Si / 1000 Ang^3
#
#
#
# Elastic Constant Matrix: (Units=GPa)
#
#
# Indices 1 2 3 4 5 6 
#
# 1 51.7762 1.7352 38.9380 -7.0503 -31.5817 -1.0276
# 2 1.7352 71.2269 55.3269 9.2750 -12.1915 11.4587
# 3 38.9380 55.3269 200.0398 -8.7635 -49.6478 7.5782
# 4 -7.0503 9.2750 -8.7635 55.0899 14.4150 -6.1746
# 5 -31.5817 -12.1915 -49.6478 14.4150 54.0376 -0.9399
# 6 -1.0276 11.4587 7.5782 -6.1746 -0.9399 22.4211
#
#
#
# Elastic Compliance Matrix: (Units=1/GPa)
#
#
# Indices 1 2 3 4 5 6 
#
# 1 0.031934 0.005001 -0.003444 -0.001742 0.017098 0.000309
# 2 0.005001 0.021589 -0.005864 -0.006094 0.003852 -0.010339
# 3 -0.003444 -0.005864 0.008329 0.000847 0.004099 0.000429
# 4 -0.001742 -0.006094 0.000847 0.021958 -0.007325 0.008488
# 5 0.017098 0.003852 0.004099 -0.007325 0.035033 -0.003119
# 6 0.000309 -0.010339 0.000429 0.008488 -0.003119 0.051961
#
#
# Mechanical properties :
#
#
# Convention : Reuss Voigt Hill
#
# Bulk Modulus (GPa) = 18.78338 57.22701 38.00519
# Shear Modulus (GPa) = 25.35974 41.44591 33.40283
#
# Velocity S-wave (km/s) = 3.22086 4.11756 3.69650
# Velocity P-wave (km/s) = 4.63849 6.78348 5.81082
#
# Compressibility (1/GPa) = 0.05323857
#
# Stress axis : x y z
#
# Youngs Moduli (GPa) = 31.31450 46.32053 120.05997
#
# Poissons Ratio (x) = -0.23163 0.41343
# Poissons Ratio (y) = -0.15659 0.70400
# Poissons Ratio (z) = 0.10783 0.27161
#
# Static dielectric constant tensor:
#      x y z
#    x 2.056370 0.015270 0.021040 
#    y 0.015270 2.053730 -0.057760 
#    z 0.021040 -0.057760 2.125630 
# 
# From -- ./inp_files/379439.got.cif
#   From: 2010.05.17/outbox.cif.g08.bks.cpg/sg2_190_cif.got.tgz:379439.got - 2010.06.03 11:33:40.
