data_PCOD9026012
_publ_section_title
;
Structure prediction by ZEFSAII (Michael W. Deem and Ramdas Pophale) SiO2 
 PCOD9026012
Probable space group: P -1
;
_chemical_formula_sum "Si O2"
_cell_formula_units_Z 14
_cell_length_a 7.828046
_cell_length_b 19.342564
_cell_length_c 11.583885
_cell_angle_alpha 35.597566
_cell_angle_beta 36.167364
_cell_angle_gamma 57.063022
_cell_volume 569.158769
_symmetry_space_group_name_H-M "P -1"
_symmetry_group_IT_number 2
_symmetry_cell_setting 'triclinic'
loop_
_space_group_symop_operation_xyz
x,y,z
-x,-y,-z
loop_
_atom_site_type_symbol
_atom_site_label
_atom_site_fract_x
_atom_site_fract_y
_atom_site_fract_z
Si Si1 0.170395 0.513904 0.183371
Si Si2 0.486325 0.139978 0.837949
Si Si3 0.957033 0.234392 0.652986
Si Si4 0.386876 0.930801 0.773375
Si Si5 0.535771 0.695460 0.914345
Si Si6 0.063672 0.890099 0.684925
Si Si7 0.014420 0.665649 0.858148
O O1 0.968996 0.370481 0.508807
O O2 0.500000 0.500000 0.000000
O O3 0.232210 0.608266 0.131084
O O4 0.068419 0.562098 0.053915
O O5 0.652368 0.181144 0.814748
O O6 0.688833 0.247989 0.493844
O O7 0.132325 0.128344 0.065398
O O8 0.500000 0.000000 0.000000
O O9 0.230990 0.246698 0.397751
O O10 0.936635 0.137235 0.898986
O O11 0.500612 0.809367 0.854681
O O12 0.500000 0.000000 0.500000
O O13 0.572000 0.049860 0.588941
O O14 0.723186 0.624732 0.986071
O O15 0.958880 0.762280 0.848280
O O16 0.000000 0.000000 0.500000
#
# Coordination Sequence:
#
# PCOD9026012 Si02
#       7
#     2   2   2   2   2   2   2
#     4  10  24  44  64  91 129 167 216 266 302 376
#     4  11  20  36  67  96 123 166 206 256 321 379
#     4  10  22  41  61  88 127 163 208 261 311 370
#     4  12  24  39  62  93 128 163 205 263 320 375
#     4  10  22  41  65  91 125 164 210 257 314 373
#     4  12  20  38  64  92 129 157 208 262 308 379
#     4  11  22  41  67  93 127 170 209 258 321 369
#
# _framework density 24.597704
#
# number of rings (size 3 to 8) (size 9 to 14) (size 15 to 20)
#    0.000    1.143    4.286    1.714    0.000    8.571 
#    0.000    5.714    0.000    0.000    0.000    0.000 
#    0.000    0.000    0.000    0.000    0.000    0.000 
#
# Total GULP energy -78099.321589 kJ/mol
# GULP energy per Si atom -5578.522971 kJ/mol
# Density = 2.454172 g / cm^3
# Si number density = 24.597704 Si / 1000 Ang^3
#
#
#
# Elastic Constant Matrix: (Units=GPa)
#
#
# Indices 1 2 3 4 5 6 
#
# 1 94.1090 9.8852 49.6440 -13.3362 11.2236 16.6887
# 2 9.8852 82.8147 15.2584 -0.8132 -6.5722 13.0683
# 3 49.6440 15.2584 140.7618 5.7563 7.9421 4.5117
# 4 -13.3362 -0.8132 5.7563 33.4854 10.6090 -1.5753
# 5 11.2236 -6.5722 7.9421 10.6090 40.7380 -9.4819
# 6 16.6887 13.0683 4.5117 -1.5753 -9.4819 32.6495
#
#
#
# Elastic Compliance Matrix: (Units=1/GPa)
#
#
# Indices 1 2 3 4 5 6 
#
# 1 0.018314 -0.000012 -0.006039 0.010728 -0.009145 -0.010660
# 2 -0.000012 0.013170 -0.001343 -0.000093 0.001320 -0.004701
# 3 -0.006039 -0.001343 0.009403 -0.004358 0.001331 0.002501
# 4 0.010728 -0.000093 -0.004358 0.038956 -0.013895 -0.007000
# 5 -0.009145 0.001320 0.001331 -0.013895 0.033682 0.013073
# 6 -0.010660 -0.004701 0.002501 -0.007000 0.013073 0.041072
#
#
# Mechanical properties :
#
#
# Convention : Reuss Voigt Hill
#
# Bulk Modulus (GPa) = 38.31629 51.91785 45.11707
# Shear Modulus (GPa) = 28.07671 37.56780 32.82225
#
# Velocity S-wave (km/s) = 3.38218 3.91229 3.65686
# Velocity P-wave (km/s) = 5.55546 6.44676 6.01763
#
# Compressibility (1/GPa) = 0.02609856
#
# Stress axis : x y z
#
# Youngs Moduli (GPa) = 54.60276 75.93182 106.35429
#
# Poissons Ratio (x) = 0.00088 0.64225
# Poissons Ratio (y) = 0.00064 0.14288
# Poissons Ratio (z) = 0.32973 0.10201
#
# Static dielectric constant tensor:
#      x y z
#    x 2.155150 0.024930 -0.018550 
#    y 0.024930 1.964740 0.032500 
#    z -0.018550 0.032500 1.981920 
# 
# From -- ./inp_files/183842.got.cif
#   From: 2010.05.17/outbox.cif.g08.bks.cpg/sg2_92_cif.got.tgz:183842.got - 2010.06.03 11:33:40.
