data_PCOD9026687
_publ_section_title
;
Structure prediction by ZEFSAII (Michael W. Deem and Ramdas Pophale) SiO2 
 PCOD9026687
Probable space group: P -1
;
_chemical_formula_sum "Si O2"
_cell_formula_units_Z 12
_cell_length_a 7.465241
_cell_length_b 5.254683
_cell_length_c 18.920342
_cell_angle_alpha 57.926951
_cell_angle_beta 56.743672
_cell_angle_gamma 68.536006
_cell_volume 522.984112
_symmetry_space_group_name_H-M "P -1"
_symmetry_group_IT_number 2
_symmetry_cell_setting 'triclinic'
loop_
_space_group_symop_operation_xyz
x,y,z
-x,-y,-z
loop_
_atom_site_type_symbol
_atom_site_label
_atom_site_fract_x
_atom_site_fract_y
_atom_site_fract_z
Si Si1 0.287123 0.895746 0.097798
Si Si2 0.976722 0.982065 0.392482
Si Si3 0.830732 0.897130 0.153931
Si Si4 0.774292 0.632682 0.613305
Si Si5 0.560702 0.705202 0.890724
Si Si6 0.730268 0.226625 0.270933
O O1 0.330914 0.537796 0.151671
O O2 0.078110 0.966571 0.084249
O O3 0.274432 0.075116 0.147220
O O4 0.500000 0.000000 0.000000
O O5 0.081937 0.240064 0.374896
O O6 0.653664 0.109060 0.118265
O O7 0.837783 0.109929 0.337741
O O8 0.830159 0.818305 0.503841
O O9 0.815313 0.550693 0.187813
O O10 0.157291 0.718347 0.366370
O O11 0.777961 0.980161 0.235054
O O12 0.525088 0.701155 0.675181
O O13 0.500000 0.500000 0.000000
#
# Coordination Sequence:
#
# PCOD9026687 Si02
#       6
#     2   2   2   2   2   2
#     4  10  23  42  65  88 118 159 204 257 311 376
#     4  10  22  41  65  92 126 170 212 248 298 368
#     4  12  26  40  62  96 124 161 208 259 319 368
#     4  10  22  41  65  92 126 170 212 248 298 368
#     4  10  23  42  65  88 118 159 204 257 311 376
#     4  12  25  40  63  94 132 163 202 261 314 364
#
# _framework density 22.945246999999998
#
# number of rings (size 3 to 8) (size 9 to 14) (size 15 to 20)
#    0.000    1.333    0.000    4.500    0.000   13.333 
#    0.000    6.667    0.000    0.000    0.000    0.000 
#    0.000    0.000    0.000    0.000    0.000    0.000 
#
# Total GULP energy -67194.496130 kJ/mol
# GULP energy per Si atom -5599.541344 kJ/mol
# Density = 2.289302 g / cm^3
# Si number density = 22.945247 Si / 1000 Ang^3
#
#
#
# Elastic Constant Matrix: (Units=GPa)
#
#
# Indices 1 2 3 4 5 6 
#
# 1 118.3372 -10.4316 -1.6680 -14.8813 13.9753 -1.6979
# 2 -10.4316 120.4154 -17.4991 4.0010 4.5430 6.1951
# 3 -1.6680 -17.4991 49.0994 -0.3583 8.2068 6.8934
# 4 -14.8813 4.0010 -0.3583 19.9619 -6.0177 1.1951
# 5 13.9753 4.5430 8.2068 -6.0177 47.2452 -1.1410
# 6 -1.6979 6.1951 6.8934 1.1951 -1.1410 28.7233
#
#
#
# Elastic Compliance Matrix: (Units=1/GPa)
#
#
# Indices 1 2 3 4 5 6 
#
# 1 0.009610 0.000884 0.001110 0.006321 -0.002321 -0.000244
# 2 0.000884 0.009260 0.004089 -0.001591 -0.002136 -0.002945
# 3 0.001110 0.004089 0.023641 -0.000700 -0.005078 -0.006663
# 4 0.006321 -0.001591 -0.000700 0.056884 0.005620 -0.001259
# 5 -0.002321 -0.002136 -0.005078 0.005620 0.023710 0.002250
# 6 -0.000244 -0.002945 -0.006663 -0.001259 0.002250 0.037176
#
#
# Mechanical properties :
#
#
# Convention : Reuss Voigt Hill
#
# Bulk Modulus (GPa) = 18.28919 25.40606 21.84763
# Shear Modulus (GPa) = 30.05870 40.34948 35.20409
#
# Velocity S-wave (km/s) = 3.62334 4.19801 3.92122
# Velocity P-wave (km/s) = 5.04905 5.88169 5.48120
#
# Compressibility (1/GPa) = 0.05467711
#
# Stress axis : x y z
#
# Youngs Moduli (GPa) = 104.06340 107.98653 42.29920
#
# Poissons Ratio (x) = -0.09544 -0.04694
# Poissons Ratio (y) = -0.09198 -0.17298
# Poissons Ratio (z) = -0.11549 -0.44160
#
# Static dielectric constant tensor:
#      x y z
#    x 1.799950 0.022340 -0.019750 
#    y 0.022340 1.903330 -0.105850 
#    z -0.019750 -0.105850 1.008120 
# 
# From -- ./inp_files/493215.got.cif
#   From: 2010.05.17/outbox.cif.g08.bks.cpg/sg2_247_cif.got.tgz:493215.got - 2010.06.03 11:33:40.
