data_PCOD9026300
_publ_section_title
;
Structure prediction by ZEFSAII (Michael W. Deem and Ramdas Pophale) SiO2 
 PCOD9026300
Probable space group: P -1
;
_chemical_formula_sum "Si O2"
_cell_formula_units_Z 14
_cell_length_a 7.610667
_cell_length_b 7.430304
_cell_length_c 10.274515
_cell_angle_alpha 82.520795
_cell_angle_beta 96.748334
_cell_angle_gamma 68.150042
_cell_volume 525.925961
_symmetry_space_group_name_H-M "P -1"
_symmetry_group_IT_number 2
_symmetry_cell_setting 'triclinic'
loop_
_space_group_symop_operation_xyz
x,y,z
-x,-y,-z
loop_
_atom_site_type_symbol
_atom_site_label
_atom_site_fract_x
_atom_site_fract_y
_atom_site_fract_z
Si Si1 0.771291 0.435860 0.912832
Si Si2 0.073778 0.175339 0.481951
Si Si3 0.574268 0.211237 0.451099
Si Si4 0.885974 0.738295 0.249630
Si Si5 0.782218 0.766502 0.755138
Si Si6 0.053964 0.910684 0.871090
Si Si7 0.561710 0.589497 0.296437
O O1 0.758846 0.658976 0.895490
O O2 0.597604 0.406526 0.824727
O O3 0.952159 0.357264 0.835594
O O4 0.820571 0.318139 0.063334
O O5 0.298458 0.021275 0.518647
O O6 0.021364 0.300148 0.595361
O O7 0.054780 0.302977 0.339136
O O8 0.000000 0.000000 0.500000
O O9 0.396871 0.238660 0.338896
O O10 0.659649 0.361819 0.378620
O O11 0.523492 0.290319 0.587317
O O12 0.703564 0.682022 0.240748
O O13 0.836729 0.973703 0.203668
O O14 0.847342 0.940304 0.789325
O O15 0.000000 0.000000 0.000000
#
# Coordination Sequence:
#
# PCOD9026300 Si02
#       7
#     2   2   2   2   2   2   2
#     4  10  24  43  65  89 132 169 213 256 303 382
#     4  12  23  36  62  99 128 159 208 261 319 378
#     4  10  23  40  60  96 134 159 203 263 315 384
#     4  11  23  38  65  96 125 167 208 258 318 367
#     4  11  22  41  66  90 123 173 202 260 321 361
#     4  10  23  42  63  92 124 168 216 258 308 366
#     4  10  22  41  63  94 129 169 204 254 323 369
#
# _framework density 26.619717999999999
#
# number of rings (size 3 to 8) (size 9 to 14) (size 15 to 20)
#    0.000    1.429    2.857    1.714    4.000    1.143 
#    0.000    1.429    0.000    9.429    0.000    0.000 
#    0.000    0.000    0.000    0.000    0.000    0.000 
#
# Total GULP energy -78152.908538 kJ/mol
# GULP energy per Si atom -5582.350610 kJ/mol
# Density = 2.655913 g / cm^3
# Si number density = 26.619718 Si / 1000 Ang^3
#
#
#
# Elastic Constant Matrix: (Units=GPa)
#
#
# Indices 1 2 3 4 5 6 
#
# 1 106.8713 38.9287 24.7939 -10.0479 2.4259 61.6342
# 2 38.9287 119.8206 31.4678 -24.5875 -1.3768 46.9397
# 3 24.7939 31.4678 107.7033 -12.8142 4.8123 24.3559
# 4 -10.0479 -24.5875 -12.8142 65.3009 11.9000 -12.7326
# 5 2.4259 -1.3768 4.8123 11.9000 34.1191 0.2582
# 6 61.6342 46.9397 24.3559 -12.7326 0.2582 62.2181
#
#
#
# Elastic Compliance Matrix: (Units=1/GPa)
#
#
# Indices 1 2 3 4 5 6 
#
# 1 0.022230 0.001985 -0.000380 -0.000258 -0.001180 -0.023419
# 2 0.001985 0.012752 -0.001471 0.002846 -0.000333 -0.010428
# 3 -0.000380 -0.001471 0.010589 0.001365 -0.001984 -0.002372
# 4 -0.000258 0.002846 0.001365 0.018023 -0.006355 0.001289
# 5 -0.001180 -0.000333 -0.001984 -0.006355 0.031870 0.000764
# 6 -0.023419 -0.010428 -0.002372 0.001289 0.000764 0.048327
#
#
# Mechanical properties :
#
#
# Convention : Reuss Voigt Hill
#
# Bulk Modulus (GPa) = 21.81482 58.30845 40.06163
# Shear Modulus (GPa) = 31.48527 48.27462 39.87995
#
# Velocity S-wave (km/s) = 3.44289 4.26313 3.87477
# Velocity P-wave (km/s) = 4.90076 6.79589 5.92459
#
# Compressibility (1/GPa) = 0.04584041
#
# Stress axis : x y z
#
# Youngs Moduli (GPa) = 44.98332 78.41623 94.43421
#
# Poissons Ratio (x) = -0.15566 0.03585
# Poissons Ratio (y) = -0.08929 0.13894
# Poissons Ratio (z) = 0.01708 0.11538
#
# Static dielectric constant tensor:
#      x y z
#    x 2.302490 -0.174830 0.070260 
#    y -0.174830 2.425040 -0.174680 
#    z 0.070260 -0.174680 2.137590 
# 
# From -- ./inp_files/376166.got.cif
#   From: 2010.05.17/outbox.cif.g08.bks.cpg/sg2_189_cif.got.tgz:376166.got - 2010.06.03 11:33:40.
