data_PCOD9026000
_publ_section_title
;
Structure prediction by ZEFSAII (Michael W. Deem and Ramdas Pophale) SiO2 
 PCOD9026000
Probable space group: P -1
;
_chemical_formula_sum "Si O2"
_cell_formula_units_Z 16
_cell_length_a 16.401347
_cell_length_b 9.341160
_cell_length_c 8.415261
_cell_angle_alpha 58.555423
_cell_angle_beta 70.989535
_cell_angle_gamma 117.635998
_cell_volume 643.279248
_symmetry_space_group_name_H-M "P -1"
_symmetry_group_IT_number 2
_symmetry_cell_setting 'triclinic'
loop_
_space_group_symop_operation_xyz
x,y,z
-x,-y,-z
loop_
_atom_site_type_symbol
_atom_site_label
_atom_site_fract_x
_atom_site_fract_y
_atom_site_fract_z
Si Si1 0.129241 0.373906 0.056011
Si Si2 0.487320 0.325412 0.228591
Si Si3 0.238858 0.128410 0.662875
Si Si4 0.196235 0.688372 0.326769
Si Si5 0.136799 0.256926 0.462192
Si Si6 0.943069 0.417402 0.832391
Si Si7 0.404556 0.511148 0.606898
Si Si8 0.616830 0.150680 0.614444
O O1 0.183978 0.389459 0.182561
O O2 0.063494 0.448780 0.112178
O O3 0.245482 0.591654 0.725811
O O4 0.013067 0.060518 0.265548
O O5 0.346744 0.152417 0.519637
O O6 0.603573 0.504921 0.188788
O O7 0.468348 0.119516 0.271873
O O8 0.500000 0.500000 0.000000
O O9 0.243930 0.285623 0.443556
O O10 0.268985 0.260464 0.736038
O O11 0.089901 0.813910 0.943364
O O12 0.132407 0.407768 0.494414
O O13 0.179839 0.744743 0.129265
O O14 0.332002 0.855672 0.249358
O O15 0.092101 0.641490 0.524539
O O16 0.500000 0.500000 0.500000
O O17 0.454250 0.774154 0.372592
#
# Coordination Sequence:
#
# PCOD9026000 Si02
#       8
#     2   2   2   2   2   2   2   2
#     4  10  23  39  65  99 138 172 214 263 326 402
#     4  11  27  46  67  99 125 170 233 294 335 387
#     4  11  22  43  68  90 133 177 216 275 333 396
#     4  10  23  39  65 102 135 178 214 253 330 409
#     4  10  22  41  61 102 136 174 214 260 321 406
#     4  10  22  41  62  99 143 172 212 263 318 411
#     4  10  25  47  66  94 126 172 227 287 336 385
#     4  12  23  44  71  97 131 181 218 278 341 395
#
# _framework density 24.872557
#
# number of rings (size 3 to 8) (size 9 to 14) (size 15 to 20)
#    0.000    1.500    2.500    1.125    7.000    2.000 
#    0.000    2.500    0.000    0.000    0.000    0.000 
#    0.000    0.000    0.000    0.000    0.000    0.000 
#
# Total GULP energy -89478.160135 kJ/mol
# GULP energy per Si atom -5592.385008 kJ/mol
# Density = 2.481595 g / cm^3
# Si number density = 24.872557 Si / 1000 Ang^3
#
#
#
# Elastic Constant Matrix: (Units=GPa)
#
#
# Indices 1 2 3 4 5 6 
#
# 1 103.8698 51.3616 13.3663 11.4641 29.7617 -5.6044
# 2 51.3616 182.9434 36.3556 -9.5094 16.2156 0.1632
# 3 13.3663 36.3556 89.9457 8.9701 6.9889 -5.3951
# 4 11.4641 -9.5094 8.9701 28.2207 -5.1431 11.7112
# 5 29.7617 16.2156 6.9889 -5.1431 38.1451 9.5910
# 6 -5.6044 0.1632 -5.3951 11.7112 9.5910 51.9270
#
#
#
# Elastic Compliance Matrix: (Units=1/GPa)
#
#
# Indices 1 2 3 4 5 6 
#
# 1 0.020006 -0.005562 0.003227 -0.018724 -0.018933 0.010232
# 2 -0.005562 0.007861 -0.003666 0.008209 0.003665 -0.003534
# 3 0.003227 -0.003666 0.013950 -0.010311 -0.006235 0.005286
# 4 -0.018724 0.008209 -0.010311 0.063346 0.027188 -0.022426
# 5 -0.018933 0.003665 -0.006235 0.027188 0.048722 -0.017834
# 6 0.010232 -0.003534 0.005286 -0.022426 -0.017834 0.029274
#
#
# Mechanical properties :
#
#
# Convention : Reuss Voigt Hill
#
# Bulk Modulus (GPa) = 33.54026 64.32512 48.93269
# Shear Modulus (GPa) = 24.37831 42.03692 33.20762
#
# Velocity S-wave (km/s) = 3.13410 4.11553 3.65788
# Velocity P-wave (km/s) = 5.15857 6.96430 6.12831
#
# Compressibility (1/GPa) = 0.02981491
#
# Stress axis : x y z
#
# Youngs Moduli (GPa) = 49.98469 127.20428 71.68516
#
# Poissons Ratio (x) = 0.70755 -0.23136
# Poissons Ratio (y) = 0.27803 0.26282
# Poissons Ratio (z) = -0.16132 0.46637
#
# Static dielectric constant tensor:
#      x y z
#    x 2.095490 0.025880 -0.029160 
#    y 0.025880 1.903720 0.025880 
#    z -0.029160 0.025880 1.930980 
# 
# From -- ./inp_files/297441.got.cif
#   From: 2010.05.17/outbox.cif.g08.bks.cpg/sg2_149_cif.got.tgz:297441.got - 2010.06.03 11:33:40.
