data_PCOD9026533
_publ_section_title
;
Structure prediction by ZEFSAII (Michael W. Deem and Ramdas Pophale) SiO2 
 PCOD9026533
Probable space group: P -1
;
_chemical_formula_sum "Si O2"
_cell_formula_units_Z 14
_cell_length_a 16.977086
_cell_length_b 8.483804
_cell_length_c 6.441801
_cell_angle_alpha 93.835132
_cell_angle_beta 134.407149
_cell_angle_gamma 110.204364
_cell_volume 552.235508
_symmetry_space_group_name_H-M "P -1"
_symmetry_group_IT_number 2
_symmetry_cell_setting 'triclinic'
loop_
_space_group_symop_operation_xyz
x,y,z
-x,-y,-z
loop_
_atom_site_type_symbol
_atom_site_label
_atom_site_fract_x
_atom_site_fract_y
_atom_site_fract_z
Si Si1 0.427063 0.584473 0.578538
Si Si2 0.592161 0.798752 0.541911
Si Si3 0.369330 0.771525 0.872634
Si Si4 0.745051 0.005167 0.484347
Si Si5 0.126365 0.193223 0.339954
Si Si6 0.019861 0.363138 0.887740
Si Si7 0.181858 0.463912 0.811255
O O1 0.558810 0.753368 0.718185
O O2 0.436492 0.402858 0.611490
O O3 0.397585 0.667863 0.731737
O O4 0.309397 0.512827 0.185529
O O5 0.726808 0.971187 0.700001
O O6 0.486305 0.837090 0.256877
O O7 0.351174 0.931480 0.760852
O O8 0.239655 0.624348 0.755707
O O9 0.881322 0.166569 0.643823
O O10 0.747980 0.822021 0.417730
O O11 0.114813 0.265433 0.548009
O O12 0.129780 0.335957 0.191724
O O13 0.000000 0.000000 0.000000
O O14 0.075472 0.446128 0.773311
O O15 0.000000 0.500000 0.000000
#
# Coordination Sequence:
#
# PCOD9026533 Si02
#       7
#     2   2   2   2   2   2   2
#     4  10  22  42  69  96 126 171 222 272 327 392
#     4  10  22  41  64  95 130 171 218 271 332 385
#     4  11  23  41  65  94 130 172 220 272 324 389
#     4  11  23  40  63  94 133 170 212 269 325 388
#     4  10  24  43  63  94 132 169 216 270 325 387
#     4  11  24  44  68  96 131 172 220 270 326 392
#     4  11  22  42  69  94 128 174 220 266 327 391
#
# _framework density 25.351502
#
# number of rings (size 3 to 8) (size 9 to 14) (size 15 to 20)
#    0.000    1.429    0.000    5.143    0.000    7.429 
#    0.000   14.286    0.000    0.000    0.000    0.000 
#    0.000    0.000    0.000    0.000    0.000    0.000 
#
# Total GULP energy -78154.773185 kJ/mol
# GULP energy per Si atom -5582.483799 kJ/mol
# Density = 2.529380 g / cm^3
# Si number density = 25.351502 Si / 1000 Ang^3
#
#
#
# Elastic Constant Matrix: (Units=GPa)
#
#
# Indices 1 2 3 4 5 6 
#
# 1 200.3030 84.7270 25.3369 -19.5546 -25.7375 22.2627
# 2 84.7270 112.9054 18.9693 -38.4420 3.6338 11.2079
# 3 25.3369 18.9693 83.8338 -21.7288 2.3498 -6.4565
# 4 -19.5546 -38.4420 -21.7288 43.7766 -13.6434 15.7465
# 5 -25.7375 3.6338 2.3498 -13.6434 40.9436 -10.0682
# 6 22.2627 11.2079 -6.4565 15.7465 -10.0682 70.5273
#
#
#
# Elastic Compliance Matrix: (Units=1/GPa)
#
#
# Indices 1 2 3 4 5 6 
#
# 1 0.008771 -0.006584 -0.001519 -0.000477 0.005798 -0.000927
# 2 -0.006584 0.019573 0.001421 0.016114 -0.001756 -0.004751
# 3 -0.001519 0.001421 0.014060 0.007799 0.000686 -0.000103
# 4 -0.000477 0.016114 0.007799 0.048025 0.011164 -0.010825
# 5 0.005798 -0.001756 0.000686 0.011164 0.032051 0.000595
# 6 -0.000927 -0.004751 -0.000103 -0.010825 0.000595 0.017719
#
#
# Mechanical properties :
#
#
# Convention : Reuss Voigt Hill
#
# Bulk Modulus (GPa) = 34.43341 72.78985 53.61163
# Shear Modulus (GPa) = 30.62919 48.91675 39.77297
#
# Velocity S-wave (km/s) = 3.47966 4.39742 3.96518
# Velocity P-wave (km/s) = 5.45490 7.38631 6.49283
#
# Compressibility (1/GPa) = 0.02904156
#
# Stress axis : x y z
#
# Youngs Moduli (GPa) = 114.01342 51.08973 71.12340
#
# Poissons Ratio (x) = 0.33635 0.10801
# Poissons Ratio (y) = 0.75062 -0.10105
# Poissons Ratio (z) = 0.17314 -0.07259
#
# Static dielectric constant tensor:
#      x y z
#    x 2.032150 0.006120 0.049270 
#    y 0.006120 1.970420 -0.005700 
#    z 0.049270 -0.005700 2.017110 
# 
# From -- ./inp_files/106815.got.cif
#   From: 2010.05.17/outbox.cif.g08.bks.cpg/sg2_54_cif.got.tgz:106815.got - 2010.06.03 11:33:40.
