data_PCOD9026219
_publ_section_title
;
Structure prediction by ZEFSAII (Michael W. Deem and Ramdas Pophale) SiO2 
 PCOD9026219
Probable space group: P -1
;
_chemical_formula_sum "Si O2"
_cell_formula_units_Z 16
_cell_length_a 6.204352
_cell_length_b 7.909027
_cell_length_c 17.854240
_cell_angle_alpha 60.186521
_cell_angle_beta 66.535910
_cell_angle_gamma 80.663048
_cell_volume 696.598960
_symmetry_space_group_name_H-M "P -1"
_symmetry_group_IT_number 2
_symmetry_cell_setting 'triclinic'
loop_
_space_group_symop_operation_xyz
x,y,z
-x,-y,-z
loop_
_atom_site_type_symbol
_atom_site_label
_atom_site_fract_x
_atom_site_fract_y
_atom_site_fract_z
Si Si1 0.904864 0.192641 0.576777
Si Si2 0.558106 0.002676 0.272590
Si Si3 0.800084 0.515558 0.262196
Si Si4 0.282140 0.401490 0.909206
Si Si5 0.766716 0.524550 0.430594
Si Si6 0.297406 0.922394 0.599123
Si Si7 0.285589 0.356899 0.175146
Si Si8 0.000551 0.205965 0.110132
O O1 0.858405 0.306309 0.480721
O O2 0.077754 0.336509 0.567973
O O3 0.044563 0.995411 0.592625
O O4 0.661429 0.153913 0.664816
O O5 0.424319 0.206517 0.239118
O O6 0.791960 0.039592 0.180944
O O7 0.658879 0.988220 0.344734
O O8 0.700311 0.615437 0.179616
O O9 0.787881 0.607726 0.325427
O O10 0.064437 0.455803 0.220533
O O11 0.674294 0.305499 0.341503
O O12 0.525982 0.463027 0.903353
O O13 0.129677 0.591708 0.902617
O O14 0.142269 0.224630 0.009031
O O15 0.500000 0.500000 0.500000
O O16 0.500000 0.000000 0.500000
O O17 0.188442 0.224429 0.148129
#
# Coordination Sequence:
#
# PCOD9026219 Si02
#       8
#     2   2   2   2   2   2   2   2
#     4  11  24  41  60  85 115 163 204 240 300 351
#     4  11  19  35  57  86 124 152 196 237 297 357
#     4  11  21  37  58  89 121 149 200 244 302 341
#     4   9  18  31  53  85 125 154 186 239 295 352
#     4  11  26  44  60  83 118 162 207 247 292 355
#     4  12  23  36  59  89 119 152 194 253 299 353
#     4  10  17  31  55  88 120 154 191 237 294 353
#     4   9  17  31  51  85 124 157 187 229 298 354
#
# _framework density 22.968741000000001
#
# number of rings (size 3 to 8) (size 9 to 14) (size 15 to 20)
#    0.000    1.500    5.000    2.625    1.750    4.000 
#    0.000    0.000    0.000    0.750    0.000    7.000 
#    0.000    0.000    0.000    0.000    0.000    0.000 
#
# Total GULP energy -89272.476321 kJ/mol
# GULP energy per Si atom -5579.529770 kJ/mol
# Density = 2.291646 g / cm^3
# Si number density = 22.968741 Si / 1000 Ang^3
#
#
#
# Elastic Constant Matrix: (Units=GPa)
#
#
# Indices 1 2 3 4 5 6 
#
# 1 93.9757 9.1710 51.5534 -6.1870 -8.1296 5.8957
# 2 9.1710 36.2478 15.0830 -1.2376 4.5096 9.0860
# 3 51.5534 15.0830 164.8007 -3.0470 -17.9243 12.2378
# 4 -6.1870 -1.2376 -3.0470 25.5128 15.2281 1.4903
# 5 -8.1296 4.5096 -17.9243 15.2281 32.3821 -7.8541
# 6 5.8957 9.0860 12.2378 1.4903 -7.8541 25.8449
#
#
#
# Elastic Compliance Matrix: (Units=1/GPa)
#
#
# Indices 1 2 3 4 5 6 
#
# 1 0.013131 -0.001351 -0.003888 0.002842 -0.000225 -0.000912
# 2 -0.001351 0.035946 -0.003242 0.012045 -0.016831 -0.016603
# 3 -0.003888 -0.003242 0.008123 -0.003504 0.005643 0.000098
# 4 0.002842 0.012045 -0.003504 0.063207 -0.037022 -0.018119
# 5 -0.000225 -0.016831 0.005643 -0.037022 0.059398 0.023482
# 6 -0.000912 -0.016603 0.000098 -0.018119 0.023482 0.052872
#
#
# Mechanical properties :
#
#
# Convention : Reuss Voigt Hill
#
# Bulk Modulus (GPa) = 24.85288 49.62657 37.23972
# Shear Modulus (GPa) = 19.00774 31.36241 25.18507
#
# Velocity S-wave (km/s) = 2.87983 3.69919 3.31493
# Velocity P-wave (km/s) = 4.67993 6.31652 5.55878
#
# Compressibility (1/GPa) = 0.04023679
#
# Stress axis : x y z
#
# Youngs Moduli (GPa) = 76.15744 27.81972 123.11132
#
# Poissons Ratio (x) = 0.03757 0.47868
# Poissons Ratio (y) = 0.10286 0.39917
# Poissons Ratio (z) = 0.29612 0.09020
#
# Static dielectric constant tensor:
#      x y z
#    x 1.882150 0.020670 0.007120 
#    y 0.020670 1.927750 -0.023700 
#    z 0.007120 -0.023700 1.894000 
# 
# From -- ./inp_files/80391.got.cif
#   From: 2010.05.17/outbox.cif.g08.bks.cpg/sg2_41_cif.got.tgz:80391.got - 2010.06.03 11:33:40.
