data_PCOD9026454
_publ_section_title
;
Structure prediction by ZEFSAII (Michael W. Deem and Ramdas Pophale) SiO2 
 PCOD9026454
Probable space group: P -1
;
_chemical_formula_sum "Si O2"
_cell_formula_units_Z 16
_cell_length_a 22.360015
_cell_length_b 8.921001
_cell_length_c 6.602236
_cell_angle_alpha 55.648012
_cell_angle_beta 48.913620
_cell_angle_gamma 46.133746
_cell_volume 701.138985
_symmetry_space_group_name_H-M "P -1"
_symmetry_group_IT_number 2
_symmetry_cell_setting 'triclinic'
loop_
_space_group_symop_operation_xyz
x,y,z
-x,-y,-z
loop_
_atom_site_type_symbol
_atom_site_label
_atom_site_fract_x
_atom_site_fract_y
_atom_site_fract_z
Si Si1 0.331591 0.960310 0.626480
Si Si2 0.017052 0.661847 0.711407
Si Si3 0.514158 0.198803 0.272523
Si Si4 0.407764 0.535618 0.571892
Si Si5 0.194135 0.661894 0.391438
Si Si6 0.927561 0.957122 0.317650
Si Si7 0.152341 0.018173 0.930532
Si Si8 0.386131 0.294834 0.150311
O O1 0.389438 0.863159 0.781910
O O2 0.342319 0.784326 0.573083
O O3 0.221393 0.088376 0.812771
O O4 0.372442 0.095606 0.339401
O O5 0.981561 0.746408 0.498300
O O6 0.123482 0.585339 0.556551
O O7 0.948990 0.875079 0.824014
O O8 0.000000 0.500000 0.000000
O O9 0.439683 0.421609 0.373279
O O10 0.483781 0.239644 0.075027
O O11 0.500000 0.000000 0.500000
O O12 0.500000 0.500000 0.500000
O O13 0.379223 0.391281 0.872618
O O14 0.298397 0.473642 0.338290
O O15 0.144170 0.838554 0.543671
O O16 0.196220 0.780377 0.093721
O O17 0.866655 0.933215 0.298964
O O18 0.000000 0.000000 0.000000
#
# Coordination Sequence:
#
# PCOD9026454 Si02
#       8
#     2   2   2   2   2   2   2   2
#     4  10  22  41  65  95 134 170 215 281 329 390
#     4  11  23  40  64  96 134 170 222 280 333 394
#     4   9  22  42  65  95 129 168 222 263 333 396
#     4  10  22  41  64  92 126 170 216 275 330 389
#     4  11  22  39  65  93 131 179 216 282 330 399
#     4  11  21  41  67  91 126 183 225 268 337 405
#     4  11  21  42  63  93 135 168 228 267 334 401
#     4  11  23  42  66  95 132 175 221 274 336 396
#
# _framework density 22.820012999999999
#
# number of rings (size 3 to 8) (size 9 to 14) (size 15 to 20)
#    0.000    1.500    3.750    1.500    1.750    7.000 
#    0.000    8.750    0.000    0.000    0.000    0.000 
#    0.000    0.000    0.000    0.000    0.000    0.000 
#
# Total GULP energy -89160.898426 kJ/mol
# GULP energy per Si atom -5572.556152 kJ/mol
# Density = 2.276807 g / cm^3
# Si number density = 22.820013 Si / 1000 Ang^3
#
#
#
# Elastic Constant Matrix: (Units=GPa)
#
#
# Indices 1 2 3 4 5 6 
#
# 1 132.0307 13.1412 37.8180 -8.3029 0.3554 -21.6450
# 2 13.1412 70.4380 15.5013 -11.1966 0.6926 -7.3278
# 3 37.8180 15.5013 102.6530 -22.2416 -4.0773 -1.8006
# 4 -8.3029 -11.1966 -22.2416 33.5294 -4.4165 -8.7449
# 5 0.3554 0.6926 -4.0773 -4.4165 33.1570 -3.5973
# 6 -21.6450 -7.3278 -1.8006 -8.7449 -3.5973 26.3920
#
#
#
# Elastic Compliance Matrix: (Units=1/GPa)
#
#
# Indices 1 2 3 4 5 6 
#
# 1 0.010106 0.000225 -0.002846 0.003265 0.000989 0.009373
# 2 0.000225 0.016162 -0.000858 0.006890 0.001239 0.007065
# 3 -0.002846 -0.000858 0.012857 0.008296 0.002892 0.001448
# 4 0.003265 0.006890 0.008296 0.045227 0.009187 0.021394
# 5 0.000989 0.001239 0.002892 0.009187 0.032662 0.008848
# 6 0.009373 0.007065 0.001448 0.021394 0.008848 0.055933
#
#
# Mechanical properties :
#
#
# Convention : Reuss Voigt Hill
#
# Bulk Modulus (GPa) = 31.08670 48.67143 39.87907
# Shear Modulus (GPa) = 26.22923 34.52641 30.37782
#
# Velocity S-wave (km/s) = 3.39395 3.89393 3.65251
# Velocity P-wave (km/s) = 5.38616 6.44916 5.94148
#
# Compressibility (1/GPa) = 0.03216810
#
# Stress axis : x y z
#
# Youngs Moduli (GPa) = 98.95028 61.87516 77.77647
#
# Poissons Ratio (x) = -0.01394 0.22136
# Poissons Ratio (y) = -0.02229 0.06670
# Poissons Ratio (z) = 0.28162 0.05306
#
# Static dielectric constant tensor:
#      x y z
#    x 1.892540 -0.008140 -0.022670 
#    y -0.008140 2.203120 -0.061720 
#    z -0.022670 -0.061720 1.973410 
# 
# From -- ./inp_files/116602.got.cif
#   From: 2010.05.17/outbox.cif.g08.bks.cpg/sg2_59_cif.got.tgz:116602.got - 2010.06.03 11:33:40.
