data_PCOD9026035
_publ_section_title
;
Structure prediction by ZEFSAII (Michael W. Deem and Ramdas Pophale) SiO2 
 PCOD9026035
Probable space group: P -1
;
_chemical_formula_sum "Si O2"
_cell_formula_units_Z 14
_cell_length_a 13.411733
_cell_length_b 9.281450
_cell_length_c 12.919464
_cell_angle_alpha 115.195199
_cell_angle_beta 157.568307
_cell_angle_gamma 63.702632
_cell_volume 549.539788
_symmetry_space_group_name_H-M "P -1"
_symmetry_group_IT_number 2
_symmetry_cell_setting 'triclinic'
loop_
_space_group_symop_operation_xyz
x,y,z
-x,-y,-z
loop_
_atom_site_type_symbol
_atom_site_label
_atom_site_fract_x
_atom_site_fract_y
_atom_site_fract_z
Si Si1 0.419999 0.322623 0.613113
Si Si2 0.880077 0.086910 0.687262
Si Si3 0.150838 0.605168 0.805767
Si Si4 0.130680 0.837732 0.681646
Si Si5 0.320595 0.234675 0.906504
Si Si6 0.661469 0.840962 0.721547
Si Si7 0.505186 0.350419 0.328364
O O1 0.387800 0.192374 0.454562
O O2 0.487422 0.476850 0.659472
O O3 0.141662 0.366349 0.417773
O O4 0.657611 0.293330 0.914110
O O5 0.593549 0.052355 0.439576
O O6 0.797606 0.262484 0.610016
O O7 0.007233 0.962870 0.687130
O O8 0.070973 0.097686 0.970503
O O9 0.144864 0.666584 0.701855
O O10 0.273895 0.420283 0.880667
O O11 0.938969 0.834724 0.399021
O O12 0.424143 0.854294 0.934535
O O13 0.389541 0.244327 0.096053
O O14 0.656973 0.672473 0.730051
#
# Coordination Sequence:
#
# PCOD9026035 Si02
#       7
#     2   2   2   2   2   2   2
#     4  11  22  40  68  91 118 159 198 255 311 338
#     4  10  24  39  61  88 130 157 203 237 298 371
#     4  11  24  41  63  94 119 152 213 251 290 365
#     4  12  24  43  61  87 126 166 197 249 299 349
#     4  11  23  39  66  89 119 160 202 250 306 344
#     4  10  22  41  61  93 124 157 196 249 306 353
#     4   9  24  38  64  93 126 145 209 246 300 369
#
# _framework density 25.475863
#
# number of rings (size 3 to 8) (size 9 to 14) (size 15 to 20)
#    0.857    0.571    0.000    5.571    6.000    1.714 
#    0.000    4.286    0.000    0.000    0.000    0.000 
#    0.000    0.000    0.000    0.000    0.000    0.000 
#
# Total GULP energy -78461.088869 kJ/mol
# GULP energy per Si atom -5604.363491 kJ/mol
# Density = 2.541788 g / cm^3
# Si number density = 25.475863 Si / 1000 Ang^3
#
#
#
# Elastic Constant Matrix: (Units=GPa)
#
#
# Indices 1 2 3 4 5 6 
#
# 1 87.7477 13.4702 25.4542 -3.5448 -20.5356 11.4176
# 2 13.4702 63.8045 11.5183 0.6822 -8.0108 3.5789
# 3 25.4542 11.5183 152.5144 4.8982 -32.7067 3.1864
# 4 -3.5448 0.6822 4.8982 29.0294 -9.1521 -1.1227
# 5 -20.5356 -8.0108 -32.7067 -9.1521 40.3193 13.3512
# 6 11.4176 3.5789 3.1864 -1.1227 13.3512 33.6422
#
#
#
# Elastic Compliance Matrix: (Units=1/GPa)
#
#
# Indices 1 2 3 4 5 6 
#
# 1 0.016072 -0.001318 0.000176 0.005575 0.012705 -0.010187
# 2 -0.001318 0.016564 -0.000268 0.000457 0.003371 -0.002612
# 3 0.000176 -0.000268 0.008422 0.001126 0.008503 -0.004166
# 4 0.005575 0.000457 0.001126 0.039399 0.015001 -0.006686
# 5 0.012705 0.003371 0.008503 0.015001 0.050534 -0.025030
# 6 -0.010187 -0.002612 -0.004166 -0.006686 -0.025030 0.043565
#
#
# Mechanical properties :
#
#
# Convention : Reuss Voigt Hill
#
# Bulk Modulus (GPa) = 26.15239 44.99469 35.57354
# Shear Modulus (GPa) = 26.29887 37.50645 31.90266
#
# Velocity S-wave (km/s) = 3.21644 3.84113 3.54258
# Velocity P-wave (km/s) = 4.90732 6.11330 5.54320
#
# Compressibility (1/GPa) = 0.03823743
#
# Stress axis : x y z
#
# Youngs Moduli (GPa) = 62.22066 60.37056 118.73571
#
# Poissons Ratio (x) = 0.07955 -0.02085
# Poissons Ratio (y) = 0.08199 0.03185
# Poissons Ratio (z) = -0.01093 0.01619
#
# Static dielectric constant tensor:
#      x y z
#    x 1.938370 0.045810 0.005390 
#    y 0.045810 2.094130 0.039890 
#    z 0.005390 0.039890 1.939870 
# 
# From -- ./inp_files/66982.got.cif
#   From: 2010.05.17/outbox.cif.g08.bks.cpg/sg2_34_cif.got.tgz:66982.got - 2010.06.03 11:33:40.
