data_PCOD9026461
_publ_section_title
;
Structure prediction by ZEFSAII (Michael W. Deem and Ramdas Pophale) SiO2 
 PCOD9026461
Probable space group: P -1
;
_chemical_formula_sum "Si O2"
_cell_formula_units_Z 14
_cell_length_a 13.835039
_cell_length_b 16.437061
_cell_length_c 14.313061
_cell_angle_alpha 145.369416
_cell_angle_beta 158.759332
_cell_angle_gamma 34.658533
_cell_volume 645.203903
_symmetry_space_group_name_H-M "P -1"
_symmetry_group_IT_number 2
_symmetry_cell_setting 'triclinic'
loop_
_space_group_symop_operation_xyz
x,y,z
-x,-y,-z
loop_
_atom_site_type_symbol
_atom_site_label
_atom_site_fract_x
_atom_site_fract_y
_atom_site_fract_z
Si Si1 0.185251 0.100648 0.304045
Si Si2 0.464006 0.180948 0.950784
Si Si3 0.090766 0.048831 0.372007
Si Si4 0.194507 0.105767 0.806623
Si Si5 0.109678 0.377993 0.361842
Si Si6 0.419741 0.476884 0.079048
Si Si7 0.020574 0.742131 0.048861
O O1 0.154619 0.246098 0.351681
O O2 0.089537 0.135461 0.356846
O O3 0.500000 0.000000 0.500000
O O4 0.000000 0.000000 0.000000
O O5 0.254946 0.212013 0.879326
O O6 0.349684 0.060166 0.677523
O O7 0.787203 0.118532 0.209509
O O8 0.437971 0.316988 0.985757
O O9 0.114361 0.876909 0.212523
O O10 0.086542 0.197812 0.889782
O O11 0.000000 0.000000 0.500000
O O12 0.500000 0.000000 0.000000
O O13 0.294096 0.488515 0.652567
O O14 0.181019 0.302087 0.250852
O O15 0.792479 0.472653 0.150248
O O16 0.271999 0.594545 0.137542
#
# Coordination Sequence:
#
# PCOD9026461 Si02
#       7
#     2   2   2   2   2   2   2
#     4  12  22  38  66 102 127 163 218 269 312 374
#     4  12  25  45  61  98 133 166 214 263 322 385
#     4  12  24  40  69  95 130 167 212 272 320 367
#     4  12  24  39  66  97 127 162 212 270 322 370
#     4  10  22  41  64  92 129 162 220 256 317 366
#     4  10  24  42  66  86 137 173 206 260 318 384
#     4  10  23  40  69  89 127 166 216 257 323 363
#
# _framework density 21.698566
#
# number of rings (size 3 to 8) (size 9 to 14) (size 15 to 20)
#    0.857    0.000    4.286    3.429    4.000    0.571 
#    0.000    5.000    0.000    0.000    0.000    0.000 
#    0.000    0.000    0.000    0.000    0.000    0.000 
#
# Total GULP energy -78186.611089 kJ/mol
# GULP energy per Si atom -5584.757935 kJ/mol
# Density = 2.164918 g / cm^3
# Si number density = 21.698566 Si / 1000 Ang^3
#
#
#
# Elastic Constant Matrix: (Units=GPa)
#
#
# Indices 1 2 3 4 5 6 
#
# 1 89.0706 -17.0117 19.1699 3.5676 0.1237 12.2793
# 2 -17.0117 76.4126 30.9417 1.4907 16.3323 14.8769
# 3 19.1699 30.9417 149.0987 -6.1928 22.7146 11.6647
# 4 3.5676 1.4907 -6.1928 23.2524 7.0179 5.7244
# 5 0.1237 16.3323 22.7146 7.0179 23.9364 2.8859
# 6 12.2793 14.8769 11.6647 5.7244 2.8859 39.5257
#
#
#
# Elastic Compliance Matrix: (Units=1/GPa)
#
#
# Indices 1 2 3 4 5 6 
#
# 1 0.013489 0.005031 -0.002446 -0.001773 -0.000047 -0.005102
# 2 0.005031 0.018791 -0.002250 0.002461 -0.010523 -0.007560
# 3 -0.002446 -0.002250 0.009167 0.005920 -0.008728 -0.001319
# 4 -0.001773 0.002461 0.005920 0.053348 -0.021935 -0.008247
# 5 -0.000047 -0.010523 -0.008728 -0.021935 0.063053 0.005124
# 6 -0.005102 -0.007560 -0.001319 -0.008247 0.005124 0.030940
#
#
# Mechanical properties :
#
#
# Convention : Reuss Voigt Hill
#
# Bulk Modulus (GPa) = 23.74255 42.30907 33.02581
# Shear Modulus (GPa) = 24.73340 36.10836 30.42088
#
# Velocity S-wave (km/s) = 3.37985 4.08375 3.74836
# Velocity P-wave (km/s) = 5.11829 6.46351 5.82983
#
# Compressibility (1/GPa) = 0.04211848
#
# Stress axis : x y z
#
# Youngs Moduli (GPa) = 74.13519 53.21729 109.08635
#
# Poissons Ratio (x) = -0.26775 0.26680
# Poissons Ratio (y) = -0.37300 0.24541
# Poissons Ratio (z) = 0.18132 0.11972
#
# Static dielectric constant tensor:
#      x y z
#    x 1.869940 0.015940 0.002440 
#    y 0.015940 1.758210 -0.021940 
#    z 0.002440 -0.021940 1.773140 
# 
# From -- ./inp_files/50111.got.cif
#   From: 2010.05.17/outbox.cif.g08.bks.cpg/sg2_26_cif.got.tgz:50111.got - 2010.06.03 11:33:40.
