data_PCOD9026593
_publ_section_title
;
Structure prediction by ZEFSAII (Michael W. Deem and Ramdas Pophale) SiO2 
 PCOD9026593
Probable space group: P -1
;
_chemical_formula_sum "Si O2"
_cell_formula_units_Z 13
_cell_length_a 11.499474
_cell_length_b 17.134002
_cell_length_c 13.253231
_cell_angle_alpha 23.691652
_cell_angle_beta 134.355141
_cell_angle_gamma 148.988258
_cell_volume 492.067398
_symmetry_space_group_name_H-M "P -1"
_symmetry_group_IT_number 2
_symmetry_cell_setting 'triclinic'
loop_
_space_group_symop_operation_xyz
x,y,z
-x,-y,-z
loop_
_atom_site_type_symbol
_atom_site_label
_atom_site_fract_x
_atom_site_fract_y
_atom_site_fract_z
Si Si1 0.197916 0.778272 0.155441
Si Si2 0.039852 0.813207 0.216640
Si Si3 0.365621 0.179293 0.473924
Si Si4 0.170282 0.308353 0.337177
Si Si5 0.502005 0.826623 0.783526
Si Si6 0.256196 0.693236 0.091702
Si Si7 0.500000 0.500000 0.000000
O O1 0.079494 0.816529 0.118229
O O2 0.172186 0.535810 0.471850
O O3 0.478179 0.108201 0.931286
O O4 0.097517 0.653920 0.129484
O O5 0.283482 0.969262 0.242955
O O6 0.000000 0.000000 0.000000
O O7 0.360455 0.308295 0.419535
O O8 0.314900 0.913689 0.786533
O O9 0.544321 0.356602 0.277578
O O10 0.107660 0.022756 0.449395
O O11 0.249867 0.547934 0.022014
O O12 0.175307 0.421493 0.313035
O O13 0.546143 0.683834 0.906477
O O14 0.500000 0.000000 0.500000
#
# Coordination Sequence:
#
# PCOD9026593 Si02
#       7
#     2   2   2   2   2   2   1
#     4  10  26  43  67 100 131 186 233 275 340 415
#     4  11  26  47  69  99 141 183 229 286 342 408
#     4  10  23  40  65  99 136 174 227 285 344 419
#     4  10  22  41  64  98 136 176 221 282 348 403
#     4  11  24  42  70 100 136 178 228 287 341 408
#     4  11  22  43  69  94 137 177 226 284 339 412
#     4  10  24  38  66 104 132 174 226 282 352 402
#
# _framework density 26.419146999999999
#
# number of rings (size 3 to 8) (size 9 to 14) (size 15 to 20)
#    0.000    1.538    1.538    1.385    8.615    2.462 
#    2.769    3.077    0.000    0.000    0.000    0.000 
#    0.000    0.000    0.000    0.000    0.000    0.000 
#
# Total GULP energy -72405.577983 kJ/mol
# GULP energy per Si atom -5569.659845 kJ/mol
# Density = 2.635902 g / cm^3
# Si number density = 26.419147 Si / 1000 Ang^3
#
#
#
# Elastic Constant Matrix: (Units=GPa)
#
#
# Indices 1 2 3 4 5 6 
#
# 1 135.0715 66.9241 23.8627 -8.1374 26.8025 -58.3151
# 2 66.9241 96.4601 8.5370 -23.3108 -1.4519 -18.4288
# 3 23.8627 8.5370 58.6363 -5.7457 12.6404 -8.9197
# 4 -8.1374 -23.3108 -5.7457 43.4526 -7.1818 7.2703
# 5 26.8025 -1.4519 12.6404 -7.1818 35.0931 -15.9697
# 6 -58.3151 -18.4288 -8.9197 7.2703 -15.9697 51.6211
#
#
#
# Elastic Compliance Matrix: (Units=1/GPa)
#
#
# Indices 1 2 3 4 5 6 
#
# 1 0.029096 -0.018273 -0.003868 -0.010930 -0.013310 0.023099
# 2 -0.018273 0.024640 0.000912 0.013682 0.013095 -0.009564
# 3 -0.003868 0.000912 0.019326 0.001954 -0.004673 -0.002426
# 4 -0.010930 0.013682 0.001954 0.031751 0.010976 -0.008202
# 5 -0.013310 0.013095 -0.004673 0.010976 0.043466 0.000732
# 6 0.023099 -0.009564 -0.002426 -0.008202 0.000732 0.043014
#
#
# Mechanical properties :
#
#
# Convention : Reuss Voigt Hill
#
# Bulk Modulus (GPa) = 32.67714 54.31283 43.49499
# Shear Modulus (GPa) = 20.49575 38.75631 29.62603
#
# Velocity S-wave (km/s) = 2.78833 3.83427 3.35234
# Velocity P-wave (km/s) = 4.77095 6.34074 5.61101
#
# Compressibility (1/GPa) = 0.03060243
#
# Stress axis : x y z
#
# Youngs Moduli (GPa) = 34.36904 40.58375 51.74491
#
# Poissons Ratio (x) = 0.74159 0.20017
# Poissons Ratio (y) = 0.62803 -0.04718
# Poissons Ratio (z) = 0.13295 -0.03701
#
# Static dielectric constant tensor:
#      x y z
#    x 2.080460 0.144770 -0.279200 
#    y 0.144770 2.113560 0.098110 
#    z -0.279200 0.098110 1.950970 
# 
# From -- ./inp_files/432335.got.cif
#   From: 2010.05.17/outbox.cif.g08.bks.cpg/sg2_217_cif.got.tgz:432335.got - 2010.06.03 11:33:40.
