data_PCOD9026638
_publ_section_title
;
Structure prediction by ZEFSAII (Michael W. Deem and Ramdas Pophale) SiO2 
 PCOD9026638
Probable space group: P -1
;
_chemical_formula_sum "Si O2"
_cell_formula_units_Z 16
_cell_length_a 7.955263
_cell_length_b 14.470402
_cell_length_c 8.092408
_cell_angle_alpha 79.648910
_cell_angle_beta 119.377575
_cell_angle_gamma 113.679185
_cell_volume 743.251122
_symmetry_space_group_name_H-M "P -1"
_symmetry_group_IT_number 2
_symmetry_cell_setting 'triclinic'
loop_
_space_group_symop_operation_xyz
x,y,z
-x,-y,-z
loop_
_atom_site_type_symbol
_atom_site_label
_atom_site_fract_x
_atom_site_fract_y
_atom_site_fract_z
Si Si1 0.717281 0.283779 0.457547
Si Si2 0.524339 0.424746 0.400988
Si Si3 0.243340 0.195609 0.593654
Si Si4 0.666158 0.975258 0.189168
Si Si5 0.782300 0.085024 0.556016
Si Si6 0.326948 0.282257 0.090181
Si Si7 0.120939 0.085957 0.224277
Si Si8 0.791543 0.626411 0.325974
O O1 0.639730 0.348252 0.529068
O O2 0.691451 0.170045 0.530032
O O3 0.559945 0.279353 0.229723
O O4 0.962747 0.341741 0.535538
O O5 0.500000 0.500000 0.500000
O O6 0.327473 0.356097 0.220347
O O7 0.678144 0.506848 0.320564
O O8 0.222951 0.154971 0.411116
O O9 0.289831 0.312861 0.596625
O O10 0.017283 0.144601 0.587283
O O11 0.378634 0.143376 0.772788
O O12 0.681268 0.023058 0.363138
O O13 0.884880 0.029580 0.183824
O O14 0.500000 0.000000 0.000000
O O15 0.785620 0.002030 0.717763
O O16 0.171358 0.167074 0.077282
O O17 0.266995 0.329381 0.884834
#
# Coordination Sequence:
#
# PCOD9026638 Si02
#       8
#     2   2   2   2   2   2   2   2
#     4   9  22  38  62  86 114 155 195 229 303 345
#     4  10  22  41  65  86 116 152 191 246 302 340
#     4   8  17  32  58  77 112 157 188 229 295 332
#     4   9  17  29  54  86 115 153 197 232 284 345
#     4   8  16  34  55  79 114 153 191 232 283 346
#     4  10  23  36  60  87 118 151 198 233 299 339
#     4   9  17  37  53  83 123 155 187 244 284 338
#     4  11  20  41  63  84 120 151 197 245 280 351
#
# _framework density 21.527047
#
# number of rings (size 3 to 8) (size 9 to 14) (size 15 to 20)
#    0.750    2.000    0.000    3.000    1.750    0.500 
#    4.500    6.250    0.000    0.000    0.000    0.000 
#    0.000    0.000    0.000    0.000    0.000    0.000 
#
# Total GULP energy -89167.277777 kJ/mol
# GULP energy per Si atom -5572.954861 kJ/mol
# Density = 2.147805 g / cm^3
# Si number density = 21.527047 Si / 1000 Ang^3
#
#
#
# Elastic Constant Matrix: (Units=GPa)
#
#
# Indices 1 2 3 4 5 6 
#
# 1 71.8749 38.7273 28.1261 -16.0566 13.2981 -16.2747
# 2 38.7273 138.3660 18.0945 -13.3641 7.7261 -18.0190
# 3 28.1261 18.0945 70.3825 -4.1962 12.6463 -9.7031
# 4 -16.0566 -13.3641 -4.1962 22.5334 -5.5496 2.3602
# 5 13.2981 7.7261 12.6463 -5.5496 25.5961 -1.6473
# 6 -16.2747 -18.0190 -9.7031 2.3602 -1.6473 45.9855
#
#
#
# Elastic Compliance Matrix: (Units=1/GPa)
#
#
# Indices 1 2 3 4 5 6 
#
# 1 0.022637 -0.003604 -0.005916 0.011171 -0.005032 0.004598
# 2 -0.003604 0.008770 -0.000416 0.002368 0.000070 0.001954
# 3 -0.005916 -0.000416 0.017807 -0.002802 -0.006115 0.001425
# 4 0.011171 0.002368 -0.002802 0.054726 0.006842 0.001727
# 5 -0.005032 0.000070 -0.006115 0.006842 0.046054 -0.001745
# 6 0.004598 0.001954 0.001425 0.001727 -0.001745 0.024288
#
#
# Mechanical properties :
#
#
# Convention : Reuss Voigt Hill
#
# Bulk Modulus (GPa) = 34.08033 50.05767 42.06900
# Shear Modulus (GPa) = 24.51760 31.86804 28.19282
#
# Velocity S-wave (km/s) = 3.37845 3.85173 3.62283
# Velocity P-wave (km/s) = 5.57533 6.56392 6.08972
#
# Compressibility (1/GPa) = 0.02934244
#
# Stress axis : x y z
#
# Youngs Moduli (GPa) = 44.17465 114.03036 56.15663
#
# Poissons Ratio (x) = 0.41093 0.33221
# Poissons Ratio (y) = 0.15919 0.02339
# Poissons Ratio (z) = 0.26133 0.04749
#
# Static dielectric constant tensor:
#      x y z
#    x 1.861850 0.015790 -0.040830 
#    y 0.015790 1.812740 0.001750 
#    z -0.040830 0.001750 1.790640 
# 
# From -- ./inp_files/197022.got.cif
#   From: 2010.05.17/outbox.cif.g08.bks.cpg/sg2_99_cif.got.tgz:197022.got - 2010.06.03 11:33:40.
