data_PCOD9026405
_publ_section_title
;
Structure prediction by ZEFSAII (Michael W. Deem and Ramdas Pophale) SiO2 
 PCOD9026405
Probable space group: P -1
;
_chemical_formula_sum "Si O2"
_cell_formula_units_Z 14
_cell_length_a 15.386051
_cell_length_b 6.623273
_cell_length_c 15.810734
_cell_angle_alpha 105.395776
_cell_angle_beta 24.945891
_cell_angle_gamma 99.831197
_cell_volume 645.388761
_symmetry_space_group_name_H-M "P -1"
_symmetry_group_IT_number 2
_symmetry_cell_setting 'triclinic'
loop_
_space_group_symop_operation_xyz
x,y,z
-x,-y,-z
loop_
_atom_site_type_symbol
_atom_site_label
_atom_site_fract_x
_atom_site_fract_y
_atom_site_fract_z
Si Si1 0.244890 0.136855 0.048094
Si Si2 0.039660 0.939181 0.359182
Si Si3 0.564718 0.471105 0.555530
Si Si4 0.425514 0.554548 0.978196
Si Si5 0.629482 0.750056 0.681928
Si Si6 0.055780 0.921059 0.846057
Si Si7 0.647214 0.791273 0.381451
O O1 0.343975 0.350527 0.988749
O O2 0.119690 0.121056 0.069459
O O3 0.100757 0.108945 0.255389
O O4 0.435044 0.939359 0.861733
O O5 0.836824 0.847633 0.496898
O O6 0.233284 0.747310 0.167222
O O7 0.000000 0.000000 0.500000
O O8 0.601250 0.559541 0.623656
O O9 0.764727 0.290275 0.335916
O O10 0.552884 0.671403 0.526248
O O11 0.355378 0.371343 0.712524
O O12 0.500000 0.500000 0.000000
O O13 0.612077 0.643952 0.776357
O O14 0.152386 0.124762 0.751387
O O15 0.000000 0.000000 0.000000
O O16 0.500000 0.000000 0.500000
#
# Coordination Sequence:
#
# PCOD9026405 Si02
#       7
#     2   2   2   2   2   2   2
#     4  11  26  43  65 100 138 171 227 278 330 401
#     4  11  24  45  70  99 134 176 219 275 341 404
#     4  10  22  41  64  90 125 173 220 269 330 391
#     4  11  25  44  69 104 134 171 221 275 339 404
#     4  11  25  42  69  96 135 176 222 274 336 399
#     4  11  25  40  62  95 133 174 221 275 331 388
#     4   9  21  39  62  88 121 165 223 264 323 386
#
# _framework density 21.692353000000001
#
# number of rings (size 3 to 8) (size 9 to 14) (size 15 to 20)
#    0.000    1.429    0.000    3.429    8.000   10.857 
#    0.000    0.000    0.000    0.000    0.000    0.000 
#    0.000    0.000    0.000    0.000    0.000    0.000 
#
# Total GULP energy -78139.045465 kJ/mol
# GULP energy per Si atom -5581.360390 kJ/mol
# Density = 2.164298 g / cm^3
# Si number density = 21.692353 Si / 1000 Ang^3
#
#
#
# Elastic Constant Matrix: (Units=GPa)
#
#
# Indices 1 2 3 4 5 6 
#
# 1 76.9472 -1.7934 -11.2068 1.1333 -6.3115 -0.0688
# 2 -1.7934 92.7090 7.1539 -4.2696 -3.0918 0.9656
# 3 -11.2068 7.1539 41.9057 2.8404 8.3709 -6.4712
# 4 1.1333 -4.2696 2.8404 30.4119 11.1228 -0.4213
# 5 -6.3115 -3.0918 8.3709 11.1228 29.4125 -2.0143
# 6 -0.0688 0.9656 -6.4712 -0.4213 -2.0143 45.4718
#
#
#
# Elastic Compliance Matrix: (Units=1/GPa)
#
#
# Indices 1 2 3 4 5 6 
#
# 1 0.013733 0.000009 0.003343 -0.001810 0.002722 0.000600
# 2 0.000009 0.011073 -0.002312 0.001287 0.001303 -0.000494
# 3 0.003343 -0.002312 0.027102 -0.000433 -0.006828 0.003605
# 4 -0.001810 0.001287 -0.000433 0.038555 -0.014737 -0.000387
# 5 0.002722 0.001303 -0.006828 -0.014737 0.042287 0.000741
# 6 0.000600 -0.000494 0.003605 -0.000387 0.000741 0.022545
#
#
# Mechanical properties :
#
#
# Convention : Reuss Voigt Hill
#
# Bulk Modulus (GPa) = 18.52271 22.20770 20.36521
# Shear Modulus (GPa) = 29.20364 35.55312 32.37838
#
# Velocity S-wave (km/s) = 3.67313 4.05281 3.86763
# Velocity P-wave (km/s) = 5.15233 5.67099 5.41787
#
# Compressibility (1/GPa) = 0.05398778
#
# Stress axis : x y z
#
# Youngs Moduli (GPa) = 72.81488 90.31085 36.89801
#
# Poissons Ratio (x) = -0.00080 -0.12334
# Poissons Ratio (y) = -0.00065 0.08530
# Poissons Ratio (z) = -0.24341 0.20878
#
# Static dielectric constant tensor:
#      x y z
#    x 1.825890 0.009430 0.042440 
#    y 0.009430 1.809110 -0.045550 
#    z 0.042440 -0.045550 1.859930 
# 
# From -- ./inp_files/98174.got.cif
#   From: 2010.05.17/outbox.cif.g08.bks.cpg/sg2_50_cif.got.tgz:98174.got - 2010.06.03 11:33:40.
