data_PCOD9026457
_publ_section_title
;
Structure prediction by ZEFSAII (Michael W. Deem and Ramdas Pophale) SiO2 
 PCOD9026457
Probable space group: P -1
;
_chemical_formula_sum "Si O2"
_cell_formula_units_Z 12
_cell_length_a 7.759654
_cell_length_b 13.904781
_cell_length_c 14.097546
_cell_angle_alpha 32.172295
_cell_angle_beta 57.668003
_cell_angle_gamma 76.777274
_cell_volume 593.536400
_symmetry_space_group_name_H-M "P -1"
_symmetry_group_IT_number 2
_symmetry_cell_setting 'triclinic'
loop_
_space_group_symop_operation_xyz
x,y,z
-x,-y,-z
loop_
_atom_site_type_symbol
_atom_site_label
_atom_site_fract_x
_atom_site_fract_y
_atom_site_fract_z
Si Si1 0.007788 0.303349 0.202465
Si Si2 0.679711 0.128788 0.132569
Si Si3 0.052051 0.512078 0.364740
Si Si4 0.548127 0.454391 0.897224
Si Si5 0.800219 0.155769 0.592457
Si Si6 0.805151 0.935698 0.430734
O O1 0.935927 0.274472 0.357319
O O2 0.828778 0.091045 0.378044
O O3 0.000000 0.500000 0.000000
O O4 0.269407 0.344308 0.072368
O O5 0.464322 0.987903 0.243783
O O6 0.720224 0.998408 0.308925
O O7 0.900473 0.275518 0.878172
O O8 0.623257 0.299739 0.054553
O O9 0.299981 0.513933 0.270473
O O10 0.000000 0.500000 0.500000
O O11 0.854839 0.320705 0.521842
O O12 0.645122 0.690662 0.704426
O O13 0.933623 0.031908 0.687270
#
# Coordination Sequence:
#
# PCOD9026457 Si02
#       6
#     2   2   2   2   2   2
#     4  12  24  39  64  96 134 172 203 257 317 380
#     4  10  22  41  64  92 127 167 210 256 315 373
#     4   9  21  43  68  90 123 167 213 268 316 364
#     4   9  23  41  61  93 129 162 213 255 310 373
#     4  11  23  41  62  95 131 163 215 260 310 382
#     4  11  22  40  62  90 132 169 207 250 315 380
#
# _framework density 20.2178
#
# number of rings (size 3 to 8) (size 9 to 14) (size 15 to 20)
#    1.000    0.667    1.667    2.500    0.000    7.333 
#    0.000    3.333    0.000   17.000    0.000    0.000 
#    0.000    0.000    0.000    0.000    0.000    0.000 
#
# Total GULP energy -66914.925944 kJ/mol
# GULP energy per Si atom -5576.243829 kJ/mol
# Density = 2.017178 g / cm^3
# Si number density = 20.217800 Si / 1000 Ang^3
#
#
#
# Elastic Constant Matrix: (Units=GPa)
#
#
# Indices 1 2 3 4 5 6 
#
# 1 102.1546 30.7095 38.4059 -16.1091 17.7322 17.5852
# 2 30.7095 117.0190 49.3389 1.1005 -7.2394 33.1611
# 3 38.4059 49.3389 93.7650 -29.9048 3.1515 18.5915
# 4 -16.1091 1.1005 -29.9048 35.8439 2.1420 -7.7829
# 5 17.7322 -7.2394 3.1515 2.1420 26.0173 -7.0514
# 6 17.5852 33.1611 18.5915 -7.7829 -7.0514 30.6520
#
#
#
# Elastic Compliance Matrix: (Units=1/GPa)
#
#
# Indices 1 2 3 4 5 6 
#
# 1 0.015385 -0.002024 -0.001860 0.004613 -0.013202 -0.007375
# 2 -0.002024 0.017784 -0.010098 -0.013254 0.004789 -0.014218
# 3 -0.001860 -0.010098 0.022634 0.019086 -0.005346 0.001879
# 4 0.004613 -0.013254 0.019086 0.049139 -0.010426 0.010194
# 5 -0.013202 0.004789 -0.005346 -0.010426 0.054479 0.015522
# 6 -0.007375 -0.014218 0.001879 0.010194 0.015522 0.057257
#
#
# Mechanical properties :
#
#
# Convention : Reuss Voigt Hill
#
# Bulk Modulus (GPa) = 35.91797 61.09414 48.50605
# Shear Modulus (GPa) = 19.69108 31.46827 25.57967
#
# Velocity S-wave (km/s) = 3.12420 3.94948 3.56083
# Velocity P-wave (km/s) = 5.55142 7.14713 6.39921
#
# Compressibility (1/GPa) = 0.02784122
#
# Stress axis : x y z
#
# Youngs Moduli (GPa) = 64.99710 56.22919 44.18038
#
# Poissons Ratio (x) = 0.11378 0.08216
# Poissons Ratio (y) = 0.13153 0.44614
# Poissons Ratio (z) = 0.12088 0.56781
#
# Static dielectric constant tensor:
#      x y z
#    x 1.741930 -0.004100 -0.029690 
#    y -0.004100 1.739950 -0.023550 
#    z -0.029690 -0.023550 1.757760 
# 
# From -- ./inp_files/503559.got.cif
#   From: 2010.05.17/outbox.cif.g08.bks.cpg/sg2_252_cif.got.tgz:503559.got - 2010.06.03 11:33:40.
