data_PCOD9026913
_publ_section_title
;
Structure prediction by ZEFSAII (Michael W. Deem and Ramdas Pophale) SiO2 
 PCOD9026913
Probable space group: P -1
;
_chemical_formula_sum "Si O2"
_cell_formula_units_Z 16
_cell_length_a 11.554610
_cell_length_b 11.669088
_cell_length_c 5.616214
_cell_angle_alpha 100.316851
_cell_angle_beta 100.437593
_cell_angle_gamma 106.050705
_cell_volume 694.322473
_symmetry_space_group_name_H-M "P -1"
_symmetry_group_IT_number 2
_symmetry_cell_setting 'triclinic'
loop_
_space_group_symop_operation_xyz
x,y,z
-x,-y,-z
loop_
_atom_site_type_symbol
_atom_site_label
_atom_site_fract_x
_atom_site_fract_y
_atom_site_fract_z
Si Si1 0.274771 0.755057 0.107477
Si Si2 0.615779 0.115810 0.311236
Si Si3 0.235845 0.501993 0.220731
Si Si4 0.374155 0.122898 0.007645
Si Si5 0.998469 0.693617 0.153145
Si Si6 0.846472 0.646919 0.474649
Si Si7 0.106914 0.128101 0.054893
Si Si8 0.614594 0.617858 0.029853
O O1 0.334726 0.838376 0.391395
O O2 0.291438 0.625176 0.141390
O O3 0.127855 0.729413 0.083741
O O4 0.320173 0.807425 0.879593
O O5 0.627643 0.982011 0.220668
O O6 0.473426 0.112603 0.235857
O O7 0.203271 0.490384 0.480431
O O8 0.326378 0.419516 0.199902
O O9 0.101746 0.426144 0.038367
O O10 0.419956 0.259446 0.968104
O O11 0.236663 0.105652 0.045064
O O12 0.980510 0.663048 0.412519
O O13 0.941610 0.805206 0.151272
O O14 0.872557 0.767711 0.694827
O O15 0.730414 0.643533 0.262177
O O16 0.000000 0.000000 0.000000
O O17 0.500000 0.500000 0.000000
#
# Coordination Sequence:
#
# PCOD9026913 Si02
#       8
#     2   2   2   2   2   2   2   2
#     4  12  27  48  74 104 149 191 255 286 363 450
#     4  11  30  48  72 106 141 203 236 298 368 425
#     4  10  23  42  65 106 140 183 240 302 367 420
#     4  11  24  50  70 105 154 180 250 307 352 444
#     4  10  23  42  65 106 140 183 240 302 367 420
#     4  10  22  41  66 109 138 180 246 296 376 419
#     4  11  23  42  72 104 141 188 242 298 368 429
#     4  11  23  42  72 104 141 188 242 298 368 429
#
# _framework density 23.044049000000001
#
# number of rings (size 3 to 8) (size 9 to 14) (size 15 to 20)
#    0.000    1.250    3.750    1.875   10.500    7.500 
#    0.000    0.000    0.000    0.000    0.000    0.000 
#    0.000    0.000    0.000    0.000    0.000    0.000 
#
# Total GULP energy -89229.591259 kJ/mol
# GULP energy per Si atom -5576.849454 kJ/mol
# Density = 2.299160 g / cm^3
# Si number density = 23.044049 Si / 1000 Ang^3
#
#
#
# Elastic Constant Matrix: (Units=GPa)
#
#
# Indices 1 2 3 4 5 6 
#
# 1 92.9825 22.8901 -5.0638 -12.9210 1.7721 5.7858
# 2 22.8901 142.6802 9.2025 -1.6064 -8.3678 7.3511
# 3 -5.0638 9.2025 35.3598 -1.3262 -9.1607 8.9947
# 4 -12.9210 -1.6064 -1.3262 25.2287 13.7338 2.4357
# 5 1.7721 -8.3678 -9.1607 13.7338 12.4832 -2.7337
# 6 5.7858 7.3511 8.9947 2.4357 -2.7337 43.6952
#
#
#
# Elastic Compliance Matrix: (Units=1/GPa)
#
#
# Indices 1 2 3 4 5 6 
#
# 1 0.019017 -0.005262 -0.008436 0.042446 -0.060438 -0.006044
# 2 -0.005262 0.009107 0.003647 -0.018440 0.030105 0.001325
# 3 -0.008436 0.003647 0.051727 -0.059827 0.107403 -0.000090
# 4 0.042446 -0.018440 -0.059827 0.239873 -0.331517 -0.024315
# 5 -0.060438 0.030105 0.107403 -0.331517 0.559931 0.034340
# 6 -0.006044 0.001325 -0.000090 -0.024315 0.034340 0.026986
#
#
# Mechanical properties :
#
#
# Convention : Reuss Voigt Hill
#
# Bulk Modulus (GPa) = 16.73638 36.12001 26.42820
# Shear Modulus (GPa) = 5.28173 32.54766 18.91469
#
# Velocity S-wave (km/s) = 1.51558 3.76228 2.86808
# Velocity P-wave (km/s) = 3.21577 5.88059 4.73933
#
# Compressibility (1/GPa) = 0.05975009
#
# Stress axis : x y z
#
# Youngs Moduli (GPa) = 52.58470 109.80141 19.33208
#
# Poissons Ratio (x) = 0.57778 0.16308
# Poissons Ratio (y) = 0.27670 -0.07050
# Poissons Ratio (z) = 0.44359 -0.40044
#
# Static dielectric constant tensor:
#      x y z
#    x 1.912830 0.035650 -0.100860 
#    y 0.035650 1.930030 -0.088450 
#    z -0.100860 -0.088450 2.060580 
# 
# From -- ./inp_files/70796.got.cif
#   From: 2010.05.17/outbox.cif.g08.bks.cpg/sg2_36_cif.got.tgz:70796.got - 2010.06.03 11:33:40.
