data_PCOD9026117
_publ_section_title
;
Structure prediction by ZEFSAII (Michael W. Deem and Ramdas Pophale) SiO2 
 PCOD9026117
Probable space group: P -1
;
_chemical_formula_sum "Si O2"
_cell_formula_units_Z 16
_cell_length_a 18.878487
_cell_length_b 14.470044
_cell_length_c 9.246411
_cell_angle_alpha 111.200250
_cell_angle_beta 131.630356
_cell_angle_gamma 31.171057
_cell_volume 825.894925
_symmetry_space_group_name_H-M "P -1"
_symmetry_group_IT_number 2
_symmetry_cell_setting 'triclinic'
loop_
_space_group_symop_operation_xyz
x,y,z
-x,-y,-z
loop_
_atom_site_type_symbol
_atom_site_label
_atom_site_fract_x
_atom_site_fract_y
_atom_site_fract_z
Si Si1 0.779285 0.740474 0.375955
Si Si2 0.455925 0.301101 0.344959
Si Si3 0.556868 0.105149 0.082285
Si Si4 0.861422 0.252756 0.709129
Si Si5 0.504023 0.558585 0.182949
Si Si6 0.717768 0.046575 0.978737
Si Si7 0.698230 0.265435 0.708150
Si Si8 0.620782 0.976511 0.575252
O O1 0.770011 0.792383 0.554584
O O2 0.000000 0.500000 0.500000
O O3 0.703303 0.895920 0.251010
O O4 0.617484 0.801025 0.173416
O O5 0.462159 0.265039 0.165431
O O6 0.259274 0.544476 0.263963
O O7 0.650372 0.193230 0.579374
O O8 0.479604 0.180974 0.405502
O O9 0.675562 0.052161 0.087714
O O10 0.714424 0.354380 0.437667
O O11 0.873256 0.155999 0.792585
O O12 0.073195 0.089868 0.840491
O O13 0.459065 0.714501 0.173421
O O14 0.332001 0.685110 0.136109
O O15 0.500000 0.500000 0.000000
O O16 0.717588 0.953162 0.818726
O O17 0.500000 0.500000 0.500000
O O18 0.500000 0.000000 0.500000
#
# Coordination Sequence:
#
# PCOD9026117 Si02
#       8
#     2   2   2   2   2   2   2   2
#     4  10  23  42  62  87 122 162 214 248 308 365
#     4   9  19  41  62  82 125 161 200 252 310 370
#     4  10  23  39  60  90 123 161 201 259 310 357
#     4  10  23  40  63  91 120 163 212 248 318 376
#     4  10  22  41  62  91 129 160 203 260 312 360
#     4  12  24  39  63  95 125 160 210 256 310 367
#     4   8  17  38  61  84 119 161 198 244 313 364
#     4  11  21  41  62  89 126 166 200 257 305 364
#
# _framework density 19.372923
#
# number of rings (size 3 to 8) (size 9 to 14) (size 15 to 20)
#    0.000    2.250    3.750    0.000    7.000    3.000 
#    0.000    2.500    0.000    0.000    0.000    0.000 
#    0.000    0.000    0.000    0.000    0.000    0.000 
#
# Total GULP energy -89277.012383 kJ/mol
# GULP energy per Si atom -5579.813274 kJ/mol
# Density = 1.932883 g / cm^3
# Si number density = 19.372923 Si / 1000 Ang^3
#
#
#
# Elastic Constant Matrix: (Units=GPa)
#
#
# Indices 1 2 3 4 5 6 
#
# 1 163.4752 28.0650 37.9704 7.0378 -8.9621 -15.3918
# 2 28.0650 83.7469 36.3191 24.3090 -14.7115 -4.3232
# 3 37.9704 36.3191 66.0395 17.8485 -5.1392 -15.1086
# 4 7.0378 24.3090 17.8485 40.5411 -7.0009 -3.9354
# 5 -8.9621 -14.7115 -5.1392 -7.0009 21.4386 6.2730
# 6 -15.3918 -4.3232 -15.1086 -3.9354 6.2730 26.6108
#
#
#
# Elastic Compliance Matrix: (Units=1/GPa)
#
#
# Indices 1 2 3 4 5 6 
#
# 1 0.007290 -0.000971 -0.003441 0.001263 0.001394 0.001963
# 2 -0.000971 0.019563 -0.009021 -0.006349 0.010516 -0.005923
# 3 -0.003441 -0.009021 0.025732 -0.005318 -0.006692 0.011945
# 4 0.001263 -0.006349 -0.005318 0.031496 0.005145 0.000125
# 5 0.001394 0.010516 -0.006692 0.005145 0.058723 -0.014367
# 6 0.001963 -0.005923 0.011945 0.000125 -0.014367 0.047939
#
#
# Mechanical properties :
#
#
# Convention : Reuss Voigt Hill
#
# Bulk Modulus (GPa) = 38.88426 57.55230 48.21828
# Shear Modulus (GPa) = 22.10606 31.77856 26.94231
#
# Velocity S-wave (km/s) = 3.38165 4.05453 3.73328
# Velocity P-wave (km/s) = 5.94663 7.18965 6.59748
#
# Compressibility (1/GPa) = 0.02571735
#
# Stress axis : x y z
#
# Youngs Moduli (GPa) = 137.17373 51.11727 38.86266
#
# Poissons Ratio (x) = 0.04963 0.13374
# Poissons Ratio (y) = 0.13319 0.35059
# Poissons Ratio (z) = 0.47205 0.46115
#
# Static dielectric constant tensor:
#      x y z
#    x 1.700750 0.012170 0.004400 
#    y 0.012170 1.679000 -0.005840 
#    z 0.004400 -0.005840 1.705070 
# 
# From -- ./inp_files/335443.got.cif
#   From: 2010.05.17/outbox.cif.g08.bks.cpg/sg2_168_cif.got.tgz:335443.got - 2010.06.03 11:33:40.
