data_PCOD9026552
_publ_section_title
;
Structure prediction by ZEFSAII (Michael W. Deem and Ramdas Pophale) SiO2 
 PCOD9026552
Probable space group: P -1
;
_chemical_formula_sum "Si O2"
_cell_formula_units_Z 16
_cell_length_a 5.436882
_cell_length_b 13.855237
_cell_length_c 11.051744
_cell_angle_alpha 113.837417
_cell_angle_beta 122.184951
_cell_angle_gamma 87.508407
_cell_volume 628.414824
_symmetry_space_group_name_H-M "P -1"
_symmetry_group_IT_number 2
_symmetry_cell_setting 'triclinic'
loop_
_space_group_symop_operation_xyz
x,y,z
-x,-y,-z
loop_
_atom_site_type_symbol
_atom_site_label
_atom_site_fract_x
_atom_site_fract_y
_atom_site_fract_z
Si Si1 0.426425 0.326389 0.975916
Si Si2 0.732860 0.891347 0.492822
Si Si3 0.336071 0.560453 0.129226
Si Si4 0.897109 0.132001 0.756495
Si Si5 0.236640 0.653426 0.684638
Si Si6 0.278679 0.065757 0.034863
Si Si7 0.335718 0.806478 0.584962
Si Si8 0.622791 0.566486 0.449018
O O1 0.459908 0.454130 0.075580
O O2 0.584463 0.291799 0.121551
O O3 0.589786 0.341551 0.896632
O O4 0.097430 0.249574 0.826960
O O5 0.456306 0.876743 0.318685
O O6 0.539072 0.843143 0.538621
O O7 0.009050 0.835873 0.508359
O O8 0.874716 0.020013 0.616469
O O9 0.420448 0.599119 0.307713
O O10 0.000000 0.500000 0.000000
O O11 0.098925 0.117562 0.915340
O O12 0.299657 0.688110 0.576823
O O13 0.253537 0.528738 0.635100
O O14 0.894791 0.660904 0.610223
O O15 0.486047 0.133278 0.224171
O O16 0.500000 0.000000 0.000000
O O17 0.000000 0.000000 0.000000
O O18 0.500000 0.500000 0.500000
#
# Coordination Sequence:
#
# PCOD9026552 Si02
#       8
#     2   2   2   2   2   2   2   2
#     4  10  22  44  65  94 137 174 237 280 354 419
#     4  11  28  45  71 102 151 185 237 295 352 420
#     4  10  22  42  65  97 132 178 220 293 349 424
#     4  11  24  46  68 103 137 193 230 297 350 425
#     4  10  23  39  67  96 130 180 231 289 348 420
#     4  12  23  45  71 101 139 185 229 289 346 412
#     4  12  24  47  68 105 140 186 235 293 351 421
#     4  10  22  41  64  96 132 176 228 289 351 421
#
# _framework density 25.460889999999999
#
# number of rings (size 3 to 8) (size 9 to 14) (size 15 to 20)
#    0.000    1.250    3.750    0.750    3.500    5.000 
#    4.500    0.000    0.000    0.000    0.000    0.000 
#    0.000    0.000    0.000    0.000    0.000    0.000 
#
# Total GULP energy -89103.637888 kJ/mol
# GULP energy per Si atom -5568.977368 kJ/mol
# Density = 2.540294 g / cm^3
# Si number density = 25.460890 Si / 1000 Ang^3
#
#
#
# Elastic Constant Matrix: (Units=GPa)
#
#
# Indices 1 2 3 4 5 6 
#
# 1 95.9822 39.2491 51.8563 -18.4360 14.2451 15.1085
# 2 39.2491 106.3893 48.7909 -7.3347 4.2465 9.8249
# 3 51.8563 48.7909 206.3745 -18.8429 27.5573 9.7955
# 4 -18.4360 -7.3347 -18.8429 51.8534 -1.6414 -2.5632
# 5 14.2451 4.2465 27.5573 -1.6414 34.5789 0.3396
# 6 15.1085 9.8249 9.7955 -2.5632 0.3396 44.2151
#
#
#
# Elastic Compliance Matrix: (Units=1/GPa)
#
#
# Indices 1 2 3 4 5 6 
#
# 1 0.014857 -0.003926 -0.001752 0.003786 -0.004027 -0.003566
# 2 -0.003926 0.011757 -0.002031 -0.000457 0.001779 -0.000861
# 3 -0.001752 -0.002031 0.006444 0.001288 -0.004100 -0.000271
# 4 0.003786 -0.000457 0.001288 0.020974 -0.001532 -0.000250
# 5 -0.004027 0.001779 -0.004100 -0.001532 0.033540 0.001543
# 6 -0.003566 -0.000861 -0.000271 -0.000250 0.001543 0.024060
#
#
# Mechanical properties :
#
#
# Convention : Reuss Voigt Hill
#
# Bulk Modulus (GPa) = 56.69654 76.50429 66.60041
# Shear Modulus (GPa) = 37.61354 44.05281 40.83317
#
# Velocity S-wave (km/s) = 3.84774 4.16410 4.00904
# Velocity P-wave (km/s) = 6.48511 7.29607 6.90251
#
# Compressibility (1/GPa) = 0.01763776
#
# Stress axis : x y z
#
# Youngs Moduli (GPa) = 67.30790 85.05920 155.18005
#
# Poissons Ratio (x) = 0.33398 0.27190
# Poissons Ratio (y) = 0.26428 0.31523
# Poissons Ratio (z) = 0.11794 0.17279
#
# Static dielectric constant tensor:
#      x y z
#    x 1.609490 -1.033630 0.802730 
#    y -1.033630 0.225660 1.357160 
#    z 0.802730 1.357160 0.791750 
# 
# From -- ./inp_files/367831.got.cif
#   From: 2010.05.17/outbox.cif.g08.bks.cpg/sg2_184_cif.got.tgz:367831.got - 2010.06.03 11:33:40.
