data_PCOD9026588
_publ_section_title
;
Structure prediction by ZEFSAII (Michael W. Deem and Ramdas Pophale) SiO2 
 PCOD9026588
Probable space group: P -1
;
_chemical_formula_sum "Si O2"
_cell_formula_units_Z 16
_cell_length_a 9.388565
_cell_length_b 9.202585
_cell_length_c 11.430867
_cell_angle_alpha 112.593317
_cell_angle_beta 120.376431
_cell_angle_gamma 62.330230
_cell_volume 740.039045
_symmetry_space_group_name_H-M "P -1"
_symmetry_group_IT_number 2
_symmetry_cell_setting 'triclinic'
loop_
_space_group_symop_operation_xyz
x,y,z
-x,-y,-z
loop_
_atom_site_type_symbol
_atom_site_label
_atom_site_fract_x
_atom_site_fract_y
_atom_site_fract_z
Si Si1 0.021204 0.173433 0.704516
Si Si2 0.782938 0.305678 0.261524
Si Si3 0.732127 0.164515 0.423771
Si Si4 0.261096 0.336727 0.754922
Si Si5 0.098701 0.312471 0.019187
Si Si6 0.926146 0.890839 0.846590
Si Si7 0.544016 0.800427 0.965658
Si Si8 0.479128 0.995136 0.352032
O O1 0.076184 0.312153 0.698343
O O2 0.053888 0.200143 0.862629
O O3 0.830254 0.176972 0.588413
O O4 0.154345 0.001102 0.653662
O O5 0.747271 0.306680 0.386001
O O6 0.759659 0.486686 0.255592
O O7 0.631558 0.240388 0.130544
O O8 0.964688 0.173838 0.246777
O O9 0.552141 0.133256 0.366839
O O10 0.384813 0.185312 0.682389
O O11 0.360961 0.291413 0.906454
O O12 0.046126 0.271532 0.111546
O O13 0.306445 0.274510 0.091467
O O14 0.000000 0.500000 0.000000
O O15 0.719558 0.977852 0.761759
O O16 0.000000 0.000000 0.000000
O O17 0.500000 0.000000 0.000000
O O18 0.500000 0.000000 0.500000
#
# Coordination Sequence:
#
# PCOD9026588 Si02
#       8
#     2   2   2   2   2   2   2   2
#     4   9  20  40  68  92 126 182 225 268 327 417
#     4  12  24  40  67 100 133 176 223 279 339 408
#     4  10  22  42  68  91 129 180 231 259 337 424
#     4  10  22  41  64  98 133 172 223 281 338 398
#     4  11  23  41  65  99 136 167 218 288 341 388
#     4  12  25  40  68 103 134 169 226 281 336 394
#     4  11  21  42  68  92 131 186 228 265 329 417
#     4  11  26  46  67  97 135 179 226 286 340 403
#
# _framework density 21.620481000000002
#
# number of rings (size 3 to 8) (size 9 to 14) (size 15 to 20)
#    0.000    1.250    0.000    7.875    7.000    1.500 
#    2.250    0.625    0.000    0.000    0.000    0.000 
#    0.000    0.000    0.000    0.000    0.000    0.000 
#
# Total GULP energy -89373.864335 kJ/mol
# GULP energy per Si atom -5585.866521 kJ/mol
# Density = 2.157127 g / cm^3
# Si number density = 21.620481 Si / 1000 Ang^3
#
#
#
# Elastic Constant Matrix: (Units=GPa)
#
#
# Indices 1 2 3 4 5 6 
#
# 1 122.8103 31.1283 35.9064 -5.5375 7.2902 4.4345
# 2 31.1283 91.4522 1.7353 -13.7745 7.7546 21.7185
# 3 35.9064 1.7353 94.2080 -5.0271 6.6704 -0.8646
# 4 -5.5375 -13.7745 -5.0271 13.5075 8.7616 -3.7596
# 5 7.2902 7.7546 6.6704 8.7616 39.1641 -8.2401
# 6 4.4345 21.7185 -0.8646 -3.7596 -8.2401 38.4666
#
#
#
# Elastic Compliance Matrix: (Units=1/GPa)
#
#
# Indices 1 2 3 4 5 6 
#
# 1 0.010132 -0.003602 -0.003802 -0.000583 -0.000254 0.000669
# 2 -0.003602 0.018976 0.002942 0.023201 -0.010948 -0.010310
# 3 -0.003802 0.002942 0.012758 0.008629 -0.004186 -0.000989
# 4 -0.000583 0.023201 0.008629 0.120864 -0.034777 -0.008475
# 5 -0.000254 -0.010948 -0.004186 -0.034777 0.038551 0.010975
# 6 0.000669 -0.010310 -0.000989 -0.008475 0.010975 0.033241
#
#
# Mechanical properties :
#
#
# Convention : Reuss Voigt Hill
#
# Bulk Modulus (GPa) = 30.35708 49.55673 39.95690
# Shear Modulus (GPa) = 19.65201 34.20769 26.92985
#
# Velocity S-wave (km/s) = 3.01816 3.98199 3.53309
# Velocity P-wave (km/s) = 5.12026 6.64173 5.92999
#
# Compressibility (1/GPa) = 0.03294125
#
# Stress axis : x y z
#
# Youngs Moduli (GPa) = 98.69862 52.69782 78.38444
#
# Poissons Ratio (x) = 0.18980 0.29804
# Poissons Ratio (y) = 0.35547 -0.23059
# Poissons Ratio (z) = 0.37528 -0.15502
#
# Static dielectric constant tensor:
#      x y z
#    x 1.892010 0.043040 -0.069700 
#    y 0.043040 1.756630 0.009690 
#    z -0.069700 0.009690 1.855470 
# 
# From -- ./inp_files/189056.got.cif
#   From: 2010.05.17/outbox.cif.g08.bks.cpg/sg2_95_cif.got.tgz:189056.got - 2010.06.03 11:33:40.
