data_PCOD9026265
_publ_section_title
;
Structure prediction by ZEFSAII (Michael W. Deem and Ramdas Pophale) SiO2 
 PCOD9026265
Probable space group: P -1
;
_chemical_formula_sum "Si O2"
_cell_formula_units_Z 12
_cell_length_a 12.606092
_cell_length_b 8.667323
_cell_length_c 13.173963
_cell_angle_alpha 46.684913
_cell_angle_beta 148.144639
_cell_angle_gamma 138.459213
_cell_volume 498.564264
_symmetry_space_group_name_H-M "P -1"
_symmetry_group_IT_number 2
_symmetry_cell_setting 'triclinic'
loop_
_space_group_symop_operation_xyz
x,y,z
-x,-y,-z
loop_
_atom_site_type_symbol
_atom_site_label
_atom_site_fract_x
_atom_site_fract_y
_atom_site_fract_z
Si Si1 0.697894 0.757941 0.065408
Si Si2 0.633528 0.652121 0.670338
Si Si3 0.935976 0.990555 0.605536
Si Si4 0.852577 0.657327 0.042061
Si Si5 0.375686 0.890410 0.843545
Si Si6 0.168058 0.511595 0.257622
O O1 0.862282 0.809119 0.079816
O O2 0.500000 0.500000 0.000000
O O3 0.569716 0.919752 0.906300
O O4 0.847657 0.791803 0.273250
O O5 0.760840 0.889068 0.602379
O O6 0.377726 0.549729 0.480913
O O7 0.737280 0.480673 0.783331
O O8 0.680646 0.680183 0.813373
O O9 0.991858 0.767357 0.735174
O O10 0.797142 0.023461 0.385264
O O11 0.756158 0.389258 0.122335
O O12 0.063094 0.679282 0.136227
O O13 0.500000 0.000000 0.000000
#
# Coordination Sequence:
#
# PCOD9026265 Si02
#       6
#     2   2   2   2   2   2
#     4  10  25  42  59  92 130 163 206 250 309 368
#     4   9  21  39  64  93 122 157 207 253 303 364
#     4  10  22  41  63  92 124 160 206 259 300 361
#     4  11  22  38  63  88 125 166 197 250 308 365
#     4  11  24  40  66  92 119 162 213 257 304 365
#     4   9  20  38  65  89 121 158 207 251 304 358
#
# _framework density 24.069115
#
# number of rings (size 3 to 8) (size 9 to 14) (size 15 to 20)
#    1.000    1.000    0.000    2.500    0.000   11.333 
#    0.000    1.667    0.000    0.000    0.000    0.000 
#    0.000    0.000    0.000    0.000    0.000    0.000 
#
# Total GULP energy -66955.842215 kJ/mol
# GULP energy per Si atom -5579.653518 kJ/mol
# Density = 2.401433 g / cm^3
# Si number density = 24.069115 Si / 1000 Ang^3
#
#
#
# Elastic Constant Matrix: (Units=GPa)
#
#
# Indices 1 2 3 4 5 6 
#
# 1 85.3289 9.2264 41.0939 12.0702 2.3409 -40.3423
# 2 9.2264 96.1194 42.3544 12.7329 0.8570 -5.2899
# 3 41.0939 42.3544 121.1300 18.7902 -10.0281 -17.6369
# 4 12.0702 12.7329 18.7902 33.9462 4.7514 -2.4892
# 5 2.3409 0.8570 -10.0281 4.7514 35.0112 -2.2533
# 6 -40.3423 -5.2899 -17.6369 -2.4892 -2.2533 37.0332
#
#
#
# Elastic Compliance Matrix: (Units=1/GPa)
#
#
# Indices 1 2 3 4 5 6 
#
# 1 0.028096 0.001948 -0.005360 -0.005581 -0.000908 0.027902
# 2 0.001948 0.012674 -0.004575 -0.002623 -0.001299 0.001498
# 3 -0.005360 -0.004575 0.012611 -0.004038 0.004600 -0.000477
# 4 -0.005581 -0.002623 -0.004038 0.035017 -0.005882 -0.006381
# 5 -0.000908 -0.001299 0.004600 -0.005882 0.030932 0.002502
# 6 0.027902 0.001498 -0.000477 -0.006381 0.002502 0.057108
#
#
# Mechanical properties :
#
#
# Convention : Reuss Voigt Hill
#
# Bulk Modulus (GPa) = 26.73273 54.21418 40.47346
# Shear Modulus (GPa) = 24.40458 35.19169 29.79813
#
# Velocity S-wave (km/s) = 3.18769 3.82790 3.52237
# Velocity P-wave (km/s) = 4.96782 6.48925 5.77883
#
# Compressibility (1/GPa) = 0.03740733
#
# Stress axis : x y z
#
# Youngs Moduli (GPa) = 35.59264 78.90082 79.29479
#
# Poissons Ratio (x) = -0.15368 0.42499
# Poissons Ratio (y) = -0.06932 0.36277
# Poissons Ratio (z) = 0.19076 0.36097
#
# Static dielectric constant tensor:
#      x y z
#    x 2.089330 0.046250 0.094540 
#    y 0.046250 1.941920 0.065970 
#    z 0.094540 0.065970 2.162410 
# 
# From -- ./inp_files/129619.got.cif
#   From: 2010.05.17/outbox.cif.g08.bks.cpg/sg2_65_cif.got.tgz:129619.got - 2010.06.03 11:33:40.
