data_PCOD9026880
_publ_section_title
;
Structure prediction by ZEFSAII (Michael W. Deem and Ramdas Pophale) SiO2 
 PCOD9026880
Probable space group: P -1
;
_chemical_formula_sum "Si O2"
_cell_formula_units_Z 11
_cell_length_a 12.371069
_cell_length_b 8.284313
_cell_length_c 15.249041
_cell_angle_alpha 70.138289
_cell_angle_beta 17.157760
_cell_angle_gamma 67.661958
_cell_volume 424.866097
_symmetry_space_group_name_H-M "P -1"
_symmetry_group_IT_number 2
_symmetry_cell_setting 'triclinic'
loop_
_space_group_symop_operation_xyz
x,y,z
-x,-y,-z
loop_
_atom_site_type_symbol
_atom_site_label
_atom_site_fract_x
_atom_site_fract_y
_atom_site_fract_z
Si Si1 0.386811 0.062952 0.707348
Si Si2 0.212677 0.317109 0.550939
Si Si3 0.130727 0.389625 0.130304
Si Si4 0.000000 0.500000 0.500000
Si Si5 0.965363 0.206063 0.468562
Si Si6 0.177603 0.710955 0.785855
O O1 0.546935 0.168274 0.487832
O O2 0.698217 0.887059 0.502760
O O3 0.235496 0.187221 0.883563
O O4 0.000000 0.000000 0.000000
O O5 0.592135 0.365615 0.291997
O O6 0.912892 0.414124 0.835705
O O7 0.071380 0.411563 0.554844
O O8 0.014745 0.262275 0.318981
O O9 0.894422 0.396466 0.223537
O O10 0.558086 0.306127 0.798066
O O11 0.211093 0.305941 0.321445
O O12 0.000000 0.000000 0.500000
#
# Coordination Sequence:
#
# PCOD9026880 Si02
#       6
#     2   2   2   1   2   2
#     4  10  22  41  66 101 139 183 233 285 353 415
#     4  10  23  44  66 105 141 179 237 287 352 431
#     4  11  25  44  71 103 139 184 239 291 369 408
#     4  10  26  44  74  98 146 192 232 290 360 416
#     4  11  26  49  69 106 142 191 242 292 354 437
#     4  11  23  42  72 104 138 185 232 297 357 417
#
# _framework density 25.890512999999999
#
# number of rings (size 3 to 8) (size 9 to 14) (size 15 to 20)
#    0.000    1.455    0.000    4.364    5.091   11.636 
#    0.000    9.091    0.000    0.000    0.000    0.000 
#    0.000    0.000    0.000    0.000    0.000    0.000 
#
# Total GULP energy -61238.886446 kJ/mol
# GULP energy per Si atom -5567.171495 kJ/mol
# Density = 2.583158 g / cm^3
# Si number density = 25.890513 Si / 1000 Ang^3
#
#
#
# Elastic Constant Matrix: (Units=GPa)
#
#
# Indices 1 2 3 4 5 6 
#
# 1 123.2391 4.1083 1.5151 9.3792 29.6976 2.9255
# 2 4.1083 107.4774 34.0751 15.1787 8.3476 -19.2611
# 3 1.5151 34.0751 142.4644 8.8516 29.2418 -15.2407
# 4 9.3792 15.1787 8.8516 54.2349 2.2541 3.0999
# 5 29.6976 8.3476 29.2418 2.2541 37.6841 -0.3069
# 6 2.9255 -19.2611 -15.2407 3.0999 -0.3069 37.1659
#
#
#
# Elastic Compliance Matrix: (Units=1/GPa)
#
#
# Indices 1 2 3 4 5 6 
#
# 1 0.010583 -0.000029 0.002018 -0.001747 -0.009794 0.000044
# 2 -0.000029 0.011348 -0.001754 -0.003157 -0.000897 0.005420
# 3 0.002018 -0.001754 0.009550 -0.001227 -0.008515 0.002880
# 4 -0.001747 -0.003157 -0.001227 0.019958 0.001805 -0.003652
# 5 -0.009794 -0.000897 -0.008515 0.001805 0.040929 -0.002998
# 6 0.000044 0.005420 0.002880 -0.003652 -0.002998 0.031173
#
#
# Mechanical properties :
#
#
# Convention : Reuss Voigt Hill
#
# Bulk Modulus (GPa) = 31.29804 50.28645 40.79224
# Shear Modulus (GPa) = 37.39147 48.04912 42.72029
#
# Velocity S-wave (km/s) = 3.80441 4.31264 4.06647
# Velocity P-wave (km/s) = 5.60472 6.65307 6.15127
#
# Compressibility (1/GPa) = 0.03195088
#
# Stress axis : x y z
#
# Youngs Moduli (GPa) = 94.49484 88.11818 104.71740
#
# Poissons Ratio (x) = 0.00255 -0.21132
# Poissons Ratio (y) = 0.00274 0.18366
# Poissons Ratio (z) = -0.19069 0.15455
#
# Static dielectric constant tensor:
#      x y z
#    x 1.604640 -1.072580 0.452700 
#    y -1.072580 -0.249460 1.174080 
#    z 0.452700 1.174080 1.669030 
# 
# From -- ./inp_files/228635.got.cif
#   From: 2010.05.17/outbox.cif.g08.bks.cpg/sg2_115_cif.got.tgz:228635.got - 2010.06.03 11:33:40.
