data_PCOD9026647
_publ_section_title
;
Structure prediction by ZEFSAII (Michael W. Deem and Ramdas Pophale) SiO2 
 PCOD9026647
Probable space group: P -1
;
_chemical_formula_sum "Si O2"
_cell_formula_units_Z 12
_cell_length_a 9.632808
_cell_length_b 5.081294
_cell_length_c 15.344484
_cell_angle_alpha 73.604803
_cell_angle_beta 99.623531
_cell_angle_gamma 125.360838
_cell_volume 587.600724
_symmetry_space_group_name_H-M "P -1"
_symmetry_group_IT_number 2
_symmetry_cell_setting 'triclinic'
loop_
_space_group_symop_operation_xyz
x,y,z
-x,-y,-z
loop_
_atom_site_type_symbol
_atom_site_label
_atom_site_fract_x
_atom_site_fract_y
_atom_site_fract_z
Si Si1 0.408278 0.276630 0.245340
Si Si2 0.420363 0.430170 0.592932
Si Si3 0.959121 0.260309 0.796371
Si Si4 0.274445 0.691294 0.670880
Si Si5 0.056689 0.779612 0.906509
Si Si6 0.543960 0.748554 0.060814
O O1 0.431282 0.414644 0.332637
O O2 0.571742 0.253707 0.256822
O O3 0.435170 0.541102 0.152340
O O4 0.231056 0.936109 0.241572
O O5 0.500000 0.500000 0.500000
O O6 0.318027 0.593250 0.592613
O O7 0.296919 0.038774 0.632883
O O8 0.098437 0.404792 0.720735
O O9 0.006760 0.572220 0.831340
O O10 0.975626 0.994472 0.877970
O O11 0.258298 0.044100 0.912076
O O12 0.000000 0.500000 0.000000
O O13 0.500000 0.500000 0.000000
O O14 0.500000 0.000000 0.000000
#
# Coordination Sequence:
#
# PCOD9026647 Si02
#       6
#     2   2   2   2   2   2
#     4  10  25  39  67  90 128 167 212 255 321 367
#     4  10  22  43  70  93 127 163 207 262 322 379
#     4  12  23  41  63  90 126 168 210 258 319 369
#     4  10  22  41  65  89 128 159 211 252 323 368
#     4  12  24  40  59  91 129 166 218 268 304 363
#     4  12  24  39  61  91 126 167 213 254 305 370
#
# _framework density 20.422029999999999
#
# number of rings (size 3 to 8) (size 9 to 14) (size 15 to 20)
#    1.000    0.000    1.667    6.000    4.667    0.000 
#    0.000    1.667    0.000    0.000    0.000    0.000 
#    0.000    0.000    0.000    0.000    0.000    0.000 
#
# Total GULP energy -67045.684980 kJ/mol
# GULP energy per Si atom -5587.140415 kJ/mol
# Density = 2.037555 g / cm^3
# Si number density = 20.422030 Si / 1000 Ang^3
#
#
#
# Elastic Constant Matrix: (Units=GPa)
#
#
# Indices 1 2 3 4 5 6 
#
# 1 43.7268 37.0837 -1.9133 6.4732 -2.3002 11.0061
# 2 37.0837 147.6753 41.5798 9.9622 -11.4731 10.6465
# 3 -1.9133 41.5798 97.2044 16.6412 -18.8459 14.1578
# 4 6.4732 9.9622 16.6412 29.0397 -7.2560 -9.0363
# 5 -2.3002 -11.4731 -18.8459 -7.2560 23.0470 -11.6759
# 6 11.0061 10.6465 14.1578 -9.0363 -11.6759 51.4630
#
#
#
# Elastic Compliance Matrix: (Units=1/GPa)
#
#
# Indices 1 2 3 4 5 6 
#
# 1 0.036545 -0.010073 0.008184 -0.014266 -0.005062 -0.011637
# 2 -0.010073 0.010549 -0.005125 0.002836 0.002148 0.002367
# 3 0.008184 -0.005125 0.016202 -0.009670 0.005652 -0.005563
# 4 -0.014266 0.002836 -0.009670 0.052369 0.017878 0.018376
# 5 -0.005062 0.002148 0.005652 0.017878 0.062515 0.016406
# 6 -0.011637 0.002367 -0.005563 0.018376 0.016406 0.029910
#
#
# Mechanical properties :
#
#
# Convention : Reuss Voigt Hill
#
# Bulk Modulus (GPa) = 20.29695 49.12299 34.70997
# Shear Modulus (GPa) = 20.96078 34.83371 27.89724
#
# Velocity S-wave (km/s) = 3.20719 4.13448 3.70000
# Velocity P-wave (km/s) = 4.86571 6.84822 5.94025
#
# Compressibility (1/GPa) = 0.04926848
#
# Stress axis : x y z
#
# Youngs Moduli (GPa) = 27.36363 94.79638 61.71972
#
# Poissons Ratio (x) = 0.95491 -0.50512
# Poissons Ratio (y) = 0.27564 0.31629
# Poissons Ratio (z) = -0.22395 0.48579
#
# Static dielectric constant tensor:
#      x y z
#    x 1.721240 -0.029010 0.027570 
#    y -0.029010 1.688680 0.023890 
#    z 0.027570 0.023890 1.683650 
# 
# From -- ./inp_files/32253.got.cif
#   From: 2010.05.17/outbox.cif.g08.bks.cpg/sg2_17_cif.got.tgz:32253.got - 2010.06.03 11:33:40.
