data_PCOD9026306
_publ_section_title
;
Structure prediction by ZEFSAII (Michael W. Deem and Ramdas Pophale) SiO2 
 PCOD9026306
Probable space group: P -1
;
_chemical_formula_sum "Si O2"
_cell_formula_units_Z 14
_cell_length_a 13.041795
_cell_length_b 20.618801
_cell_length_c 4.855368
_cell_angle_alpha 79.674748
_cell_angle_beta 93.365992
_cell_angle_gamma 157.549366
_cell_volume 470.242234
_symmetry_space_group_name_H-M "P -1"
_symmetry_group_IT_number 2
_symmetry_cell_setting 'triclinic'
loop_
_space_group_symop_operation_xyz
x,y,z
-x,-y,-z
loop_
_atom_site_type_symbol
_atom_site_label
_atom_site_fract_x
_atom_site_fract_y
_atom_site_fract_z
Si Si1 0.959908 0.050425 0.221786
Si Si2 0.389118 0.874305 0.263679
Si Si3 0.939947 0.236659 0.264722
Si Si4 0.492902 0.289194 0.962063
Si Si5 0.132209 0.232283 0.592641
Si Si6 0.265540 0.463714 0.578142
Si Si7 0.944228 0.522658 0.249119
O O1 0.215070 0.149852 0.190523
O O2 0.063325 0.169774 0.936469
O O3 0.933307 0.069061 0.496315
O O4 0.678998 0.852481 0.196955
O O5 0.249868 0.740256 0.136054
O O6 0.671355 0.027834 0.351193
O O7 0.934367 0.679977 0.077070
O O8 0.500000 0.000000 0.000000
O O9 0.121889 0.305517 0.473591
O O10 0.821887 0.224348 0.457835
O O11 0.644832 0.449728 0.787857
O O12 0.743754 0.391875 0.051243
O O13 0.436485 0.392615 0.419246
O O14 0.238202 0.525424 0.627955
O O15 0.000000 0.500000 0.500000
#
# Coordination Sequence:
#
# PCOD9026306 Si02
#       7
#     2   2   2   2   2   2   2
#     4  10  24  39  70  99 142 178 225 284 350 420
#     4  10  23  44  66  94 137 184 233 285 347 416
#     4  10  23  41  66  95 131 183 232 283 345 419
#     4  10  22  41  63  94 135 185 220 282 348 415
#     4  11  23  43  68 107 134 179 229 290 351 412
#     4  10  22  43  64  94 140 174 228 287 350 410
#     4  11  24  41  68 101 134 183 232 289 345 419
#
# _framework density 29.771888000000001
#
# number of rings (size 3 to 8) (size 9 to 14) (size 15 to 20)
#    0.000    1.714    1.429    1.286    6.000    2.286 
#    0.000    2.143    0.000    0.000    0.000    0.000 
#    0.000    0.000    0.000    0.000    0.000    0.000 
#
# Total GULP energy -78169.212132 kJ/mol
# GULP energy per Si atom -5583.515152 kJ/mol
# Density = 2.970413 g / cm^3
# Si number density = 29.771888 Si / 1000 Ang^3
#
#
#
# Elastic Constant Matrix: (Units=GPa)
#
#
# Indices 1 2 3 4 5 6 
#
# 1 127.8575 47.5460 81.1812 -5.6687 29.3126 -7.9908
# 2 47.5460 201.7079 104.7225 13.9683 15.8709 -18.3152
# 3 81.1812 104.7225 162.1968 -0.0935 16.2821 6.0588
# 4 -5.6687 13.9683 -0.0935 76.3784 -9.2211 -3.0363
# 5 29.3126 15.8709 16.2821 -9.2211 67.8094 0.3313
# 6 -7.9908 -18.3152 6.0588 -3.0363 0.3313 48.6599
#
#
#
# Elastic Compliance Matrix: (Units=1/GPa)
#
#
# Indices 1 2 3 4 5 6 
#
# 1 0.013014 0.001182 -0.006987 0.000375 -0.004191 0.003504
# 2 0.001182 0.008365 -0.006019 -0.001440 -0.001239 0.004011
# 3 -0.006987 -0.006019 0.013612 0.000549 0.001260 -0.005082
# 4 0.000375 -0.001440 0.000549 0.013625 0.001895 0.000289
# 5 -0.004191 -0.001239 0.001260 0.001895 0.016810 -0.001308
# 6 0.003504 0.004011 -0.005082 0.000289 -0.001308 0.023295
#
#
# Mechanical properties :
#
#
# Convention : Reuss Voigt Hill
#
# Bulk Modulus (GPa) = 88.15310 106.51795 97.33553
# Shear Modulus (GPa) = 43.04750 55.79037 49.41894
#
# Velocity S-wave (km/s) = 3.80664 4.33359 4.07863
# Velocity P-wave (km/s) = 6.99960 7.80357 7.41249
#
# Compressibility (1/GPa) = 0.01134390
#
# Stress axis : x y z
#
# Youngs Moduli (GPa) = 76.83880 119.54152 73.46511
#
# Poissons Ratio (x) = -0.14125 0.51327
# Poissons Ratio (y) = -0.09079 0.44217
# Poissons Ratio (z) = 0.53684 0.71949
#
# Static dielectric constant tensor:
#      x y z
#    x 2.416840 -0.055950 0.105770 
#    y -0.055950 2.752600 0.353450 
#    z 0.105770 0.353450 2.888420 
# 
# From -- ./inp_files/100867.got.cif
#   From: 2010.05.17/outbox.cif.g08.bks.cpg/sg2_51_cif.got.tgz:100867.got - 2010.06.03 11:33:40.
