data_PCOD9026260
_publ_section_title
;
Structure prediction by ZEFSAII (Michael W. Deem and Ramdas Pophale) SiO2 
 PCOD9026260
Probable space group: P -1
;
_chemical_formula_sum "Si O2"
_cell_formula_units_Z 14
_cell_length_a 9.860361
_cell_length_b 11.708769
_cell_length_c 14.122599
_cell_angle_alpha 148.456215
_cell_angle_beta 60.544740
_cell_angle_gamma 129.472254
_cell_volume 653.379828
_symmetry_space_group_name_H-M "P -1"
_symmetry_group_IT_number 2
_symmetry_cell_setting 'triclinic'
loop_
_space_group_symop_operation_xyz
x,y,z
-x,-y,-z
loop_
_atom_site_type_symbol
_atom_site_label
_atom_site_fract_x
_atom_site_fract_y
_atom_site_fract_z
Si Si1 0.321261 0.250203 0.366223
Si Si2 0.619237 0.189986 0.879501
Si Si3 0.005129 0.829255 0.459498
Si Si4 0.421284 0.753127 0.289337
Si Si5 0.048161 0.376106 0.119904
Si Si6 0.236412 0.277102 0.818803
Si Si7 0.654317 0.964561 0.980191
O O1 0.500000 0.500000 0.500000
O O2 0.164457 0.274880 0.487990
O O3 0.321678 0.008720 0.244101
O O4 0.310526 0.208039 0.227327
O O5 0.596898 0.181185 0.767579
O O6 0.749579 0.478087 0.064259
O O7 0.439005 0.128212 0.953080
O O8 0.026014 0.606316 0.250908
O O9 0.000000 0.000000 0.500000
O O10 0.163404 0.026206 0.608125
O O11 0.227104 0.532639 0.231411
O O12 0.566113 0.658444 0.175623
O O13 0.500000 0.000000 0.500000
O O14 0.109089 0.242356 0.926360
O O15 0.850755 0.190277 0.090762
O O16 0.500000 0.000000 0.000000
#
# Coordination Sequence:
#
# PCOD9026260 Si02
#       7
#     2   2   2   2   2   2   2
#     4  11  24  41  63  97 137 171 215 271 332 394
#     4  10  23  41  67  92 132 176 217 266 334 385
#     4  12  24  35  66 100 127 168 222 268 334 390
#     4  11  23  45  68  96 129 173 226 275 319 381
#     4  11  22  43  65  91 133 172 215 270 331 382
#     4  11  24  43  65  94 134 173 218 275 321 384
#     4  10  22  41  63  91 135 171 206 268 329 394
#
# _framework density 21.427047000000002
#
# number of rings (size 3 to 8) (size 9 to 14) (size 15 to 20)
#    0.000    1.143    2.857    5.143    6.000    1.143 
#    0.000    3.571    0.000    0.000    0.000    0.000 
#    0.000    0.000    0.000    0.000    0.000    0.000 
#
# Total GULP energy -78053.799236 kJ/mol
# GULP energy per Si atom -5575.271374 kJ/mol
# Density = 2.137828 g / cm^3
# Si number density = 21.427047 Si / 1000 Ang^3
#
#
#
# Elastic Constant Matrix: (Units=GPa)
#
#
# Indices 1 2 3 4 5 6 
#
# 1 64.1089 28.8826 16.2854 -5.5483 7.0411 28.7954
# 2 28.8826 108.9373 18.9908 -4.0088 17.5154 37.1613
# 3 16.2854 18.9908 79.5724 -8.2830 13.3541 1.7005
# 4 -5.5483 -4.0088 -8.2830 36.4379 8.8238 4.4017
# 5 7.0411 17.5154 13.3541 8.8238 41.4694 6.0763
# 6 28.7954 37.1613 1.7005 4.4017 6.0763 38.1333
#
#
#
# Elastic Compliance Matrix: (Units=1/GPa)
#
#
# Indices 1 2 3 4 5 6 
#
# 1 0.026580 0.001793 -0.004399 0.006388 -0.001983 -0.022044
# 2 0.001793 0.015582 -0.002486 0.004511 -0.004671 -0.016205
# 3 -0.004399 -0.002486 0.014990 0.002881 -0.004442 0.005452
# 4 0.006388 0.004511 0.002881 0.033227 -0.009272 -0.011706
# 5 -0.001983 -0.004671 -0.004442 -0.009272 0.029442 0.002626
# 6 -0.022044 -0.016205 0.005452 -0.011706 0.002626 0.059352
#
#
# Mechanical properties :
#
#
# Convention : Reuss Voigt Hill
#
# Bulk Modulus (GPa) = 21.29089 42.32624 31.80857
# Shear Modulus (GPa) = 24.38867 35.77211 30.08039
#
# Velocity S-wave (km/s) = 3.37741 4.09036 3.75087
# Velocity P-wave (km/s) = 5.01670 6.48881 5.79965
#
# Compressibility (1/GPa) = 0.04696843
#
# Stress axis : x y z
#
# Youngs Moduli (GPa) = 37.62227 64.17457 66.71242
#
# Poissons Ratio (x) = -0.11509 0.29347
# Poissons Ratio (y) = -0.06747 0.16586
# Poissons Ratio (z) = 0.16550 0.15955
#
# Static dielectric constant tensor:
#      x y z
#    x 1.860320 0.038230 0.008350 
#    y 0.038230 1.785420 0.005630 
#    z 0.008350 0.005630 1.789730 
# 
# From -- ./inp_files/345775.got.cif
#   From: 2010.05.17/outbox.cif.g08.bks.cpg/sg2_173_cif.got.tgz:345775.got - 2010.06.03 11:33:40.
