data_PCOD9026888
_publ_section_title
;
Structure prediction by ZEFSAII (Michael W. Deem and Ramdas Pophale) SiO2 
 PCOD9026888
Probable space group: P -1
;
_chemical_formula_sum "Si O2"
_cell_formula_units_Z 14
_cell_length_a 5.721269
_cell_length_b 8.912087
_cell_length_c 19.333376
_cell_angle_alpha 132.806100
_cell_angle_beta 103.991286
_cell_angle_gamma 58.430559
_cell_volume 605.861626
_symmetry_space_group_name_H-M "P -1"
_symmetry_group_IT_number 2
_symmetry_cell_setting 'triclinic'
loop_
_space_group_symop_operation_xyz
x,y,z
-x,-y,-z
loop_
_atom_site_type_symbol
_atom_site_label
_atom_site_fract_x
_atom_site_fract_y
_atom_site_fract_z
Si Si1 0.778216 0.535122 0.197221
Si Si2 0.097443 0.245966 0.609530
Si Si3 0.837975 0.396026 0.001158
Si Si4 0.688127 0.954319 0.684385
Si Si5 0.582101 0.750364 0.490642
Si Si6 0.506745 0.646980 0.646642
Si Si7 0.875715 0.144617 0.194315
O O1 0.934489 0.653517 0.284178
O O2 0.821845 0.324697 0.184877
O O3 0.465313 0.762679 0.242143
O O4 0.872201 0.444572 0.098730
O O5 0.326422 0.276513 0.591118
O O6 0.816727 0.427578 0.608481
O O7 0.259982 0.962193 0.536125
O O8 0.500000 0.500000 0.000000
O O9 0.995423 0.118021 0.908100
O O10 0.000000 0.500000 0.000000
O O11 0.751821 0.843007 0.577389
O O12 0.487281 0.854176 0.663312
O O13 0.911677 0.868684 0.734715
O O14 0.642198 0.493149 0.436174
O O15 0.401473 0.760460 0.750120
#
# Coordination Sequence:
#
# PCOD9026888 Si02
#       7
#     2   2   2   2   2   2   2
#     4  11  23  50  73 105 144 196 238 312 377 441
#     4  10  22  42  67 101 144 188 250 297 366 449
#     4  12  28  53  83 115 150 193 252 313 385 459
#     4  11  24  43  70 101 149 190 245 305 365 443
#     4  10  22  41  66 101 146 193 244 303 365 435
#     4  12  22  41  67 105 145 190 250 301 367 443
#     4  12  26  47  73 108 146 192 244 308 375 452
#
# _framework density 23.107586000000001
#
# number of rings (size 3 to 8) (size 9 to 14) (size 15 to 20)
#    0.000    0.857    4.286    2.143    0.000    4.571 
#    5.143    2.143    0.000    0.000    0.000    0.000 
#    0.000    0.000    0.000    0.000    0.000    0.000 
#
# Total GULP energy -78124.443513 kJ/mol
# GULP energy per Si atom -5580.317394 kJ/mol
# Density = 2.305499 g / cm^3
# Si number density = 23.107586 Si / 1000 Ang^3
#
#
#
# Elastic Constant Matrix: (Units=GPa)
#
#
# Indices 1 2 3 4 5 6 
#
# 1 56.1545 57.5090 36.0492 12.2390 -11.8306 -6.4682
# 2 57.5090 180.3944 63.2138 14.0629 -6.4146 0.4982
# 3 36.0492 63.2138 179.3484 14.5784 -13.9680 4.5228
# 4 12.2390 14.0629 14.5784 57.7205 0.1681 1.2246
# 5 -11.8306 -6.4146 -13.9680 0.1681 24.9374 3.2886
# 6 -6.4682 0.4982 4.5228 1.2246 3.2886 27.1593
#
#
#
# Elastic Compliance Matrix: (Units=1/GPa)
#
#
# Indices 1 2 3 4 5 6 
#
# 1 0.032393 -0.008784 -0.002401 -0.004306 0.010849 0.007156
# 2 -0.008784 0.008770 -0.001491 0.000146 -0.002522 -0.001706
# 3 -0.002401 -0.001491 0.006905 -0.000837 0.002611 -0.001973
# 4 -0.004306 0.000146 -0.000837 0.018451 -0.002410 -0.001429
# 5 0.010849 -0.002522 0.002611 -0.002410 0.046516 -0.003329
# 6 0.007156 -0.001706 -0.001973 -0.001429 -0.003329 0.039351
#
#
# Mechanical properties :
#
#
# Convention : Reuss Voigt Hill
#
# Bulk Modulus (GPa) = 44.01929 81.04906 62.53417
# Shear Modulus (GPa) = 26.98187 39.23845 33.11016
#
# Velocity S-wave (km/s) = 3.42082 4.12524 3.78943
# Velocity P-wave (km/s) = 5.89014 7.60532 6.80201
#
# Compressibility (1/GPa) = 0.02271731
#
# Stress axis : x y z
#
# Youngs Moduli (GPa) = 30.87056 114.02866 144.82554
#
# Poissons Ratio (x) = 1.00163 0.34767
# Poissons Ratio (y) = 0.27117 0.21589
# Poissons Ratio (z) = 0.07411 0.16998
#
# Static dielectric constant tensor:
#      x y z
#    x 2.001270 -0.032840 0.037210 
#    y -0.032840 1.888620 -0.024190 
#    z 0.037210 -0.024190 1.869010 
# 
# From -- ./inp_files/138813.got.cif
#   From: 2010.05.17/outbox.cif.g08.bks.cpg/sg2_70_cif.got.tgz:138813.got - 2010.06.03 11:33:40.
