data_PCOD9026990
_publ_section_title
;
Structure prediction by ZEFSAII (Michael W. Deem and Ramdas Pophale) SiO2 
 PCOD9026990
Probable space group: P -1
;
_chemical_formula_sum "Si O2"
_cell_formula_units_Z 16
_cell_length_a 5.403752
_cell_length_b 7.464061
_cell_length_c 18.770732
_cell_angle_alpha 120.195993
_cell_angle_beta 95.748003
_cell_angle_gamma 96.155421
_cell_volume 640.050165
_symmetry_space_group_name_H-M "P -1"
_symmetry_group_IT_number 2
_symmetry_cell_setting 'triclinic'
loop_
_space_group_symop_operation_xyz
x,y,z
-x,-y,-z
loop_
_atom_site_type_symbol
_atom_site_label
_atom_site_fract_x
_atom_site_fract_y
_atom_site_fract_z
Si Si1 0.419229 0.132712 0.659538
Si Si2 0.099441 0.246024 0.798810
Si Si3 0.133149 0.550175 0.436421
Si Si4 0.754106 0.877855 0.658977
Si Si5 0.269277 0.020937 0.053073
Si Si6 0.294248 0.207764 0.520316
Si Si7 0.754158 0.515696 0.814534
Si Si8 0.463619 0.691694 0.086055
O O1 0.216319 0.202038 0.717958
O O2 0.359763 0.082791 0.566158
O O3 0.642740 0.345279 0.715276
O O4 0.466569 0.913772 0.652742
O O5 0.258049 0.193829 0.860055
O O6 0.038211 0.479977 0.834262
O O7 0.854325 0.065864 0.752589
O O8 0.145926 0.327345 0.355747
O O9 0.434361 0.647518 0.463977
O O10 0.000000 0.500000 0.500000
O O11 0.928251 0.682650 0.429404
O O12 0.810759 0.897651 0.578533
O O13 0.290881 0.835253 0.072532
O O14 0.294534 0.247194 0.139985
O O15 0.500000 0.000000 0.000000
O O16 0.000000 0.000000 0.000000
O O17 0.624595 0.413795 0.862589
O O18 0.500000 0.500000 0.000000
#
# Coordination Sequence:
#
# PCOD9026990 Si02
#       8
#     2   2   2   2   2   2   2   2
#     4  10  24  42  64  98 135 183 232 288 349 406
#     4  10  24  42  68  96 141 184 231 291 351 416
#     4  10  23  41  64  96 133 177 230 293 350 408
#     4  10  22  41  66  93 134 178 235 286 344 410
#     4  12  27  45  77 111 136 181 233 286 350 426
#     4  11  24  41  69  98 134 186 234 292 349 406
#     4  10  24  47  66 102 148 180 234 295 344 425
#     4  11  23  45  75 102 140 187 229 284 360 424
#
# _framework density 24.998038000000001
#
# number of rings (size 3 to 8) (size 9 to 14) (size 15 to 20)
#    0.000    1.500    1.250    2.625   12.250    2.500 
#    4.500    0.000    0.000    0.000    0.000    0.000 
#    0.000    0.000    0.000    0.000    0.000    0.000 
#
# Total GULP energy -89100.679262 kJ/mol
# GULP energy per Si atom -5568.792454 kJ/mol
# Density = 2.494114 g / cm^3
# Si number density = 24.998038 Si / 1000 Ang^3
#
#
#
# Elastic Constant Matrix: (Units=GPa)
#
#
# Indices 1 2 3 4 5 6 
#
# 1 114.3342 25.7248 24.2470 5.3919 -2.7945 -24.2065
# 2 25.7248 106.9818 28.3299 14.3228 3.4637 -40.0696
# 3 24.2470 28.3299 108.9323 8.4016 -2.9929 -23.0105
# 4 5.3919 14.3228 8.4016 44.7202 -12.7109 -12.0910
# 5 -2.7945 3.4637 -2.9929 -12.7109 35.8302 -0.5959
# 6 -24.2065 -40.0696 -23.0105 -12.0910 -0.5959 42.2923
#
#
#
# Elastic Compliance Matrix: (Units=1/GPa)
#
#
# Indices 1 2 3 4 5 6 
#
# 1 0.010132 -0.000383 -0.001115 0.000795 0.001100 0.005072
# 2 -0.000383 0.014743 -0.000989 -0.001584 -0.001888 0.012731
# 3 -0.001115 -0.000989 0.010601 -0.000158 0.000907 0.004160
# 4 0.000795 -0.001584 -0.000158 0.027528 0.010082 0.006880
# 5 0.001100 -0.001888 0.000907 0.010082 0.031875 0.002666
# 6 0.005072 0.012731 0.004160 0.006880 0.002666 0.042878
#
#
# Mechanical properties :
#
#
# Convention : Reuss Voigt Hill
#
# Bulk Modulus (GPa) = 32.78595 54.09465 43.44030
# Shear Modulus (GPa) = 32.70096 41.36498 37.03297
#
# Velocity S-wave (km/s) = 3.62075 4.07225 3.85312
# Velocity P-wave (km/s) = 5.53386 6.61797 6.10005
#
# Compressibility (1/GPa) = 0.03050087
#
# Stress axis : x y z
#
# Youngs Moduli (GPa) = 98.69416 67.82804 94.32705
#
# Poissons Ratio (x) = 0.02601 0.10520
# Poissons Ratio (y) = 0.03784 0.09332
# Poissons Ratio (z) = 0.11007 0.06710
#
# Static dielectric constant tensor:
#      x y z
#    x 2.237210 0.044860 0.070310 
#    y 0.044860 2.081660 0.044710 
#    z 0.070310 0.044710 1.970100 
# 
# From -- ./inp_files/582079.got.cif
#   From: 2010.05.17/outbox.cif.g08.bks.cpg/sg2_292_cif.got.tgz:582079.got - 2010.06.03 11:33:40.
