data_PCOD9026041
_publ_section_title
;
Structure prediction by ZEFSAII (Michael W. Deem and Ramdas Pophale) SiO2 
 PCOD9026041
Probable space group: P -1
;
_chemical_formula_sum "Si O2"
_cell_formula_units_Z 12
_cell_length_a 11.730955
_cell_length_b 9.237111
_cell_length_c 6.597432
_cell_angle_alpha 109.104060
_cell_angle_beta 129.650560
_cell_angle_gamma 65.254563
_cell_volume 498.038566
_symmetry_space_group_name_H-M "P -1"
_symmetry_group_IT_number 2
_symmetry_cell_setting 'triclinic'
loop_
_space_group_symop_operation_xyz
x,y,z
-x,-y,-z
loop_
_atom_site_type_symbol
_atom_site_label
_atom_site_fract_x
_atom_site_fract_y
_atom_site_fract_z
Si Si1 0.418832 0.137419 0.313972
Si Si2 0.251923 0.582391 0.783151
Si Si3 0.484421 0.623921 0.726405
Si Si4 0.844655 0.654835 0.676774
Si Si5 0.998657 0.864687 0.720726
Si Si6 0.083340 0.160876 0.845004
O O1 0.514876 0.205089 0.289855
O O2 0.330990 0.293962 0.419497
O O3 0.500000 0.000000 0.500000
O O4 0.270749 0.095610 0.027658
O O5 0.342338 0.635845 0.724163
O O6 0.134859 0.495786 0.508760
O O7 0.161586 0.731841 0.886395
O O8 0.366992 0.451684 0.996311
O O9 0.500000 0.500000 0.500000
O O10 0.864730 0.806540 0.644487
O O11 0.945422 0.670641 0.995116
O O12 0.978437 0.838092 0.446894
O O13 0.009372 0.043227 0.832319
#
# Coordination Sequence:
#
# PCOD9026041 Si02
#       6
#     2   2   2   2   2   2
#     4  10  23  41  68  91 127 175 211 264 328 373
#     4  11  25  39  70  95 128 176 212 270 330 372
#     4  11  23  44  63  95 136 165 225 265 314 401
#     4  10  22  41  61  93 130 164 216 265 314 394
#     4  11  22  41  64  96 130 168 217 266 322 385
#     4   9  23  40  62  93 131 170 217 262 317 388
#
# _framework density 24.094517
#
# number of rings (size 3 to 8) (size 9 to 14) (size 15 to 20)
#    1.000    0.667    1.667    2.000    2.333    4.667 
#    0.000    2.500    0.000    0.000    0.000    0.000 
#    0.000    0.000    0.000    0.000    0.000    0.000 
#
# Total GULP energy -66949.835987 kJ/mol
# GULP energy per Si atom -5579.152999 kJ/mol
# Density = 2.403968 g / cm^3
# Si number density = 24.094517 Si / 1000 Ang^3
#
#
#
# Elastic Constant Matrix: (Units=GPa)
#
#
# Indices 1 2 3 4 5 6 
#
# 1 100.7838 34.2327 12.5048 0.1177 -4.4741 31.4948
# 2 34.2327 101.1839 29.5734 7.7160 10.5931 27.9931
# 3 12.5048 29.5734 60.7009 0.8436 3.2148 19.2042
# 4 0.1177 7.7160 0.8436 36.2084 4.8123 -8.0436
# 5 -4.4741 10.5931 3.2148 4.8123 24.2758 0.2531
# 6 31.4948 27.9931 19.2042 -8.0436 0.2531 45.7337
#
#
#
# Elastic Compliance Matrix: (Units=1/GPa)
#
#
# Indices 1 2 3 4 5 6 
#
# 1 0.013566 -0.002865 0.001065 -0.001862 0.004066 -0.008386
# 2 -0.002865 0.014548 -0.004355 -0.003517 -0.005543 -0.005691
# 3 0.001065 -0.004355 0.020591 -0.001040 -0.000352 -0.006895
# 4 -0.001862 -0.003517 -0.001040 0.031137 -0.004941 0.009375
# 5 0.004066 -0.005543 -0.000352 -0.004941 0.045391 -0.000379
# 6 -0.008386 -0.005691 -0.006895 0.009375 -0.000379 0.035671
#
#
# Mechanical properties :
#
#
# Convention : Reuss Voigt Hill
#
# Bulk Modulus (GPa) = 27.47534 46.14336 36.80935
# Shear Modulus (GPa) = 26.97658 33.66744 30.32201
#
# Velocity S-wave (km/s) = 3.34969 3.74211 3.55133
# Velocity P-wave (km/s) = 5.13698 6.15335 5.66799
#
# Compressibility (1/GPa) = 0.03639627
#
# Stress axis : x y z
#
# Youngs Moduli (GPa) = 73.71101 68.73860 48.56487
#
# Poissons Ratio (x) = 0.19690 -0.05170
# Poissons Ratio (y) = 0.21115 0.21148
# Poissons Ratio (z) = -0.07847 0.29933
#
# Static dielectric constant tensor:
#      x y z
#    x 1.935040 -0.009710 -0.033090 
#    y -0.009710 1.927150 0.000070 
#    z -0.033090 0.000070 1.961110 
# 
# From -- ./inp_files/61219.got.cif
#   From: 2010.05.17/outbox.cif.g08.bks.cpg/sg2_31_cif.got.tgz:61219.got - 2010.06.03 11:33:40.
