data_PCOD9026926
_publ_section_title
;
Structure prediction by ZEFSAII (Michael W. Deem and Ramdas Pophale) SiO2 
 PCOD9026926
Probable space group: P -1
;
_chemical_formula_sum "Si O2"
_cell_formula_units_Z 14
_cell_length_a 9.745828
_cell_length_b 15.764369
_cell_length_c 7.575588
_cell_angle_alpha 134.709868
_cell_angle_beta 69.528488
_cell_angle_gamma 82.910529
_cell_volume 644.649538
_symmetry_space_group_name_H-M "P -1"
_symmetry_group_IT_number 2
_symmetry_cell_setting 'triclinic'
loop_
_space_group_symop_operation_xyz
x,y,z
-x,-y,-z
loop_
_atom_site_type_symbol
_atom_site_label
_atom_site_fract_x
_atom_site_fract_y
_atom_site_fract_z
Si Si1 0.618802 0.170016 0.837530
Si Si2 0.651274 0.522448 0.528958
Si Si3 0.845934 0.854425 0.207903
Si Si4 0.155509 0.790688 0.488930
Si Si5 0.002489 0.414832 0.042728
Si Si6 0.858997 0.092021 0.948448
Si Si7 0.078444 0.616388 0.489566
O O1 0.706429 0.222646 0.734387
O O2 0.707646 0.140308 0.946783
O O3 0.669239 0.013897 0.521198
O O4 0.426139 0.310739 0.156770
O O5 0.500000 0.500000 0.500000
O O6 0.806114 0.456255 0.220925
O O7 0.757143 0.437223 0.531529
O O8 0.869906 0.754138 0.215613
O O9 0.000114 0.885216 0.179119
O O10 0.905421 0.753656 0.859471
O O11 0.129131 0.664824 0.360691
O O12 0.193873 0.831000 0.724391
O O13 0.968758 0.925353 0.704284
O O14 0.951336 0.507786 0.715907
O O15 0.000000 0.500000 0.000000
#
# Coordination Sequence:
#
# PCOD9026926 Si02
#       7
#     2   2   2   2   2   2   2
#     4  11  21  35  63  94 133 160 209 277 329 359
#     4  11  24  43  65  99 134 164 212 275 327 374
#     4   9  18  37  60  88 117 174 214 254 311 386
#     4   9  18  33  59  94 118 173 210 259 313 385
#     4  11  25  43  66  90 128 180 219 253 321 401
#     4   9  18  32  57  92 133 155 215 262 313 381
#     4  10  22  41  66  89 132 171 222 256 315 406
#
# _framework density 21.717227000000001
#
# number of rings (size 3 to 8) (size 9 to 14) (size 15 to 20)
#    0.000    2.000    0.000    6.857    6.000    0.571 
#    2.571    3.571    0.000    0.000    0.000    0.000 
#    0.000    0.000    0.000    0.000    0.000    0.000 
#
# Total GULP energy -78082.990711 kJ/mol
# GULP energy per Si atom -5577.356479 kJ/mol
# Density = 2.166780 g / cm^3
# Si number density = 21.717227 Si / 1000 Ang^3
#
#
#
# Elastic Constant Matrix: (Units=GPa)
#
#
# Indices 1 2 3 4 5 6 
#
# 1 75.8581 23.4216 11.2449 -4.2052 10.5383 6.2223
# 2 23.4216 158.0711 31.2061 -4.0745 9.7625 -6.8001
# 3 11.2449 31.2061 59.2126 23.9147 14.3619 -9.8276
# 4 -4.2052 -4.0745 23.9147 40.4935 1.9191 10.6713
# 5 10.5383 9.7625 14.3619 1.9191 22.7824 -0.0179
# 6 6.2223 -6.8001 -9.8276 10.6713 -0.0179 30.3065
#
#
#
# Elastic Compliance Matrix: (Units=1/GPa)
#
#
# Indices 1 2 3 4 5 6 
#
# 1 0.015972 -0.001159 -0.005675 0.007163 -0.003923 -0.007904
# 2 -0.001159 0.007735 -0.006258 0.004776 0.000763 -0.001737
# 3 -0.005675 -0.006258 0.043212 -0.032470 -0.019178 0.025195
# 4 0.007163 0.004776 -0.032470 0.052323 0.010679 -0.029346
# 5 -0.003923 0.000763 -0.019178 0.010679 0.056564 -0.008969
# 6 -0.007904 -0.001737 0.025195 -0.029346 -0.008969 0.052727
#
#
# Mechanical properties :
#
#
# Convention : Reuss Voigt Hill
#
# Bulk Modulus (GPa) = 24.55065 47.20964 35.88015
# Shear Modulus (GPa) = 18.63608 33.86776 26.25192
#
# Velocity S-wave (km/s) = 2.93255 3.95332 3.48056
# Velocity P-wave (km/s) = 4.77449 6.52869 5.71925
#
# Compressibility (1/GPa) = 0.04073211
#
# Stress axis : x y z
#
# Youngs Moduli (GPa) = 62.60886 129.28606 23.14198
#
# Poissons Ratio (x) = 0.14988 0.13134
# Poissons Ratio (y) = 0.07258 0.14483
# Poissons Ratio (z) = 0.35534 0.80913
#
# Static dielectric constant tensor:
#      x y z
#    x 1.823050 -0.015620 0.068360 
#    y -0.015620 1.815930 -0.000210 
#    z 0.068360 -0.000210 1.837330 
# 
# From -- ./inp_files/268499.got.cif
#   From: 2010.05.17/outbox.cif.g08.bks.cpg/sg2_135_cif.got.tgz:268499.got - 2010.06.03 11:33:40.
