data_PCOD9026896
_publ_section_title
;
Structure prediction by ZEFSAII (Michael W. Deem and Ramdas Pophale) SiO2 
 PCOD9026896
Probable space group: P -1
;
_chemical_formula_sum "Si O2"
_cell_formula_units_Z 15
_cell_length_a 11.657989
_cell_length_b 4.795385
_cell_length_c 13.803167
_cell_angle_alpha 98.316887
_cell_angle_beta 130.094078
_cell_angle_gamma 81.481782
_cell_volume 582.560335
_symmetry_space_group_name_H-M "P -1"
_symmetry_group_IT_number 2
_symmetry_cell_setting 'triclinic'
loop_
_space_group_symop_operation_xyz
x,y,z
-x,-y,-z
loop_
_atom_site_type_symbol
_atom_site_label
_atom_site_fract_x
_atom_site_fract_y
_atom_site_fract_z
Si Si1 0.657919 0.817066 0.152211
Si Si2 0.140439 0.601144 0.642017
Si Si3 0.887310 0.725351 0.637615
Si Si4 0.500000 0.500000 0.500000
Si Si5 0.903929 0.848522 0.019861
Si Si6 0.271015 0.790867 0.532122
Si Si7 0.184110 0.468779 0.219958
Si Si8 0.669566 0.258921 0.023922
O O1 0.779152 0.679517 0.283799
O O2 0.678395 0.591532 0.061925
O O3 0.661312 0.120720 0.120323
O O4 0.494846 0.790030 0.108808
O O5 0.245934 0.750298 0.630630
O O6 0.000000 0.500000 0.500000
O O7 0.049567 0.775406 0.686702
O O8 0.857736 0.396219 0.592332
O O9 0.849344 0.774802 0.731405
O O10 0.764914 0.896799 0.512870
O O11 0.424150 0.663033 0.561442
O O12 0.338877 0.576165 0.352422
O O13 0.804752 0.647499 0.889626
O O14 0.026959 0.665083 0.141537
O O15 0.799547 0.086481 0.028795
O O16 0.000000 0.000000 0.000000
#
# Coordination Sequence:
#
# PCOD9026896 Si02
#       8
#     2   2   2   1   2   2   2   2
#     4  10  23  44  70  99 133 183 226 289 352 404
#     4  10  22  41  66 102 135 173 225 286 342 416
#     4  10  22  41  66  93 136 176 227 277 343 409
#     4  10  24  48  68 100 144 182 230 286 354 422
#     4  11  26  44  71 105 139 187 241 291 345 425
#     4  10  23  41  63  98 133 181 221 277 346 411
#     4  10  25  45  69 105 139 190 234 291 356 416
#     4  10  24  46  70  97 136 181 235 286 344 415
#
# _framework density 25.748404000000001
#
# number of rings (size 3 to 8) (size 9 to 14) (size 15 to 20)
#    0.000    1.867    0.000    1.200    9.333    7.467 
#    9.600    0.000    0.000    0.000    0.000    0.000 
#    0.000    0.000    0.000    0.000    0.000    0.000 
#
# Total GULP energy -83596.887360 kJ/mol
# GULP energy per Si atom -5573.125824 kJ/mol
# Density = 2.568980 g / cm^3
# Si number density = 25.748404 Si / 1000 Ang^3
#
#
#
# Elastic Constant Matrix: (Units=GPa)
#
#
# Indices 1 2 3 4 5 6 
#
# 1 110.5752 23.9529 35.0545 -28.6928 -0.7962 -46.7403
# 2 23.9529 75.2764 3.8156 -15.6636 1.4540 -18.0175
# 3 35.0545 3.8156 143.0791 -26.0305 13.7075 -13.7138
# 4 -28.6928 -15.6636 -26.0305 45.2627 -2.8786 1.3760
# 5 -0.7962 1.4540 13.7075 -2.8786 48.0350 -9.0862
# 6 -46.7403 -18.0175 -13.7138 1.3760 -9.0862 47.5563
#
#
#
# Elastic Compliance Matrix: (Units=1/GPa)
#
#
# Indices 1 2 3 4 5 6 
#
# 1 0.022413 0.001064 -0.001460 0.013418 0.005862 0.022743
# 2 0.001064 0.016054 0.001153 0.006732 0.001017 0.007461
# 3 -0.001460 0.001153 0.008345 0.004117 -0.002023 0.000903
# 4 0.013418 0.006732 0.004117 0.035050 0.004102 0.016695
# 5 0.005862 0.001017 -0.002023 0.004102 0.023590 0.009952
# 6 0.022743 0.007461 0.000903 0.016695 0.009952 0.047886
#
#
# Mechanical properties :
#
#
# Convention : Reuss Voigt Hill
#
# Bulk Modulus (GPa) = 20.69185 50.50854 35.60020
# Shear Modulus (GPa) = 29.77380 45.91130 37.84255
#
# Velocity S-wave (km/s) = 3.40418 4.22723 3.83783
# Velocity P-wave (km/s) = 4.84818 6.59429 5.78747
#
# Compressibility (1/GPa) = 0.04832821
#
# Stress axis : x y z
#
# Youngs Moduli (GPa) = 44.61601 62.28966 119.82548
#
# Poissons Ratio (x) = -0.06631 0.17498
# Poissons Ratio (y) = -0.04749 -0.13821
# Poissons Ratio (z) = 0.06515 -0.07185
#
# Static dielectric constant tensor:
#      x y z
#    x 2.050460 0.016530 -0.018560 
#    y 0.016530 2.007390 0.126810 
#    z -0.018560 0.126810 2.119660 
# 
# From -- ./inp_files/511031.got.cif
#   From: 2010.05.17/outbox.cif.g08.bks.cpg/sg2_256_cif.got.tgz:511031.got - 2010.06.03 11:33:40.
