data_PCOD9026275
_publ_section_title
;
Structure prediction by ZEFSAII (Michael W. Deem and Ramdas Pophale) SiO2 
 PCOD9026275
Probable space group: P -1
;
_chemical_formula_sum "Si O2"
_cell_formula_units_Z 16
_cell_length_a 9.990071
_cell_length_b 20.494269
_cell_length_c 25.888145
_cell_angle_alpha 168.154000
_cell_angle_beta 47.098521
_cell_angle_gamma 130.324319
_cell_volume 790.556076
_symmetry_space_group_name_H-M "P -1"
_symmetry_group_IT_number 2
_symmetry_cell_setting 'triclinic'
loop_
_space_group_symop_operation_xyz
x,y,z
-x,-y,-z
loop_
_atom_site_type_symbol
_atom_site_label
_atom_site_fract_x
_atom_site_fract_y
_atom_site_fract_z
Si Si1 0.297182 0.128426 0.751794
Si Si2 0.298594 0.835152 0.317747
Si Si3 0.241651 0.646876 0.301752
Si Si4 0.922624 0.072042 0.835613
Si Si5 0.451237 0.826182 0.107389
Si Si6 0.814919 0.579521 0.342665
Si Si7 0.358460 0.332670 0.440800
Si Si8 0.868558 0.525054 0.103704
O O1 0.501520 0.078042 0.682678
O O2 0.141218 0.024641 0.750690
O O3 0.283245 0.915784 0.539952
O O4 0.255221 0.514098 0.051680
O O5 0.321244 0.719026 0.281279
O O6 0.150185 0.146642 0.604384
O O7 0.022951 0.647985 0.352575
O O8 0.348293 0.308997 0.030627
O O9 0.812199 0.770360 0.626696
O O10 0.825962 0.323264 0.096245
O O11 0.912839 0.237019 0.909385
O O12 0.318741 0.092993 0.381551
O O13 0.454956 0.006606 0.190911
O O14 0.335697 0.526231 0.901551
O O15 0.728176 0.468972 0.333200
O O16 0.500000 0.500000 0.500000
O O17 0.000000 0.500000 0.000000
#
# Coordination Sequence:
#
# PCOD9026275 Si02
#       8
#     2   2   2   2   2   2   2   2
#     4  11  22  36  53  84 117 171 207 247 296 347
#     4  11  24  35  54  85 122 170 218 244 292 351
#     4  12  20  42  60  82 130 164 207 254 298 361
#     4  11  22  40  63  87 128 161 202 261 307 361
#     4   9  22  39  63  88 121 163 201 256 312 357
#     4  10  22  41  63  93 118 161 200 256 316 365
#     4   9  21  45  69  91 118 154 203 259 325 379
#     4  11  22  38  58  84 123 174 215 249 300 355
#
# _framework density 20.238918000000002
#
# number of rings (size 3 to 8) (size 9 to 14) (size 15 to 20)
#    0.750    0.750    3.750    1.875    1.750    3.000 
#    0.000    0.625    0.000    0.750    0.000    0.000 
#    0.000    0.000    0.000    0.000    0.000    0.000 
#
# Total GULP energy -89285.343130 kJ/mol
# GULP energy per Si atom -5580.333946 kJ/mol
# Density = 2.019285 g / cm^3
# Si number density = 20.238918 Si / 1000 Ang^3
#
#
#
# Elastic Constant Matrix: (Units=GPa)
#
#
# Indices 1 2 3 4 5 6 
#
# 1 53.0511 37.6146 26.0601 -3.3253 -1.2062 11.8052
# 2 37.6146 136.9939 55.3909 -0.6003 11.3289 16.7379
# 3 26.0601 55.3909 78.9006 -22.8722 4.3891 4.6964
# 4 -3.3253 -0.6003 -22.8722 34.7436 0.0506 3.0520
# 5 -1.2062 11.3289 4.3891 0.0506 34.6093 -7.1179
# 6 11.8052 16.7379 4.6964 3.0520 -7.1179 24.5881
#
#
#
# Elastic Compliance Matrix: (Units=1/GPa)
#
#
# Indices 1 2 3 4 5 6 
#
# 1 0.026322 -0.004062 -0.005545 -0.000465 0.001223 -0.008402
# 2 -0.004062 0.013028 -0.008776 -0.005419 -0.004493 -0.005870
# 3 -0.005545 -0.008776 0.025113 0.015687 -0.000148 0.001850
# 4 -0.000465 -0.005419 0.015687 0.039352 -0.001175 -0.004309
# 5 0.001223 -0.004493 -0.000148 -0.001175 0.032932 0.012179
# 6 -0.008402 -0.005870 0.001850 -0.004309 0.012179 0.052407
#
#
# Mechanical properties :
#
#
# Convention : Reuss Voigt Hill
#
# Bulk Modulus (GPa) = 36.10589 56.34187 46.22388
# Shear Modulus (GPa) = 21.26278 28.78020 25.02149
#
# Velocity S-wave (km/s) = 3.24480 3.77506 3.51993
# Velocity P-wave (km/s) = 5.64950 6.84838 6.27762
#
# Compressibility (1/GPa) = 0.02769631
#
# Stress axis : x y z
#
# Youngs Moduli (GPa) = 37.99134 76.75501 39.82053
#
# Poissons Ratio (x) = 0.31176 0.22081
# Poissons Ratio (y) = 0.15431 0.34948
# Poissons Ratio (z) = 0.21066 0.67364
#
# Static dielectric constant tensor:
#      x y z
#    x 1.798200 0.037900 -0.019110 
#    y 0.037900 1.718280 -0.042840 
#    z -0.019110 -0.042840 1.764120 
# 
# From -- ./inp_files/623196.got.cif
#   From: 2010.05.17/outbox.cif.g08.bks.cpg/sg2_312_cif.got.tgz:623196.got - 2010.06.03 11:33:40.
