data_PCOD9026811
_publ_section_title
;
Structure prediction by ZEFSAII (Michael W. Deem and Ramdas Pophale) SiO2 
 PCOD9026811
Probable space group: P -1
;
_chemical_formula_sum "Si O2"
_cell_formula_units_Z 16
_cell_length_a 9.608119
_cell_length_b 9.104487
_cell_length_c 17.245941
_cell_angle_alpha 139.281413
_cell_angle_beta 44.425098
_cell_angle_gamma 110.408353
_cell_volume 624.617498
_symmetry_space_group_name_H-M "P -1"
_symmetry_group_IT_number 2
_symmetry_cell_setting 'triclinic'
loop_
_space_group_symop_operation_xyz
x,y,z
-x,-y,-z
loop_
_atom_site_type_symbol
_atom_site_label
_atom_site_fract_x
_atom_site_fract_y
_atom_site_fract_z
Si Si1 0.246293 0.512750 0.352773
Si Si2 0.178365 0.821798 0.734945
Si Si3 0.663054 0.107793 0.726189
Si Si4 0.097804 0.067878 0.601618
Si Si5 0.200664 0.252629 0.790455
Si Si6 0.242520 0.051989 0.128290
Si Si7 0.413505 0.518938 0.897594
Si Si8 0.525706 0.698380 0.672425
O O1 0.133972 0.322465 0.320509
O O2 0.349774 0.484863 0.214061
O O3 0.442275 0.393835 0.289302
O O4 0.130642 0.805539 0.521952
O O5 0.289912 0.799966 0.765506
O O6 0.308806 0.545853 0.537428
O O7 0.916988 0.908440 0.866020
O O8 0.227143 0.017359 0.739063
O O9 0.765090 0.974483 0.549831
O O10 0.609122 0.914175 0.719333
O O11 0.442607 0.352437 0.894325
O O12 0.846861 0.176763 0.718166
O O13 0.169750 0.207307 0.694882
O O14 0.389864 0.341609 0.768652
O O15 0.000000 0.500000 0.000000
O O16 0.500000 0.000000 0.000000
O O17 0.248708 0.805292 0.069315
#
# Coordination Sequence:
#
# PCOD9026811 Si02
#       8
#     2   2   2   2   2   2   2   2
#     4  10  22  41  67  95 126 179 224 274 331 392
#     4  11  23  39  63  97 131 171 216 275 331 389
#     4  10  22  41  65  97 133 171 223 282 326 389
#     4  10  23  42  66  98 130 179 224 270 335 395
#     4  12  23  41  68  95 131 178 220 273 332 406
#     4  10  22  43  65  91 133 181 219 269 331 400
#     4  10  22  42  62  92 135 176 221 266 338 403
#     4  11  23  39  66 102 132 164 224 285 329 383
#
# _framework density 25.615676000000001
#
# number of rings (size 3 to 8) (size 9 to 14) (size 15 to 20)
#    0.000    1.500    3.750    0.750    1.750    6.000 
#    2.250    3.750    0.000    0.000    0.000    0.000 
#    0.000    0.000    0.000    0.000    0.000    0.000 
#
# Total GULP energy -89365.054948 kJ/mol
# GULP energy per Si atom -5585.315934 kJ/mol
# Density = 2.555737 g / cm^3
# Si number density = 25.615676 Si / 1000 Ang^3
#
#
#
# Elastic Constant Matrix: (Units=GPa)
#
#
# Indices 1 2 3 4 5 6 
#
# 1 175.1808 32.8502 40.2776 11.1697 -12.9730 -19.4322
# 2 32.8502 104.2323 16.7983 24.3122 -4.1294 -10.4558
# 3 40.2776 16.7983 106.2818 29.0140 10.5385 -8.9788
# 4 11.1697 24.3122 29.0140 46.1160 -3.0766 -2.6757
# 5 -12.9730 -4.1294 10.5385 -3.0766 47.5704 3.8390
# 6 -19.4322 -10.4558 -8.9788 -2.6757 3.8390 42.5767
#
#
#
# Elastic Compliance Matrix: (Units=1/GPa)
#
#
# Indices 1 2 3 4 5 6 
#
# 1 0.006989 -0.001751 -0.002764 0.001240 0.002281 0.002049
# 2 -0.001751 0.011622 0.000635 -0.006006 -0.000145 0.001824
# 3 -0.002764 0.000635 0.013123 -0.008117 -0.004255 0.001536
# 4 0.001240 -0.006006 -0.008117 0.029837 0.003631 -0.001073
# 5 0.002281 -0.000145 -0.004255 0.003631 0.022948 -0.001733
# 6 0.002049 0.001824 0.001536 -0.001073 -0.001733 0.025283
#
#
# Mechanical properties :
#
#
# Convention : Reuss Voigt Hill
#
# Bulk Modulus (GPa) = 41.70988 62.83856 52.27422
# Shear Modulus (GPa) = 39.82376 46.97054 43.39715
#
# Velocity S-wave (km/s) = 3.94720 4.28678 4.12049
# Velocity P-wave (km/s) = 6.09033 7.00617 6.56424
#
# Compressibility (1/GPa) = 0.02397514
#
# Stress axis : x y z
#
# Youngs Moduli (GPa) = 143.07635 86.04691 76.20032
#
# Poissons Ratio (x) = 0.15064 0.21058
# Poissons Ratio (y) = 0.25047 -0.04836
# Poissons Ratio (z) = 0.39540 -0.05461
#
# Static dielectric constant tensor:
#      x y z
#    x 2.134750 0.032820 -0.044310 
#    y 0.032820 2.010860 -0.085930 
#    z -0.044310 -0.085930 2.151190 
# 
# From -- ./inp_files/557639.got.cif
#   From: 2010.05.17/outbox.cif.g08.bks.cpg/sg2_279_cif.got.tgz:557639.got - 2010.06.03 11:33:40.
