data_PCOD9026073
_publ_section_title
;
Structure prediction by ZEFSAII (Michael W. Deem and Ramdas Pophale) SiO2 
 PCOD9026073
Probable space group: P -1
;
_chemical_formula_sum "Si O2"
_cell_formula_units_Z 14
_cell_length_a 13.791055
_cell_length_b 23.902266
_cell_length_c 9.374681
_cell_angle_alpha 143.337922
_cell_angle_beta 51.843302
_cell_angle_gamma 156.284636
_cell_volume 648.739556
_symmetry_space_group_name_H-M "P -1"
_symmetry_group_IT_number 2
_symmetry_cell_setting 'triclinic'
loop_
_space_group_symop_operation_xyz
x,y,z
-x,-y,-z
loop_
_atom_site_type_symbol
_atom_site_label
_atom_site_fract_x
_atom_site_fract_y
_atom_site_fract_z
Si Si1 0.491274 0.092535 0.782356
Si Si2 0.857862 0.651916 0.997855
Si Si3 0.255616 0.206388 0.598626
Si Si4 0.278967 0.883903 0.845826
Si Si5 0.259957 0.212634 0.288104
Si Si6 0.824449 0.495672 0.261921
Si Si7 0.053936 0.274548 0.615487
O O1 0.500000 0.000000 0.500000
O O2 0.442091 0.049750 0.910101
O O3 0.737259 0.328496 0.999903
O O4 0.215963 0.950014 0.674234
O O5 0.573633 0.398923 0.739751
O O6 0.046862 0.769913 0.928418
O O7 0.770676 0.700111 0.179392
O O8 0.003038 0.736251 0.191238
O O9 0.202790 0.139667 0.350221
O O10 0.000000 0.000000 0.500000
O O11 0.088919 0.687337 0.517018
O O12 0.500000 0.000000 0.000000
O O13 0.556515 0.371471 0.306341
O O14 0.267319 0.332378 0.529460
O O15 0.000000 0.000000 0.000000
O O16 0.873667 0.583346 0.248004
#
# Coordination Sequence:
#
# PCOD9026073 Si02
#       7
#     2   2   2   2   2   2   2
#     4  11  25  46  68  98 132 177 243 290 337 407
#     4  10  22  41  61  97 137 175 222 270 344 397
#     4  10  23  37  62  96 139 178 213 276 332 416
#     4  11  25  45  70  97 136 184 231 289 336 413
#     4  11  21  39  66 103 137 176 223 275 351 411
#     4  11  24  43  69 100 135 180 230 287 345 403
#     4  10  23  39  66  99 136 178 218 284 341 421
#
# _framework density 21.580307999999999
#
# number of rings (size 3 to 8) (size 9 to 14) (size 15 to 20)
#    0.000    1.429    2.857    1.286    4.000    2.857 
#    0.000    2.857    0.000    0.000    0.000    0.000 
#    0.000    0.000    0.000    0.000    0.000    0.000 
#
# Total GULP energy -78027.337897 kJ/mol
# GULP energy per Si atom -5573.381278 kJ/mol
# Density = 2.153119 g / cm^3
# Si number density = 21.580308 Si / 1000 Ang^3
#
#
#
# Elastic Constant Matrix: (Units=GPa)
#
#
# Indices 1 2 3 4 5 6 
#
# 1 85.9678 33.6944 54.0558 1.4605 18.2862 -17.8781
# 2 33.6944 103.9360 21.7978 -0.7600 3.9204 -26.2526
# 3 54.0558 21.7978 77.7819 9.6092 0.6604 -24.1760
# 4 1.4605 -0.7600 9.6092 39.3479 -0.2327 1.1751
# 5 18.2862 3.9204 0.6604 -0.2327 37.2298 -5.5792
# 6 -17.8781 -26.2526 -24.1760 1.1751 -5.5792 49.5040
#
#
#
# Elastic Compliance Matrix: (Units=1/GPa)
#
#
# Indices 1 2 3 4 5 6 
#
# 1 0.027980 -0.005437 -0.019464 0.003646 -0.013384 -0.003879
# 2 -0.005437 0.012332 0.002165 -0.000252 0.002214 0.005889
# 3 -0.019464 0.002165 0.029589 -0.006696 0.010247 0.009883
# 4 0.003646 -0.000252 -0.006696 0.026986 -0.001918 -0.002943
# 5 -0.013384 0.002214 0.010247 -0.001918 0.033786 0.005198
# 6 -0.003879 0.005889 0.009883 -0.002943 0.005198 0.027405
#
#
# Mechanical properties :
#
#
# Convention : Reuss Voigt Hill
#
# Bulk Modulus (GPa) = 40.93469 54.08685 47.51077
# Shear Modulus (GPa) = 23.61917 35.75887 29.68902
#
# Velocity S-wave (km/s) = 3.31188 4.07506 3.71313
# Velocity P-wave (km/s) = 5.79952 6.87451 6.35977
#
# Compressibility (1/GPa) = 0.02442916
#
# Stress axis : x y z
#
# Youngs Moduli (GPa) = 35.73923 81.09040 33.79679
#
# Poissons Ratio (x) = 0.44088 0.65783
# Poissons Ratio (y) = 0.19431 -0.07318
# Poissons Ratio (z) = 0.69564 -0.17559
#
# Static dielectric constant tensor:
#      x y z
#    x 1.830990 0.021160 -0.033130 
#    y 0.021160 1.856770 -0.058520 
#    z -0.033130 -0.058520 1.637810 
# 
# From -- ./inp_files/94737.got.cif
#   From: 2010.05.17/outbox.cif.g08.bks.cpg/sg2_48_cif.got.tgz:94737.got - 2010.06.03 11:33:40.
