data_PCOD9026489
_publ_section_title
;
Structure prediction by ZEFSAII (Michael W. Deem and Ramdas Pophale) SiO2 
 PCOD9026489
Probable space group: P -1
;
_chemical_formula_sum "Si O2"
_cell_formula_units_Z 12
_cell_length_a 9.583159
_cell_length_b 7.761837
_cell_length_c 12.002425
_cell_angle_alpha 102.114887
_cell_angle_beta 124.879336
_cell_angle_gamma 119.032492
_cell_volume 469.816234
_symmetry_space_group_name_H-M "P -1"
_symmetry_group_IT_number 2
_symmetry_cell_setting 'triclinic'
loop_
_space_group_symop_operation_xyz
x,y,z
-x,-y,-z
loop_
_atom_site_type_symbol
_atom_site_label
_atom_site_fract_x
_atom_site_fract_y
_atom_site_fract_z
Si Si1 0.412785 0.903710 0.803980
Si Si2 0.819162 0.938434 0.618198
Si Si3 0.554552 0.968287 0.645272
Si Si4 0.903243 0.176408 0.178934
Si Si5 0.287337 0.545211 0.201291
Si Si6 0.690805 0.505210 0.035947
O O1 0.361761 0.817426 0.640730
O O2 0.173911 0.732313 0.755526
O O3 0.633640 0.943926 0.955836
O O4 0.545875 0.203683 0.918987
O O5 0.592867 0.753412 0.398675
O O6 0.983817 0.892955 0.705477
O O7 0.670293 0.870140 0.656418
O O8 0.034487 0.259908 0.743426
O O9 0.746322 0.272101 0.813703
O O10 0.500000 0.000000 0.500000
O O11 0.115427 0.376723 0.208152
O O12 0.235581 0.396518 0.046116
O O13 0.500000 0.500000 0.000000
#
# Coordination Sequence:
#
# PCOD9026489 Si02
#       6
#     2   2   2   2   2   2
#     4  10  22  41  64  93 130 165 208 261 316 371
#     4  11  22  40  68  94 124 163 217 251 315 378
#     4   9  20  41  63  90 122 167 211 251 306 373
#     4  11  22  40  63  94 133 163 201 266 321 369
#     4  10  23  41  66  92 129 164 209 265 312 370
#     4  11  22  42  64  92 121 170 216 255 307 373
#
# _framework density 25.541903000000001
#
# number of rings (size 3 to 8) (size 9 to 14) (size 15 to 20)
#    0.000    1.667    1.667    2.500    0.000    6.000 
#    3.000    3.333    0.000    0.000    0.000    0.000 
#    0.000    0.000    0.000    0.000    0.000    0.000 
#
# Total GULP energy -66958.319797 kJ/mol
# GULP energy per Si atom -5579.859983 kJ/mol
# Density = 2.548377 g / cm^3
# Si number density = 25.541903 Si / 1000 Ang^3
#
#
#
# Elastic Constant Matrix: (Units=GPa)
#
#
# Indices 1 2 3 4 5 6 
#
# 1 148.5105 15.4772 53.7552 -22.4496 7.0839 14.0684
# 2 15.4772 51.2254 16.8078 -6.0930 8.1751 14.1030
# 3 53.7552 16.8078 140.9718 -3.4405 15.7428 20.2940
# 4 -22.4496 -6.0930 -3.4405 30.8340 7.7905 -3.8292
# 5 7.0839 8.1751 15.7428 7.7905 33.7517 -12.1213
# 6 14.0684 14.1030 20.2940 -3.8292 -12.1213 49.3127
#
#
#
# Elastic Compliance Matrix: (Units=1/GPa)
#
#
# Indices 1 2 3 4 5 6 
#
# 1 0.009033 -0.000182 -0.002739 0.006721 -0.002676 -0.001534
# 2 -0.000182 0.024523 -0.000252 0.006210 -0.010428 -0.008939
# 3 -0.002739 -0.000252 0.009366 -0.000212 -0.005229 -0.004303
# 4 0.006721 0.006210 -0.000212 0.041537 -0.013754 -0.003762
# 5 -0.002676 -0.010428 -0.005229 -0.013754 0.043943 0.015631
# 6 -0.001534 -0.008939 -0.004303 -0.003762 0.015631 0.028594
#
#
# Mechanical properties :
#
#
# Convention : Reuss Voigt Hill
#
# Bulk Modulus (GPa) = 27.33925 56.97646 42.15785
# Shear Modulus (GPa) = 28.48473 39.75749 34.12111
#
# Velocity S-wave (km/s) = 3.34311 3.94961 3.65894
# Velocity P-wave (km/s) = 5.06248 6.56922 5.86444
#
# Compressibility (1/GPa) = 0.03657745
#
# Stress axis : x y z
#
# Youngs Moduli (GPa) = 110.70783 40.77819 106.76545
#
# Poissons Ratio (x) = 0.00741 0.29243
# Poissons Ratio (y) = 0.02011 0.02687
# Poissons Ratio (z) = 0.30323 0.01026
#
# Static dielectric constant tensor:
#      x y z
#    x 2.048780 0.007660 0.018240 
#    y 0.007660 2.130810 0.025100 
#    z 0.018240 0.025100 2.054190 
# 
# From -- ./inp_files/211575.got.cif
#   From: 2010.05.17/outbox.cif.g08.bks.cpg/sg2_106_cif.got.tgz:211575.got - 2010.06.03 11:33:40.
