data_PCOD9026495
_publ_section_title
;
Structure prediction by ZEFSAII (Michael W. Deem and Ramdas Pophale) SiO2 
 PCOD9026495
Probable space group: P -1
;
_chemical_formula_sum "Si O2"
_cell_formula_units_Z 13
_cell_length_a 14.938067
_cell_length_b 8.827614
_cell_length_c 13.624497
_cell_angle_alpha 46.694019
_cell_angle_beta 152.674650
_cell_angle_gamma 136.285277
_cell_volume 564.495862
_symmetry_space_group_name_H-M "P -1"
_symmetry_group_IT_number 2
_symmetry_cell_setting 'triclinic'
loop_
_space_group_symop_operation_xyz
x,y,z
-x,-y,-z
loop_
_atom_site_type_symbol
_atom_site_label
_atom_site_fract_x
_atom_site_fract_y
_atom_site_fract_z
Si Si1 0.273129 0.891640 0.782173
Si Si2 0.054667 0.095341 0.827120
Si Si3 0.932023 0.793956 0.663490
Si Si4 0.744741 0.283531 0.695630
Si Si5 0.291644 0.555518 0.787193
Si Si6 0.630119 0.096464 0.462475
Si Si7 0.000000 0.000000 0.000000
O O1 0.274635 0.684729 0.810856
O O2 0.102517 0.820362 0.733473
O O3 0.210423 0.065668 0.574989
O O4 0.500000 0.000000 0.000000
O O5 0.113156 0.317349 0.721998
O O6 0.834375 0.019070 0.709471
O O7 0.181654 0.151808 0.026528
O O8 0.040652 0.907307 0.819471
O O9 0.804177 0.537101 0.668173
O O10 0.625079 0.223738 0.501033
O O11 0.948853 0.219865 0.901845
O O12 0.569728 0.109420 0.669369
O O13 0.301802 0.723397 0.635133
O O14 0.500000 0.500000 0.000000
#
# Coordination Sequence:
#
# PCOD9026495 Si02
#       7
#     2   2   2   2   2   2   1
#     4  11  25  44  66 109 143 182 232 286 356 413
#     4  11  23  43  68 100 130 184 230 287 347 407
#     4  11  25  44  71 101 146 181 227 295 353 411
#     4  10  23  42  65  98 133 185 224 284 348 411
#     4  12  24  41  72  98 134 183 237 286 338 423
#     4  10  22  41  64  93 133 177 231 273 340 417
#     4  10  22  44  66  94 136 172 240 270 340 420
#
# _framework density 23.029398
#
# number of rings (size 3 to 8) (size 9 to 14) (size 15 to 20)
#    0.000    1.231    1.538    4.154    6.462    1.231 
#    5.538    0.000    0.000    0.000    0.000    0.000 
#    0.000    0.000    0.000    0.000    0.000    0.000 
#
# Total GULP energy -72391.013267 kJ/mol
# GULP energy per Si atom -5568.539482 kJ/mol
# Density = 2.297698 g / cm^3
# Si number density = 23.029398 Si / 1000 Ang^3
#
#
#
# Elastic Constant Matrix: (Units=GPa)
#
#
# Indices 1 2 3 4 5 6 
#
# 1 112.3148 53.9667 27.6714 -15.2496 -7.6413 -7.6230
# 2 53.9667 190.5672 41.5602 -17.5922 3.3160 -3.1340
# 3 27.6714 41.5602 114.0294 4.8879 16.6940 -2.3997
# 4 -15.2496 -17.5922 4.8879 26.9779 0.4186 2.2577
# 5 -7.6413 3.3160 16.6940 0.4186 42.0551 -6.8752
# 6 -7.6230 -3.1340 -2.3997 2.2577 -6.8752 44.0999
#
#
#
# Elastic Compliance Matrix: (Units=1/GPa)
#
#
# Indices 1 2 3 4 5 6 
#
# 1 0.011808 -0.002265 -0.002774 0.005473 0.003702 0.002026
# 2 -0.002265 0.006640 -0.001991 0.003434 -0.000218 -0.000238
# 3 -0.002774 -0.001991 0.011060 -0.004752 -0.004775 -0.000520
# 4 0.005473 0.003434 -0.004752 0.043311 0.002020 -0.000971
# 5 0.003702 -0.000218 -0.004775 0.002020 0.027076 0.004482
# 6 0.002026 -0.000238 -0.000520 -0.000971 0.004482 0.023729
#
#
# Mechanical properties :
#
#
# Convention : Reuss Voigt Hill
#
# Bulk Modulus (GPa) = 64.72869 73.70089 69.21479
# Shear Modulus (GPa) = 35.00598 42.20746 38.60672
#
# Velocity S-wave (km/s) = 3.90302 4.28572 4.09884
# Velocity P-wave (km/s) = 6.96272 7.52079 7.24713
#
# Compressibility (1/GPa) = 0.01544910
#
# Stress axis : x y z
#
# Youngs Moduli (GPa) = 84.69110 150.60595 90.41411
#
# Poissons Ratio (x) = 0.34108 0.25080
# Poissons Ratio (y) = 0.19180 0.17999
# Poissons Ratio (z) = 0.23492 0.29982
#
# Static dielectric constant tensor:
#      x y z
#    x 1.160690 0.444890 3.037870 
#    y 0.444890 1.680540 -1.512110 
#    z 3.037870 -1.512110 -9.977760 
# 
# From -- ./inp_files/255614.got.cif
#   From: 2010.05.17/outbox.cif.g08.bks.cpg/sg2_128_cif.got.tgz:255614.got - 2010.06.03 11:33:40.
