data_PCOD9026137
_publ_section_title
;
Structure prediction by ZEFSAII (Michael W. Deem and Ramdas Pophale) SiO2 
 PCOD9026137
Probable space group: P -1
;
_chemical_formula_sum "Si O2"
_cell_formula_units_Z 14
_cell_length_a 15.586792
_cell_length_b 15.136384
_cell_length_c 9.162983
_cell_angle_alpha 139.042383
_cell_angle_beta 38.692127
_cell_angle_gamma 152.435119
_cell_volume 610.228574
_symmetry_space_group_name_H-M "P -1"
_symmetry_group_IT_number 2
_symmetry_cell_setting 'triclinic'
loop_
_space_group_symop_operation_xyz
x,y,z
-x,-y,-z
loop_
_atom_site_type_symbol
_atom_site_label
_atom_site_fract_x
_atom_site_fract_y
_atom_site_fract_z
Si Si1 0.530496 0.930498 0.515290
Si Si2 0.944368 0.211922 0.207295
Si Si3 0.474368 0.431080 0.608960
Si Si4 0.103571 0.373531 0.638999
Si Si5 0.031308 0.018068 0.658568
Si Si6 0.604941 0.455364 0.891576
Si Si7 0.875907 0.329198 0.159575
O O1 0.461387 0.732176 0.317756
O O2 0.365575 0.860933 0.764182
O O3 0.500000 0.000000 0.500000
O O4 0.768695 0.097946 0.417257
O O5 0.935731 0.324989 0.237888
O O6 0.158119 0.363002 0.187611
O O7 0.924210 0.062184 0.946511
O O8 0.500000 0.500000 0.500000
O O9 0.659380 0.471002 0.457513
O O10 0.264148 0.206566 0.619887
O O11 0.468372 0.565529 0.875154
O O12 0.069861 0.478345 0.711908
O O13 0.037332 0.176572 0.438444
O O14 0.991699 0.324862 0.879765
O O15 0.000000 0.000000 0.500000
O O16 0.500000 0.500000 0.000000
#
# Coordination Sequence:
#
# PCOD9026137 Si02
#       7
#     2   2   2   2   2   2   2
#     4  10  23  41  64  92 130 176 220 261 320 401
#     4  10  22  43  66  95 127 173 222 270 330 393
#     4  11  22  38  68 101 127 169 221 272 336 388
#     4  11  21  40  64  94 138 164 213 284 322 389
#     4  11  20  38  69  98 124 167 223 272 331 386
#     4  11  24  43  66  98 134 169 219 276 335 390
#     4  10  22  41  62  93 134 174 216 266 330 392
#
# _framework density 22.942222000000001
#
# number of rings (size 3 to 8) (size 9 to 14) (size 15 to 20)
#    0.000    1.429    2.857    2.571    0.000    2.857 
#    0.000   14.286    0.000    0.000    0.000    0.000 
#    0.000    0.000    0.000    0.000    0.000    0.000 
#
# Total GULP energy -78286.735598 kJ/mol
# GULP energy per Si atom -5591.909686 kJ/mol
# Density = 2.289000 g / cm^3
# Si number density = 22.942222 Si / 1000 Ang^3
#
#
#
# Elastic Constant Matrix: (Units=GPa)
#
#
# Indices 1 2 3 4 5 6 
#
# 1 83.6236 56.3244 18.1975 9.4745 -23.1548 2.7922
# 2 56.3244 119.1564 22.3513 -21.9315 -20.0936 9.5115
# 3 18.1975 22.3513 68.5832 -28.9951 -11.1312 5.2063
# 4 9.4745 -21.9315 -28.9951 50.3514 -9.8452 -14.7424
# 5 -23.1548 -20.0936 -11.1312 -9.8452 36.9505 -5.8857
# 6 2.7922 9.5115 5.2063 -14.7424 -5.8857 41.3703
#
#
#
# Elastic Compliance Matrix: (Units=1/GPa)
#
#
# Indices 1 2 3 4 5 6 
#
# 1 0.024303 -0.012251 -0.008523 -0.015437 0.001400 -0.003053
# 2 -0.012251 0.017020 0.004970 0.014802 0.007437 0.002621
# 3 -0.008523 0.004970 0.026717 0.023450 0.012650 0.006227
# 4 -0.015437 0.014802 0.023450 0.051731 0.021808 0.016225
# 5 0.001400 0.007437 0.012650 0.021808 0.043284 0.010533
# 6 -0.003053 0.002621 0.006227 0.016225 0.010533 0.030272
#
#
# Mechanical properties :
#
#
# Convention : Reuss Voigt Hill
#
# Bulk Modulus (GPa) = 27.44833 51.67883 39.56358
# Shear Modulus (GPa) = 21.08982 37.36710 29.22846
#
# Velocity S-wave (km/s) = 3.03522 4.04015 3.57319
# Velocity P-wave (km/s) = 4.92681 6.65870 5.85712
#
# Compressibility (1/GPa) = 0.03643210
#
# Stress axis : x y z
#
# Youngs Moduli (GPa) = 41.14665 58.75339 37.42880
#
# Poissons Ratio (x) = 0.71977 0.31902
# Poissons Ratio (y) = 0.50407 -0.18601
# Poissons Ratio (z) = 0.35071 -0.29199
#
# Static dielectric constant tensor:
#      x y z
#    x 1.921080 0.042860 0.060840 
#    y 0.042860 1.857760 0.014360 
#    z 0.060840 0.014360 1.904180 
# 
# From -- ./inp_files/316052.got.cif
#   From: 2010.05.17/outbox.cif.g08.bks.cpg/sg2_159_cif.got.tgz:316052.got - 2010.06.03 11:33:40.
