data_PCOD9026719
_publ_section_title
;
Structure prediction by ZEFSAII (Michael W. Deem and Ramdas Pophale) SiO2 
 PCOD9026719
Probable space group: P -1
;
_chemical_formula_sum "Si O2"
_cell_formula_units_Z 16
_cell_length_a 11.209345
_cell_length_b 6.566303
_cell_length_c 12.587489
_cell_angle_alpha 121.185433
_cell_angle_beta 69.433733
_cell_angle_gamma 97.727860
_cell_volume 740.789522
_symmetry_space_group_name_H-M "P -1"
_symmetry_group_IT_number 2
_symmetry_cell_setting 'triclinic'
loop_
_space_group_symop_operation_xyz
x,y,z
-x,-y,-z
loop_
_atom_site_type_symbol
_atom_site_label
_atom_site_fract_x
_atom_site_fract_y
_atom_site_fract_z
Si Si1 0.601495 0.881973 0.019075
Si Si2 0.314364 0.645800 0.812816
Si Si3 0.004181 0.231810 0.633788
Si Si4 0.856033 0.497273 0.495844
Si Si5 0.513976 0.769538 0.256606
Si Si6 0.091614 0.320801 0.855096
Si Si7 0.270054 0.531515 0.270347
Si Si8 0.720033 0.103001 0.317738
O O1 0.667586 0.648051 0.883408
O O2 0.543954 0.819760 0.136144
O O3 0.500000 0.000000 0.000000
O O4 0.697234 0.092505 0.061591
O O5 0.427417 0.487851 0.791136
O O6 0.192736 0.497504 0.826425
O O7 0.331519 0.703039 0.699470
O O8 0.868961 0.374676 0.698777
O O9 0.122407 0.366067 0.583211
O O10 0.021424 0.206641 0.746945
O O11 0.000000 0.000000 0.500000
O O12 0.757921 0.597565 0.643451
O O13 0.799304 0.243489 0.417371
O O14 0.000000 0.500000 0.500000
O O15 0.363792 0.747425 0.312991
O O16 0.595877 0.958777 0.345999
O O17 0.178378 0.099916 0.818123
O O18 0.000000 0.500000 0.000000
#
# Coordination Sequence:
#
# PCOD9026719 Si02
#       8
#     2   2   2   2   2   2   2   2
#     4  11  23  40  69 102 141 172 217 284 342 406
#     4  10  22  41  65  93 141 175 211 283 342 394
#     4  11  25  45  67  97 140 181 231 292 338 403
#     4  10  22  44  66  92 129 178 231 277 331 405
#     4  10  23  42  68 104 138 173 224 274 351 404
#     4  11  24  38  67 102 130 180 234 277 351 411
#     4  11  24  41  70  97 133 181 230 272 344 415
#     4  10  22  44  68  91 143 171 218 295 332 398
#
# _framework density 21.598578
#
# number of rings (size 3 to 8) (size 9 to 14) (size 15 to 20)
#    0.000    1.500    2.500    1.875    5.250    5.000 
#    0.000    0.625    0.000    0.000    0.000    0.000 
#    0.000    0.000    0.000    0.000    0.000    0.000 
#
# Total GULP energy -89182.888593 kJ/mol
# GULP energy per Si atom -5573.930537 kJ/mol
# Density = 2.154942 g / cm^3
# Si number density = 21.598578 Si / 1000 Ang^3
#
#
#
# Elastic Constant Matrix: (Units=GPa)
#
#
# Indices 1 2 3 4 5 6 
#
# 1 83.7352 35.4222 30.9059 -7.1089 15.6683 12.7345
# 2 35.4222 87.2754 22.1106 -4.0385 4.3522 2.9780
# 3 30.9059 22.1106 78.0218 -5.9943 9.7769 4.6272
# 4 -7.1089 -4.0385 -5.9943 29.0718 11.3220 11.3908
# 5 15.6683 4.3522 9.7769 11.3220 31.5819 0.2056
# 6 12.7345 2.9780 4.6272 11.3908 0.2056 44.8835
#
#
#
# Elastic Compliance Matrix: (Units=1/GPa)
#
#
# Indices 1 2 3 4 5 6 
#
# 1 0.020068 -0.005894 -0.003472 0.011054 -0.011982 -0.007695
# 2 -0.005894 0.014185 -0.002105 -0.001183 0.002037 0.001239
# 3 -0.003472 -0.002105 0.015791 0.004494 -0.004476 -0.001623
# 4 0.011054 -0.001183 0.004494 0.054886 -0.026276 -0.017330
# 5 -0.011982 0.002037 -0.004476 -0.026276 0.048066 0.010174
# 6 -0.007695 0.001239 -0.001623 -0.017330 0.010174 0.028900
#
#
# Mechanical properties :
#
#
# Convention : Reuss Voigt Hill
#
# Bulk Modulus (GPa) = 36.89687 47.32331 42.11009
# Shear Modulus (GPa) = 23.37861 31.81371 27.59616
#
# Velocity S-wave (km/s) = 3.29358 3.84207 3.57835
# Velocity P-wave (km/s) = 5.61993 6.45290 6.05077
#
# Compressibility (1/GPa) = 0.02710257
#
# Stress axis : x y z
#
# Youngs Moduli (GPa) = 49.83128 70.49876 63.32637
#
# Poissons Ratio (x) = 0.41550 0.21987
# Poissons Ratio (y) = 0.29369 0.13329
# Poissons Ratio (z) = 0.17301 0.14839
#
# Static dielectric constant tensor:
#      x y z
#    x 1.849380 -0.025520 0.062710 
#    y -0.025520 1.832830 -0.020210 
#    z 0.062710 -0.020210 1.815300 
# 
# From -- ./inp_files/411024.got.cif
#   From: 2010.05.17/outbox.cif.g08.bks.cpg/sg2_206_cif.got.tgz:411024.got - 2010.06.03 11:33:40.
