data_PCOD9026718
_publ_section_title
;
Structure prediction by ZEFSAII (Michael W. Deem and Ramdas Pophale) SiO2 
 PCOD9026718
Probable space group: P -1
;
_chemical_formula_sum "Si O2"
_cell_formula_units_Z 14
_cell_length_a 8.826252
_cell_length_b 8.172735
_cell_length_c 13.517413
_cell_angle_alpha 122.509287
_cell_angle_beta 134.387620
_cell_angle_gamma 70.151554
_cell_volume 586.550162
_symmetry_space_group_name_H-M "P -1"
_symmetry_group_IT_number 2
_symmetry_cell_setting 'triclinic'
loop_
_space_group_symop_operation_xyz
x,y,z
-x,-y,-z
loop_
_atom_site_type_symbol
_atom_site_label
_atom_site_fract_x
_atom_site_fract_y
_atom_site_fract_z
Si Si1 0.626812 0.610696 0.728413
Si Si2 0.074612 0.592105 0.961700
Si Si3 0.269648 0.459787 0.830428
Si Si4 0.600302 0.092552 0.173959
Si Si5 0.493756 0.142751 0.744044
Si Si6 0.544422 0.776200 0.532327
Si Si7 0.989821 0.309817 0.362850
O O1 0.499265 0.698964 0.788004
O O2 0.528956 0.685008 0.606694
O O3 0.607255 0.377248 0.647438
O O4 0.867676 0.695059 0.864937
O O5 0.122786 0.427706 0.849312
O O6 0.279596 0.737665 0.113237
O O7 0.000000 0.500000 0.000000
O O8 0.306686 0.290764 0.714088
O O9 0.159029 0.630816 0.778359
O O10 0.500000 0.500000 0.000000
O O11 0.852520 0.134592 0.295384
O O12 0.532100 0.968194 0.198591
O O13 0.500000 0.000000 0.000000
O O14 0.485475 0.994935 0.600126
O O15 0.781573 0.747734 0.590500
O O16 0.000000 0.500000 0.500000
#
# Coordination Sequence:
#
# PCOD9026718 Si02
#       7
#     2   2   2   2   2   2   2
#     4  10  22  41  65  93 137 177 218 276 344 395
#     4  11  24  40  70  96 135 182 223 276 353 404
#     4  10  23  45  65  99 140 180 222 282 347 408
#     4  11  24  38  68 100 137 173 234 281 337 402
#     4  10  25  43  66 102 135 175 231 288 333 404
#     4  10  22  43  67  97 132 176 228 278 332 408
#     4  12  24  44  73 100 135 188 229 276 351 417
#
# _framework density 23.868376999999999
#
# number of rings (size 3 to 8) (size 9 to 14) (size 15 to 20)
#    0.000    1.429    2.857    1.714    8.000    1.143 
#    0.000    5.714    0.000    0.000    0.000    0.000 
#    0.000    0.000    0.000    0.000    0.000    0.000 
#
# Total GULP energy -78236.543285 kJ/mol
# GULP energy per Si atom -5588.324520 kJ/mol
# Density = 2.381405 g / cm^3
# Si number density = 23.868377 Si / 1000 Ang^3
#
#
#
# Elastic Constant Matrix: (Units=GPa)
#
#
# Indices 1 2 3 4 5 6 
#
# 1 173.1393 30.4785 57.3896 24.0619 -8.3096 -6.5292
# 2 30.4785 63.5846 21.9032 9.0734 -5.1145 -4.4400
# 3 57.3896 21.9032 90.8292 12.0997 -8.0397 5.7877
# 4 24.0619 9.0734 12.0997 39.1254 -2.2057 -2.7454
# 5 -8.3096 -5.1145 -8.0397 -2.2057 42.8807 10.0064
# 6 -6.5292 -4.4400 5.7877 -2.7454 10.0064 43.4659
#
#
#
# Elastic Compliance Matrix: (Units=1/GPa)
#
#
# Indices 1 2 3 4 5 6 
#
# 1 0.007999 -0.001818 -0.004290 -0.003071 0.000048 0.001382
# 2 -0.001818 0.018090 -0.002988 -0.001993 0.000752 0.001674
# 3 -0.004290 -0.002988 0.015077 -0.001448 0.002405 -0.003602
# 4 -0.003071 -0.001993 -0.001448 0.028453 0.000053 0.001313
# 5 0.000048 0.000752 0.002405 0.000053 0.025286 -0.006054
# 6 0.001382 0.001674 -0.003602 0.001313 -0.006054 0.025341
#
#
# Mechanical properties :
#
#
# Convention : Reuss Voigt Hill
#
# Bulk Modulus (GPa) = 43.53083 60.78842 52.15963
# Shear Modulus (GPa) = 34.22417 39.61318 36.91868
#
# Velocity S-wave (km/s) = 3.79076 4.07830 3.93716
# Velocity P-wave (km/s) = 6.11860 6.90653 6.52447
#
# Compressibility (1/GPa) = 0.02297222
#
# Stress axis : x y z
#
# Youngs Moduli (GPa) = 125.01445 55.28058 66.32838
#
# Poissons Ratio (x) = 0.10048 0.28458
# Poissons Ratio (y) = 0.22723 0.19821
# Poissons Ratio (z) = 0.53637 0.16520
#
# Static dielectric constant tensor:
#      x y z
#    x 1.913030 0.013560 -0.052710 
#    y 0.013560 2.041620 0.032740 
#    z -0.052710 0.032740 2.048050 
# 
# From -- ./inp_files/173095.got.cif
#   From: 2010.05.17/outbox.cif.g08.bks.cpg/sg2_87_cif.got.tgz:173095.got - 2010.06.03 11:33:40.
