data_PCOD9026423
_publ_section_title
;
Structure prediction by ZEFSAII (Michael W. Deem and Ramdas Pophale) SiO2 
 PCOD9026423
Probable space group: P -1
;
_chemical_formula_sum "Si O2"
_cell_formula_units_Z 14
_cell_length_a 13.349604
_cell_length_b 18.596591
_cell_length_c 8.755551
_cell_angle_alpha 57.484842
_cell_angle_beta 112.497572
_cell_angle_gamma 160.032855
_cell_volume 566.373700
_symmetry_space_group_name_H-M "P -1"
_symmetry_group_IT_number 2
_symmetry_cell_setting 'triclinic'
loop_
_space_group_symop_operation_xyz
x,y,z
-x,-y,-z
loop_
_atom_site_type_symbol
_atom_site_label
_atom_site_fract_x
_atom_site_fract_y
_atom_site_fract_z
Si Si1 0.507373 0.481926 0.846378
Si Si2 0.646848 0.424000 0.869535
Si Si3 0.303465 0.484054 0.528315
Si Si4 0.703934 0.359053 0.245593
Si Si5 0.364248 0.762721 0.116242
Si Si6 0.269049 0.062098 0.625200
Si Si7 0.626320 0.032288 0.670979
O O1 0.393453 0.302025 0.940262
O O2 0.309975 0.402927 0.720423
O O3 0.500000 0.500000 0.000000
O O4 0.891691 0.775591 0.700594
O O5 0.755497 0.564275 0.631352
O O6 0.640083 0.329609 0.877510
O O7 0.813249 0.516319 0.018073
O O8 0.639952 0.782358 0.413746
O O9 0.004596 0.320985 0.594501
O O10 0.505690 0.236915 0.418048
O O11 0.018431 0.532188 0.248319
O O12 0.443135 0.111355 0.279098
O O13 0.616656 0.929663 0.206044
O O14 0.454455 0.900895 0.884901
O O15 0.500000 0.000000 0.500000
#
# Coordination Sequence:
#
# PCOD9026423 Si02
#       7
#     2   2   2   2   2   2   2
#     4  12  25  44  65  91 126 169 216 266 315 372
#     4  10  22  41  64  91 125 164 212 259 311 376
#     4  11  23  42  64  93 128 170 212 259 315 375
#     4  11  22  41  66  96 129 165 207 264 322 376
#     4  10  22  41  64  95 131 166 207 260 320 380
#     4  11  24  42  63  94 129 166 211 263 317 377
#     4  11  21  39  66  94 126 166 211 259 312 380
#
# _framework density 24.718662999999999
#
# number of rings (size 3 to 8) (size 9 to 14) (size 15 to 20)
#    0.000    1.143    0.000    8.143    0.000    0.000 
#    0.000   12.857    0.000    0.000    0.000    0.000 
#    0.000    0.000    0.000    0.000    0.000    0.000 
#
# Total GULP energy -78036.260877 kJ/mol
# GULP energy per Si atom -5574.018634 kJ/mol
# Density = 2.466240 g / cm^3
# Si number density = 24.718663 Si / 1000 Ang^3
#
#
#
# Elastic Constant Matrix: (Units=GPa)
#
#
# Indices 1 2 3 4 5 6 
#
# 1 93.4405 22.9653 49.5290 10.9123 0.4697 20.4553
# 2 22.9653 82.6211 38.0242 -11.2941 2.3309 30.8857
# 3 49.5290 38.0242 135.9379 44.4220 -15.0385 22.1141
# 4 10.9123 -11.2941 44.4220 21.6413 13.4961 32.7264
# 5 0.4697 2.3309 -15.0385 13.4961 45.3502 8.9116
# 6 20.4553 30.8857 22.1141 32.7264 8.9116 19.5765
#
#
#
# Elastic Compliance Matrix: (Units=1/GPa)
#
#
# Indices 1 2 3 4 5 6 
#
# 1 0.013251 -0.003213 -0.002783 -0.003848 0.000102 0.000753
# 2 -0.003213 0.007499 0.001826 -0.011688 0.002156 0.008021
# 3 -0.002783 0.001826 0.011090 0.000701 0.006689 -0.016717
# 4 -0.003848 -0.011688 0.000701 -0.004967 -0.003886 0.031742
# 5 0.000102 0.002156 0.006689 -0.003886 0.028786 -0.017671
# 6 0.000753 0.008021 -0.016717 0.031742 -0.017671 0.011505
#
#
# Mechanical properties :
#
#
# Convention : Reuss Voigt Hill
#
# Bulk Modulus (GPa) = 42.55238 59.22630 50.88934
# Shear Modulus (GPa) = 59.99727 30.74568 45.37148
#
# Velocity S-wave (km/s) = 4.93201 3.53062 4.28894
# Velocity P-wave (km/s) = 7.04876 6.37436 6.72003
#
# Compressibility (1/GPa) = 0.02350045
#
# Stress axis : x y z
#
# Youngs Moduli (GPa) = 75.46713 133.34859 90.17151
#
# Poissons Ratio (x) = 0.42841 0.25095
# Poissons Ratio (y) = 0.24246 -0.16466
# Poissons Ratio (z) = 0.21003 -0.24350
#
# Static dielectric constant tensor:
#      x y z
#    x 2.050520 -0.041620 0.031980 
#    y -0.041620 1.941990 -0.025670 
#    z 0.031980 -0.025670 2.059230 
# 
# From -- ./inp_files/318292.got.cif
#   From: 2010.05.17/outbox.cif.g08.bks.cpg/sg2_160_cif.got.tgz:318292.got - 2010.06.03 11:33:40.
