data_PCOD9026344
_publ_section_title
;
Structure prediction by ZEFSAII (Michael W. Deem and Ramdas Pophale) SiO2 
 PCOD9026344
Probable space group: P -1
;
_chemical_formula_sum "Si O2"
_cell_formula_units_Z 16
_cell_length_a 12.365164
_cell_length_b 7.542649
_cell_length_c 11.793048
_cell_angle_alpha 62.322647
_cell_angle_beta 77.597204
_cell_angle_gamma 119.024165
_cell_volume 700.752283
_symmetry_space_group_name_H-M "P -1"
_symmetry_group_IT_number 2
_symmetry_cell_setting 'triclinic'
loop_
_space_group_symop_operation_xyz
x,y,z
-x,-y,-z
loop_
_atom_site_type_symbol
_atom_site_label
_atom_site_fract_x
_atom_site_fract_y
_atom_site_fract_z
Si Si1 0.741408 0.208244 0.337146
Si Si2 0.009252 0.812899 0.128052
Si Si3 0.041471 0.854600 0.372538
Si Si4 0.553896 0.098742 0.625971
Si Si5 0.989313 0.241579 0.343334
Si Si6 0.585710 0.305503 0.773138
Si Si7 0.739539 0.183316 0.941327
Si Si8 0.396212 0.289786 0.187830
O O1 0.612486 0.028432 0.328029
O O2 0.821918 0.104777 0.390391
O O3 0.883518 0.519676 0.185208
O O4 0.653648 0.204974 0.460502
O O5 0.977600 0.768227 0.284828
O O6 0.177455 0.927395 0.053141
O O7 0.000000 0.000000 0.000000
O O8 0.990296 0.670508 0.553286
O O9 0.221771 0.047253 0.266154
O O10 0.010611 0.038430 0.371019
O O11 0.545573 0.857991 0.743937
O O12 0.634679 0.348120 0.620412
O O13 0.116353 0.501910 0.159801
O O14 0.669401 0.224518 0.840719
O O15 0.602959 0.533450 0.769067
O O16 0.409762 0.032472 0.889765
O O17 0.500000 0.500000 0.000000
#
# Coordination Sequence:
#
# PCOD9026344 Si02
#       8
#     2   2   2   2   2   2   2   2
#     4  10  25  46  62  95 134 179 219 279 332 396
#     4  11  26  42  66  94 134 175 220 272 342 395
#     4  11  23  41  68 100 127 170 224 278 330 404
#     4  11  25  45  68  95 138 177 225 272 336 398
#     4  10  22  42  66  93 135 166 223 274 336 392
#     4  11  23  41  71 102 130 176 221 274 338 392
#     4  10  22  41  63  98 127 166 221 274 326 397
#     4  12  24  42  72 102 136 169 224 284 328 395
#
# _framework density 22.832605000000001
#
# number of rings (size 3 to 8) (size 9 to 14) (size 15 to 20)
#    0.000    1.250    2.500    3.000    5.250    2.000 
#    0.000    3.750    0.000    0.000    0.000    0.000 
#    0.000    0.000    0.000    0.000    0.000    0.000 
#
# Total GULP energy -89210.194381 kJ/mol
# GULP energy per Si atom -5575.637149 kJ/mol
# Density = 2.278064 g / cm^3
# Si number density = 22.832605 Si / 1000 Ang^3
#
#
#
# Elastic Constant Matrix: (Units=GPa)
#
#
# Indices 1 2 3 4 5 6 
#
# 1 128.8248 16.0442 22.9896 -0.9466 -9.6324 17.8422
# 2 16.0442 51.1780 14.6751 15.4508 -1.0893 7.2632
# 3 22.9896 14.6751 45.5903 -15.5180 -1.3094 5.9681
# 4 -0.9466 15.4508 -15.5180 24.2140 5.8126 -7.8438
# 5 -9.6324 -1.0893 -1.3094 5.8126 31.5760 -11.4271
# 6 17.8422 7.2632 5.9681 -7.8438 -11.4271 27.8343
#
#
#
# Elastic Compliance Matrix: (Units=1/GPa)
#
#
# Indices 1 2 3 4 5 6 
#
# 1 0.009993 0.003666 -0.008736 -0.010496 0.001982 -0.007633
# 2 0.003666 0.054335 -0.039417 -0.069244 0.004839 -0.025603
# 3 -0.008736 -0.039417 0.060695 0.072014 -0.007494 0.020089
# 4 -0.010496 -0.069244 0.072014 0.149330 -0.013481 0.045903
# 5 0.001982 0.004839 -0.007494 -0.013481 0.038643 0.011139
# 6 -0.007633 -0.025603 0.020089 0.045903 0.011139 0.060702
#
#
# Mechanical properties :
#
#
# Convention : Reuss Voigt Hill
#
# Bulk Modulus (GPa) = 27.73975 37.00121 32.37048
# Shear Modulus (GPa) = 10.53324 28.18379 19.35851
#
# Velocity S-wave (km/s) = 2.15018 3.51717 2.91494
# Velocity P-wave (km/s) = 4.28251 5.72141 5.05344
#
# Compressibility (1/GPa) = 0.03604935
#
# Stress axis : x y z
#
# Youngs Moduli (GPa) = 100.06876 18.40451 16.47581
#
# Poissons Ratio (x) = -0.06748 0.14393
# Poissons Ratio (y) = -0.36689 0.64943
# Poissons Ratio (z) = 0.87418 0.72546
#
# Static dielectric constant tensor:
#      x y z
#    x 1.879680 0.001110 0.030960 
#    y 0.001110 1.882560 0.025340 
#    z 0.030960 0.025340 1.922780 
# 
# From -- ./inp_files/419176.got.cif
#   From: 2010.05.17/outbox.cif.g08.bks.cpg/sg2_210_cif.got.tgz:419176.got - 2010.06.03 11:33:40.
