data_PCOD9026938
_publ_section_title
;
Structure prediction by ZEFSAII (Michael W. Deem and Ramdas Pophale) SiO2 
 PCOD9026938
Probable space group: P -1
;
_chemical_formula_sum "Si O2"
_cell_formula_units_Z 12
_cell_length_a 6.500093
_cell_length_b 17.818773
_cell_length_c 8.081548
_cell_angle_alpha 43.582026
_cell_angle_beta 88.916336
_cell_angle_gamma 68.117397
_cell_volume 550.756285
_symmetry_space_group_name_H-M "P -1"
_symmetry_group_IT_number 2
_symmetry_cell_setting 'triclinic'
loop_
_space_group_symop_operation_xyz
x,y,z
-x,-y,-z
loop_
_atom_site_type_symbol
_atom_site_label
_atom_site_fract_x
_atom_site_fract_y
_atom_site_fract_z
Si Si1 0.258688 0.767269 0.573564
Si Si2 0.048728 0.600016 0.246284
Si Si3 0.830899 0.842250 0.686091
Si Si4 0.060846 0.248268 0.682297
Si Si5 0.360219 0.986401 0.269468
Si Si6 0.769418 0.576447 0.763866
O O1 0.278517 0.891699 0.360454
O O2 0.526052 0.645427 0.761311
O O3 0.099031 0.786172 0.706088
O O4 0.116573 0.755000 0.441968
O O5 0.229046 0.515993 0.231249
O O6 0.000000 0.500000 0.500000
O O7 0.092306 0.672494 0.279295
O O8 0.828185 0.722284 0.959143
O O9 0.643047 0.904867 0.439068
O O10 0.760120 0.949398 0.654282
O O11 0.190277 0.319083 0.494060
O O12 0.265076 0.106569 0.959716
O O13 0.000000 0.500000 0.000000
#
# Coordination Sequence:
#
# PCOD9026938 Si02
#       6
#     2   2   2   2   2   2
#     4  12  23  37  63  94 123 158 203 250 306 365
#     4   9  20  42  63  86 121 161 205 247 298 357
#     4  10  22  41  66  91 121 163 203 251 305 358
#     4  10  23  40  62  90 121 162 203 251 304 359
#     4  10  22  42  63  89 126 160 202 252 304 362
#     4  11  24  42  63  89 123 162 205 253 302 358
#
# _framework density 21.788222000000001
#
# number of rings (size 3 to 8) (size 9 to 14) (size 15 to 20)
#    0.000    1.667    0.000    4.000    0.000    7.333 
#    0.000   16.667    0.000    0.000    0.000    0.000 
#    0.000    0.000    0.000    0.000    0.000    0.000 
#
# Total GULP energy -67034.895639 kJ/mol
# GULP energy per Si atom -5586.241303 kJ/mol
# Density = 2.173863 g / cm^3
# Si number density = 21.788222 Si / 1000 Ang^3
#
#
#
# Elastic Constant Matrix: (Units=GPa)
#
#
# Indices 1 2 3 4 5 6 
#
# 1 73.1809 39.2235 24.1938 -13.7578 14.7627 -17.1738
# 2 39.2235 128.4091 7.3373 -21.6405 8.7760 -14.4107
# 3 24.1938 7.3373 99.1236 -18.7039 4.2241 -11.4456
# 4 -13.7578 -21.6405 -18.7039 33.4613 5.6400 -2.3561
# 5 14.7627 8.7760 4.2241 5.6400 27.9074 -7.7135
# 6 -17.1738 -14.4107 -11.4456 -2.3561 -7.7135 39.2547
#
#
#
# Elastic Compliance Matrix: (Units=1/GPa)
#
#
# Indices 1 2 3 4 5 6 
#
# 1 0.021043 -0.003890 -0.002543 0.006681 -0.009324 0.005606
# 2 -0.003890 0.010450 0.001845 0.006737 -0.002135 0.002657
# 3 -0.002543 0.001845 0.012473 0.007649 -0.001752 0.003317
# 4 0.006681 0.006737 0.007649 0.044096 -0.013622 0.007596
# 5 -0.009324 -0.002135 -0.001752 -0.013622 0.045198 0.002690
# 6 0.005606 0.002657 0.003317 0.007596 0.002690 0.030854
#
#
# Mechanical properties :
#
#
# Convention : Reuss Voigt Hill
#
# Bulk Modulus (GPa) = 28.74376 49.13585 38.93980
# Shear Modulus (GPa) = 27.04355 35.45528 31.24942
#
# Velocity S-wave (km/s) = 3.52689 4.03832 3.79124
# Velocity P-wave (km/s) = 5.45951 6.65917 6.08896
#
# Compressibility (1/GPa) = 0.03479016
#
# Stress axis : x y z
#
# Youngs Moduli (GPa) = 47.52188 95.69434 80.17064
#
# Poissons Ratio (x) = 0.37227 0.20387
# Poissons Ratio (y) = 0.18487 -0.14791
# Poissons Ratio (z) = 0.12084 -0.17656
#
# Static dielectric constant tensor:
#      x y z
#    x 1.763170 -0.023010 -0.015700 
#    y -0.023010 1.841970 0.006250 
#    z -0.015700 0.006250 1.804260 
# 
# From -- ./inp_files/21030.got.cif
#   From: 2010.05.17/outbox.cif.g08.bks.cpg/sg2_11_cif.got.tgz:21030.got - 2010.06.03 11:33:40.
