data_PCOD9026692
_publ_section_title
;
Structure prediction by ZEFSAII (Michael W. Deem and Ramdas Pophale) SiO2 
 PCOD9026692
Probable space group: P -1
;
_chemical_formula_sum "Si O2"
_cell_formula_units_Z 14
_cell_length_a 9.050712
_cell_length_b 8.365579
_cell_length_c 22.006055
_cell_angle_alpha 126.662699
_cell_angle_beta 30.973299
_cell_angle_gamma 105.464527
_cell_volume 553.218284
_symmetry_space_group_name_H-M "P -1"
_symmetry_group_IT_number 2
_symmetry_cell_setting 'triclinic'
loop_
_space_group_symop_operation_xyz
x,y,z
-x,-y,-z
loop_
_atom_site_type_symbol
_atom_site_label
_atom_site_fract_x
_atom_site_fract_y
_atom_site_fract_z
Si Si1 0.103956 0.384079 0.328450
Si Si2 0.964596 0.064561 0.955877
Si Si3 0.888844 0.755335 0.832723
Si Si4 0.256603 0.739457 0.382886
Si Si5 0.906192 0.398752 0.844519
Si Si6 0.349319 0.320974 0.884500
Si Si7 0.087055 0.941176 0.610428
O O1 0.536170 0.212372 0.135317
O O2 0.969219 0.425776 0.316233
O O3 0.042490 0.619508 0.436793
O O4 0.966086 0.240403 0.375332
O O5 0.186295 0.173881 0.895287
O O6 0.096743 0.858370 0.809993
O O7 0.000000 0.000000 0.000000
O O8 0.913593 0.591196 0.842861
O O9 0.500000 0.000000 0.000000
O O10 0.554930 0.604405 0.194375
O O11 0.358616 0.778134 0.422401
O O12 0.000000 0.000000 0.500000
O O13 0.133031 0.115457 0.676444
O O14 0.500000 0.500000 0.000000
O O15 0.901998 0.452749 0.929475
O O16 0.717104 0.135000 0.749224
#
# Coordination Sequence:
#
# PCOD9026692 Si02
#       7
#     2   2   2   2   2   2   2
#     4  11  21  36  60  88 115 153 201 241 291 353
#     4  11  19  35  58  90 125 151 187 245 301 345
#     4  10  19  31  54  87 118 147 191 239 291 346
#     4  10  22  38  58  86 119 155 199 241 291 349
#     4  10  17  31  56  84 114 148 193 241 290 335
#     4  10  19  35  58  88 118 155 189 243 297 346
#     4  10  20  36  60  84 117 158 199 238 287 354
#
# _framework density 25.306467000000001
#
# number of rings (size 3 to 8) (size 9 to 14) (size 15 to 20)
#    0.000    1.714    2.857    5.571    0.000    1.714 
#    0.000    0.000    0.000   12.857    0.000    0.000 
#    0.000    0.000    0.000    0.000    0.000    0.000 
#
# Total GULP energy -78141.584264 kJ/mol
# GULP energy per Si atom -5581.541733 kJ/mol
# Density = 2.524887 g / cm^3
# Si number density = 25.306467 Si / 1000 Ang^3
#
#
#
# Elastic Constant Matrix: (Units=GPa)
#
#
# Indices 1 2 3 4 5 6 
#
# 1 129.6331 45.7408 38.1519 3.1011 49.9432 24.4921
# 2 45.7408 141.4182 44.8540 1.0964 37.3626 23.8451
# 3 38.1519 44.8540 112.6191 -6.2500 40.6823 9.5321
# 4 3.1011 1.0964 -6.2500 37.2307 3.7317 14.8092
# 5 49.9432 37.3626 40.6823 3.7317 56.3346 11.4217
# 6 24.4921 23.8451 9.5321 14.8092 11.4217 46.2035
#
#
#
# Elastic Compliance Matrix: (Units=1/GPa)
#
#
# Indices 1 2 3 4 5 6 
#
# 1 0.012567 -0.000740 0.000099 0.001738 -0.009945 -0.004399
# 2 -0.000740 0.009452 -0.001817 0.001284 -0.003651 -0.003620
# 3 0.000099 -0.001817 0.012771 0.003324 -0.008163 -0.000797
# 4 0.001738 0.001284 0.003324 0.032259 -0.004604 -0.011471
# 5 -0.009945 -0.003651 -0.008163 -0.004604 0.034845 0.001702
# 6 -0.004399 -0.003620 -0.000797 -0.011471 0.001702 0.029264
#
#
# Mechanical properties :
#
#
# Convention : Reuss Voigt Hill
#
# Bulk Modulus (GPa) = 33.47578 71.24042 52.35810
# Shear Modulus (GPa) = 34.23896 44.94867 39.59381
#
# Velocity S-wave (km/s) = 3.68227 4.21904 3.95976
# Velocity P-wave (km/s) = 5.59783 7.20735 6.45297
#
# Compressibility (1/GPa) = 0.02987234
#
# Stress axis : x y z
#
# Youngs Moduli (GPa) = 79.57221 105.79637 78.30479
#
# Poissons Ratio (x) = 0.07834 -0.00773
# Poissons Ratio (y) = 0.05892 0.14229
# Poissons Ratio (z) = -0.00786 0.19224
#
# Static dielectric constant tensor:
#      x y z
#    x 1.933990 0.102590 0.091160 
#    y 0.102590 1.878180 0.008190 
#    z 0.091160 0.008190 2.260330 
# 
# From -- ./inp_files/586849.got.cif
#   From: 2010.05.17/outbox.cif.g08.bks.cpg/sg2_294_cif.got.tgz:586849.got - 2010.06.03 11:33:40.
