data_PCOD9026280
_publ_section_title
;
Structure prediction by ZEFSAII (Michael W. Deem and Ramdas Pophale) SiO2 
 PCOD9026280
Probable space group: P -1
;
_chemical_formula_sum "Si O2"
_cell_formula_units_Z 16
_cell_length_a 8.661082
_cell_length_b 21.066090
_cell_length_c 18.236619
_cell_angle_alpha 19.891194
_cell_angle_beta 116.456120
_cell_angle_gamma 126.042906
_cell_volume 842.209882
_symmetry_space_group_name_H-M "P -1"
_symmetry_group_IT_number 2
_symmetry_cell_setting 'triclinic'
loop_
_space_group_symop_operation_xyz
x,y,z
-x,-y,-z
loop_
_atom_site_type_symbol
_atom_site_label
_atom_site_fract_x
_atom_site_fract_y
_atom_site_fract_z
Si Si1 0.087097 0.393120 0.687260
Si Si2 0.547954 0.068658 0.275467
Si Si3 0.255881 0.693570 0.088867
Si Si4 0.664041 0.003410 0.086860
Si Si5 0.512031 0.503565 0.410554
Si Si6 0.242506 0.159501 0.358156
Si Si7 0.784180 0.404795 0.349357
Si Si8 0.569341 0.631543 0.984847
O O1 0.252050 0.367030 0.707628
O O2 0.195742 0.561732 0.595507
O O3 0.000000 0.500000 0.500000
O O4 0.891777 0.161768 0.928085
O O5 0.480343 0.212512 0.149010
O O6 0.650953 0.971933 0.453232
O O7 0.358529 0.848966 0.433463
O O8 0.703088 0.222039 0.076965
O O9 0.391596 0.597526 0.244516
O O10 0.014038 0.515028 0.246474
O O11 0.328352 0.891778 0.947309
O O12 0.597520 0.753438 0.355434
O O13 0.500000 0.000000 0.000000
O O14 0.500000 0.500000 0.500000
O O15 0.294105 0.230004 0.207510
O O16 0.360280 0.399136 0.165582
O O17 0.000000 0.000000 0.500000
O O18 0.691819 0.546284 0.148144
#
# Coordination Sequence:
#
# PCOD9026280 Si02
#       8
#     2   2   2   2   2   2   2   2
#     4  11  22  39  64  85 120 166 206 259 314 361
#     4  11  23  39  65  93 125 163 202 253 307 365
#     4  11  24  39  59  88 122 157 209 257 304 370
#     4  11  22  42  60  83 119 161 203 261 313 360
#     4  12  23  38  58  86 114 153 210 257 309 370
#     4  10  22  41  66  94 127 162 197 245 307 367
#     4  10  23  41  59  88 125 163 206 255 311 361
#     4  10  22  41  63  93 126 159 205 248 298 375
#
# _framework density 18.997640000000001
#
# number of rings (size 3 to 8) (size 9 to 14) (size 15 to 20)
#    0.000    1.250    2.500    3.375    0.000    6.000 
#    0.000    0.000    0.000    0.000    0.000    0.000 
#    0.000    0.000    0.000    0.000    0.000    0.000 
#
# Total GULP energy -89427.441154 kJ/mol
# GULP energy per Si atom -5589.215072 kJ/mol
# Density = 1.895440 g / cm^3
# Si number density = 18.997640 Si / 1000 Ang^3
#
#
#
# Elastic Constant Matrix: (Units=GPa)
#
#
# Indices 1 2 3 4 5 6 
#
# 1 139.3972 49.3721 51.5368 -10.9187 -5.1209 -4.8614
# 2 49.3721 85.4334 23.3132 9.8965 -5.8052 -4.4774
# 3 51.5368 23.3132 85.1673 4.0899 3.5540 -4.7768
# 4 -10.9187 9.8965 4.0899 31.6085 1.1555 -7.2027
# 5 -5.1209 -5.8052 3.5540 1.1555 31.9812 2.2092
# 6 -4.8614 -4.4774 -4.7768 -7.2027 2.2092 27.2614
#
#
#
# Elastic Compliance Matrix: (Units=1/GPa)
#
#
# Indices 1 2 3 4 5 6 
#
# 1 0.012249 -0.006103 -0.006030 0.007330 0.001123 0.001971
# 2 -0.006103 0.016370 -0.000568 -0.007394 0.002369 -0.000645
# 3 -0.006030 -0.000568 0.015886 -0.003661 -0.002762 0.000872
# 4 0.007330 -0.007394 -0.003661 0.039302 -0.001871 0.009987
# 5 0.001123 0.002369 -0.002762 -0.001871 0.032461 -0.003020
# 6 0.001971 -0.000645 0.000872 0.009987 -0.003020 0.039964
#
#
# Mechanical properties :
#
#
# Convention : Reuss Voigt Hill
#
# Bulk Modulus (GPa) = 52.34605 62.04914 57.19760
# Shear Modulus (GPa) = 26.59563 30.55528 28.57545
#
# Velocity S-wave (km/s) = 3.74564 4.01480 3.88256
# Velocity P-wave (km/s) = 6.80590 7.36369 7.09028
#
# Compressibility (1/GPa) = 0.01910364
#
# Stress axis : x y z
#
# Youngs Moduli (GPa) = 81.64212 61.08558 62.94923
#
# Poissons Ratio (x) = 0.37278 0.37957
# Poissons Ratio (y) = 0.49823 0.03577
# Poissons Ratio (z) = 0.49228 0.03471
#
# Static dielectric constant tensor:
#      x y z
#    x 1.635650 -0.004490 -0.014630 
#    y -0.004490 1.675070 -0.000170 
#    z -0.014630 -0.000170 1.633180 
# 
# From -- ./inp_files/337833.got.cif
#   From: 2010.05.17/outbox.cif.g08.bks.cpg/sg2_169_cif.got.tgz:337833.got - 2010.06.03 11:33:40.
