data_PCOD9026190
_publ_section_title
;
Structure prediction by ZEFSAII (Michael W. Deem and Ramdas Pophale) SiO2 
 PCOD9026190
Probable space group: P -1
;
_chemical_formula_sum "Si O2"
_cell_formula_units_Z 14
_cell_length_a 13.970391
_cell_length_b 10.705108
_cell_length_c 8.673073
_cell_angle_alpha 97.480935
_cell_angle_beta 118.084051
_cell_angle_gamma 131.503720
_cell_volume 636.854557
_symmetry_space_group_name_H-M "P -1"
_symmetry_group_IT_number 2
_symmetry_cell_setting 'triclinic'
loop_
_space_group_symop_operation_xyz
x,y,z
-x,-y,-z
loop_
_atom_site_type_symbol
_atom_site_label
_atom_site_fract_x
_atom_site_fract_y
_atom_site_fract_z
Si Si1 0.904905 0.183528 0.547233
Si Si2 0.384983 0.997277 0.503129
Si Si3 0.878261 0.882463 0.550324
Si Si4 0.962687 0.323908 0.007608
Si Si5 0.845660 0.057025 0.133575
Si Si6 0.267853 0.499092 0.050778
Si Si7 0.537487 0.569530 0.723102
O O1 0.860389 0.014003 0.586546
O O2 0.458438 0.764886 0.258851
O O3 0.835758 0.084490 0.309183
O O4 0.135299 0.412349 0.790092
O O5 0.219111 0.819730 0.479986
O O6 0.500000 0.000000 0.500000
O O7 0.246163 0.917831 0.253544
O O8 0.661969 0.622891 0.362118
O O9 0.002288 0.912512 0.759792
O O10 0.000000 0.000000 0.500000
O O11 0.936786 0.266858 0.155481
O O12 0.132513 0.404288 0.077695
O O13 0.000000 0.500000 0.000000
O O14 0.650189 0.808130 0.878064
O O15 0.332860 0.417572 0.100862
O O16 0.500000 0.500000 0.500000
#
# Coordination Sequence:
#
# PCOD9026190 Si02
#       7
#     2   2   2   2   2   2   2
#     4  10  23  41  67 101 138 184 223 283 352 413
#     4  11  22  43  71  94 129 186 235 285 339 415
#     4  10  22  41  63 100 146 184 214 275 352 412
#     4  11  24  44  70  93 134 183 235 292 345 398
#     4  11  25  43  65 104 146 177 232 283 348 421
#     4  11  22  40  68  97 134 180 230 279 348 409
#     4  12  24  38  70 107 142 186 231 281 342 423
#
# _framework density 21.983041
#
# number of rings (size 3 to 8) (size 9 to 14) (size 15 to 20)
#    0.000    1.143    4.286    1.714    2.000    5.714 
#    0.000    3.571    0.000    0.000    0.000    0.000 
#    0.000    0.000    0.000    0.000    0.000    0.000 
#
# Total GULP energy -77947.558969 kJ/mol
# GULP energy per Si atom -5567.682784 kJ/mol
# Density = 2.193301 g / cm^3
# Si number density = 21.983041 Si / 1000 Ang^3
#
#
#
# Elastic Constant Matrix: (Units=GPa)
#
#
# Indices 1 2 3 4 5 6 
#
# 1 104.7140 34.9192 27.8116 6.7871 5.2458 15.9020
# 2 34.9192 116.0654 43.8251 10.6612 -0.7820 -3.0562
# 3 27.8116 43.8251 112.6936 25.4720 -3.1165 10.9562
# 4 6.7871 10.6612 25.4720 32.1481 10.0123 -2.2738
# 5 5.2458 -0.7820 -3.1165 10.0123 41.3523 11.8058
# 6 15.9020 -3.0562 10.9562 -2.2738 11.8058 19.9986
#
#
#
# Elastic Compliance Matrix: (Units=1/GPa)
#
#
# Indices 1 2 3 4 5 6 
#
# 1 0.012889 -0.004123 0.000694 -0.003839 0.003136 -0.013547
# 2 -0.004123 0.011856 -0.005352 0.002940 -0.003312 0.010311
# 3 0.000694 -0.005352 0.016369 -0.015731 0.010000 -0.018029
# 4 -0.003839 0.002940 -0.015731 0.052559 -0.022292 0.031255
# 5 0.003136 -0.003312 0.010000 -0.022292 0.039710 -0.034455
# 6 -0.013547 0.010311 -0.018029 0.031255 -0.034455 0.096122
#
#
# Mechanical properties :
#
#
# Convention : Reuss Voigt Hill
#
# Bulk Modulus (GPa) = 42.45822 60.73164 51.59493
# Shear Modulus (GPa) = 19.61417 33.82760 26.72088
#
# Velocity S-wave (km/s) = 2.99028 3.92702 3.49022
# Velocity P-wave (km/s) = 5.59271 6.94611 6.30583
#
# Compressibility (1/GPa) = 0.02355257
#
# Stress axis : x y z
#
# Youngs Moduli (GPa) = 77.58325 84.34424 61.09249
#
# Poissons Ratio (x) = 0.34774 -0.04239
# Poissons Ratio (y) = 0.31986 0.32695
# Poissons Ratio (z) = -0.05383 0.45139
#
# Static dielectric constant tensor:
#      x y z
#    x 1.877430 0.003740 -0.022360 
#    y 0.003740 1.837320 0.022760 
#    z -0.022360 0.022760 1.877280 
# 
# From -- ./inp_files/305411.got.cif
#   From: 2010.05.17/outbox.cif.g08.bks.cpg/sg2_153_cif.got.tgz:305411.got - 2010.06.03 11:33:40.
