data_PCOD9026174
_publ_section_title
;
Structure prediction by ZEFSAII (Michael W. Deem and Ramdas Pophale) SiO2 
 PCOD9026174
Probable space group: P -1
;
_chemical_formula_sum "Si O2"
_cell_formula_units_Z 12
_cell_length_a 8.990942
_cell_length_b 9.250124
_cell_length_c 15.950417
_cell_angle_alpha 105.307744
_cell_angle_beta 110.578964
_cell_angle_gamma 133.594476
_cell_volume 598.122314
_symmetry_space_group_name_H-M "P -1"
_symmetry_group_IT_number 2
_symmetry_cell_setting 'triclinic'
loop_
_space_group_symop_operation_xyz
x,y,z
-x,-y,-z
loop_
_atom_site_type_symbol
_atom_site_label
_atom_site_fract_x
_atom_site_fract_y
_atom_site_fract_z
Si Si1 0.106784 0.250637 0.830422
Si Si2 0.445196 0.690311 0.299268
Si Si3 0.406042 0.386684 0.370615
Si Si4 0.239757 0.313019 0.049712
Si Si5 0.833783 0.273012 0.659504
Si Si6 0.066192 0.404583 0.550618
O O1 0.454897 0.528681 0.900811
O O2 0.893318 0.184656 0.720684
O O3 0.108448 0.285532 0.935190
O O4 0.957914 0.962513 0.754663
O O5 0.476637 0.585157 0.357408
O O6 0.351975 0.530048 0.171251
O O7 0.180962 0.589801 0.266714
O O8 0.775339 0.052530 0.418758
O O9 0.500000 0.500000 0.500000
O O10 0.614351 0.418479 0.384102
O O11 0.000000 0.000000 0.000000
O O12 0.076542 0.455525 0.658664
O O13 0.500000 0.000000 0.500000
O O14 0.000000 0.500000 0.500000
#
# Coordination Sequence:
#
# PCOD9026174 Si02
#       6
#     2   2   2   2   2   2
#     4  11  24  43  69  95 136 176 220 278 331 390
#     4  11  22  40  64  94 134 172 227 269 326 406
#     4  12  21  36  66  98 130 174 222 274 339 395
#     4  11  24  46  69  95 133 181 231 270 319 394
#     4  10  22  41  62  97 134 167 214 276 339 395
#     4  11  22  39  63  97 139 173 213 282 342 392
#
# _framework density 20.062785000000002
#
# number of rings (size 3 to 8) (size 9 to 14) (size 15 to 20)
#    0.000    1.000    1.667    7.500    0.000    0.667 
#    0.000    0.833    0.000    0.000    0.000    0.000 
#    0.000    0.000    0.000    0.000    0.000    0.000 
#
# Total GULP energy -67017.665438 kJ/mol
# GULP energy per Si atom -5584.805453 kJ/mol
# Density = 2.001712 g / cm^3
# Si number density = 20.062785 Si / 1000 Ang^3
#
#
#
# Elastic Constant Matrix: (Units=GPa)
#
#
# Indices 1 2 3 4 5 6 
#
# 1 84.5608 53.7165 17.7388 -7.0329 -4.2546 6.8898
# 2 53.7165 171.0686 62.6191 -11.8930 -1.2446 -9.7945
# 3 17.7388 62.6191 92.2178 -18.2289 -17.9470 0.7517
# 4 -7.0329 -11.8930 -18.2289 50.2821 7.9817 0.0672
# 5 -4.2546 -1.2446 -17.9470 7.9817 37.2500 -9.5879
# 6 6.8898 -9.7945 0.7517 0.0672 -9.5879 48.0934
#
#
#
# Elastic Compliance Matrix: (Units=1/GPa)
#
#
# Indices 1 2 3 4 5 6 
#
# 1 0.015376 -0.005328 0.001119 0.001129 0.001080 -0.003092
# 2 -0.005328 0.009922 -0.006299 -0.000265 -0.002649 0.002355
# 3 0.001119 -0.006299 0.017054 0.003695 0.007274 -0.000265
# 4 0.001129 -0.000265 0.003695 0.021801 -0.003003 -0.000903
# 5 0.001080 -0.002649 0.007274 -0.003003 0.032489 0.005673
# 6 -0.003092 0.002355 -0.000265 -0.000903 0.005673 0.022852
#
#
# Mechanical properties :
#
#
# Convention : Reuss Voigt Hill
#
# Bulk Modulus (GPa) = 46.87274 68.44401 57.65838
# Shear Modulus (GPa) = 33.87013 41.37661 37.62337
#
# Velocity S-wave (km/s) = 4.11324 4.54624 4.33515
# Velocity P-wave (km/s) = 6.78027 7.85791 7.33890
#
# Compressibility (1/GPa) = 0.02133436
#
# Stress axis : x y z
#
# Youngs Moduli (GPa) = 65.03625 100.78840 58.63589
#
# Poissons Ratio (x) = 0.53704 -0.06561
# Poissons Ratio (y) = 0.34654 0.36937
# Poissons Ratio (z) = -0.07277 0.63491
#
# Static dielectric constant tensor:
#      x y z
#    x 1.727270 0.043720 0.015100 
#    y 0.043720 1.723380 0.019190 
#    z 0.015100 0.019190 1.754500 
# 
# From -- ./inp_files/23751.got.cif
#   From: 2010.05.17/outbox.cif.g08.bks.cpg/sg2_12_cif.got.tgz:23751.got - 2010.06.03 11:33:40.
