data_PCOD9026466
_publ_section_title
;
Structure prediction by ZEFSAII (Michael W. Deem and Ramdas Pophale) SiO2 
 PCOD9026466
Probable space group: P -1
;
_chemical_formula_sum "Si O2"
_cell_formula_units_Z 12
_cell_length_a 7.764915
_cell_length_b 8.278069
_cell_length_c 14.446829
_cell_angle_alpha 105.824151
_cell_angle_beta 135.415397
_cell_angle_gamma 58.381598
_cell_volume 547.160394
_symmetry_space_group_name_H-M "P -1"
_symmetry_group_IT_number 2
_symmetry_cell_setting 'triclinic'
loop_
_space_group_symop_operation_xyz
x,y,z
-x,-y,-z
loop_
_atom_site_type_symbol
_atom_site_label
_atom_site_fract_x
_atom_site_fract_y
_atom_site_fract_z
Si Si1 0.800871 0.427348 0.865846
Si Si2 0.849739 0.735506 0.560516
Si Si3 0.886788 0.090206 0.572597
Si Si4 0.359160 0.544282 0.575379
Si Si5 0.198204 0.027524 0.866566
Si Si6 0.314860 0.600806 0.855034
O O1 0.634579 0.533554 0.725860
O O2 0.544636 0.485355 0.846308
O O3 0.977885 0.204802 0.871322
O O4 0.000000 0.500000 0.000000
O O5 0.621220 0.665141 0.452564
O O6 0.089113 0.647425 0.557859
O O7 0.021615 0.629754 0.704348
O O8 0.758567 0.960713 0.546923
O O9 0.715391 0.316623 0.519330
O O10 0.119193 0.064190 0.733500
O O11 0.000000 0.000000 0.500000
O O12 0.225411 0.823520 0.866393
O O13 0.500000 0.000000 0.000000
O O14 0.500000 0.500000 0.000000
#
# Coordination Sequence:
#
# PCOD9026466 Si02
#       6
#     2   2   2   2   2   2
#     4  11  23  41  64  97 132 171 219 270 322 397
#     4   8  17  35  58  87 123 160 208 267 315 378
#     4   9  19  36  62  92 120 168 216 261 324 384
#     4   9  18  35  60  87 121 166 209 260 325 378
#     4  11  23  40  65  93 130 174 214 265 327 387
#     4  10  22  41  64  92 131 172 214 268 330 385
#
# _framework density 21.931411000000001
#
# number of rings (size 3 to 8) (size 9 to 14) (size 15 to 20)
#    0.000    2.333    1.667    1.000    2.333    1.333 
#    0.000    5.000    0.000    0.000    0.000    0.000 
#    0.000    0.000    0.000    0.000    0.000    0.000 
#
# Total GULP energy -66815.968237 kJ/mol
# GULP energy per Si atom -5567.997353 kJ/mol
# Density = 2.188149 g / cm^3
# Si number density = 21.931411 Si / 1000 Ang^3
#
#
#
# Elastic Constant Matrix: (Units=GPa)
#
#
# Indices 1 2 3 4 5 6 
#
# 1 64.9407 33.8884 37.9389 -1.0627 -6.3456 1.3833
# 2 33.8884 158.6611 49.2037 -11.8528 -10.3877 -13.0833
# 3 37.9389 49.2037 168.5640 1.0264 -21.7416 37.8482
# 4 -1.0627 -11.8528 1.0264 37.5198 12.3635 -11.0491
# 5 -6.3456 -10.3877 -21.7416 12.3635 36.1986 -1.7719
# 6 1.3833 -13.0833 37.8482 -11.0491 -1.7719 24.8082
#
#
#
# Elastic Compliance Matrix: (Units=1/GPa)
#
#
# Indices 1 2 3 4 5 6 
#
# 1 0.019475 -0.001214 -0.006401 0.003676 -0.001566 0.009565
# 2 -0.001214 0.013952 -0.012449 0.017191 -0.007918 0.033510
# 3 -0.006401 -0.012449 0.026370 -0.027612 0.017761 -0.057468
# 4 0.003676 0.017191 -0.027612 0.065717 -0.029627 0.078140
# 5 -0.001566 -0.007918 0.017761 -0.029627 0.043847 -0.041249
# 6 0.009565 0.033510 -0.057468 0.078140 -0.041249 0.176980
#
#
# Mechanical properties :
#
#
# Convention : Reuss Voigt Hill
#
# Bulk Modulus (GPa) = 50.84327 70.46977 60.65652
# Shear Modulus (GPa) = 12.72187 37.78096 25.25142
#
# Velocity S-wave (km/s) = 2.41109 4.15503 3.39688
# Velocity P-wave (km/s) = 5.56636 7.43106 6.56525
#
# Compressibility (1/GPa) = 0.01966829
#
# Stress axis : x y z
#
# Youngs Moduli (GPa) = 51.34802 71.67510 37.92241
#
# Poissons Ratio (x) = 0.08700 0.24274
# Poissons Ratio (y) = 0.06232 0.47211
# Poissons Ratio (z) = 0.32868 0.89230
#
# Static dielectric constant tensor:
#      x y z
#    x 1.815050 -0.082230 -0.045360 
#    y -0.082230 1.640230 -0.007670 
#    z -0.045360 -0.007670 1.904000 
# 
# From -- ./inp_files/153235.got.cif
#   From: 2010.05.17/outbox.cif.g08.bks.cpg/sg2_77_cif.got.tgz:153235.got - 2010.06.03 11:33:40.
