data_PCOD9026867
_publ_section_title
;
Structure prediction by ZEFSAII (Michael W. Deem and Ramdas Pophale) SiO2 
 PCOD9026867
Probable space group: P -1
;
_chemical_formula_sum "Si O2"
_cell_formula_units_Z 16
_cell_length_a 10.413284
_cell_length_b 11.849218
_cell_length_c 11.672214
_cell_angle_alpha 116.259923
_cell_angle_beta 83.520101
_cell_angle_gamma 42.881007
_cell_volume 613.374737
_symmetry_space_group_name_H-M "P -1"
_symmetry_group_IT_number 2
_symmetry_cell_setting 'triclinic'
loop_
_space_group_symop_operation_xyz
x,y,z
-x,-y,-z
loop_
_atom_site_type_symbol
_atom_site_label
_atom_site_fract_x
_atom_site_fract_y
_atom_site_fract_z
Si Si1 0.782334 0.776156 0.445058
Si Si2 0.894332 0.880650 0.320070
Si Si3 0.698770 0.563053 0.096984
Si Si4 0.872736 0.730499 0.898611
Si Si5 0.549157 0.802081 0.667358
Si Si6 0.725902 0.044831 0.851749
Si Si7 0.600573 0.432000 0.797909
Si Si8 0.287609 0.611845 0.489780
O O1 0.730271 0.747000 0.555483
O O2 0.842652 0.868472 0.445328
O O3 0.055550 0.471743 0.235985
O O4 0.500000 0.000000 0.500000
O O5 0.106456 0.810244 0.281586
O O6 0.063778 0.641799 0.112997
O O7 0.624774 0.118966 0.380745
O O8 0.462631 0.841543 0.183085
O O9 0.571953 0.535066 0.121614
O O10 0.844328 0.476869 0.160134
O O11 0.806917 0.871312 0.858292
O O12 0.639491 0.963007 0.117660
O O13 0.679473 0.568610 0.607753
O O14 0.557398 0.302487 0.042604
O O15 0.997734 0.868884 0.693524
O O16 0.655259 0.376561 0.633656
O O17 0.500000 0.500000 0.500000
#
# Coordination Sequence:
#
# PCOD9026867 Si02
#       8
#     2   2   2   2   2   2   2   2
#     4  10  22  42  71  98 131 172 229 279 329 402
#     4   9  21  42  69  92 131 174 223 274 334 395
#     4  10  24  41  69 102 132 178 224 271 335 406
#     4  11  22  43  73  96 133 182 219 275 345 385
#     4  10  22  41  66 100 131 173 228 271 330 406
#     4  11  23  42  67  95 141 171 224 273 330 402
#     4  11  24  45  65  97 137 178 214 280 341 390
#     4  12  26  38  66 102 134 178 224 269 334 404
#
# _framework density 26.085197000000001
#
# number of rings (size 3 to 8) (size 9 to 14) (size 15 to 20)
#    0.000    1.500    2.500    2.250    5.250    8.000 
#    0.000    4.375    5.500    0.000    0.000    0.000 
#    0.000    0.000    0.000    0.000    0.000    0.000 
#
# Total GULP energy -89544.055602 kJ/mol
# GULP energy per Si atom -5596.503475 kJ/mol
# Density = 2.602583 g / cm^3
# Si number density = 26.085197 Si / 1000 Ang^3
#
#
#
# Elastic Constant Matrix: (Units=GPa)
#
#
# Indices 1 2 3 4 5 6 
#
# 1 69.6873 33.4601 15.9757 1.3337 -8.9477 8.6129
# 2 33.4601 173.5894 46.2241 -21.3509 -5.8853 5.1385
# 3 15.9757 46.2241 131.3725 -13.6633 1.7903 20.2195
# 4 1.3337 -21.3509 -13.6633 47.9846 12.6325 -6.0340
# 5 -8.9477 -5.8853 1.7903 12.6325 35.8553 1.8643
# 6 8.6129 5.1385 20.2195 -6.0340 1.8643 52.9136
#
#
#
# Elastic Compliance Matrix: (Units=1/GPa)
#
#
# Indices 1 2 3 4 5 6 
#
# 1 0.017264 -0.003287 -0.001008 -0.003988 0.005367 -0.002750
# 2 -0.003287 0.007243 -0.001970 0.003046 -0.000656 0.000955
# 3 -0.001008 -0.001970 0.009072 0.001771 -0.001503 -0.002856
# 4 -0.003988 0.003046 0.001771 0.025767 -0.009816 0.002961
# 5 0.005367 -0.000656 -0.001503 -0.009816 0.032786 -0.002510
# 6 -0.002750 0.000955 -0.002856 0.002961 -0.002510 0.020771
#
#
# Mechanical properties :
#
#
# Convention : Reuss Voigt Hill
#
# Bulk Modulus (GPa) = 47.50492 62.88547 55.19520
# Shear Modulus (GPa) = 37.75066 45.94999 41.85032
#
# Velocity S-wave (km/s) = 3.80834 4.20162 4.00980
# Velocity P-wave (km/s) = 6.13098 6.90639 6.53020
#
# Compressibility (1/GPa) = 0.02105045
#
# Stress axis : x y z
#
# Youngs Moduli (GPa) = 57.92348 138.06550 110.22957
#
# Poissons Ratio (x) = 0.45376 0.11108
# Poissons Ratio (y) = 0.19037 0.21716
# Poissons Ratio (z) = 0.05837 0.27200
#
# Static dielectric constant tensor:
#      x y z
#    x 2.079690 -0.042830 0.093620 
#    y -0.042830 2.035120 0.017910 
#    z 0.093620 0.017910 2.074640 
# 
# From -- ./inp_files/428373.got.cif
#   From: 2010.05.17/outbox.cif.g08.bks.cpg/sg2_215_cif.got.tgz:428373.got - 2010.06.03 11:33:40.
