data_PCOD9026299
_publ_section_title
;
Structure prediction by ZEFSAII (Michael W. Deem and Ramdas Pophale) SiO2 
 PCOD9026299
Probable space group: P -1
;
_chemical_formula_sum "Si O2"
_cell_formula_units_Z 16
_cell_length_a 5.210755
_cell_length_b 16.107929
_cell_length_c 15.590580
_cell_angle_alpha 146.792736
_cell_angle_beta 59.464184
_cell_angle_gamma 119.405317
_cell_volume 611.229270
_symmetry_space_group_name_H-M "P -1"
_symmetry_group_IT_number 2
_symmetry_cell_setting 'triclinic'
loop_
_space_group_symop_operation_xyz
x,y,z
-x,-y,-z
loop_
_atom_site_type_symbol
_atom_site_label
_atom_site_fract_x
_atom_site_fract_y
_atom_site_fract_z
Si Si1 0.380281 0.514733 0.721804
Si Si2 0.390728 0.028841 0.738766
Si Si3 0.117590 0.769124 0.940557
Si Si4 0.489582 0.946031 0.832234
Si Si5 0.260227 0.708354 0.194471
Si Si6 0.037559 0.274339 0.444534
Si Si7 0.033766 0.299370 0.283144
Si Si8 0.574229 0.584334 0.188287
O O1 0.163127 0.641155 0.892489
O O2 0.188228 0.385340 0.587257
O O3 0.626753 0.619165 0.713487
O O4 0.514636 0.449307 0.727296
O O5 0.578382 0.994972 0.761621
O O6 0.587275 0.125429 0.717909
O O7 0.213238 0.863343 0.601518
O O8 0.154206 0.138541 0.908891
O O9 0.067735 0.685228 0.785333
O O10 0.404890 0.900709 0.001683
O O11 0.685002 0.814367 0.709531
O O12 0.139629 0.876178 0.829471
O O13 0.355975 0.666630 0.237486
O O14 0.903018 0.684045 0.222290
O O15 0.384166 0.578332 0.002345
O O16 0.941310 0.353244 0.440670
#
# Coordination Sequence:
#
# PCOD9026299 Si02
#       8
#     2   2   2   2   2   2   2   2
#     4  12  26  42  62  97 131 176 217 277 327 400
#     4  10  23  42  68  95 127 175 214 274 335 398
#     4  11  23  37  66  94 134 161 225 271 335 385
#     4  10  22  41  63  94 127 175 214 276 322 405
#     4  10  22  43  69 102 133 174 219 284 348 397
#     4  10  25  44  62  91 134 174 223 261 336 398
#     4  11  23  40  63  94 129 176 218 267 335 392
#     4  10  24  40  69 102 138 167 226 281 342 403
#
# _framework density 26.176755
#
# number of rings (size 3 to 8) (size 9 to 14) (size 15 to 20)
#    0.000    1.500    0.000    3.750   10.500   10.000 
#    0.000    1.250    0.000    0.000    0.000    0.000 
#    0.000    0.000    0.000    0.000    0.000    0.000 
#
# Total GULP energy -89537.511885 kJ/mol
# GULP energy per Si atom -5596.094493 kJ/mol
# Density = 2.611718 g / cm^3
# Si number density = 26.176755 Si / 1000 Ang^3
#
#
#
# Elastic Constant Matrix: (Units=GPa)
#
#
# Indices 1 2 3 4 5 6 
#
# 1 97.2379 44.2731 54.5871 18.0076 38.4240 -1.1541
# 2 44.2731 174.6009 43.5281 11.5705 24.9764 7.7025
# 3 54.5871 43.5281 109.9060 5.1441 27.3763 3.0443
# 4 18.0076 11.5705 5.1441 31.4825 -4.0419 6.6749
# 5 38.4240 24.9764 27.3763 -4.0419 49.9361 5.8442
# 6 -1.1541 7.7025 3.0443 6.6749 5.8442 50.9269
#
#
#
# Elastic Compliance Matrix: (Units=1/GPa)
#
#
# Indices 1 2 3 4 5 6 
#
# 1 0.023729 -0.001300 -0.006799 -0.015037 -0.015673 0.004910
# 2 -0.001300 0.006807 -0.001558 -0.001589 -0.001611 -0.000573
# 3 -0.006799 -0.001558 0.013244 0.002369 -0.000951 -0.000911
# 4 -0.015037 -0.001589 0.002369 0.044218 0.015561 -0.007823
# 5 -0.015673 -0.001611 -0.000951 0.015561 0.035393 -0.006156
# 6 0.004910 -0.000573 -0.000911 -0.007823 -0.006156 0.021620
#
#
# Mechanical properties :
#
#
# Convention : Reuss Voigt Hill
#
# Bulk Modulus (GPa) = 40.87522 74.05794 57.46658
# Shear Modulus (GPa) = 28.98885 42.42620 35.70753
#
# Velocity S-wave (km/s) = 3.33141 4.03023 3.69737
# Velocity P-wave (km/s) = 5.51786 7.07177 6.34258
#
# Compressibility (1/GPa) = 0.02446470
#
# Stress axis : x y z
#
# Youngs Moduli (GPa) = 42.14275 146.91712 75.50548
#
# Poissons Ratio (x) = 0.19101 0.51335
# Poissons Ratio (y) = 0.05479 0.11767
# Poissons Ratio (z) = 0.28652 0.22896
#
# Static dielectric constant tensor:
#      x y z
#    x 2.072270 0.006340 -0.048200 
#    y 0.006340 2.007870 -0.042740 
#    z -0.048200 -0.042740 2.038130 
# 
# From -- ./inp_files/484460.got.cif
#   From: 2010.05.17/outbox.cif.g08.bks.cpg/sg2_243_cif.got.tgz:484460.got - 2010.06.03 11:33:40.
