data_PCOD9026445
_publ_section_title
;
Structure prediction by ZEFSAII (Michael W. Deem and Ramdas Pophale) SiO2 
 PCOD9026445
Probable space group: P -1
;
_chemical_formula_sum "Si O2"
_cell_formula_units_Z 16
_cell_length_a 11.999516
_cell_length_b 5.371283
_cell_length_c 15.581534
_cell_angle_alpha 101.320814
_cell_angle_beta 136.483175
_cell_angle_gamma 97.272392
_cell_volume 621.941679
_symmetry_space_group_name_H-M "P -1"
_symmetry_group_IT_number 2
_symmetry_cell_setting 'triclinic'
loop_
_space_group_symop_operation_xyz
x,y,z
-x,-y,-z
loop_
_atom_site_type_symbol
_atom_site_label
_atom_site_fract_x
_atom_site_fract_y
_atom_site_fract_z
Si Si1 0.052932 0.458802 0.622998
Si Si2 0.545004 0.306652 0.189774
Si Si3 0.924226 0.994165 0.285836
Si Si4 0.149126 0.425771 0.124569
Si Si5 0.479970 0.482666 0.632025
Si Si6 0.345490 0.087488 0.392447
Si Si7 0.982534 0.955593 0.125328
Si Si8 0.528851 0.737956 0.103996
O O1 0.000000 0.500000 0.500000
O O2 0.264792 0.565298 0.742406
O O3 0.987070 0.164040 0.614360
O O4 0.998727 0.676156 0.657905
O O5 0.571373 0.358580 0.309634
O O6 0.469083 0.535638 0.137631
O O7 0.456267 0.984177 0.087510
O O8 0.737090 0.919952 0.224074
O O9 0.891766 0.892498 0.162863
O O10 0.358397 0.607516 0.258527
O O11 0.073173 0.271068 0.162046
O O12 0.000000 0.500000 0.000000
O O13 0.141898 0.189364 0.033707
O O14 0.324681 0.239109 0.478830
O O15 0.572143 0.702323 0.624358
O O16 0.154663 0.885348 0.237563
O O17 0.500000 0.000000 0.500000
O O18 0.500000 0.500000 0.000000
#
# Coordination Sequence:
#
# PCOD9026445 Si02
#       8
#     2   2   2   2   2   2   2   2
#     4  10  22  41  64  91 134 165 219 270 327 400
#     4  10  23  40  64  96 126 169 219 265 337 390
#     4  10  23  40  63  97 124 172 217 267 336 393
#     4  10  22  43  64  91 133 167 227 279 336 401
#     4  10  23  40  63  98 127 175 223 278 335 406
#     4  10  22  41  64  92 133 167 226 276 337 400
#     4  10  23  40  63  97 126 172 224 273 336 403
#     4  10  22  43  63  92 132 165 216 271 321 398
#
# _framework density 25.725885999999999
#
# number of rings (size 3 to 8) (size 9 to 14) (size 15 to 20)
#    0.000    2.000    0.000    1.500    7.000    1.000 
#    0.000    0.000    0.000    0.000    0.000    0.000 
#    0.000    0.000    0.000    0.000    0.000    0.000 
#
# Total GULP energy -89103.545275 kJ/mol
# GULP energy per Si atom -5568.971580 kJ/mol
# Density = 2.566733 g / cm^3
# Si number density = 25.725886 Si / 1000 Ang^3
#
#
#
# Elastic Constant Matrix: (Units=GPa)
#
#
# Indices 1 2 3 4 5 6 
#
# 1 90.4377 42.0369 13.2423 -11.0926 -14.2131 2.8253
# 2 42.0369 79.5945 -3.8857 -35.4471 -0.7797 0.5733
# 3 13.2423 -3.8857 100.5628 -10.0264 -9.8855 1.8896
# 4 -11.0926 -35.4471 -10.0264 38.0451 -4.4360 -3.6165
# 5 -14.2131 -0.7797 -9.8855 -4.4360 44.4301 -8.3699
# 6 2.8253 0.5733 1.8896 -3.6165 -8.3699 30.1721
#
#
#
# Elastic Compliance Matrix: (Units=1/GPa)
#
#
# Indices 1 2 3 4 5 6 
#
# 1 0.016847 -0.011982 -0.002970 -0.006697 0.003671 -0.000948
# 2 -0.011982 0.031640 0.005671 0.028034 0.001527 0.003949
# 3 -0.002970 0.005671 0.011589 0.007900 0.002733 0.001150
# 4 -0.006697 0.028034 0.007900 0.054116 0.007024 0.008035
# 5 0.003671 0.001527 0.002733 0.007024 0.026457 0.007637
# 6 -0.000948 0.003949 0.001150 0.008035 0.007637 0.036167
#
#
# Mechanical properties :
#
#
# Convention : Reuss Voigt Hill
#
# Bulk Modulus (GPa) = 24.08849 41.48688 32.78769
# Shear Modulus (GPa) = 23.89875 37.14289 30.52082
#
# Velocity S-wave (km/s) = 3.05122 3.80385 3.44813
# Velocity P-wave (km/s) = 4.66874 5.95432 5.35028
#
# Compressibility (1/GPa) = 0.04151360
#
# Stress axis : x y z
#
# Youngs Moduli (GPa) = 59.35811 31.60546 86.28824
#
# Poissons Ratio (x) = 0.37870 0.25631
# Poissons Ratio (y) = 0.71124 -0.48937
# Poissons Ratio (z) = 0.17632 -0.17925
#
# Static dielectric constant tensor:
#      x y z
#    x 2.098170 -0.125280 -0.023830 
#    y -0.125280 2.163270 -0.022850 
#    z -0.023830 -0.022850 2.210440 
# 
# From -- ./inp_files/511105.got.cif
#   From: 2010.05.17/outbox.cif.g08.bks.cpg/sg2_256_cif.got.tgz:511105.got - 2010.06.03 11:33:40.
