data_PCOD9026646
_publ_section_title
;
Structure prediction by ZEFSAII (Michael W. Deem and Ramdas Pophale) SiO2 
 PCOD9026646
Probable space group: P -1
;
_chemical_formula_sum "Si O2"
_cell_formula_units_Z 16
_cell_length_a 11.793925
_cell_length_b 14.507587
_cell_length_c 9.262152
_cell_angle_alpha 95.468337
_cell_angle_beta 38.310951
_cell_angle_gamma 118.164027
_cell_volume 748.432922
_symmetry_space_group_name_H-M "P -1"
_symmetry_group_IT_number 2
_symmetry_cell_setting 'triclinic'
loop_
_space_group_symop_operation_xyz
x,y,z
-x,-y,-z
loop_
_atom_site_type_symbol
_atom_site_label
_atom_site_fract_x
_atom_site_fract_y
_atom_site_fract_z
Si Si1 0.043204 0.162500 0.216231
Si Si2 0.814009 0.582245 0.344140
Si Si3 0.462712 0.881592 0.967903
Si Si4 0.357704 0.749756 0.762676
Si Si5 0.619826 0.678079 0.354200
Si Si6 0.576588 0.103540 0.548952
Si Si7 0.057466 0.250730 0.509838
Si Si8 0.154573 0.005761 0.180590
O O1 0.001440 0.042126 0.283124
O O2 0.802288 0.138314 0.415245
O O3 0.153188 0.248278 0.260254
O O4 0.212635 0.220967 0.917163
O O5 0.761328 0.639342 0.278803
O O6 0.618088 0.439368 0.500887
O O7 0.791609 0.632816 0.522407
O O8 0.086304 0.637379 0.061244
O O9 0.448526 0.851703 0.808851
O O10 0.681826 0.905594 0.835084
O O11 0.192129 0.775415 0.273464
O O12 0.500000 0.000000 0.000000
O O13 0.533091 0.719933 0.570918
O O14 0.356941 0.790786 0.607913
O O15 0.500000 0.000000 0.500000
O O16 0.352492 0.050126 0.867315
O O17 0.978429 0.132333 0.661726
#
# Coordination Sequence:
#
# PCOD9026646 Si02
#       8
#     2   2   2   2   2   2   2   2
#     4  12  25  40  63  96 131 164 211 262 315 381
#     4  10  23  44  66  90 127 167 219 266 313 374
#     4   9  19  38  64  89 125 168 203 253 310 378
#     4  11  22  41  68  92 126 168 216 255 322 378
#     4  11  24  42  65  95 125 167 216 270 317 366
#     4  12  24  39  62  92 134 168 201 258 318 380
#     4  10  22  41  65  89 126 173 209 255 318 375
#     4  11  23  41  61  95 131 164 210 252 313 391
#
# _framework density 21.378001000000001
#
# number of rings (size 3 to 8) (size 9 to 14) (size 15 to 20)
#    0.000    1.250    3.750    3.000    3.500    2.000 
#    0.000    0.000    0.000    2.250    0.000    0.000 
#    0.000    0.000    0.000    0.000    0.000    0.000 
#
# Total GULP energy -89384.040284 kJ/mol
# GULP energy per Si atom -5586.502518 kJ/mol
# Density = 2.132934 g / cm^3
# Si number density = 21.378001 Si / 1000 Ang^3
#
#
#
# Elastic Constant Matrix: (Units=GPa)
#
#
# Indices 1 2 3 4 5 6 
#
# 1 66.8666 10.2610 12.5944 4.5076 3.1344 4.4822
# 2 10.2610 62.1475 14.6019 16.8106 4.3511 20.3410
# 3 12.5944 14.6019 92.1340 29.0038 3.9549 8.3160
# 4 4.5076 16.8106 29.0038 27.7058 6.6830 2.9958
# 5 3.1344 4.3511 3.9549 6.6830 22.3136 8.6023
# 6 4.4822 20.3410 8.3160 2.9958 8.6023 37.7420
#
#
#
# Elastic Compliance Matrix: (Units=1/GPa)
#
#
# Indices 1 2 3 4 5 6 
#
# 1 0.015716 -0.002495 -0.002244 0.001748 -0.001954 0.000279
# 2 -0.002495 0.024535 0.002901 -0.017377 0.005432 -0.013425
# 3 -0.002244 0.002901 0.017212 -0.019993 0.004426 -0.004511
# 4 0.001748 -0.017377 -0.019993 0.070582 -0.019210 0.012339
# 5 -0.001954 0.005432 0.004426 -0.019210 0.054627 -0.014597
# 6 0.000279 -0.013425 -0.004511 0.012339 -0.014597 0.037039
#
#
# Mechanical properties :
#
#
# Convention : Reuss Voigt Hill
#
# Bulk Modulus (GPa) = 18.59189 32.89586 25.74387
# Shear Modulus (GPa) = 20.71972 29.79834 25.25903
#
# Velocity S-wave (km/s) = 3.11659 3.73752 3.44109
# Velocity P-wave (km/s) = 4.65472 5.83494 5.27792
#
# Compressibility (1/GPa) = 0.05378691
#
# Stress axis : x y z
#
# Youngs Moduli (GPa) = 63.63025 40.75811 58.09952
#
# Poissons Ratio (x) = 0.10168 0.13040
# Poissons Ratio (y) = 0.15875 -0.16857
# Poissons Ratio (z) = 0.14281 -0.11825
#
# Static dielectric constant tensor:
#      x y z
#    x 1.861230 -0.009390 -0.021090 
#    y -0.009390 1.762330 0.024370 
#    z -0.021090 0.024370 1.801900 
# 
# From -- ./inp_files/273300.got.cif
#   From: 2010.05.17/outbox.cif.g08.bks.cpg/sg2_137_cif.got.tgz:273300.got - 2010.06.03 11:33:40.
