data_PCOD9026201
_publ_section_title
;
Structure prediction by ZEFSAII (Michael W. Deem and Ramdas Pophale) SiO2 
 PCOD9026201
Probable space group: P -1
;
_chemical_formula_sum "Si O2"
_cell_formula_units_Z 12
_cell_length_a 9.935738
_cell_length_b 9.960222
_cell_length_c 10.970776
_cell_angle_alpha 74.559029
_cell_angle_beta 26.244119
_cell_angle_gamma 71.620953
_cell_volume 455.245846
_symmetry_space_group_name_H-M "P -1"
_symmetry_group_IT_number 2
_symmetry_cell_setting 'triclinic'
loop_
_space_group_symop_operation_xyz
x,y,z
-x,-y,-z
loop_
_atom_site_type_symbol
_atom_site_label
_atom_site_fract_x
_atom_site_fract_y
_atom_site_fract_z
Si Si1 0.205907 0.652807 0.047850
Si Si2 0.577193 0.363437 0.746301
Si Si3 0.930930 0.087382 0.232481
Si Si4 0.735766 0.823415 0.546611
Si Si5 0.308511 0.268090 0.745282
Si Si6 0.800653 0.813825 0.769655
O O1 0.450674 0.508470 0.881096
O O2 0.411049 0.770608 0.817370
O O3 0.013705 0.694597 0.317436
O O4 0.938630 0.650006 0.165848
O O5 0.374057 0.354159 0.791092
O O6 0.933181 0.326490 0.427400
O O7 0.502485 0.234901 0.920309
O O8 0.076621 0.095420 0.247197
O O9 0.800785 0.942740 0.370793
O O10 0.359416 0.784684 0.571445
O O11 0.183200 0.127340 0.926246
O O12 0.748781 0.874871 0.662706
#
# Coordination Sequence:
#
# PCOD9026201 Si02
#       6
#     2   2   2   2   2   2
#     4  12  25  38  59  90 122 154 188 238 297 348
#     4  10  22  41  63  85 114 155 199 240 283 340
#     4  10  22  41  63  85 114 155 199 240 283 340
#     4  12  25  38  59  90 122 154 188 238 297 348
#     4  10  22  41  63  85 114 155 199 240 283 340
#     4  10  22  41  63  85 114 155 199 240 283 340
#
# _framework density 26.359383999999999
#
# number of rings (size 3 to 8) (size 9 to 14) (size 15 to 20)
#    0.000    1.333    0.000    5.000    0.000    8.000 
#    0.000   13.333    0.000    0.000    0.000    0.000 
#    0.000    0.000    0.000    0.000    0.000    0.000 
#
# Total GULP energy -67274.929472 kJ/mol
# GULP energy per Si atom -5606.244123 kJ/mol
# Density = 2.629939 g / cm^3
# Si number density = 26.359384 Si / 1000 Ang^3
#
#
#
# Elastic Constant Matrix: (Units=GPa)
#
#
# Indices 1 2 3 4 5 6 
#
# 1 97.6216 -12.0492 14.7159 2.3226 7.8374 13.7709
# 2 -12.0492 44.4818 8.4501 11.0817 -3.6457 -3.8751
# 3 14.7159 8.4501 117.8113 14.8129 -4.8250 21.5732
# 4 2.3226 11.0817 14.8129 18.0700 -5.8714 -8.1598
# 5 7.8374 -3.6457 -4.8250 -5.8714 38.2805 3.1360
# 6 13.7709 -3.8751 21.5732 -8.1598 3.1360 15.6738
#
#
#
# Elastic Compliance Matrix: (Units=1/GPa)
#
#
# Indices 1 2 3 4 5 6 
#
# 1 0.017388 0.007784 0.010406 -0.037718 -0.003473 -0.046616
# 2 0.007784 0.030294 0.006926 -0.038695 -0.001416 -0.028743
# 3 0.010406 0.006926 0.032055 -0.072471 -0.001253 -0.089028
# 4 -0.037718 -0.038695 -0.072471 0.264572 0.014331 0.258188
# 5 -0.003473 -0.001416 -0.001253 0.014331 0.028228 0.006238
# 6 -0.046616 -0.028743 -0.089028 0.258188 0.006238 0.353354
#
#
# Mechanical properties :
#
#
# Convention : Reuss Voigt Hill
#
# Bulk Modulus (GPa) = 7.69419 31.34978 19.52198
# Shear Modulus (GPa) = 6.95428 30.99137 18.97283
#
# Velocity S-wave (km/s) = 1.62603 3.43260 2.68577
# Velocity P-wave (km/s) = 2.53980 5.25637 4.12795
#
# Compressibility (1/GPa) = 0.12996826
#
# Stress axis : x y z
#
# Youngs Moduli (GPa) = 57.51162 33.00965 31.19653
#
# Poissons Ratio (x) = -0.25695 -0.32463
# Poissons Ratio (y) = -0.44768 -0.21605
# Poissons Ratio (z) = -0.59847 -0.22861
#
# Static dielectric constant tensor:
#      x y z
#    x 2.060670 -0.012720 0.002170 
#    y -0.012720 2.059840 0.011190 
#    z 0.002170 0.011190 1.940190 
# 
# From -- ./inp_files/528543.got.cif
#   From: 2010.05.17/outbox.cif.g08.bks.cpg/sg2_265_cif.got.tgz:528543.got - 2010.06.03 11:33:40.
