data_PCOD9026182
_publ_section_title
;
Structure prediction by ZEFSAII (Michael W. Deem and Ramdas Pophale) SiO2 
 PCOD9026182
Probable space group: P -1
;
_chemical_formula_sum "Si O2"
_cell_formula_units_Z 16
_cell_length_a 15.125616
_cell_length_b 7.914779
_cell_length_c 7.968353
_cell_angle_alpha 123.740398
_cell_angle_beta 97.861875
_cell_angle_gamma 111.731850
_cell_volume 660.515576
_symmetry_space_group_name_H-M "P -1"
_symmetry_group_IT_number 2
_symmetry_cell_setting 'triclinic'
loop_
_space_group_symop_operation_xyz
x,y,z
-x,-y,-z
loop_
_atom_site_type_symbol
_atom_site_label
_atom_site_fract_x
_atom_site_fract_y
_atom_site_fract_z
Si Si1 0.025556 0.816798 0.989137
Si Si2 0.892015 0.310607 0.531568
Si Si3 0.775225 0.063175 0.712870
Si Si4 0.091059 0.113426 0.725761
Si Si5 0.492161 0.147260 0.919946
Si Si6 0.298865 0.659064 0.510089
Si Si7 0.709675 0.417659 0.928843
Si Si8 0.421702 0.451247 0.604237
O O1 0.993816 0.568338 0.753037
O O2 0.146033 0.966139 0.165411
O O3 0.946203 0.747077 0.088547
O O4 0.000000 0.000000 0.000000
O O5 0.835017 0.167945 0.610349
O O6 0.810231 0.375880 0.473336
O O7 0.909240 0.119562 0.334895
O O8 0.759408 0.262197 0.900667
O O9 0.659076 0.826785 0.529978
O O10 0.212832 0.317043 0.827035
O O11 0.000000 0.000000 0.500000
O O12 0.591832 0.262849 0.885674
O O13 0.385248 0.946867 0.692148
O O14 0.502550 0.380823 0.134219
O O15 0.500000 0.000000 0.000000
O O16 0.289350 0.566134 0.265407
O O17 0.344590 0.539805 0.574058
O O18 0.500000 0.500000 0.500000
#
# Coordination Sequence:
#
# PCOD9026182 Si02
#       8
#     2   2   2   2   2   2   2   2
#     4  12  25  45  67 101 139 173 227 284 337 401
#     4  11  23  44  68 101 133 179 227 272 340 403
#     4  11  21  40  70  93 134 179 220 279 339 396
#     4  12  24  43  71  98 137 181 227 275 339 412
#     4  10  22  41  62  99 133 171 225 276 334 409
#     4  10  22  43  66  94 140 173 229 283 332 407
#     4  11  23  43  70  99 131 184 227 278 343 401
#     4  11  24  43  67 100 136 180 222 282 347 402
#
# _framework density 24.223500999999999
#
# number of rings (size 3 to 8) (size 9 to 14) (size 15 to 20)
#    0.000    1.000    3.750    4.500    0.000    2.500 
#    4.500    3.750    0.000    0.000    0.000    0.000 
#    0.000    0.000    0.000    0.000    0.000    0.000 
#
# Total GULP energy -89475.292378 kJ/mol
# GULP energy per Si atom -5592.205774 kJ/mol
# Density = 2.416837 g / cm^3
# Si number density = 24.223501 Si / 1000 Ang^3
#
#
#
# Elastic Constant Matrix: (Units=GPa)
#
#
# Indices 1 2 3 4 5 6 
#
# 1 45.2229 -7.7767 9.6939 1.1055 -12.8579 -2.1600
# 2 -7.7767 73.6121 27.7902 23.6137 5.5194 3.3470
# 3 9.6939 27.7902 119.4347 40.8497 8.9289 6.8196
# 4 1.1055 23.6137 40.8497 37.9191 -2.4404 9.4196
# 5 -12.8579 5.5194 8.9289 -2.4404 38.4637 8.9216
# 6 -2.1600 3.3470 6.8196 9.4196 8.9216 41.7333
#
#
#
# Elastic Compliance Matrix: (Units=1/GPa)
#
#
# Indices 1 2 3 4 5 6 
#
# 1 0.026253 0.002732 -0.004604 0.003375 0.009896 -0.000985
# 2 0.002732 0.017792 -0.000359 -0.011430 -0.002731 0.001937
# 3 -0.004604 -0.000359 0.014912 -0.016766 -0.006605 0.002550
# 4 0.003375 -0.011430 -0.016766 0.055092 0.012785 -0.011337
# 5 0.009896 -0.002731 -0.006605 0.012785 0.033977 -0.008339
# 6 -0.000985 0.001937 0.002550 -0.011337 -0.008339 0.027680
#
#
# Mechanical properties :
#
#
# Convention : Reuss Voigt Hill
#
# Bulk Modulus (GPa) = 18.35023 33.07605 25.71314
# Shear Modulus (GPa) = 25.20993 37.52738 31.36866
#
# Velocity S-wave (km/s) = 3.22952 3.94028 3.60247
# Velocity P-wave (km/s) = 4.63662 5.86389 5.28599
#
# Compressibility (1/GPa) = 0.05449522
#
# Stress axis : x y z
#
# Youngs Moduli (GPa) = 38.09021 56.20509 67.05810
#
# Poissons Ratio (x) = -0.15355 0.30877
# Poissons Ratio (y) = -0.10406 0.02406
# Poissons Ratio (z) = 0.17539 0.02016
#
# Static dielectric constant tensor:
#      x y z
#    x 1.947720 0.005860 -0.047540 
#    y 0.005860 1.926810 -0.034300 
#    z -0.047540 -0.034300 1.953760 
# 
# From -- ./inp_files/297534.got.cif
#   From: 2010.05.17/outbox.cif.g08.bks.cpg/sg2_149_cif.got.tgz:297534.got - 2010.06.03 11:33:40.
