data_PCOD9026347
_publ_section_title
;
Structure prediction by ZEFSAII (Michael W. Deem and Ramdas Pophale) SiO2 
 PCOD9026347
Probable space group: P -1
;
_chemical_formula_sum "Si O2"
_cell_formula_units_Z 16
_cell_length_a 16.629792
_cell_length_b 8.878781
_cell_length_c 11.671553
_cell_angle_alpha 66.028556
_cell_angle_beta 149.969020
_cell_angle_gamma 103.989829
_cell_volume 764.947759
_symmetry_space_group_name_H-M "P -1"
_symmetry_group_IT_number 2
_symmetry_cell_setting 'triclinic'
loop_
_space_group_symop_operation_xyz
x,y,z
-x,-y,-z
loop_
_atom_site_type_symbol
_atom_site_label
_atom_site_fract_x
_atom_site_fract_y
_atom_site_fract_z
Si Si1 0.592263 0.072513 0.488495
Si Si2 0.167569 0.538942 0.347851
Si Si3 0.651987 0.089612 0.151252
Si Si4 0.326061 0.662070 0.096728
Si Si5 0.076881 0.133421 0.126502
Si Si6 0.593766 0.368669 0.538906
Si Si7 0.948387 0.798115 0.658499
Si Si8 0.598624 0.323327 0.231991
O O1 0.674795 0.195477 0.628342
O O2 0.513102 0.207621 0.247792
O O3 0.500000 0.000000 0.500000
O O4 0.727338 0.927394 0.637779
O O5 0.282635 0.517230 0.382592
O O6 0.136214 0.359713 0.395706
O O7 0.262900 0.616845 0.540355
O O8 0.999717 0.677594 0.071588
O O9 0.663637 0.196976 0.246865
O O10 0.824643 0.950455 0.392861
O O11 0.621103 0.221112 0.968511
O O12 0.500000 0.000000 0.000000
O O13 0.412264 0.463819 0.239332
O O14 0.406903 0.673592 0.316715
O O15 0.130226 0.725935 0.852814
O O16 0.041232 0.139242 0.216715
O O17 0.000000 0.000000 0.000000
O O18 0.500000 0.500000 0.000000
#
# Coordination Sequence:
#
# PCOD9026347 Si02
#       8
#     2   2   2   2   2   2   2   2
#     4  11  24  39  68  99 129 171 232 278 333 391
#     4  11  23  43  69  99 130 182 222 275 344 404
#     4  12  25  44  69  95 134 185 226 272 341 415
#     4  11  24  40  66  98 139 171 229 277 334 395
#     4  12  21  43  67  98 133 172 219 281 341 393
#     4  10  22  41  63  98 136 175 218 285 331 400
#     4  12  24  42  68 101 135 177 227 277 337 406
#     4  11  23  46  68  94 139 180 223 273 343 409
#
# _framework density 20.916461000000002
#
# number of rings (size 3 to 8) (size 9 to 14) (size 15 to 20)
#    0.000    0.750    5.000    3.750    3.500    1.000 
#    0.000    0.625    0.000    0.000    0.000    0.000 
#    0.000    0.000    0.000    0.000    0.000    0.000 
#
# Total GULP energy -89223.518693 kJ/mol
# GULP energy per Si atom -5576.469918 kJ/mol
# Density = 2.086885 g / cm^3
# Si number density = 20.916461 Si / 1000 Ang^3
#
#
#
# Elastic Constant Matrix: (Units=GPa)
#
#
# Indices 1 2 3 4 5 6 
#
# 1 132.1954 40.6448 39.7236 -8.7405 -7.1059 11.1855
# 2 40.6448 79.8246 31.6485 -6.2827 -6.7993 -1.8149
# 3 39.7236 31.6485 112.5321 -29.3983 -6.8165 4.2257
# 4 -8.7405 -6.2827 -29.3983 38.8896 -0.2661 1.4348
# 5 -7.1059 -6.7993 -6.8165 -0.2661 41.7935 -12.3786
# 6 11.1855 -1.8149 4.2257 1.4348 -12.3786 36.8669
#
#
#
# Elastic Compliance Matrix: (Units=1/GPa)
#
#
# Indices 1 2 3 4 5 6 
#
# 1 0.009744 -0.004195 -0.002168 -0.000018 -0.000269 -0.003004
# 2 -0.004195 0.016168 -0.003288 -0.000921 0.002343 0.003268
# 3 -0.002168 -0.003288 0.012982 0.008839 0.000971 -0.001010
# 4 -0.000018 -0.000921 0.008839 0.032324 0.000900 -0.002009
# 5 -0.000269 0.002343 0.000971 0.000900 0.027141 0.009164
# 6 -0.003004 0.003268 -0.001010 -0.002009 0.009164 0.031468
#
#
# Mechanical properties :
#
#
# Convention : Reuss Voigt Hill
#
# Bulk Modulus (GPa) = 51.03630 60.95398 55.99514
# Shear Modulus (GPa) = 32.12150 37.67901 34.90025
#
# Velocity S-wave (km/s) = 3.92306 4.24890 4.08923
# Velocity P-wave (km/s) = 6.70623 7.29902 7.00890
#
# Compressibility (1/GPa) = 0.01959390
#
# Stress axis : x y z
#
# Youngs Moduli (GPa) = 102.62433 61.84991 77.02788
#
# Poissons Ratio (x) = 0.25943 0.16701
# Poissons Ratio (y) = 0.43046 0.25325
# Poissons Ratio (z) = 0.22250 0.20335
#
# Static dielectric constant tensor:
#      x y z
#    x 1.844410 -0.013160 0.029100 
#    y -0.013160 1.791760 -0.001250 
#    z 0.029100 -0.001250 1.793230 
# 
# From -- ./inp_files/462066.got.cif
#   From: 2010.05.17/outbox.cif.g08.bks.cpg/sg2_232_cif.got.tgz:462066.got - 2010.06.03 11:33:40.
