data_PCOD9026258
_publ_section_title
;
Structure prediction by ZEFSAII (Michael W. Deem and Ramdas Pophale) SiO2 
 PCOD9026258
Probable space group: P -1
;
_chemical_formula_sum "Si O2"
_cell_formula_units_Z 16
_cell_length_a 5.106417
_cell_length_b 5.804794
_cell_length_c 26.615280
_cell_angle_alpha 78.432708
_cell_angle_beta 127.474030
_cell_angle_gamma 96.619291
_cell_volume 613.372271
_symmetry_space_group_name_H-M "P -1"
_symmetry_group_IT_number 2
_symmetry_cell_setting 'triclinic'
loop_
_space_group_symop_operation_xyz
x,y,z
-x,-y,-z
loop_
_atom_site_type_symbol
_atom_site_label
_atom_site_fract_x
_atom_site_fract_y
_atom_site_fract_z
Si Si1 0.926556 0.349892 0.836926
Si Si2 0.968934 0.897670 0.239514
Si Si3 0.342226 0.657767 0.931657
Si Si4 0.700873 0.466198 0.283864
Si Si5 0.301496 0.064031 0.116963
Si Si6 0.722076 0.801273 0.478348
Si Si7 0.761635 0.901288 0.638836
Si Si8 0.798848 0.494553 0.401649
O O1 0.670414 0.543320 0.777613
O O2 0.920786 0.148376 0.802418
O O3 0.255949 0.482414 0.883234
O O4 0.813042 0.206672 0.879149
O O5 0.874194 0.633657 0.256872
O O6 0.639826 0.059132 0.189893
O O7 0.204939 0.987740 0.306758
O O8 0.581943 0.853733 0.927981
O O9 0.000004 0.773614 0.906378
O O10 0.500000 0.500000 0.000000
O O11 0.742280 0.600833 0.335798
O O12 0.890495 0.223877 0.324822
O O13 0.754703 0.663111 0.435981
O O14 0.840772 0.628994 0.544075
O O15 0.364502 0.922945 0.427317
O O16 0.000000 0.000000 0.500000
O O17 0.485967 0.700363 0.618372
#
# Coordination Sequence:
#
# PCOD9026258 Si02
#       8
#     2   2   2   2   2   2   2   2
#     4  11  26  47  73 104 153 189 248 304 369 439
#     4  11  25  44  67 103 138 186 236 301 364 432
#     4  12  28  49  78 113 150 198 249 300 367 441
#     4  11  24  38  66 100 131 181 236 298 365 433
#     4  11  26  48  75 110 149 197 243 304 369 434
#     4   9  20  40  62  88 132 179 231 296 362 432
#     4  11  22  39  64  93 133 175 235 296 363 434
#     4  10  22  41  63  91 129 181 234 296 359 438
#
# _framework density 26.085301000000001
#
# number of rings (size 3 to 8) (size 9 to 14) (size 15 to 20)
#    0.000    1.250    1.250    3.375    7.000    5.500 
#    0.000    8.750    0.000    0.000    0.000    0.000 
#    0.000    0.000    0.000    0.000    0.000    0.000 
#
# Total GULP energy -89626.453593 kJ/mol
# GULP energy per Si atom -5601.653350 kJ/mol
# Density = 2.602593 g / cm^3
# Si number density = 26.085301 Si / 1000 Ang^3
#
#
#
# Elastic Constant Matrix: (Units=GPa)
#
#
# Indices 1 2 3 4 5 6 
#
# 1 90.7868 18.1802 28.3131 -17.4597 -6.9784 -10.8557
# 2 18.1802 73.2109 40.4264 -10.7514 15.3897 -19.9319
# 3 28.3131 40.4264 139.6838 -41.7807 11.1411 -15.4787
# 4 -17.4597 -10.7514 -41.7807 52.7756 2.0216 4.3286
# 5 -6.9784 15.3897 11.1411 2.0216 35.8805 -11.8596
# 6 -10.8557 -19.9319 -15.4787 4.3286 -11.8596 41.8251
#
#
#
# Elastic Compliance Matrix: (Units=1/GPa)
#
#
# Indices 1 2 3 4 5 6 
#
# 1 0.013074 -0.002399 -0.001306 0.002382 0.004795 0.002879
# 2 -0.002399 0.019120 -0.004118 -0.000390 -0.005574 0.005425
# 3 -0.001306 -0.004118 0.011102 0.007571 -0.002232 0.000390
# 4 0.002382 -0.000390 0.007571 0.025807 -0.003297 -0.000372
# 5 0.004795 -0.005574 -0.002232 -0.003297 0.034698 0.007942
# 6 0.002879 0.005425 0.000390 -0.000372 0.007942 0.029677
#
#
# Mechanical properties :
#
#
# Convention : Reuss Voigt Hill
#
# Bulk Modulus (GPa) = 36.16965 53.05787 44.61376
# Shear Modulus (GPa) = 31.57733 40.54703 36.06218
#
# Velocity S-wave (km/s) = 3.48306 3.94687 3.72219
# Velocity P-wave (km/s) = 5.48376 6.41519 5.96767
#
# Compressibility (1/GPa) = 0.02764749
#
# Stress axis : x y z
#
# Youngs Moduli (GPa) = 76.48923 52.29995 90.07683
#
# Poissons Ratio (x) = 0.12549 0.11767
# Poissons Ratio (y) = 0.18353 0.37098
# Poissons Ratio (z) = 0.09992 0.21540
#
# Static dielectric constant tensor:
#      x y z
#    x 2.111080 -0.027070 -0.003800 
#    y -0.027070 2.095390 -0.025990 
#    z -0.003800 -0.025990 1.990120 
# 
# From -- ./inp_files/114681.got.cif
#   From: 2010.05.17/outbox.cif.g08.bks.cpg/sg2_58_cif.got.tgz:114681.got - 2010.06.03 11:33:40.
