data_PCOD9026328
_publ_section_title
;
Structure prediction by ZEFSAII (Michael W. Deem and Ramdas Pophale) SiO2 
 PCOD9026328
Probable space group: P -1
;
_chemical_formula_sum "Si O2"
_cell_formula_units_Z 14
_cell_length_a 11.652835
_cell_length_b 5.262811
_cell_length_c 21.503704
_cell_angle_alpha 56.433878
_cell_angle_beta 150.615525
_cell_angle_gamma 122.652825
_cell_volume 533.757004
_symmetry_space_group_name_H-M "P -1"
_symmetry_group_IT_number 2
_symmetry_cell_setting 'triclinic'
loop_
_space_group_symop_operation_xyz
x,y,z
-x,-y,-z
loop_
_atom_site_type_symbol
_atom_site_label
_atom_site_fract_x
_atom_site_fract_y
_atom_site_fract_z
Si Si1 0.751298 0.791030 0.561702
Si Si2 0.280061 0.901462 0.323826
Si Si3 0.892901 0.829599 0.255591
Si Si4 0.854094 0.680205 0.491760
Si Si5 0.572682 0.567372 0.901249
Si Si6 0.459609 0.698663 0.216043
Si Si7 0.920371 0.229969 0.880077
O O1 0.554218 0.009363 0.457358
O O2 0.705150 0.742731 0.473670
O O3 0.718075 0.468531 0.624586
O O4 0.026747 0.912954 0.689174
O O5 0.202885 0.957883 0.210156
O O6 0.075174 0.940657 0.270980
O O7 0.629747 0.689694 0.131080
O O8 0.978798 0.547000 0.371809
O O9 0.694869 0.589048 0.369222
O O10 0.000000 0.000000 0.500000
O O11 0.593349 0.450388 0.855794
O O12 0.517267 0.923315 0.828886
O O13 0.834157 0.574359 0.052549
O O14 0.262798 0.604352 0.189364
O O15 0.000000 0.000000 0.000000
#
# Coordination Sequence:
#
# PCOD9026328 Si02
#       7
#     2   2   2   2   2   2   2
#     4  10  22  41  63  96 134 176 221 279 336 406
#     4  10  22  44  64  95 133 174 232 270 343 402
#     4  11  24  38  66  99 137 178 221 278 344 405
#     4  11  21  36  65  98 135 171 220 281 340 393
#     4  11  25  43  67  99 139 177 225 280 336 404
#     4  11  23  43  67 101 136 175 230 280 337 397
#     4  10  23  46  71  96 132 178 230 281 334 402
#
# _framework density 26.229164000000001
#
# number of rings (size 3 to 8) (size 9 to 14) (size 15 to 20)
#    0.000    1.429    2.857    1.714    4.000    1.714 
#   10.286    0.714    0.000    0.000    0.000    0.000 
#    0.000    0.000    0.000    0.000    0.000    0.000 
#
# Total GULP energy -78260.755655 kJ/mol
# GULP energy per Si atom -5590.053975 kJ/mol
# Density = 2.616947 g / cm^3
# Si number density = 26.229164 Si / 1000 Ang^3
#
#
#
# Elastic Constant Matrix: (Units=GPa)
#
#
# Indices 1 2 3 4 5 6 
#
# 1 97.6912 9.7380 1.1157 2.7134 -5.3171 -2.4794
# 2 9.7380 96.2883 10.1343 12.3502 -3.3791 -1.6993
# 3 1.1157 10.1343 79.6497 11.4428 2.2766 0.6638
# 4 2.7134 12.3502 11.4428 34.4842 12.3747 -0.0533
# 5 -5.3171 -3.3791 2.2766 12.3747 47.0027 14.4251
# 6 -2.4794 -1.6993 0.6638 -0.0533 14.4251 38.5024
#
#
#
# Elastic Compliance Matrix: (Units=1/GPa)
#
#
# Indices 1 2 3 4 5 6 
#
# 1 0.010428 -0.000884 0.000072 -0.001008 0.001339 0.000128
# 2 -0.000884 0.011188 -0.000837 -0.004374 0.001988 -0.000300
# 3 0.000072 -0.000837 0.013269 -0.004322 0.000593 -0.000489
# 4 -0.001008 -0.004374 -0.004322 0.036000 -0.010911 0.003954
# 5 0.001339 0.001988 0.000593 -0.010911 0.027534 -0.010167
# 6 0.000128 -0.000300 -0.000489 0.003954 -0.010167 0.029790
#
#
# Mechanical properties :
#
#
# Convention : Reuss Voigt Hill
#
# Bulk Modulus (GPa) = 31.65878 35.06726 33.36302
# Shear Modulus (GPa) = 35.20232 40.84059 38.02146
#
# Velocity S-wave (km/s) = 3.66745 3.95025 3.81147
# Velocity P-wave (km/s) = 5.47995 5.84847 5.66721
#
# Compressibility (1/GPa) = 0.03158681
#
# Stress axis : x y z
#
# Youngs Moduli (GPa) = 95.89835 89.37799 75.36595
#
# Poissons Ratio (x) = 0.07898 -0.00541
# Poissons Ratio (y) = 0.08474 0.06310
# Poissons Ratio (z) = -0.00689 0.07483
#
# Static dielectric constant tensor:
#      x y z
#    x 2.130310 0.004910 0.147080 
#    y 0.004910 2.171040 -0.021620 
#    z 0.147080 -0.021620 2.012000 
# 
# From -- ./inp_files/592489.got.cif
#   From: 2010.05.17/outbox.cif.g08.bks.cpg/sg2_297_cif.got.tgz:592489.got - 2010.06.03 11:33:40.
