data_PCOD9026070
_publ_section_title
;
Structure prediction by ZEFSAII (Michael W. Deem and Ramdas Pophale) SiO2 
 PCOD9026070
Probable space group: P -1
;
_chemical_formula_sum "Si O2"
_cell_formula_units_Z 16
_cell_length_a 12.072181
_cell_length_b 12.551713
_cell_length_c 20.983415
_cell_angle_alpha 26.708435
_cell_angle_beta 28.999996
_cell_angle_gamma 35.761775
_cell_volume 686.151187
_symmetry_space_group_name_H-M "P -1"
_symmetry_group_IT_number 2
_symmetry_cell_setting 'triclinic'
loop_
_space_group_symop_operation_xyz
x,y,z
-x,-y,-z
loop_
_atom_site_type_symbol
_atom_site_label
_atom_site_fract_x
_atom_site_fract_y
_atom_site_fract_z
Si Si1 0.876936 0.279343 0.702109
Si Si2 0.992723 0.477496 0.796058
Si Si3 0.602991 0.279341 0.165874
Si Si4 0.364269 0.491096 0.838954
Si Si5 0.836112 0.896175 0.565137
Si Si6 0.868610 0.757182 0.279405
Si Si7 0.012804 0.859869 0.761719
Si Si8 0.429467 0.588184 0.559218
O O1 0.610257 0.337691 0.786206
O O2 0.000000 0.500000 0.500000
O O3 0.926885 0.270387 0.757321
O O4 0.987062 0.040417 0.737861
O O5 0.973516 0.739627 0.633765
O O6 0.047999 0.292146 0.808794
O O7 0.202115 0.454855 0.754371
O O8 0.747960 0.458166 0.960846
O O9 0.609127 0.342106 0.202985
O O10 0.339600 0.277049 0.280580
O O11 0.742498 0.022062 0.215730
O O12 0.253128 0.677863 0.741617
O O13 0.184477 0.308982 0.043334
O O14 0.989019 0.984417 0.384491
O O15 0.668764 0.132112 0.543476
O O16 0.668807 0.580946 0.481924
O O17 0.500000 0.500000 0.500000
#
# Coordination Sequence:
#
# PCOD9026070 Si02
#       8
#     2   2   2   2   2   2   2   2
#     4  12  25  43  71 104 136 178 231 280 338 411
#     4  11  21  40  64  98 131 175 228 274 341 402
#     4  11  22  40  65  95 135 180 219 279 340 401
#     4  11  25  44  71  99 138 182 227 280 343 404
#     4  11  23  40  68  96 133 176 226 277 339 404
#     4  10  22  41  61  97 132 177 224 272 341 401
#     4  11  25  47  68 102 141 179 227 284 339 403
#     4   9  21  39  62  89 132 173 218 273 336 401
#
# _framework density 23.318476
#
# number of rings (size 3 to 8) (size 9 to 14) (size 15 to 20)
#    0.000    1.250    1.250    4.500    3.500    1.000 
#    0.000    5.000    0.000    0.000    0.000    0.000 
#    0.000    0.000    0.000    0.000    0.000    0.000 
#
# Total GULP energy -89411.915221 kJ/mol
# GULP energy per Si atom -5588.244701 kJ/mol
# Density = 2.326540 g / cm^3
# Si number density = 23.318476 Si / 1000 Ang^3
#
#
#
# Elastic Constant Matrix: (Units=GPa)
#
#
# Indices 1 2 3 4 5 6 
#
# 1 77.3337 5.3485 12.1959 -1.8829 -11.7521 -3.9556
# 2 5.3485 93.1260 -13.6348 -7.7866 -1.1709 5.8986
# 3 12.1959 -13.6348 77.6049 6.7718 -11.2648 -17.3890
# 4 -1.8829 -7.7866 6.7718 21.9945 3.1715 -8.2543
# 5 -11.7521 -1.1709 -11.2648 3.1715 32.5410 1.6233
# 6 -3.9556 5.8986 -17.3890 -8.2543 1.6233 40.7312
#
#
#
# Elastic Compliance Matrix: (Units=1/GPa)
#
#
# Indices 1 2 3 4 5 6 
#
# 1 0.013978 -0.000954 -0.001645 0.001059 0.004299 0.000837
# 2 -0.000954 0.011357 0.001856 0.003190 0.000411 -0.000315
# 3 -0.001645 0.001856 0.015666 -0.002965 0.004912 0.005463
# 4 0.001059 0.003190 -0.002965 0.051898 -0.006043 0.009133
# 5 0.004299 0.000411 0.004912 -0.006043 0.034595 -0.000148
# 6 0.000837 -0.000315 0.005463 0.009133 -0.000148 0.028867
#
#
# Mechanical properties :
#
#
# Convention : Reuss Voigt Hill
#
# Bulk Modulus (GPa) = 25.30707 28.43152 26.86930
# Shear Modulus (GPa) = 29.23650 35.33033 32.28341
#
# Velocity S-wave (km/s) = 3.54473 3.89668 3.72487
# Velocity P-wave (km/s) = 5.25641 5.69778 5.48154
#
# Compressibility (1/GPa) = 0.03951465
#
# Stress axis : x y z
#
# Youngs Moduli (GPa) = 71.53905 88.05516 63.83109
#
# Poissons Ratio (x) = 0.08401 0.10502
# Poissons Ratio (y) = 0.06825 -0.11847
# Poissons Ratio (z) = 0.11770 -0.16343
#
# Static dielectric constant tensor:
#      x y z
#    x 1.942010 -0.014230 -0.024680 
#    y -0.014230 1.861120 0.019160 
#    z -0.024680 0.019160 1.904070 
# 
# From -- ./inp_files/471246.got.cif
#   From: 2010.05.17/outbox.cif.g08.bks.cpg/sg2_236_cif.got.tgz:471246.got - 2010.06.03 11:33:40.
