data_PCOD9026154
_publ_section_title
;
Structure prediction by ZEFSAII (Michael W. Deem and Ramdas Pophale) SiO2 
 PCOD9026154
Probable space group: P -1
;
_chemical_formula_sum "Si O2"
_cell_formula_units_Z 15
_cell_length_a 11.811642
_cell_length_b 18.322388
_cell_length_c 8.443981
_cell_angle_alpha 148.056627
_cell_angle_beta 130.603733
_cell_angle_gamma 46.521018
_cell_volume 690.832225
_symmetry_space_group_name_H-M "P -1"
_symmetry_group_IT_number 2
_symmetry_cell_setting 'triclinic'
loop_
_space_group_symop_operation_xyz
x,y,z
-x,-y,-z
loop_
_atom_site_type_symbol
_atom_site_label
_atom_site_fract_x
_atom_site_fract_y
_atom_site_fract_z
Si Si1 0.645297 0.156449 0.089544
Si Si2 0.485254 0.063641 0.279146
Si Si3 0.786511 0.107845 0.790352
Si Si4 0.079062 0.830374 0.450675
Si Si5 0.848584 0.454134 0.819715
Si Si6 0.784434 0.624046 0.394541
Si Si7 0.500000 0.500000 0.500000
Si Si8 0.119110 0.649468 0.829524
O O1 0.754962 0.144949 0.322982
O O2 0.552106 0.326185 0.281080
O O3 0.755213 0.092979 0.919804
O O4 0.540636 0.055998 0.845812
O O5 0.636444 0.099999 0.542939
O O6 0.339367 0.214923 0.421642
O O7 0.500000 0.000000 0.000000
O O8 0.807207 0.262671 0.058321
O O9 0.937901 0.979805 0.625464
O O10 0.078353 0.715115 0.374722
O O11 0.075212 0.750152 0.133951
O O12 0.693265 0.481509 0.622761
O O13 0.771521 0.544676 0.074146
O O14 0.000000 0.500000 0.000000
O O15 0.770942 0.512787 0.315132
O O16 0.959787 0.632954 0.585097
#
# Coordination Sequence:
#
# PCOD9026154 Si02
#       8
#     2   2   2   2   2   2   1   2
#     4  11  25  42  64  94 131 168 217 278 329 388
#     4  12  26  42  64  92 133 176 212 274 335 392
#     4  12  24  38  67  96 126 172 217 270 331 391
#     4  10  22  41  62  95 126 171 216 263 330 398
#     4  10  23  39  69  97 133 179 213 279 337 387
#     4  10  23  43  65  95 130 168 227 265 320 408
#     4  10  24  44  62  98 138 166 222 276 332 404
#     4  10  22  42  67  91 129 170 218 269 324 397
#
# _framework density 21.712941000000001
#
# number of rings (size 3 to 8) (size 9 to 14) (size 15 to 20)
#    0.000    1.333    0.000    4.400    7.467    1.600 
#    0.000    0.000    0.000    0.000    0.000    0.000 
#    0.000    0.000    0.000    0.000    0.000    0.000 
#
# Total GULP energy -83615.407396 kJ/mol
# GULP energy per Si atom -5574.360493 kJ/mol
# Density = 2.166352 g / cm^3
# Si number density = 21.712941 Si / 1000 Ang^3
#
#
#
# Elastic Constant Matrix: (Units=GPa)
#
#
# Indices 1 2 3 4 5 6 
#
# 1 58.3025 27.5070 22.0113 17.8197 21.9630 6.4682
# 2 27.5070 81.0572 26.0230 36.9666 4.7268 -19.6046
# 3 22.0113 26.0230 85.0601 19.5911 4.3441 -2.3510
# 4 17.8197 36.9666 19.5911 37.5779 2.3540 -3.3912
# 5 21.9630 4.7268 4.3441 2.3540 44.0218 -3.2817
# 6 6.4682 -19.6046 -2.3510 -3.3912 -3.2817 28.2160
#
#
#
# Elastic Compliance Matrix: (Units=1/GPa)
#
#
# Indices 1 2 3 4 5 6 
#
# 1 0.033615 -0.013001 -0.004011 -0.001769 -0.016314 -0.019184
# 2 -0.013001 0.033883 -0.000911 -0.024891 0.006070 0.024161
# 3 -0.004011 -0.000911 0.014090 -0.004519 0.001027 0.001037
# 4 -0.001769 -0.024891 -0.004519 0.053294 0.000345 -0.010820
# 5 -0.016314 0.006070 0.001027 0.000345 0.030955 0.011685
# 6 -0.019184 0.024161 0.001037 -0.010820 0.011685 0.056771
#
#
# Mechanical properties :
#
#
# Convention : Reuss Voigt Hill
#
# Bulk Modulus (GPa) = 21.86184 41.72250 31.79217
# Shear Modulus (GPa) = 18.26813 31.88837 25.07825
#
# Velocity S-wave (km/s) = 2.90375 3.83643 3.40220
# Velocity P-wave (km/s) = 4.61874 6.23550 5.48700
#
# Compressibility (1/GPa) = 0.04574181
#
# Stress axis : x y z
#
# Youngs Moduli (GPa) = 29.74883 29.51330 70.97329
#
# Poissons Ratio (x) = 0.38372 0.28465
# Poissons Ratio (y) = 0.38678 0.06465
# Poissons Ratio (z) = 0.11931 0.02688
#
# Static dielectric constant tensor:
#      x y z
#    x 1.798260 0.032520 -0.000850 
#    y 0.032520 1.766820 -0.030180 
#    z -0.000850 -0.030180 1.805810 
# 
# From -- ./inp_files/187519.got.cif
#   From: 2010.05.17/outbox.cif.g08.bks.cpg/sg2_94_cif.got.tgz:187519.got - 2010.06.03 11:33:40.
