data_PCOD9026437
_publ_section_title
;
Structure prediction by ZEFSAII (Michael W. Deem and Ramdas Pophale) SiO2 
 PCOD9026437
Probable space group: P -1
;
_chemical_formula_sum "Si O2"
_cell_formula_units_Z 16
_cell_length_a 11.951796
_cell_length_b 8.881748
_cell_length_c 17.568547
_cell_angle_alpha 111.013283
_cell_angle_beta 139.526474
_cell_angle_gamma 99.763921
_cell_volume 772.241209
_symmetry_space_group_name_H-M "P -1"
_symmetry_group_IT_number 2
_symmetry_cell_setting 'triclinic'
loop_
_space_group_symop_operation_xyz
x,y,z
-x,-y,-z
loop_
_atom_site_type_symbol
_atom_site_label
_atom_site_fract_x
_atom_site_fract_y
_atom_site_fract_z
Si Si1 0.536861 0.965209 0.927653
Si Si2 0.747150 0.173085 0.389338
Si Si3 0.201280 0.380435 0.159839
Si Si4 0.320216 0.515405 0.787374
Si Si5 0.652666 0.874242 0.752549
Si Si6 0.154652 0.540080 0.860455
Si Si7 0.383808 0.773554 0.445061
Si Si8 0.544871 0.343501 0.817402
O O1 0.318196 0.880094 0.743728
O O2 0.523378 0.764425 0.892682
O O3 0.500000 0.000000 0.000000
O O4 0.780561 0.225439 0.071370
O O5 0.584530 0.213784 0.340907
O O6 0.043621 0.380998 0.592535
O O7 0.623608 0.932691 0.322133
O O8 0.294627 0.270437 0.218501
O O9 0.277073 0.566431 0.294609
O O10 0.336723 0.524348 0.177434
O O11 0.901865 0.152013 0.948464
O O12 0.312753 0.552578 0.880118
O O13 0.374651 0.370116 0.768432
O O14 0.577371 0.834227 0.617672
O O15 0.859895 0.320890 0.654934
O O16 0.237104 0.539705 0.986230
O O17 0.500000 0.000000 0.500000
#
# Coordination Sequence:
#
# PCOD9026437 Si02
#       8
#     2   2   2   2   2   2   2   2
#     4   9  20  36  59  88 121 169 211 255 316 382
#     4  11  21  39  64  90 130 167 211 268 323 382
#     4  11  25  43  67  98 131 172 218 272 330 386
#     4  11  21  39  63  93 129 166 216 260 322 384
#     4  11  24  45  69  95 131 172 222 275 323 387
#     4  10  22  41  64  91 128 168 215 263 319 388
#     4  12  24  43  71 100 132 170 221 270 330 392
#     4  11  23  39  61  94 131 169 208 263 327 389
#
# _framework density 20.718917000000001
#
# number of rings (size 3 to 8) (size 9 to 14) (size 15 to 20)
#    0.000    1.250    1.250    5.250    0.000    2.500 
#    0.000    1.250    0.000    0.000    0.000    0.000 
#    0.000    0.000    0.000    0.000    0.000    0.000 
#
# Total GULP energy -89407.988296 kJ/mol
# GULP energy per Si atom -5587.999269 kJ/mol
# Density = 2.067176 g / cm^3
# Si number density = 20.718917 Si / 1000 Ang^3
#
#
#
# Elastic Constant Matrix: (Units=GPa)
#
#
# Indices 1 2 3 4 5 6 
#
# 1 89.9945 39.7941 33.9357 -6.4142 -12.3440 4.9624
# 2 39.7941 105.1852 34.6361 -4.1314 -5.6490 18.2370
# 3 33.9357 34.6361 100.1336 -10.4967 -12.8072 8.8098
# 4 -6.4142 -4.1314 -10.4967 25.6352 1.9809 -9.4776
# 5 -12.3440 -5.6490 -12.8072 1.9809 36.5075 -8.5399
# 6 4.9624 18.2370 8.8098 -9.4776 -8.5399 37.9369
#
#
#
# Elastic Compliance Matrix: (Units=1/GPa)
#
#
# Indices 1 2 3 4 5 6 
#
# 1 0.014866 -0.004816 -0.002862 0.002398 0.003726 0.002473
# 2 -0.004816 0.013123 -0.002864 -0.002344 -0.001884 -0.006023
# 3 -0.002862 -0.002864 0.012698 0.003962 0.002935 0.000453
# 4 0.002398 -0.002344 0.003962 0.044981 0.002112 0.011606
# 5 0.003726 -0.001884 0.002935 0.002112 0.030967 0.007236
# 6 0.002473 -0.006023 0.000453 0.011606 0.007236 0.033355
#
#
# Mechanical properties :
#
#
# Convention : Reuss Voigt Hill
#
# Bulk Modulus (GPa) = 51.01175 56.89389 53.95282
# Shear Modulus (GPa) = 28.15160 32.47907 30.31533
#
# Velocity S-wave (km/s) = 3.69011 3.96359 3.82929
# Velocity P-wave (km/s) = 6.54448 6.96177 6.75635
#
# Compressibility (1/GPa) = 0.01960333
#
# Stress axis : x y z
#
# Youngs Moduli (GPa) = 67.26618 76.20040 78.75216
#
# Poissons Ratio (x) = 0.36701 0.22538
# Poissons Ratio (y) = 0.32398 0.22553
# Poissons Ratio (z) = 0.19251 0.21823
#
# Static dielectric constant tensor:
#      x y z
#    x 1.749200 0.018230 -0.029950 
#    y 0.018230 1.732340 0.014700 
#    z -0.029950 0.014700 1.740020 
# 
# From -- ./inp_files/177697.got.cif
#   From: 2010.05.17/outbox.cif.g08.bks.cpg/sg2_89_cif.got.tgz:177697.got - 2010.06.03 11:33:40.
