data_PCOD9026969
_publ_section_title
;
Structure prediction by ZEFSAII (Michael W. Deem and Ramdas Pophale) SiO2 
 PCOD9026969
Probable space group: P -1
;
_chemical_formula_sum "Si O2"
_cell_formula_units_Z 12
_cell_length_a 5.272707
_cell_length_b 19.404616
_cell_length_c 7.160761
_cell_angle_alpha 137.240491
_cell_angle_beta 84.736653
_cell_angle_gamma 89.395371
_cell_volume 492.017305
_symmetry_space_group_name_H-M "P -1"
_symmetry_group_IT_number 2
_symmetry_cell_setting 'triclinic'
loop_
_space_group_symop_operation_xyz
x,y,z
-x,-y,-z
loop_
_atom_site_type_symbol
_atom_site_label
_atom_site_fract_x
_atom_site_fract_y
_atom_site_fract_z
Si Si1 0.187746 0.249360 0.882620
Si Si2 0.400442 0.046102 0.901456
Si Si3 0.958212 0.413293 0.509532
Si Si4 0.567406 0.551751 0.289695
Si Si5 0.720129 0.121984 0.705261
Si Si6 0.170739 0.263848 0.469772
O O1 0.983423 0.171146 0.794509
O O2 0.163712 0.265303 0.694868
O O3 0.099563 0.350357 0.207488
O O4 0.477061 0.203783 0.825168
O O5 0.632216 0.074565 0.810315
O O6 0.266065 0.964485 0.627760
O O7 0.220394 0.149751 0.164674
O O8 0.500000 0.000000 0.000000
O O9 0.670666 0.458138 0.580601
O O10 0.151401 0.487940 0.729253
O O11 0.938415 0.330267 0.512820
O O12 0.607029 0.669900 0.483719
O O13 0.500000 0.500000 0.000000
#
# Coordination Sequence:
#
# PCOD9026969 Si02
#       6
#     2   2   2   2   2   2
#     4  12  23  43  63  95 131 171 212 263 317 373
#     4  11  22  45  62  96 131 177 218 262 309 374
#     4  10  22  41  66  92 132 159 211 262 324 371
#     4  10  22  45  72  93 126 166 210 265 327 384
#     4  11  26  40  62  92 133 173 219 260 310 370
#     4  10  24  39  67  94 129 171 217 259 320 376
#
# _framework density 24.389388
#
# number of rings (size 3 to 8) (size 9 to 14) (size 15 to 20)
#    1.000    0.333    3.333    2.500    2.333    4.667 
#    3.000    1.667    0.000    0.000    0.000    0.000 
#    0.000    0.000    0.000    0.000    0.000    0.000 
#
# Total GULP energy -67152.333718 kJ/mol
# GULP energy per Si atom -5596.027810 kJ/mol
# Density = 2.433388 g / cm^3
# Si number density = 24.389388 Si / 1000 Ang^3
#
#
#
# Elastic Constant Matrix: (Units=GPa)
#
#
# Indices 1 2 3 4 5 6 
#
# 1 115.0920 17.8107 11.0307 4.6010 -2.9755 6.6145
# 2 17.8107 74.9229 20.7665 -21.3755 14.6882 -11.1914
# 3 11.0307 20.7665 138.8396 -11.8270 3.7271 -5.4776
# 4 4.6010 -21.3755 -11.8270 48.5047 -6.9868 12.5013
# 5 -2.9755 14.6882 3.7271 -6.9868 23.2854 3.5485
# 6 6.6145 -11.1914 -5.4776 12.5013 3.5485 35.0082
#
#
#
# Elastic Compliance Matrix: (Units=1/GPa)
#
#
# Indices 1 2 3 4 5 6 
#
# 1 0.009635 -0.003700 -0.000546 -0.001381 0.003691 -0.002970
# 2 -0.003700 0.019368 -0.001604 0.005268 -0.011760 0.005951
# 3 -0.000546 -0.001604 0.007595 0.001096 -0.000004 0.000388
# 4 -0.001381 0.005268 0.001096 0.026101 0.005337 -0.007745
# 5 0.003691 -0.011760 -0.000004 0.005337 0.054245 -0.011862
# 6 -0.002970 0.005951 0.000388 -0.007745 -0.011862 0.035057
#
#
# Mechanical properties :
#
#
# Convention : Reuss Voigt Hill
#
# Bulk Modulus (GPa) = 40.16364 47.56336 43.86350
# Shear Modulus (GPa) = 29.06974 39.97608 34.52291
#
# Velocity S-wave (km/s) = 3.45614 4.05294 3.76638
# Velocity P-wave (km/s) = 5.69473 6.43784 6.07765
#
# Compressibility (1/GPa) = 0.02489814
#
# Stress axis : x y z
#
# Youngs Moduli (GPa) = 103.78900 51.63048 131.67253
#
# Poissons Ratio (x) = 0.19104 0.07188
# Poissons Ratio (y) = 0.38404 0.21118
# Poissons Ratio (z) = 0.05666 0.08280
#
# Static dielectric constant tensor:
#      x y z
#    x 2.004160 -0.030960 -0.004610 
#    y -0.030960 1.959400 -0.016250 
#    z -0.004610 -0.016250 1.902010 
# 
# From -- ./inp_files/9193.got.cif
#   From: 2010.05.17/outbox.cif.g08.bks.cpg/sg2_5_cif.got.tgz:9193.got - 2010.06.03 11:33:40.
