data_PCOD9026924
_publ_section_title
;
Structure prediction by ZEFSAII (Michael W. Deem and Ramdas Pophale) SiO2 
 PCOD9026924
Probable space group: P -1
;
_chemical_formula_sum "Si O2"
_cell_formula_units_Z 16
_cell_length_a 15.019207
_cell_length_b 7.877688
_cell_length_c 14.582356
_cell_angle_alpha 122.444766
_cell_angle_beta 149.387520
_cell_angle_gamma 75.761927
_cell_volume 641.222052
_symmetry_space_group_name_H-M "P -1"
_symmetry_group_IT_number 2
_symmetry_cell_setting 'triclinic'
loop_
_space_group_symop_operation_xyz
x,y,z
-x,-y,-z
loop_
_atom_site_type_symbol
_atom_site_label
_atom_site_fract_x
_atom_site_fract_y
_atom_site_fract_z
Si Si1 0.234269 0.568248 0.219492
Si Si2 0.399199 0.616138 0.676965
Si Si3 0.836474 0.424687 0.044461
Si Si4 0.816456 0.836816 0.212282
Si Si5 0.802610 0.282893 0.302691
Si Si6 0.151392 0.272242 0.222843
Si Si7 0.518230 0.022975 0.309391
Si Si8 0.590432 0.772856 0.160973
O O1 0.270078 0.574272 0.145292
O O2 0.250931 0.379078 0.243254
O O3 0.376300 0.817750 0.463223
O O4 0.000000 0.500000 0.000000
O O5 0.585820 0.666829 0.921411
O O6 0.251865 0.657615 0.627419
O O7 0.303869 0.364692 0.470193
O O8 0.470638 0.797688 0.707275
O O9 0.907038 0.671994 0.225212
O O10 0.694147 0.200800 0.915567
O O11 0.023161 0.395297 0.172102
O O12 0.790202 0.870637 0.306071
O O13 0.854623 0.078561 0.276676
O O14 0.592226 0.203080 0.038913
O O15 0.000000 0.500000 0.500000
O O16 0.000000 0.000000 0.000000
O O17 0.637206 0.902689 0.336181
O O18 0.500000 0.500000 0.000000
#
# Coordination Sequence:
#
# PCOD9026924 Si02
#       8
#     2   2   2   2   2   2   2   2
#     4   9  22  43  60  91 131 165 212 268 322 374
#     4  10  22  41  66  89 128 175 212 259 331 372
#     4  11  24  40  67  99 126 165 225 263 321 380
#     4  11  22  42  65  95 133 170 209 270 314 392
#     4  11  24  42  62  96 135 170 212 264 319 389
#     4  10  24  45  66  92 131 172 213 273 322 383
#     4  11  20  39  69  90 129 170 214 267 314 385
#     4  11  21  42  66  97 128 169 215 257 325 382
#
# _framework density 24.952358
#
# number of rings (size 3 to 8) (size 9 to 14) (size 15 to 20)
#    0.000    1.500    3.750    1.125    1.750    5.000 
#    6.750    3.750    0.000    0.000    0.000    0.000 
#    0.000    0.000    0.000    0.000    0.000    0.000 
#
# Total GULP energy -89442.254329 kJ/mol
# GULP energy per Si atom -5590.140896 kJ/mol
# Density = 2.489557 g / cm^3
# Si number density = 24.952358 Si / 1000 Ang^3
#
#
#
# Elastic Constant Matrix: (Units=GPa)
#
#
# Indices 1 2 3 4 5 6 
#
# 1 107.0479 21.7710 8.0029 0.6270 1.7603 8.8171
# 2 21.7710 83.3271 37.2408 13.5900 7.2864 -14.1741
# 3 8.0029 37.2408 88.1669 21.5548 -25.3579 -3.3607
# 4 0.6270 13.5900 21.5548 50.5623 2.1495 6.0536
# 5 1.7603 7.2864 -25.3579 2.1495 41.2724 -0.4508
# 6 8.8171 -14.1741 -3.3607 6.0536 -0.4508 42.1511
#
#
#
# Elastic Compliance Matrix: (Units=1/GPa)
#
#
# Indices 1 2 3 4 5 6 
#
# 1 0.010339 -0.003621 0.000248 0.001150 0.000252 -0.003523
# 2 -0.003621 0.019609 -0.010064 -0.001333 -0.009349 0.006640
# 3 0.000248 -0.010064 0.021766 -0.007176 0.015507 -0.000504
# 4 0.001150 -0.001333 -0.007176 0.023986 -0.005524 -0.004765
# 5 0.000252 -0.009349 0.015507 -0.005524 0.035676 -0.000785
# 6 -0.003523 0.006640 -0.000504 -0.004765 -0.000785 0.027330
#
#
# Mechanical properties :
#
#
# Convention : Reuss Voigt Hill
#
# Bulk Modulus (GPa) = 40.25773 45.84126 43.04949
# Shear Modulus (GPa) = 28.75898 40.89897 34.82898
#
# Velocity S-wave (km/s) = 3.39861 4.05295 3.74012
# Velocity P-wave (km/s) = 5.61869 6.34927 5.99512
#
# Compressibility (1/GPa) = 0.02483995
#
# Stress axis : x y z
#
# Youngs Moduli (GPa) = 96.72308 50.99651 45.94403
#
# Poissons Ratio (x) = 0.18466 -0.01140
# Poissons Ratio (y) = 0.35024 0.46237
# Poissons Ratio (z) = -0.02400 0.51322
#
# Static dielectric constant tensor:
#      x y z
#    x 2.032530 0.025630 0.025980 
#    y 0.025630 2.015360 -0.062330 
#    z 0.025980 -0.062330 2.102850 
# 
# From -- ./inp_files/530167.got.cif
#   From: 2010.05.17/outbox.cif.g08.bks.cpg/sg2_266_cif.got.tgz:530167.got - 2010.06.03 11:33:40.
