data_PCOD9026099
_publ_section_title
;
Structure prediction by ZEFSAII (Michael W. Deem and Ramdas Pophale) SiO2 
 PCOD9026099
Probable space group: P -1
;
_chemical_formula_sum "Si O2"
_cell_formula_units_Z 16
_cell_length_a 6.306790
_cell_length_b 9.020441
_cell_length_c 15.378044
_cell_angle_alpha 54.380014
_cell_angle_beta 89.137625
_cell_angle_gamma 84.689541
_cell_volume 707.300759
_symmetry_space_group_name_H-M "P -1"
_symmetry_group_IT_number 2
_symmetry_cell_setting 'triclinic'
loop_
_space_group_symop_operation_xyz
x,y,z
-x,-y,-z
loop_
_atom_site_type_symbol
_atom_site_label
_atom_site_fract_x
_atom_site_fract_y
_atom_site_fract_z
Si Si1 0.322012 0.856740 0.041393
Si Si2 0.933844 0.528258 0.629079
Si Si3 0.629641 0.569574 0.056929
Si Si4 0.283849 0.635530 0.454903
Si Si5 0.075092 0.099012 0.095345
Si Si6 0.827136 0.947761 0.687669
Si Si7 0.831233 0.333163 0.278222
Si Si8 0.569388 0.800428 0.604747
O O1 0.457981 0.661116 0.096984
O O2 0.176128 0.919775 0.102751
O O3 0.163965 0.870779 0.953506
O O4 0.500000 0.000000 0.000000
O O5 0.814889 0.372988 0.638328
O O6 0.755424 0.701488 0.578335
O O7 0.120460 0.562774 0.549414
O O8 0.033030 0.518550 0.727489
O O9 0.766695 0.402220 0.159843
O O10 0.500000 0.500000 0.000000
O O11 0.788329 0.726359 0.982603
O O12 0.500000 0.500000 0.500000
O O13 0.279517 0.849397 0.401082
O O14 0.103414 0.067438 0.208169
O O15 0.656115 0.818108 0.696917
O O16 0.034809 0.866392 0.659606
O O17 0.628963 0.314721 0.345835
O O18 0.500000 0.000000 0.500000
#
# Coordination Sequence:
#
# PCOD9026099 Si02
#       8
#     2   2   2   2   2   2   2   2
#     4   9  21  40  62  87 122 167 209 255 314 370
#     4  10  23  40  61  90 122 159 204 251 313 371
#     4  11  23  40  63  92 127 164 212 262 313 372
#     4  11  23  41  63  92 126 161 202 258 312 371
#     4  10  22  41  62  89 127 167 206 259 313 371
#     4  11  24  39  63  92 122 162 209 252 311 376
#     4  11  24  40  62  92 123 164 210 257 309 371
#     4  11  22  41  64  88 122 162 205 257 313 371
#
# _framework density 22.621212
#
# number of rings (size 3 to 8) (size 9 to 14) (size 15 to 20)
#    0.000    1.500    0.000    4.500    0.000   13.000 
#    0.000    0.000    0.000    0.000    0.000    0.000 
#    0.000    0.000    0.000    0.000    0.000    0.000 
#
# Total GULP energy -89278.205974 kJ/mol
# GULP energy per Si atom -5579.887873 kJ/mol
# Density = 2.256972 g / cm^3
# Si number density = 22.621212 Si / 1000 Ang^3
#
#
#
# Elastic Constant Matrix: (Units=GPa)
#
#
# Indices 1 2 3 4 5 6 
#
# 1 106.9043 48.7864 31.6206 1.2208 22.3762 -3.6647
# 2 48.7864 127.8181 27.1352 7.1185 18.7781 -2.7004
# 3 31.6206 27.1352 78.3690 16.6206 23.1987 11.5223
# 4 1.2208 7.1185 16.6206 40.1676 12.4666 15.8039
# 5 22.3762 18.7781 23.1987 12.4666 27.3366 13.5065
# 6 -3.6647 -2.7004 11.5223 15.8039 13.5065 51.9691
#
#
#
# Elastic Compliance Matrix: (Units=1/GPa)
#
#
# Indices 1 2 3 4 5 6 
#
# 1 0.013741 -0.003397 -0.002630 0.003083 -0.009529 0.002914
# 2 -0.003397 0.009963 -0.001095 -0.000749 -0.003629 0.001692
# 3 -0.002630 -0.001095 0.018210 -0.003822 -0.010630 -0.000355
# 4 0.003083 -0.000749 -0.003822 0.032129 -0.010438 -0.006032
# 5 -0.009529 -0.003629 -0.010630 -0.010438 0.066943 -0.012728
# 6 0.002914 0.001692 -0.000355 -0.006032 -0.012728 0.024756
#
#
# Mechanical properties :
#
#
# Convention : Reuss Voigt Hill
#
# Bulk Modulus (GPa) = 36.13896 58.68620 47.41258
# Shear Modulus (GPa) = 26.42565 37.59794 32.01179
#
# Velocity S-wave (km/s) = 3.42157 4.08127 3.76589
# Velocity P-wave (km/s) = 5.62316 6.94322 6.31776
#
# Compressibility (1/GPa) = 0.02767097
#
# Stress axis : x y z
#
# Youngs Moduli (GPa) = 72.77268 100.37017 54.91498
#
# Poissons Ratio (x) = 0.34094 0.14443
# Poissons Ratio (y) = 0.24720 0.06013
# Poissons Ratio (z) = 0.19139 0.10990
#
# Static dielectric constant tensor:
#      x y z
#    x 1.878290 0.005240 0.039320 
#    y 0.005240 1.832900 0.022750 
#    z 0.039320 0.022750 1.836740 
# 
# From -- ./inp_files/37446.got.cif
#   From: 2010.05.17/outbox.cif.g08.bks.cpg/sg2_19_cif.got.tgz:37446.got - 2010.06.03 11:33:40.
