data_PCOD9026806
_publ_section_title
;
Structure prediction by ZEFSAII (Michael W. Deem and Ramdas Pophale) SiO2 
 PCOD9026806
Probable space group: P -1
;
_chemical_formula_sum "Si O2"
_cell_formula_units_Z 16
_cell_length_a 11.550646
_cell_length_b 15.656189
_cell_length_c 6.344573
_cell_angle_alpha 129.432787
_cell_angle_beta 69.061059
_cell_angle_gamma 123.950683
_cell_volume 735.093668
_symmetry_space_group_name_H-M "P -1"
_symmetry_group_IT_number 2
_symmetry_cell_setting 'triclinic'
loop_
_space_group_symop_operation_xyz
x,y,z
-x,-y,-z
loop_
_atom_site_type_symbol
_atom_site_label
_atom_site_fract_x
_atom_site_fract_y
_atom_site_fract_z
Si Si1 0.146032 0.532956 0.062529
Si Si2 0.824359 0.040743 0.213648
Si Si3 0.361503 0.687885 0.817082
Si Si4 0.289965 0.779348 0.627215
Si Si5 0.546127 0.493483 0.693297
Si Si6 0.745019 0.638370 0.095137
Si Si7 0.919952 0.904321 0.591323
Si Si8 0.458911 0.109572 0.651152
O O1 0.195879 0.648556 0.370607
O O2 0.255471 0.582778 0.876575
O O3 0.152696 0.420237 0.006446
O O4 0.000000 0.500000 0.000000
O O5 0.767595 0.127422 0.271358
O O6 0.965977 0.113965 0.368801
O O7 0.706857 0.952708 0.319419
O O8 0.850833 0.962060 0.889861
O O9 0.290388 0.757806 0.842047
O O10 0.414567 0.619774 0.508436
O O11 0.480233 0.787432 0.043428
O O12 0.450195 0.829414 0.520171
O O13 0.500000 0.500000 0.500000
O O14 0.402955 0.455242 0.850883
O O15 0.685827 0.617369 0.862791
O O16 0.809088 0.775620 0.359091
O O17 0.000000 0.000000 0.500000
O O18 0.500000 0.000000 0.500000
#
# Coordination Sequence:
#
# PCOD9026806 Si02
#       8
#     2   2   2   2   2   2   2   2
#     4  11  23  41  63  97 136 172 216 269 333 406
#     4  10  23  44  64  95 132 182 221 269 337 397
#     4  11  22  40  64  98 130 171 222 271 340 394
#     4  10  22  41  65  97 132 165 221 275 333 397
#     4  11  23  42  68  98 130 172 225 281 336 389
#     4  11  24  43  68  98 133 175 224 282 334 392
#     4  11  26  45  66  96 134 180 230 272 331 403
#     4   9  21  38  64  93 129 169 215 274 324 391
#
# _framework density 21.765934999999999
#
# number of rings (size 3 to 8) (size 9 to 14) (size 15 to 20)
#    0.000    1.500    2.500    1.500    0.000   11.500 
#    2.250    0.000    0.000    0.000    0.000    0.000 
#    0.000    0.000    0.000    0.000    0.000    0.000 
#
# Total GULP energy -89349.345156 kJ/mol
# GULP energy per Si atom -5584.334072 kJ/mol
# Density = 2.171640 g / cm^3
# Si number density = 21.765935 Si / 1000 Ang^3
#
#
#
# Elastic Constant Matrix: (Units=GPa)
#
#
# Indices 1 2 3 4 5 6 
#
# 1 106.6166 22.0084 32.7511 4.8397 12.8061 -3.4627
# 2 22.0084 42.7575 15.2904 12.9077 11.4320 -3.1711
# 3 32.7511 15.2904 71.2056 19.1429 6.6510 7.1926
# 4 4.8397 12.9077 19.1429 25.0004 -1.8843 5.6253
# 5 12.8061 11.4320 6.6510 -1.8843 31.5858 -5.4535
# 6 -3.4627 -3.1711 7.1926 5.6253 -5.4535 32.0389
#
#
#
# Elastic Compliance Matrix: (Units=1/GPa)
#
#
# Indices 1 2 3 4 5 6 
#
# 1 0.012168 -0.005042 -0.005610 0.004186 -0.001490 0.001087
# 2 -0.005042 0.034879 0.000630 -0.019312 -0.011129 0.004262
# 3 -0.005610 0.000630 0.021233 -0.015041 -0.003897 -0.003333
# 4 0.004186 -0.019312 -0.015041 0.063147 0.010966 -0.007303
# 5 -0.001490 -0.011129 -0.003897 0.010966 0.038499 0.004240
# 6 0.001087 0.004262 -0.003333 -0.007303 0.004240 0.034504
#
#
# Mechanical properties :
#
#
# Convention : Reuss Voigt Hill
#
# Bulk Modulus (GPa) = 20.73107 40.07550 30.40328
# Shear Modulus (GPa) = 20.78558 27.76036 24.27297
#
# Velocity S-wave (km/s) = 3.09359 3.57515 3.34306
# Velocity P-wave (km/s) = 4.72289 5.95771 5.37587
#
# Compressibility (1/GPa) = 0.04823678
#
# Stress axis : x y z
#
# Youngs Moduli (GPa) = 82.18519 28.67048 47.09576
#
# Poissons Ratio (x) = 0.14455 0.26421
# Poissons Ratio (y) = 0.41435 -0.02967
# Poissons Ratio (z) = 0.46106 -0.01806
#
# Static dielectric constant tensor:
#      x y z
#    x 1.960830 0.060590 0.071210 
#    y 0.060590 1.898160 0.030970 
#    z 0.071210 0.030970 1.987240 
# 
# From -- ./inp_files/81692.got.cif
#   From: 2010.05.17/outbox.cif.g08.bks.cpg/sg2_41_cif.got.tgz:81692.got - 2010.06.03 11:33:40.
