data_PCOD9026506
_publ_section_title
;
Structure prediction by ZEFSAII (Michael W. Deem and Ramdas Pophale) SiO2 
 PCOD9026506
Probable space group: P -1
;
_chemical_formula_sum "Si O2"
_cell_formula_units_Z 14
_cell_length_a 14.166265
_cell_length_b 12.428569
_cell_length_c 8.031391
_cell_angle_alpha 34.150168
_cell_angle_beta 133.437927
_cell_angle_gamma 124.681378
_cell_volume 576.394593
_symmetry_space_group_name_H-M "P -1"
_symmetry_group_IT_number 2
_symmetry_cell_setting 'triclinic'
loop_
_space_group_symop_operation_xyz
x,y,z
-x,-y,-z
loop_
_atom_site_type_symbol
_atom_site_label
_atom_site_fract_x
_atom_site_fract_y
_atom_site_fract_z
Si Si1 0.247364 0.162134 0.422656
Si Si2 0.568891 0.739867 0.974407
Si Si3 0.077630 0.863191 0.398330
Si Si4 0.152233 0.547947 0.648894
Si Si5 0.701414 0.367534 0.621813
Si Si6 0.168406 0.299644 0.512717
Si Si7 0.514447 0.065263 0.719482
O O1 0.196557 0.210191 0.483397
O O2 0.398311 0.116609 0.635279
O O3 0.163337 0.994726 0.452276
O O4 0.220449 0.356366 0.038298
O O5 0.508407 0.820583 0.630010
O O6 0.512729 0.846932 0.931048
O O7 0.575447 0.510264 0.283448
O O8 0.723791 0.786021 0.117699
O O9 0.160978 0.716183 0.578419
O O10 0.970781 0.746973 0.523660
O O11 0.000000 0.000000 0.000000
O O12 0.217444 0.613032 0.473723
O O13 0.000000 0.500000 0.500000
O O14 0.792678 0.474385 0.730021
O O15 0.647533 0.155121 0.836660
#
# Coordination Sequence:
#
# PCOD9026506 Si02
#       7
#     2   2   2   2   2   2   2
#     4  12  26  42  62  96 136 164 210 258 324 386
#     4   9  21  40  62  92 127 162 217 256 304 370
#     4  12  24  44  70  92 123 167 220 265 309 374
#     4  12  23  42  69  95 121 168 219 266 309 368
#     4  10  22  41  64  94 127 159 218 261 304 378
#     4  10  24  45  60  96 134 165 203 266 326 375
#     4  11  22  38  68  93 121 175 211 262 305 367
#
# _framework density 24.288917999999999
#
# number of rings (size 3 to 8) (size 9 to 14) (size 15 to 20)
#    0.857    0.286    4.286    1.714    6.000    1.714 
#    2.571    0.000    0.000    0.000    0.000    0.000 
#    0.000    0.000    0.000    0.000    0.000    0.000 
#
# Total GULP energy -78370.369720 kJ/mol
# GULP energy per Si atom -5597.883551 kJ/mol
# Density = 2.423363 g / cm^3
# Si number density = 24.288918 Si / 1000 Ang^3
#
#
#
# Elastic Constant Matrix: (Units=GPa)
#
#
# Indices 1 2 3 4 5 6 
#
# 1 130.6223 77.7692 30.0881 -16.5825 11.2205 -28.2893
# 2 77.7692 198.0607 22.0525 -11.5471 -5.7067 -26.0360
# 3 30.0881 22.0525 52.8893 -3.2943 3.9304 2.1340
# 4 -16.5825 -11.5471 -3.2943 30.9759 -4.6031 9.1957
# 5 11.2205 -5.7067 3.9304 -4.6031 27.8309 -1.2543
# 6 -28.2893 -26.0360 2.1340 9.1957 -1.2543 50.4517
#
#
#
# Elastic Compliance Matrix: (Units=1/GPa)
#
#
# Indices 1 2 3 4 5 6 
#
# 1 0.013011 -0.003816 -0.005495 0.002816 -0.004564 0.004932
# 2 -0.003816 0.006979 -0.001011 0.000492 0.003261 0.001496
# 3 -0.005495 -0.001011 0.022762 0.000279 -0.001370 -0.004651
# 4 0.002816 0.000492 0.000279 0.036077 0.004684 -0.004638
# 5 -0.004564 0.003261 -0.001370 0.004684 0.039377 -0.000693
# 6 0.004932 0.001496 -0.004651 -0.004638 -0.000693 0.024383
#
#
# Mechanical properties :
#
#
# Convention : Reuss Voigt Hill
#
# Bulk Modulus (GPa) = 45.23349 71.26577 58.24963
# Shear Modulus (GPa) = 29.30773 38.62920 33.96847
#
# Velocity S-wave (km/s) = 3.47743 3.99231 3.74373
# Velocity P-wave (km/s) = 5.89804 7.11730 6.53616
#
# Compressibility (1/GPa) = 0.02210751
#
# Stress axis : x y z
#
# Youngs Moduli (GPa) = 76.85762 143.28227 43.93276
#
# Poissons Ratio (x) = 0.54676 0.24142
# Poissons Ratio (y) = 0.29329 0.04443
# Poissons Ratio (z) = 0.42235 0.14489
#
# Static dielectric constant tensor:
#      x y z
#    x 1.840570 -0.017380 0.020080 
#    y -0.017380 1.914520 0.016640 
#    z 0.020080 0.016640 2.016200 
# 
# From -- ./inp_files/306361.got.cif
#   From: 2010.05.17/outbox.cif.g08.bks.cpg/sg2_154_cif.got.tgz:306361.got - 2010.06.03 11:33:40.
