data_PCOD9026251
_publ_section_title
;
Structure prediction by ZEFSAII (Michael W. Deem and Ramdas Pophale) SiO2 
 PCOD9026251
Probable space group: P -1
;
_chemical_formula_sum "Si O2"
_cell_formula_units_Z 12
_cell_length_a 13.792264
_cell_length_b 6.804842
_cell_length_c 7.316450
_cell_angle_alpha 92.145368
_cell_angle_beta 78.579411
_cell_angle_gamma 39.620492
_cell_volume 408.924386
_symmetry_space_group_name_H-M "P -1"
_symmetry_group_IT_number 2
_symmetry_cell_setting 'triclinic'
loop_
_space_group_symop_operation_xyz
x,y,z
-x,-y,-z
loop_
_atom_site_type_symbol
_atom_site_label
_atom_site_fract_x
_atom_site_fract_y
_atom_site_fract_z
Si Si1 0.497109 0.731286 0.277500
Si Si2 0.651676 0.547453 0.860261
Si Si3 0.240994 0.587104 0.570398
Si Si4 0.120499 0.485280 0.055220
Si Si5 0.937444 0.821043 0.788901
Si Si6 0.287580 0.941356 0.674217
O O1 0.643373 0.629591 0.306272
O O2 0.345321 0.975619 0.477992
O O3 0.565554 0.402186 0.283240
O O4 0.500637 0.769302 0.062816
O O5 0.642848 0.617972 0.655574
O O6 0.759204 0.179581 0.821263
O O7 0.775577 0.512168 0.893575
O O8 0.200503 0.884519 0.618331
O O9 0.077749 0.717826 0.627335
O O10 0.982274 0.794765 0.984518
O O11 0.214784 0.202087 0.860451
O O12 0.062018 0.416220 0.223464
#
# Coordination Sequence:
#
# PCOD9026251 Si02
#       6
#     2   2   2   2   2   2
#     4   9  20  42  65  84 127 158 204 251 303 357
#     4  12  23  41  64  93 124 162 200 254 306 358
#     4  10  22  41  63  91 125 163 197 251 312 354
#     4  11  23  38  69  87 123 167 202 248 306 360
#     4  11  23  40  60  93 129 158 202 250 306 365
#     4   9  20  42  64  89 119 165 203 249 304 358
#
# _framework density 29.345281
#
# number of rings (size 3 to 8) (size 9 to 14) (size 15 to 20)
#    1.000    0.667    3.333    1.000    4.667    2.000 
#    3.000    0.833    0.000    0.000    0.000    0.000 
#    0.000    0.000    0.000    0.000    0.000    0.000 
#
# Total GULP energy -67232.589285 kJ/mol
# GULP energy per Si atom -5602.715774 kJ/mol
# Density = 2.927849 g / cm^3
# Si number density = 29.345281 Si / 1000 Ang^3
#
#
#
# Elastic Constant Matrix: (Units=GPa)
#
#
# Indices 1 2 3 4 5 6 
#
# 1 89.8012 0.6994 35.3956 -21.5309 -18.1585 32.9773
# 2 0.6994 105.7005 15.3074 -14.1472 -1.3874 -1.3852
# 3 35.3956 15.3074 204.1496 -21.3651 -15.8946 11.7547
# 4 -21.5309 -14.1472 -21.3651 44.8707 7.9460 -9.3507
# 5 -18.1585 -1.3874 -15.8946 7.9460 51.2505 -11.1723
# 6 32.9773 -1.3852 11.7547 -9.3507 -11.1723 46.8855
#
#
#
# Elastic Compliance Matrix: (Units=1/GPa)
#
#
# Indices 1 2 3 4 5 6 
#
# 1 0.017255 0.000726 -0.001728 0.005132 0.002614 -0.010036
# 2 0.000726 0.009994 -0.000560 0.003362 -0.000039 0.000586
# 3 -0.001728 -0.000560 0.005447 0.001500 0.000905 0.000348
# 4 0.005132 0.003362 0.001500 0.027037 -0.001571 0.001132
# 5 0.002614 -0.000039 0.000905 -0.001571 0.021563 0.002758
# 6 -0.010036 0.000586 0.000348 0.001132 0.002758 0.029200
#
#
# Mechanical properties :
#
#
# Convention : Reuss Voigt Hill
#
# Bulk Modulus (GPa) = 33.81531 55.82846 44.82188
# Shear Modulus (GPa) = 40.49275 51.81793 46.15534
#
# Velocity S-wave (km/s) = 3.71869 4.20670 3.97020
# Velocity P-wave (km/s) = 5.47599 6.53155 6.02692
#
# Compressibility (1/GPa) = 0.02957241
#
# Stress axis : x y z
#
# Youngs Moduli (GPa) = 57.95274 100.05879 183.57398
#
# Poissons Ratio (x) = -0.07261 0.31717
# Poissons Ratio (y) = -0.04205 0.10284
# Poissons Ratio (z) = 0.10013 0.05605
#
# Static dielectric constant tensor:
#      x y z
#    x 2.335470 -0.028400 -0.095070 
#    y -0.028400 2.315690 0.054160 
#    z -0.095070 0.054160 2.298490 
# 
# From -- ./inp_files/287985.got.cif
#   From: 2010.05.17/outbox.cif.g08.bks.cpg/sg2_144_cif.got.tgz:287985.got - 2010.06.03 11:33:40.
