data_PCOD9026179
_publ_section_title
;
Structure prediction by ZEFSAII (Michael W. Deem and Ramdas Pophale) SiO2 
 PCOD9026179
Probable space group: P -1
;
_chemical_formula_sum "Si O2"
_cell_formula_units_Z 16
_cell_length_a 16.208905
_cell_length_b 8.536667
_cell_length_c 12.967806
_cell_angle_alpha 67.313486
_cell_angle_beta 144.348581
_cell_angle_gamma 85.882431
_cell_volume 673.298796
_symmetry_space_group_name_H-M "P -1"
_symmetry_group_IT_number 2
_symmetry_cell_setting 'triclinic'
loop_
_space_group_symop_operation_xyz
x,y,z
-x,-y,-z
loop_
_atom_site_type_symbol
_atom_site_label
_atom_site_fract_x
_atom_site_fract_y
_atom_site_fract_z
Si Si1 0.476724 0.194852 0.632196
Si Si2 0.120225 0.036396 0.177831
Si Si3 0.515512 0.507489 0.281402
Si Si4 0.886287 0.697166 0.081096
Si Si5 0.115423 0.535036 0.033037
Si Si6 0.900190 0.008192 0.295114
Si Si7 0.221537 0.547096 0.609687
Si Si8 0.610182 0.918945 0.023608
O O1 0.448385 0.401088 0.606290
O O2 0.341832 0.322595 0.361636
O O3 0.695690 0.933195 0.890310
O O4 0.441979 0.099082 0.718594
O O5 0.124279 0.182609 0.063070
O O6 0.344928 0.776823 0.495574
O O7 0.993837 0.198736 0.108979
O O8 0.000000 0.000000 0.000000
O O9 0.596551 0.529638 0.253400
O O10 0.274536 0.708070 0.984674
O O11 0.891380 0.507928 0.082651
O O12 0.081385 0.568210 0.379985
O O13 0.000000 0.500000 0.000000
O O14 0.770686 0.939196 0.186795
O O15 0.000000 0.000000 0.500000
O O16 0.080316 0.811247 0.449349
O O17 0.284745 0.355290 0.809017
O O18 0.500000 0.000000 0.000000
#
# Coordination Sequence:
#
# PCOD9026179 Si02
#       8
#     2   2   2   2   2   2   2   2
#     4  11  21  42  67  97 137 176 234 292 338 423
#     4  11  21  40  67  97 133 186 225 274 359 421
#     4  11  22  44  70  99 140 185 234 282 356 429
#     4  11  23  40  68 100 138 179 229 293 347 419
#     4  10  22  41  62  98 135 171 229 284 341 416
#     4  11  26  48  67 104 143 178 239 304 347 415
#     4  12  22  46  72  98 137 189 236 285 358 425
#     4  11  23  44  76  99 132 192 237 282 355 421
#
# _framework density 23.763594999999999
#
# number of rings (size 3 to 8) (size 9 to 14) (size 15 to 20)
#    0.000    1.000    7.500    1.500    0.000    1.000 
#    9.000    0.000    0.000    0.000    0.000    0.000 
#    0.000    0.000    0.000    0.000    0.000    0.000 
#
# Total GULP energy -89315.287555 kJ/mol
# GULP energy per Si atom -5582.205472 kJ/mol
# Density = 2.370951 g / cm^3
# Si number density = 23.763595 Si / 1000 Ang^3
#
#
#
# Elastic Constant Matrix: (Units=GPa)
#
#
# Indices 1 2 3 4 5 6 
#
# 1 47.0869 30.8738 -21.9088 -2.9723 8.7849 -13.0970
# 2 30.8738 133.8646 41.7668 -10.8433 3.1612 -32.9618
# 3 -21.9088 41.7668 97.8695 -17.3129 -9.8216 -11.9942
# 4 -2.9723 -10.8433 -17.3129 31.6257 -12.3144 2.0083
# 5 8.7849 3.1612 -9.8216 -12.3144 33.4470 -9.9458
# 6 -13.0970 -32.9618 -11.9942 2.0083 -9.9458 40.7962
#
#
#
# Elastic Compliance Matrix: (Units=1/GPa)
#
#
# Indices 1 2 3 4 5 6 
#
# 1 0.038644 -0.011338 0.016048 0.008449 0.001066 0.007808
# 2 -0.011338 0.013781 -0.007796 -0.000658 0.000755 0.005419
# 3 0.016048 -0.007796 0.021490 0.014084 0.010080 0.006936
# 4 0.008449 -0.000658 0.014084 0.048051 0.022476 0.009435
# 5 0.001066 0.000755 0.010080 0.022476 0.044870 0.013749
# 6 0.007808 0.005419 0.006936 0.009435 0.013749 0.036323
#
#
# Mechanical properties :
#
#
# Convention : Reuss Voigt Hill
#
# Bulk Modulus (GPa) = 14.76159 42.25385 28.50772
# Shear Modulus (GPa) = 21.55987 36.37971 28.96979
#
# Velocity S-wave (km/s) = 3.01535 3.91692 3.49532
# Velocity P-wave (km/s) = 4.28351 6.18675 5.32092
#
# Compressibility (1/GPa) = 0.06774338
#
# Stress axis : x y z
#
# Youngs Moduli (GPa) = 25.87702 72.56544 46.53308
#
# Poissons Ratio (x) = 0.82275 -0.74676
# Poissons Ratio (y) = 0.29340 0.36276
# Poissons Ratio (z) = -0.41527 0.56570
#
# Static dielectric constant tensor:
#      x y z
#    x 2.026900 0.117690 0.060200 
#    y 0.117690 2.170560 0.030620 
#    z 0.060200 0.030620 1.944090 
# 
# From -- ./inp_files/446475.got.cif
#   From: 2010.05.17/outbox.cif.g08.bks.cpg/sg2_224_cif.got.tgz:446475.got - 2010.06.03 11:33:40.
