data_PCOD9026450
_publ_section_title
;
Structure prediction by ZEFSAII (Michael W. Deem and Ramdas Pophale) SiO2 
 PCOD9026450
Probable space group: P -1
;
_chemical_formula_sum "Si O2"
_cell_formula_units_Z 10
_cell_length_a 16.264792
_cell_length_b 11.930103
_cell_length_c 17.015687
_cell_angle_alpha 157.157304
_cell_angle_beta 17.656326
_cell_angle_gamma 147.481226
_cell_volume 371.243638
_symmetry_space_group_name_H-M "P -1"
_symmetry_group_IT_number 2
_symmetry_cell_setting 'triclinic'
loop_
_space_group_symop_operation_xyz
x,y,z
-x,-y,-z
loop_
_atom_site_type_symbol
_atom_site_label
_atom_site_fract_x
_atom_site_fract_y
_atom_site_fract_z
Si Si1 0.572896 0.636961 0.701457
Si Si2 0.966840 0.635525 0.204639
Si Si3 0.090832 0.133579 0.179393
Si Si4 0.488023 0.758090 0.022582
Si Si5 0.507644 0.859923 0.316499
O O1 0.778905 0.521419 0.365840
O O2 0.659292 0.576712 0.674511
O O3 0.276641 0.574799 0.918367
O O4 0.500000 0.000000 0.000000
O O5 0.803511 0.993839 0.575517
O O6 0.000000 0.500000 0.000000
O O7 0.000000 0.500000 0.500000
O O8 0.799710 0.050542 0.387814
O O9 0.315764 0.060351 0.998338
O O10 0.267985 0.047354 0.882129
O O11 0.419721 0.503554 0.973917
O O12 0.500000 0.000000 0.500000
#
# Coordination Sequence:
#
# PCOD9026450 Si02
#       5
#     2   2   2   2   2
#     4  10  22  41  64  92 125 165 210 254 307 372
#     4  11  24  42  64  95 127 161 211 257 305 375
#     4  10  22  41  64  92 125 165 210 254 307 372
#     4  10  22  42  66  90 128 170 200 258 316 358
#     4  11  24  42  64  95 127 161 211 257 305 375
#
# _framework density 26.936489999999999
#
# number of rings (size 3 to 8) (size 9 to 14) (size 15 to 20)
#    0.000    1.600    0.000    6.000    0.000   16.000 
#    0.000    8.000    0.000    0.000    0.000    0.000 
#    0.000    0.000    0.000    0.000    0.000    0.000 
#
# Total GULP energy -56106.354681 kJ/mol
# GULP energy per Si atom -5610.635468 kJ/mol
# Density = 2.687518 g / cm^3
# Si number density = 26.936490 Si / 1000 Ang^3
#
#
#
# Elastic Constant Matrix: (Units=GPa)
#
#
# Indices 1 2 3 4 5 6 
#
# 1 140.7425 23.3758 51.4789 -23.8858 47.8868 18.3275
# 2 23.3758 122.9297 35.8157 -23.0162 3.7761 -2.3571
# 3 51.4789 35.8157 142.9326 -18.3830 27.8367 -2.4659
# 4 -23.8858 -23.0162 -18.3830 57.7539 -9.3397 -0.3464
# 5 47.8868 3.7761 27.8367 -9.3397 63.4905 2.9705
# 6 18.3275 -2.3571 -2.4659 -0.3464 2.9705 50.6337
#
#
#
# Elastic Compliance Matrix: (Units=1/GPa)
#
#
# Indices 1 2 3 4 5 6 
#
# 1 0.011383 -0.000902 -0.002259 0.002475 -0.006997 -0.003845
# 2 -0.000902 0.009389 -0.001899 0.002989 0.001365 0.000611
# 3 -0.002259 -0.001899 0.008796 0.000796 -0.001983 0.001279
# 4 0.002475 0.002989 0.000796 0.019869 0.000558 -0.000615
# 5 -0.006997 0.001365 -0.001983 0.000558 0.021841 0.001222
# 6 -0.003845 0.000611 0.001279 -0.000615 0.001222 0.021156
#
#
# Mechanical properties :
#
#
# Convention : Reuss Voigt Hill
#
# Bulk Modulus (GPa) = 51.41759 69.77175 60.59467
# Shear Modulus (GPa) = 45.85641 54.10458 49.98049
#
# Velocity S-wave (km/s) = 4.13048 4.48660 4.31222
# Velocity P-wave (km/s) = 6.47130 7.26622 6.88025
#
# Compressibility (1/GPa) = 0.01944860
#
# Stress axis : x y z
#
# Youngs Moduli (GPa) = 87.85360 106.50993 113.68467
#
# Poissons Ratio (x) = 0.09605 0.25681
# Poissons Ratio (y) = 0.07922 0.21586
# Poissons Ratio (z) = 0.19846 0.20224
#
# Static dielectric constant tensor:
#      x y z
#    x 2.153670 -0.003650 0.033640 
#    y -0.003650 2.182860 0.078410 
#    z 0.033640 0.078410 2.160340 
# 
# From -- ./inp_files/58743.got.cif
#   From: 2010.05.17/outbox.cif.g08.bks.cpg/sg2_30_cif.got.tgz:58743.got - 2010.06.03 11:33:40.
