data_PCOD9026627
_publ_section_title
;
Structure prediction by ZEFSAII (Michael W. Deem and Ramdas Pophale) SiO2 
 PCOD9026627
Probable space group: P -1
;
_chemical_formula_sum "Si O2"
_cell_formula_units_Z 16
_cell_length_a 9.062660
_cell_length_b 10.287703
_cell_length_c 13.137889
_cell_angle_alpha 35.888088
_cell_angle_beta 97.382778
_cell_angle_gamma 84.284988
_cell_volume 666.949264
_symmetry_space_group_name_H-M "P -1"
_symmetry_group_IT_number 2
_symmetry_cell_setting 'triclinic'
loop_
_space_group_symop_operation_xyz
x,y,z
-x,-y,-z
loop_
_atom_site_type_symbol
_atom_site_label
_atom_site_fract_x
_atom_site_fract_y
_atom_site_fract_z
Si Si1 0.677835 0.678881 0.137374
Si Si2 0.814585 0.037234 0.816280
Si Si3 0.116198 0.740380 0.906513
Si Si4 0.415476 0.948267 0.398872
Si Si5 0.961887 0.277345 0.313902
Si Si6 0.276608 0.300470 0.330006
Si Si7 0.338715 0.452887 0.544021
Si Si8 0.608648 0.074250 0.186269
O O1 0.797004 0.450836 0.233845
O O2 0.675610 0.596518 0.305426
O O3 0.748117 0.893023 0.984116
O O4 0.502522 0.777498 0.008841
O O5 0.703858 0.071906 0.683927
O O6 0.796316 0.309292 0.663090
O O7 0.985773 0.875700 0.892912
O O8 0.042111 0.682983 0.833187
O O9 0.234835 0.505248 0.115219
O O10 0.107966 0.331156 0.345357
O O11 0.566700 0.716977 0.583834
O O12 0.495908 0.123490 0.243990
O O13 0.327435 0.055918 0.425863
O O14 0.000000 0.000000 0.500000
O O15 0.229913 0.886339 0.800822
O O16 0.500000 0.500000 0.500000
O O17 0.348973 0.202488 0.657948
#
# Coordination Sequence:
#
# PCOD9026627 Si02
#       8
#     2   2   2   2   2   2   2   2
#     4  11  25  44  73 106 133 187 244 277 357 425
#     4  11  23  46  73 101 141 188 231 290 350 419
#     4  12  24  43  68 105 146 183 223 293 353 411
#     4  10  22  41  65 102 136 180 237 273 343 423
#     4  12  24  41  70 103 146 184 228 285 352 425
#     4  11  23  39  69 101 143 183 226 281 352 421
#     4  12  25  46  76  98 137 186 239 299 349 409
#     4  11  26  43  68 104 139 183 241 291 340 417
#
# _framework density 23.989832
#
# number of rings (size 3 to 8) (size 9 to 14) (size 15 to 20)
#    0.000    0.750    5.000    3.750    1.750    3.500 
#    0.000    0.625    0.000    0.000    0.000    0.000 
#    0.000    0.000    0.000    0.000    0.000    0.000 
#
# Total GULP energy -89453.840370 kJ/mol
# GULP energy per Si atom -5590.865023 kJ/mol
# Density = 2.393523 g / cm^3
# Si number density = 23.989832 Si / 1000 Ang^3
#
#
#
# Elastic Constant Matrix: (Units=GPa)
#
#
# Indices 1 2 3 4 5 6 
#
# 1 89.1692 22.2536 18.9729 -4.3491 11.5636 0.5282
# 2 22.2536 73.9005 35.8773 -19.7617 -8.6236 -17.7322
# 3 18.9729 35.8773 159.5005 -13.9849 -5.9849 -3.1096
# 4 -4.3491 -19.7617 -13.9849 32.0961 -12.6733 -4.3819
# 5 11.5636 -8.6236 -5.9849 -12.6733 24.8169 -2.5787
# 6 0.5282 -17.7322 -3.1096 -4.3819 -2.5787 28.5878
#
#
#
# Elastic Compliance Matrix: (Units=1/GPa)
#
#
# Indices 1 2 3 4 5 6 
#
# 1 0.019998 -0.021401 -0.001596 -0.027122 -0.033169 -0.020967
# 2 -0.021401 0.061404 -0.001234 0.070793 0.072960 0.055781
# 3 -0.001596 -0.001234 0.007266 0.003999 0.004218 0.001048
# 4 -0.027122 0.070793 0.003999 0.126603 0.110567 0.074226
# 5 -0.033169 0.072960 0.004218 0.110567 0.146532 0.076492
# 6 -0.020967 0.055781 0.001048 0.074226 0.076492 0.088358
#
#
# Mechanical properties :
#
#
# Convention : Reuss Voigt Hill
#
# Bulk Modulus (GPa) = 24.87187 52.97530 38.92359
# Shear Modulus (GPa) = 9.76512 33.46459 21.61485
#
# Velocity S-wave (km/s) = 2.01974 3.73895 3.00492
# Velocity P-wave (km/s) = 3.97861 6.38514 5.31974
#
# Compressibility (1/GPa) = 0.04020606
#
# Stress axis : x y z
#
# Youngs Moduli (GPa) = 50.00511 16.28547 137.62076
#
# Poissons Ratio (x) = 0.34853 0.21969
# Poissons Ratio (y) = 1.07016 0.16983
# Poissons Ratio (z) = 0.07982 0.02010
#
# Static dielectric constant tensor:
#      x y z
#    x 1.930300 0.012770 -0.038910 
#    y 0.012770 1.972480 -0.002870 
#    z -0.038910 -0.002870 1.949870 
# 
# From -- ./inp_files/521325.got.cif
#   From: 2010.05.17/outbox.cif.g08.bks.cpg/sg2_261_cif.got.tgz:521325.got - 2010.06.03 11:33:40.
