data_PCOD9026267
_publ_section_title
;
Structure prediction by ZEFSAII (Michael W. Deem and Ramdas Pophale) SiO2 
 PCOD9026267
Probable space group: P -1
;
_chemical_formula_sum "Si O2"
_cell_formula_units_Z 10
_cell_length_a 18.219666
_cell_length_b 12.187061
_cell_length_c 16.280241
_cell_angle_alpha 155.190184
_cell_angle_beta 164.563545
_cell_angle_gamma 22.979169
_cell_volume 368.417402
_symmetry_space_group_name_H-M "P -1"
_symmetry_group_IT_number 2
_symmetry_cell_setting 'triclinic'
loop_
_space_group_symop_operation_xyz
x,y,z
-x,-y,-z
loop_
_atom_site_type_symbol
_atom_site_label
_atom_site_fract_x
_atom_site_fract_y
_atom_site_fract_z
Si Si1 0.254472 0.792873 0.525741
Si Si2 0.280868 0.861028 0.922403
Si Si3 0.078685 0.487547 0.671732
Si Si4 0.902496 0.609607 0.140395
Si Si5 0.225314 0.008930 0.154108
O O1 0.184227 0.587876 0.374535
O O2 0.179373 0.097917 0.697626
O O3 0.609573 0.659561 0.803339
O O4 0.005405 0.871785 0.239641
O O5 0.170734 0.602965 0.619689
O O6 0.584963 0.769352 0.134986
O O7 0.326348 0.905742 0.098005
O O8 0.000000 0.500000 0.500000
O O9 0.102951 0.787504 0.910469
O O10 0.983822 0.334611 0.098947
O O11 0.500000 0.000000 0.500000
#
# Coordination Sequence:
#
# PCOD9026267 Si02
#       5
#     2   2   2   2   2
#     4  10  22  43  64  89 126 167 208 255 319 372
#     4  11  23  43  68  92 128 170 208 257 317 378
#     4  10  22  41  63  92 128 167 205 252 318 377
#     4  10  23  40  64  93 124 163 209 262 310 369
#     4  11  24  41  65  98 130 164 213 263 310 373
#
# _framework density 27.143125000000001
#
# number of rings (size 3 to 8) (size 9 to 14) (size 15 to 20)
#    0.000    1.600    0.000    4.800    0.000    9.600 
#    0.000   13.000    0.000    0.000    0.000    0.000 
#    0.000    0.000    0.000    0.000    0.000    0.000 
#
# Total GULP energy -56055.657958 kJ/mol
# GULP energy per Si atom -5605.565796 kJ/mol
# Density = 2.708135 g / cm^3
# Si number density = 27.143125 Si / 1000 Ang^3
#
#
#
# Elastic Constant Matrix: (Units=GPa)
#
#
# Indices 1 2 3 4 5 6 
#
# 1 67.9082 28.2347 39.8622 4.8964 -7.8003 11.2165
# 2 28.2347 156.7015 58.5358 2.0905 -8.9644 16.4458
# 3 39.8622 58.5358 166.5945 -10.2808 -16.4572 0.9131
# 4 4.8964 2.0905 -10.2808 52.6147 3.8890 -5.6968
# 5 -7.8003 -8.9644 -16.4572 3.8890 52.3124 -2.4012
# 6 11.2165 16.4458 0.9131 -5.6968 -2.4012 58.1434
#
#
#
# Elastic Compliance Matrix: (Units=1/GPa)
#
#
# Indices 1 2 3 4 5 6 
#
# 1 0.018558 -0.001389 -0.003982 -0.002912 0.001339 -0.003355
# 2 -0.001389 0.007769 -0.002408 -0.000888 0.000343 -0.001964
# 3 -0.003982 -0.002408 0.008066 0.002107 0.001447 0.001589
# 4 -0.002912 -0.000888 0.002107 0.020112 -0.001295 0.002697
# 5 0.001339 0.000343 0.001447 -0.001295 0.019941 0.000319
# 6 -0.003355 -0.001964 0.001589 0.002697 0.000319 0.018654
#
#
# Mechanical properties :
#
#
# Convention : Reuss Voigt Hill
#
# Bulk Modulus (GPa) = 53.08849 71.60775 62.34812
# Shear Modulus (GPa) = 43.50315 50.25220 46.87767
#
# Velocity S-wave (km/s) = 4.00776 4.30743 4.16029
# Velocity P-wave (km/s) = 6.40448 7.15384 6.78951
#
# Compressibility (1/GPa) = 0.01883648
#
# Stress axis : x y z
#
# Youngs Moduli (GPa) = 53.88404 128.72041 123.98440
#
# Poissons Ratio (x) = 0.17880 0.49365
# Poissons Ratio (y) = 0.07485 0.29849
# Poissons Ratio (z) = 0.21454 0.30990
#
# Static dielectric constant tensor:
#      x y z
#    x 2.193190 -0.072950 -0.043040 
#    y -0.072950 2.178130 0.018430 
#    z -0.043040 0.018430 2.018040 
# 
# From -- ./inp_files/15482.got.cif
#   From: 2010.05.17/outbox.cif.g08.bks.cpg/sg2_8_cif.got.tgz:15482.got - 2010.06.03 11:33:40.
