data_PCOD9026991
_publ_section_title
;
Structure prediction by ZEFSAII (Michael W. Deem and Ramdas Pophale) SiO2 
 PCOD9026991
Probable space group: P -1
;
_chemical_formula_sum "Si O2"
_cell_formula_units_Z 16
_cell_length_a 19.984654
_cell_length_b 9.121596
_cell_length_c 5.377337
_cell_angle_alpha 121.868273
_cell_angle_beta 65.296982
_cell_angle_gamma 127.956301
_cell_volume 650.013068
_symmetry_space_group_name_H-M "P -1"
_symmetry_group_IT_number 2
_symmetry_cell_setting 'triclinic'
loop_
_space_group_symop_operation_xyz
x,y,z
-x,-y,-z
loop_
_atom_site_type_symbol
_atom_site_label
_atom_site_fract_x
_atom_site_fract_y
_atom_site_fract_z
Si Si1 0.541009 0.784703 0.236790
Si Si2 0.588531 0.001090 0.854622
Si Si3 0.642565 0.667881 0.295525
Si Si4 0.365700 0.632658 0.609500
Si Si5 0.196582 0.001828 0.391342
Si Si6 0.909057 0.809123 0.025955
Si Si7 0.056409 0.533671 0.191583
Si Si8 0.777525 0.700546 0.758913
O O1 0.572798 0.642478 0.178388
O O2 0.443814 0.736470 0.382689
O O3 0.571720 0.841383 0.957566
O O4 0.595107 0.959491 0.518678
O O5 0.650031 0.215541 0.069764
O O6 0.500000 0.000000 0.000000
O O7 0.600144 0.491504 0.401146
O O8 0.710347 0.885208 0.514263
O O9 0.708835 0.623906 0.014866
O O10 0.272678 0.467280 0.514936
O O11 0.212151 0.090501 0.167006
O O12 0.138203 0.762221 0.277045
O O13 0.142983 0.099820 0.674974
O O14 0.916528 0.635229 0.994051
O O15 0.863212 0.726857 0.758023
O O16 0.000000 0.000000 0.000000
O O17 0.000000 0.500000 0.500000
O O18 0.000000 0.500000 0.000000
#
# Coordination Sequence:
#
# PCOD9026991 Si02
#       8
#     2   2   2   2   2   2   2   2
#     4  11  24  41  69  98 132 184 232 287 345 401
#     4  10  23  41  63  95 133 175 228 291 344 402
#     4  10  24  42  64  98 135 181 228 285 344 402
#     4  10  22  41  66  93 135 178 233 286 339 409
#     4  10  24  47  66 102 149 177 232 291 340 420
#     4  11  23  45  75 102 138 187 226 282 356 417
#     4  12  27  45  76 110 136 180 233 285 346 420
#     4  10  24  42  68  96 141 182 228 287 348 412
#
# _framework density 24.614888000000001
#
# number of rings (size 3 to 8) (size 9 to 14) (size 15 to 20)
#    0.000    1.500    1.250    2.625   12.250    2.500 
#    4.500    0.000    0.000    0.000    0.000    0.000 
#    0.000    0.000    0.000    0.000    0.000    0.000 
#
# Total GULP energy -89322.304948 kJ/mol
# GULP energy per Si atom -5582.644059 kJ/mol
# Density = 2.455886 g / cm^3
# Si number density = 24.614888 Si / 1000 Ang^3
#
#
#
# Elastic Constant Matrix: (Units=GPa)
#
#
# Indices 1 2 3 4 5 6 
#
# 1 132.6942 43.8179 5.1274 -8.8226 28.7666 -10.0464
# 2 43.8179 143.2918 29.6377 11.6819 13.7381 -3.2250
# 3 5.1274 29.6377 69.1623 0.1575 4.2059 6.0936
# 4 -8.8226 11.6819 0.1575 39.0766 0.6183 -1.9090
# 5 28.7666 13.7381 4.2059 0.6183 41.3765 -5.4155
# 6 -10.0464 -3.2250 6.0936 -1.9090 -5.4155 41.0730
#
#
#
# Elastic Compliance Matrix: (Units=1/GPa)
#
#
# Indices 1 2 3 4 5 6 
#
# 1 0.010096 -0.002898 0.000718 0.003311 -0.005983 0.001501
# 2 -0.002898 0.008933 -0.003603 -0.003287 -0.000495 0.000309
# 3 0.000718 -0.003603 0.016260 0.001065 -0.001318 -0.002644
# 4 0.003311 -0.003287 0.001065 0.027413 -0.001537 0.001465
# 5 -0.005983 -0.000495 -0.001318 -0.001537 0.028969 0.002441
# 6 0.001501 0.000309 -0.002644 0.001465 0.002441 0.025520
#
#
# Mechanical properties :
#
#
# Convention : Reuss Voigt Hill
#
# Bulk Modulus (GPa) = 42.15458 55.81270 48.98364
# Shear Modulus (GPa) = 36.58588 42.07625 39.33107
#
# Velocity S-wave (km/s) = 3.85948 4.13895 4.00166
# Velocity P-wave (km/s) = 6.08470 6.75017 6.42606
#
# Compressibility (1/GPa) = 0.02372221
#
# Stress axis : x y z
#
# Youngs Moduli (GPa) = 99.04628 111.94920 61.50072
#
# Poissons Ratio (x) = 0.32447 -0.04413
# Poissons Ratio (y) = 0.28707 0.22156
# Poissons Ratio (z) = -0.07108 0.40331
#
# Static dielectric constant tensor:
#      x y z
#    x 2.027360 -0.077390 -0.070280 
#    y -0.077390 2.037480 0.138550 
#    z -0.070280 0.138550 2.381890 
# 
# From -- ./inp_files/117349.got.cif
#   From: 2010.05.17/outbox.cif.g08.bks.cpg/sg2_59_cif.got.tgz:117349.got - 2010.06.03 11:33:40.
