data_PCOD9026743
_publ_section_title
;
Structure prediction by ZEFSAII (Michael W. Deem and Ramdas Pophale) SiO2 
 PCOD9026743
Probable space group: P -1
;
_chemical_formula_sum "Si O2"
_cell_formula_units_Z 16
_cell_length_a 15.344238
_cell_length_b 15.652166
_cell_length_c 15.211916
_cell_angle_alpha 36.853848
_cell_angle_beta 26.780314
_cell_angle_gamma 26.833066
_cell_volume 742.942010
_symmetry_space_group_name_H-M "P -1"
_symmetry_group_IT_number 2
_symmetry_cell_setting 'triclinic'
loop_
_space_group_symop_operation_xyz
x,y,z
-x,-y,-z
loop_
_atom_site_type_symbol
_atom_site_label
_atom_site_fract_x
_atom_site_fract_y
_atom_site_fract_z
Si Si1 0.106969 0.454040 0.586153
Si Si2 0.945100 0.844970 0.451675
Si Si3 0.606091 0.379767 0.193944
Si Si4 0.147793 0.975138 0.034110
Si Si5 0.642118 0.846451 0.235594
Si Si6 0.267377 0.405591 0.791997
Si Si7 0.627773 0.395721 0.602908
Si Si8 0.593550 0.596717 0.883245
O O1 0.376692 0.386027 0.363034
O O2 0.187820 0.315141 0.709548
O O3 0.965549 0.665481 0.571823
O O4 0.893167 0.486455 0.689877
O O5 0.057865 0.872435 0.244126
O O6 0.132618 0.788375 0.410154
O O7 0.652543 0.028299 0.574910
O O8 0.546907 0.436490 0.304209
O O9 0.592418 0.543198 0.029861
O O10 0.876917 0.181056 0.085127
O O11 0.375530 0.824348 0.885078
O O12 0.275662 0.028816 0.939586
O O13 0.668010 0.761050 0.188798
O O14 0.466385 0.357383 0.727294
O O15 0.268208 0.537671 0.614247
O O16 0.000000 0.500000 0.000000
O O17 0.500000 0.500000 0.000000
#
# Coordination Sequence:
#
# PCOD9026743 Si02
#       8
#     2   2   2   2   2   2   2   2
#     4  11  22  44  70  93 132 175 218 269 336 398
#     4  11  22  41  70  96 129 180 231 261 332 400
#     4  11  22  44  71  92 136 182 219 268 337 393
#     4  12  23  40  71 101 128 176 227 270 331 404
#     4  12  23  40  69  99 129 179 228 270 326 397
#     4  11  23  38  64  99 135 175 225 276 327 380
#     4  10  22  41  65  94 137 179 221 274 327 387
#     4  12  27  44  69 105 136 168 219 285 339 400
#
# _framework density 21.536000999999999
#
# number of rings (size 3 to 8) (size 9 to 14) (size 15 to 20)
#    0.000    0.750    8.750    0.750    0.000    3.500 
#    0.000    1.875    0.000    0.000    0.000    0.000 
#    0.000    0.000    0.000    0.000    0.000    0.000 
#
# Total GULP energy -89297.363945 kJ/mol
# GULP energy per Si atom -5581.085247 kJ/mol
# Density = 2.148698 g / cm^3
# Si number density = 21.536001 Si / 1000 Ang^3
#
#
#
# Elastic Constant Matrix: (Units=GPa)
#
#
# Indices 1 2 3 4 5 6 
#
# 1 89.5201 28.9709 25.7299 9.3853 -37.0691 3.8470
# 2 28.9709 118.2560 16.5723 20.5965 -15.5956 -1.7283
# 3 25.7299 16.5723 75.0652 9.8158 -19.2203 -1.0718
# 4 9.3853 20.5965 9.8158 34.5940 -9.9920 -9.5091
# 5 -37.0691 -15.5956 -19.2203 -9.9920 42.3521 -5.1417
# 6 3.8470 -1.7283 -1.0718 -9.5091 -5.1417 23.7626
#
#
#
# Elastic Compliance Matrix: (Units=1/GPa)
#
#
# Indices 1 2 3 4 5 6 
#
# 1 0.018539 -0.002546 -0.002219 0.001495 0.014695 0.000491
# 2 -0.002546 0.010087 -0.000722 -0.005507 -0.000281 -0.001152
# 3 -0.002219 -0.000722 0.015679 -0.001698 0.004670 0.001345
# 4 0.001495 -0.005507 -0.001698 0.039963 0.010057 0.017449
# 5 0.014695 -0.000281 0.004670 0.010057 0.042193 0.010965
# 6 0.000491 -0.001152 0.001345 0.017449 0.010965 0.051335
#
#
# Mechanical properties :
#
#
# Convention : Reuss Voigt Hill
#
# Bulk Modulus (GPa) = 30.00269 47.26528 38.63399
# Shear Modulus (GPa) = 25.01497 34.24629 29.63063
#
# Velocity S-wave (km/s) = 3.41184 3.99204 3.71329
# Velocity P-wave (km/s) = 5.42978 6.57596 6.03017
#
# Compressibility (1/GPa) = 0.03333035
#
# Stress axis : x y z
#
# Youngs Moduli (GPa) = 53.93921 99.14213 63.78076
#
# Poissons Ratio (x) = 0.25244 0.14150
# Poissons Ratio (y) = 0.13734 0.04607
# Poissons Ratio (z) = 0.11966 0.07162
#
# Static dielectric constant tensor:
#      x y z
#    x 1.827550 -0.012170 0.017330 
#    y -0.012170 1.800400 0.028750 
#    z 0.017330 0.028750 1.823000 
# 
# From -- ./inp_files/533666.got.cif
#   From: 2010.05.17/outbox.cif.g08.bks.cpg/sg2_267_cif.got.tgz:533666.got - 2010.06.03 11:33:40.
