data_PCOD9026919
_publ_section_title
;
Structure prediction by ZEFSAII (Michael W. Deem and Ramdas Pophale) SiO2 
 PCOD9026919
Probable space group: P -1
;
_chemical_formula_sum "Si O2"
_cell_formula_units_Z 16
_cell_length_a 14.590578
_cell_length_b 13.233328
_cell_length_c 7.491139
_cell_angle_alpha 149.105339
_cell_angle_beta 67.656335
_cell_angle_gamma 113.185495
_cell_volume 679.941271
_symmetry_space_group_name_H-M "P -1"
_symmetry_group_IT_number 2
_symmetry_cell_setting 'triclinic'
loop_
_space_group_symop_operation_xyz
x,y,z
-x,-y,-z
loop_
_atom_site_type_symbol
_atom_site_label
_atom_site_fract_x
_atom_site_fract_y
_atom_site_fract_z
Si Si1 0.889370 0.818920 0.455182
Si Si2 0.389323 0.384135 0.879798
Si Si3 0.570975 0.842408 0.157423
Si Si4 0.253846 0.872795 0.576690
Si Si5 0.813916 0.545502 0.412044
Si Si6 0.621376 0.440838 0.201449
Si Si7 0.123927 0.878721 0.362020
Si Si8 0.181690 0.513684 0.285288
O O1 0.847285 0.731937 0.542290
O O2 0.007358 0.884766 0.487377
O O3 0.845012 0.993297 0.645122
O O4 0.869401 0.632370 0.049779
O O5 0.386348 0.209852 0.760039
O O6 0.375878 0.376273 0.663829
O O7 0.500000 0.500000 0.000000
O O8 0.299831 0.498518 0.180293
O O9 0.500000 0.000000 0.500000
O O10 0.663090 0.955615 0.149575
O O11 0.493150 0.666646 0.861371
O O12 0.187223 0.960372 0.610168
O O13 0.182089 0.740513 0.568149
O O14 0.317702 0.719208 0.190646
O O15 0.692393 0.498867 0.406488
O O16 0.853524 0.558838 0.604071
O O17 0.857628 0.349386 0.013199
#
# Coordination Sequence:
#
# PCOD9026919 Si02
#       8
#     2   2   2   2   2   2   2   2
#     4  11  22  43  64  89 124 162 207 247 316 365
#     4   9  16  32  56  80 113 159 200 239 298 357
#     4   9  16  28  55  84 112 156 202 239 296 359
#     4   9  17  33  56  84 117 156 199 241 301 358
#     4  11  22  41  63  92 129 154 208 256 304 363
#     4   8  16  32  53  80 113 154 197 241 292 357
#     4  10  22  41  66  89 120 166 203 255 305 374
#     4  11  22  38  63  91 122 164 201 256 310 360
#
# _framework density 23.531442999999999
#
# number of rings (size 3 to 8) (size 9 to 14) (size 15 to 20)
#    0.000    2.250    3.750    1.875    0.000    0.500 
#    4.500    4.375    0.000    0.000    0.000    0.000 
#    0.000    0.000    0.000    0.000    0.000    0.000 
#
# Total GULP energy -89264.944164 kJ/mol
# GULP energy per Si atom -5579.059010 kJ/mol
# Density = 2.347788 g / cm^3
# Si number density = 23.531443 Si / 1000 Ang^3
#
#
#
# Elastic Constant Matrix: (Units=GPa)
#
#
# Indices 1 2 3 4 5 6 
#
# 1 94.4610 30.7574 7.8503 12.3619 9.6780 -17.5928
# 2 30.7574 132.8000 23.0901 19.6938 15.8677 -17.7327
# 3 7.8503 23.0901 47.7617 5.3965 6.6272 -2.0139
# 4 12.3619 19.6938 5.3965 36.6330 -9.7219 0.9246
# 5 9.6780 15.8677 6.6272 -9.7219 28.8396 10.8652
# 6 -17.5928 -17.7327 -2.0139 0.9246 10.8652 31.1463
#
#
#
# Elastic Compliance Matrix: (Units=1/GPa)
#
#
# Indices 1 2 3 4 5 6 
#
# 1 0.016198 0.002093 0.000686 -0.011603 -0.016923 0.016633
# 2 0.002093 0.013449 -0.002345 -0.012629 -0.017539 0.015181
# 3 0.000686 -0.002345 0.023561 -0.004385 -0.007021 0.003155
# 4 -0.011603 -0.012629 -0.004385 0.049940 0.039752 -0.029377
# 5 -0.016923 -0.017539 -0.007021 0.039752 0.084042 -0.050496
# 6 0.016633 0.015181 0.003155 -0.029377 -0.050496 0.068836
#
#
# Mechanical properties :
#
#
# Convention : Reuss Voigt Hill
#
# Bulk Modulus (GPa) = 18.49248 44.26871 31.38060
# Shear Modulus (GPa) = 18.30281 33.54546 25.92414
#
# Velocity S-wave (km/s) = 2.79194 3.77975 3.32276
# Velocity P-wave (km/s) = 4.27421 6.15647 5.29958
#
# Compressibility (1/GPa) = 0.05407604
#
# Stress axis : x y z
#
# Youngs Moduli (GPa) = 61.73598 74.35649 42.44333
#
# Poissons Ratio (x) = -0.15562 -0.02913
# Poissons Ratio (y) = -0.12921 0.09953
# Poissons Ratio (z) = -0.04237 0.17436
#
# Static dielectric constant tensor:
#      x y z
#    x 1.926010 -0.030130 -0.013580 
#    y -0.030130 1.990560 -0.010790 
#    z -0.013580 -0.010790 1.942790 
# 
# From -- ./inp_files/268229.got.cif
#   From: 2010.05.17/outbox.cif.g08.bks.cpg/sg2_135_cif.got.tgz:268229.got - 2010.06.03 11:33:40.
