data_PCOD9026774
_publ_section_title
;
Structure prediction by ZEFSAII (Michael W. Deem and Ramdas Pophale) SiO2 
 PCOD9026774
Probable space group: P -1
;
_chemical_formula_sum "Si O2"
_cell_formula_units_Z 11
_cell_length_a 5.087739
_cell_length_b 10.442222
_cell_length_c 16.466911
_cell_angle_alpha 29.280591
_cell_angle_beta 103.255359
_cell_angle_gamma 101.006314
_cell_volume 416.398870
_symmetry_space_group_name_H-M "P -1"
_symmetry_group_IT_number 2
_symmetry_cell_setting 'triclinic'
loop_
_space_group_symop_operation_xyz
x,y,z
-x,-y,-z
loop_
_atom_site_type_symbol
_atom_site_label
_atom_site_fract_x
_atom_site_fract_y
_atom_site_fract_z
Si Si1 0.119783 0.572570 0.122637
Si Si2 0.914184 0.645948 0.580261
Si Si3 0.873761 0.844218 0.222323
Si Si4 0.000000 0.000000 0.500000
Si Si5 0.454615 0.871040 0.318797
Si Si6 0.410510 0.679743 0.802465
O O1 0.132068 0.383893 0.308063
O O2 0.365897 0.502579 0.122020
O O3 0.847190 0.497958 0.100163
O O4 0.111833 0.877480 0.976247
O O5 0.095114 0.404594 0.696389
O O6 0.056900 0.922314 0.445898
O O7 0.637854 0.672150 0.496666
O O8 0.138600 0.818724 0.313506
O O9 0.606447 0.858894 0.249580
O O10 0.294624 0.876586 0.617077
O O11 0.497046 0.147310 0.212095
#
# Coordination Sequence:
#
# PCOD9026774 Si02
#       6
#     2   2   2   1   2   2
#     4  11  24  41  67  95 130 169 211 264 316 374
#     4  10  23  44  67  95 126 168 219 263 314 379
#     4  12  25  42  64  97 133 169 206 262 326 380
#     4   8  20  40  66  90 120 162 212 264 304 360
#     4  11  25  42  67  94 130 171 212 262 315 377
#     4  10  22  41  65  96 128 167 216 259 313 376
#
# _framework density 26.416976999999999
#
# number of rings (size 3 to 8) (size 9 to 14) (size 15 to 20)
#    0.000    1.455    0.000    3.818    0.000   18.182 
#    0.000    6.364    0.000    0.000    0.000    0.000 
#    0.000    0.000    0.000    0.000    0.000    0.000 
#
# Total GULP energy -61455.840137 kJ/mol
# GULP energy per Si atom -5586.894558 kJ/mol
# Density = 2.635685 g / cm^3
# Si number density = 26.416977 Si / 1000 Ang^3
#
#
#
# Elastic Constant Matrix: (Units=GPa)
#
#
# Indices 1 2 3 4 5 6 
#
# 1 104.3244 20.3294 26.9205 -11.0324 14.2074 -15.7461
# 2 20.3294 110.6407 17.1823 -26.8675 -1.8784 -23.8939
# 3 26.9205 17.1823 113.0325 -4.6457 14.6598 -11.7396
# 4 -11.0324 -26.8675 -4.6457 42.3489 -1.9632 14.9929
# 5 14.2074 -1.8784 14.6598 -1.9632 27.4137 -13.1334
# 6 -15.7461 -23.8939 -11.7396 14.9929 -13.1334 30.1766
#
#
#
# Elastic Compliance Matrix: (Units=1/GPa)
#
#
# Indices 1 2 3 4 5 6 
#
# 1 0.011212 -0.001157 -0.001732 0.001106 -0.003925 0.002003
# 2 -0.001157 0.012840 -0.001407 0.004500 0.007330 0.009970
# 3 -0.001732 -0.001407 0.010058 -0.000514 -0.004528 0.000180
# 4 0.001106 0.004500 -0.000514 0.031252 -0.004173 -0.013403
# 5 -0.003925 0.007330 -0.004528 -0.004173 0.054436 0.027759
# 6 0.002003 0.009970 0.000180 -0.013403 0.027759 0.060888
#
#
# Mechanical properties :
#
#
# Convention : Reuss Voigt Hill
#
# Bulk Modulus (GPa) = 39.18599 50.76244 44.97421
# Shear Modulus (GPa) = 25.28040 37.55885 31.41962
#
# Velocity S-wave (km/s) = 3.09686 3.77473 3.45247
# Velocity P-wave (km/s) = 5.25863 6.18511 5.74059
#
# Compressibility (1/GPa) = 0.02551933
#
# Stress axis : x y z
#
# Youngs Moduli (GPa) = 89.19376 77.88379 99.42186
#
# Poissons Ratio (x) = 0.09008 0.17219
# Poissons Ratio (y) = 0.10316 0.13984
# Poissons Ratio (z) = 0.15447 0.10955
#
# Static dielectric constant tensor:
#      x y z
#    x 1.056570 -1.307320 1.400810 
#    y -1.307320 0.345610 1.876470 
#    z 1.400810 1.876470 0.093870 
# 
# From -- ./inp_files/21394.got.cif
#   From: 2010.05.17/outbox.cif.g08.bks.cpg/sg2_11_cif.got.tgz:21394.got - 2010.06.03 11:33:40.
