data_PCOD9026433
_publ_section_title
;
Structure prediction by ZEFSAII (Michael W. Deem and Ramdas Pophale) SiO2 
 PCOD9026433
Probable space group: P -1
;
_chemical_formula_sum "Si O2"
_cell_formula_units_Z 10
_cell_length_a 5.151026
_cell_length_b 5.128124
_cell_length_c 16.186316
_cell_angle_alpha 93.342534
_cell_angle_beta 105.038388
_cell_angle_gamma 85.991819
_cell_volume 411.551884
_symmetry_space_group_name_H-M "P -1"
_symmetry_group_IT_number 2
_symmetry_cell_setting 'triclinic'
loop_
_space_group_symop_operation_xyz
x,y,z
-x,-y,-z
loop_
_atom_site_type_symbol
_atom_site_label
_atom_site_fract_x
_atom_site_fract_y
_atom_site_fract_z
Si Si1 0.853367 0.718558 0.549382
Si Si2 0.996331 0.442737 0.133917
Si Si3 0.280191 0.956753 0.216385
Si Si4 0.383704 0.907447 0.607184
Si Si5 0.461845 0.189661 0.077197
O O1 0.731334 0.929966 0.477582
O O2 0.000000 0.500000 0.500000
O O3 0.598566 0.681216 0.586783
O O4 0.109920 0.814501 0.622710
O O5 0.100293 0.720365 0.172461
O O6 0.101283 0.229216 0.207086
O O7 0.165862 0.329173 0.066405
O O8 0.682896 0.404923 0.097818
O O9 0.448578 0.923907 0.313173
O O10 0.482395 0.013004 0.158546
O O11 0.500000 0.000000 0.000000
#
# Coordination Sequence:
#
# PCOD9026433 Si02
#       5
#     2   2   2   2   2
#     4  10  22  41  64  91 127 171 222 271 336 393
#     4  10  25  41  67  96 132 176 221 271 331 392
#     4  10  26  43  67  99 135 174 224 271 336 391
#     4  10  23  40  61  95 128 172 222 275 328 402
#     4  10  24  44  67  99 133 174 221 272 329 395
#
# _framework density 24.298271
#
# number of rings (size 3 to 8) (size 9 to 14) (size 15 to 20)
#    1.200    0.800    0.000    1.200    8.400    1.600 
#    0.000    0.000    0.000    0.000    0.000    0.000 
#    0.000    0.000    0.000    0.000    0.000    0.000 
#
# Total GULP energy -55811.199081 kJ/mol
# GULP energy per Si atom -5581.119908 kJ/mol
# Density = 2.424297 g / cm^3
# Si number density = 24.298271 Si / 1000 Ang^3
#
#
#
# Elastic Constant Matrix: (Units=GPa)
#
#
# Indices 1 2 3 4 5 6 
#
# 1 168.8477 52.8856 45.1660 -3.0113 4.0193 -0.7798
# 2 52.8856 82.0679 16.6599 17.6454 3.1273 2.7445
# 3 45.1660 16.6599 90.5065 11.8748 3.7195 6.7775
# 4 -3.0113 17.6454 11.8748 18.5383 1.7227 6.0736
# 5 4.0193 3.1273 3.7195 1.7227 29.4029 7.6727
# 6 -0.7798 2.7445 6.7775 6.0736 7.6727 37.9387
#
#
#
# Elastic Compliance Matrix: (Units=1/GPa)
#
#
# Indices 1 2 3 4 5 6 
#
# 1 0.010132 -0.008226 -0.005199 0.012931 -0.000551 -0.000227
# 2 -0.008226 0.022182 0.003197 -0.025025 -0.000640 0.001791
# 3 -0.005199 0.003197 0.014854 -0.013095 -0.000536 -0.000787
# 4 0.012931 -0.025025 -0.013095 0.091613 -0.000150 -0.010221
# 5 -0.000551 -0.000640 -0.000536 -0.000150 0.036095 -0.007145
# 6 -0.000227 0.001791 -0.000787 -0.010221 -0.007145 0.029446
#
#
# Mechanical properties :
#
#
# Convention : Reuss Voigt Hill
#
# Bulk Modulus (GPa) = 37.43488 63.42724 50.43106
# Shear Modulus (GPa) = 21.39663 32.29002 26.84333
#
# Velocity S-wave (km/s) = 2.97068 3.64937 3.32737
# Velocity P-wave (km/s) = 5.21598 6.62702 5.96338
#
# Compressibility (1/GPa) = 0.02671306
#
# Stress axis : x y z
#
# Youngs Moduli (GPa) = 98.69308 45.08188 67.32146
#
# Poissons Ratio (x) = 0.37083 0.35003
# Poissons Ratio (y) = 0.81183 -0.21526
# Poissons Ratio (z) = 0.51314 -0.14415
#
# Static dielectric constant tensor:
#      x y z
#    x 1.967770 -0.007380 -0.018740 
#    y -0.007380 1.960780 -0.001680 
#    z -0.018740 -0.001680 1.954350 
# 
# From -- ./inp_files/5112.got.cif
#   From: 2010.05.17/outbox.cif.g08.bks.cpg/sg2_3_cif.got.tgz:5112.got - 2010.06.03 11:33:40.
