data_PCOD9026875
_publ_section_title
;
Structure prediction by ZEFSAII (Michael W. Deem and Ramdas Pophale) SiO2 
 PCOD9026875
Probable space group: P -1
;
_chemical_formula_sum "Si O2"
_cell_formula_units_Z 14
_cell_length_a 6.216431
_cell_length_b 10.213040
_cell_length_c 14.196215
_cell_angle_alpha 64.413816
_cell_angle_beta 103.726333
_cell_angle_gamma 62.476883
_cell_volume 603.892990
_symmetry_space_group_name_H-M "P -1"
_symmetry_group_IT_number 2
_symmetry_cell_setting 'triclinic'
loop_
_space_group_symop_operation_xyz
x,y,z
-x,-y,-z
loop_
_atom_site_type_symbol
_atom_site_label
_atom_site_fract_x
_atom_site_fract_y
_atom_site_fract_z
Si Si1 0.446856 0.492485 0.277595
Si Si2 0.748350 0.758248 0.316797
Si Si3 0.697441 0.664887 0.541821
Si Si4 0.817225 0.082541 0.860404
Si Si5 0.120291 0.970517 0.732019
Si Si6 0.936282 0.786845 0.665299
Si Si7 0.219156 0.372262 0.145315
O O1 0.311015 0.701088 0.227616
O O2 0.493463 0.369536 0.410627
O O3 0.232907 0.495913 0.184692
O O4 0.744071 0.385133 0.285965
O O5 0.626210 0.734725 0.406165
O O6 0.470079 0.896398 0.178324
O O7 0.990969 0.549613 0.364983
O O8 0.731663 0.798873 0.562609
O O9 0.986629 0.029230 0.175570
O O10 0.109229 0.149129 0.669650
O O11 0.000000 0.000000 0.000000
O O12 0.455939 0.787013 0.809110
O O13 0.944555 0.953296 0.640310
O O14 0.871929 0.730323 0.773036
O O15 0.000000 0.500000 0.000000
#
# Coordination Sequence:
#
# PCOD9026875 Si02
#       7
#     2   2   2   2   2   2   2
#     4  10  22  41  66 101 129 175 223 272 336 393
#     4  11  24  43  68 101 135 175 225 274 332 395
#     4  10  22  44  70  98 135 175 224 276 327 403
#     4  12  27  41  67 101 139 173 220 279 339 394
#     4  11  25  43  65 100 136 171 224 275 335 390
#     4  10  22  44  66  95 134 171 220 272 334 389
#     4  10  24  41  67  92 134 182 227 268 324 402
#
# _framework density 23.182917
#
# number of rings (size 3 to 8) (size 9 to 14) (size 15 to 20)
#    0.000    1.429    2.857    0.857    6.000    4.000 
#    0.000   10.000    0.000    0.000    0.000    0.000 
#    0.000    0.000    0.000    0.000    0.000    0.000 
#
# Total GULP energy -78377.665531 kJ/mol
# GULP energy per Si atom -5598.404681 kJ/mol
# Density = 2.313015 g / cm^3
# Si number density = 23.182917 Si / 1000 Ang^3
#
#
#
# Elastic Constant Matrix: (Units=GPa)
#
#
# Indices 1 2 3 4 5 6 
#
# 1 99.3827 50.5013 32.5571 7.2879 13.2900 8.6718
# 2 50.5013 134.4405 35.3093 23.9855 7.4559 8.9192
# 3 32.5571 35.3093 96.7359 7.1817 13.4762 -3.0954
# 4 7.2879 23.9855 7.1817 24.0973 -6.5733 5.9855
# 5 13.2900 7.4559 13.4762 -6.5733 22.1080 16.2037
# 6 8.6718 8.9192 -3.0954 5.9855 16.2037 56.6029
#
#
#
# Elastic Compliance Matrix: (Units=1/GPa)
#
#
# Indices 1 2 3 4 5 6 
#
# 1 0.013715 -0.004039 -0.002186 -0.001224 -0.006134 0.000301
# 2 -0.004039 0.011565 -0.001196 -0.011765 -0.005345 0.001505
# 3 -0.002186 -0.001196 0.014141 -0.007528 -0.013509 0.005960
# 4 -0.001224 -0.011765 -0.007528 0.072714 0.044741 -0.018867
# 5 -0.006134 -0.005345 -0.013509 0.044741 0.094867 -0.030846
# 6 0.000301 0.001505 0.005960 -0.018867 -0.030846 0.028535
#
#
# Mechanical properties :
#
#
# Convention : Reuss Voigt Hill
#
# Bulk Modulus (GPa) = 40.68566 63.03275 51.85920
# Shear Modulus (GPa) = 19.33695 34.70774 27.02234
#
# Velocity S-wave (km/s) = 2.89122 3.87347 3.41781
# Velocity P-wave (km/s) = 5.36036 6.87411 6.16388
#
# Compressibility (1/GPa) = 0.02457869
#
# Stress axis : x y z
#
# Youngs Moduli (GPa) = 72.91548 86.46706 70.71472
#
# Poissons Ratio (x) = 0.34923 0.15461
# Poissons Ratio (y) = 0.29450 0.08456
# Poissons Ratio (z) = 0.15942 0.10340
#
# Static dielectric constant tensor:
#      x y z
#    x 1.907530 0.011250 0.031210 
#    y 0.011250 1.854190 0.010760 
#    z 0.031210 0.010760 1.816240 
# 
# From -- ./inp_files/64231.got.cif
#   From: 2010.05.17/outbox.cif.g08.bks.cpg/sg2_33_cif.got.tgz:64231.got - 2010.06.03 11:33:40.
