data_PCOD9026695
_publ_section_title
;
Structure prediction by ZEFSAII (Michael W. Deem and Ramdas Pophale) SiO2 
 PCOD9026695
Probable space group: P -1
;
_chemical_formula_sum "Si O2"
_cell_formula_units_Z 14
_cell_length_a 13.310580
_cell_length_b 11.160524
_cell_length_c 11.225699
_cell_angle_alpha 149.251456
_cell_angle_beta 42.334166
_cell_angle_gamma 135.769777
_cell_volume 557.978574
_symmetry_space_group_name_H-M "P -1"
_symmetry_group_IT_number 2
_symmetry_cell_setting 'triclinic'
loop_
_space_group_symop_operation_xyz
x,y,z
-x,-y,-z
loop_
_atom_site_type_symbol
_atom_site_label
_atom_site_fract_x
_atom_site_fract_y
_atom_site_fract_z
Si Si1 0.933673 0.422231 0.358944
Si Si2 0.828814 0.347265 0.005311
Si Si3 0.453006 0.727569 0.177698
Si Si4 0.229458 0.435905 0.970141
Si Si5 0.256618 0.991105 0.730360
Si Si6 0.384661 0.121731 0.281010
Si Si7 0.344545 0.587796 0.567764
O O1 0.886278 0.134409 0.172918
O O2 0.770006 0.473753 0.500498
O O3 0.000000 0.500000 0.500000
O O4 0.073015 0.500400 0.210987
O O5 0.772042 0.096033 0.766595
O O6 0.768638 0.554483 0.163857
O O7 0.760689 0.298106 0.153693
O O8 0.000000 0.500000 0.000000
O O9 0.318561 0.803803 0.433551
O O10 0.605775 0.928912 0.228219
O O11 0.500000 0.500000 0.000000
O O12 0.382157 0.638035 0.039091
O O13 0.237612 0.201818 0.838887
O O14 0.358992 0.340062 0.406601
O O15 0.485222 0.230788 0.405670
O O16 0.500000 0.000000 0.000000
#
# Coordination Sequence:
#
# PCOD9026695 Si02
#       7
#     2   2   2   2   2   2   2
#     4  12  24  43  66  97 138 175 217 271 332 403
#     4  11  23  42  68  99 131 168 217 280 332 389
#     4   9  20  42  61  90 125 167 221 260 314 384
#     4  11  23  42  63  96 131 166 220 264 330 395
#     4  10  22  41  65  92 129 177 212 264 329 385
#     4   9  22  47  69  97 128 177 228 279 331 389
#     4  10  23  47  68  97 132 176 229 269 337 397
#
# _framework density 25.090571000000001
#
# number of rings (size 3 to 8) (size 9 to 14) (size 15 to 20)
#    0.000    1.714    2.857    0.429    2.000    2.857 
#   25.714    0.000    0.000    0.000    0.000    0.000 
#    0.000    0.000    0.000    0.000    0.000    0.000 
#
# Total GULP energy -77991.014452 kJ/mol
# GULP energy per Si atom -5570.786747 kJ/mol
# Density = 2.503346 g / cm^3
# Si number density = 25.090571 Si / 1000 Ang^3
#
#
#
# Elastic Constant Matrix: (Units=GPa)
#
#
# Indices 1 2 3 4 5 6 
#
# 1 212.8056 40.8385 37.0435 15.7264 2.2395 13.5959
# 2 40.8385 111.1230 5.4311 15.8028 14.1176 27.0573
# 3 37.0435 5.4311 45.3851 10.9184 -8.3380 8.9617
# 4 15.7264 15.8028 10.9184 31.8230 -3.6486 3.6930
# 5 2.2395 14.1176 -8.3380 -3.6486 28.1906 3.7808
# 6 13.5959 27.0573 8.9617 3.6930 3.7808 51.5290
#
#
#
# Elastic Compliance Matrix: (Units=1/GPa)
#
#
# Indices 1 2 3 4 5 6 
#
# 1 0.005900 -0.001800 -0.004729 -0.000562 -0.001083 0.000331
# 2 -0.001800 0.012479 0.001409 -0.005808 -0.005705 -0.005488
# 3 -0.004729 0.001409 0.029895 -0.007120 0.008233 -0.004785
# 4 -0.000562 -0.005808 -0.007120 0.037505 0.005521 0.001343
# 5 -0.001083 -0.005705 0.008233 0.005521 0.041782 -0.001612
# 6 0.000331 -0.005488 -0.004785 0.001343 -0.001612 0.023055
#
#
# Mechanical properties :
#
#
# Convention : Reuss Voigt Hill
#
# Bulk Modulus (GPa) = 26.29347 59.54888 42.92117
# Shear Modulus (GPa) = 28.81285 41.37523 35.09404
#
# Velocity S-wave (km/s) = 3.39241 4.06524 3.74397
# Velocity P-wave (km/s) = 5.08397 6.76904 5.98610
#
# Compressibility (1/GPa) = 0.03803226
#
# Stress axis : x y z
#
# Youngs Moduli (GPa) = 169.50540 80.13699 33.45026
#
# Poissons Ratio (x) = 0.14425 0.15819
# Poissons Ratio (y) = 0.30512 -0.04712
# Poissons Ratio (z) = 0.80159 -0.11288
#
# Static dielectric constant tensor:
#      x y z
#    x 2.085380 0.049780 0.017350 
#    y 0.049780 2.015170 0.018880 
#    z 0.017350 0.018880 2.072940 
# 
# From -- ./inp_files/72076.got.cif
#   From: 2010.05.17/outbox.cif.g08.bks.cpg/sg2_37_cif.got.tgz:72076.got - 2010.06.03 11:33:40.
