data_PCOD9026886
_publ_section_title
;
Structure prediction by ZEFSAII (Michael W. Deem and Ramdas Pophale) SiO2 
 PCOD9026886
Probable space group: P -1
;
_chemical_formula_sum "Si O2"
_cell_formula_units_Z 16
_cell_length_a 14.209161
_cell_length_b 11.480059
_cell_length_c 5.663599
_cell_angle_alpha 88.378712
_cell_angle_beta 100.713595
_cell_angle_gamma 48.657240
_cell_volume 667.067274
_symmetry_space_group_name_H-M "P -1"
_symmetry_group_IT_number 2
_symmetry_cell_setting 'triclinic'
loop_
_space_group_symop_operation_xyz
x,y,z
-x,-y,-z
loop_
_atom_site_type_symbol
_atom_site_label
_atom_site_fract_x
_atom_site_fract_y
_atom_site_fract_z
Si Si1 0.080863 0.733519 0.468123
Si Si2 0.267363 0.541846 0.960965
Si Si3 0.464088 0.910173 0.262432
Si Si4 0.910680 0.483107 0.815657
Si Si5 0.151777 0.856795 0.123487
Si Si6 0.193772 0.994935 0.474714
Si Si7 0.718868 0.817779 0.524625
Si Si8 0.455106 0.777377 0.778003
O O1 0.022033 0.680778 0.275664
O O2 0.149954 0.780700 0.362300
O O3 0.957576 0.889670 0.536957
O O4 0.199344 0.578023 0.675620
O O5 0.194993 0.501799 0.082191
O O6 0.220254 0.711990 0.987794
O O7 0.419183 0.404874 0.096728
O O8 0.599533 0.867912 0.316147
O O9 0.473981 0.824548 0.521191
O O10 0.348560 0.096471 0.257930
O O11 0.447560 0.860382 0.009091
O O12 0.831300 0.631510 0.596800
O O13 0.000000 0.500000 0.000000
O O14 0.209031 0.934304 0.217853
O O15 0.000000 0.000000 0.000000
O O16 0.223325 0.106035 0.519525
O O17 0.312037 0.838240 0.681094
#
# Coordination Sequence:
#
# PCOD9026886 Si02
#       8
#     2   2   2   2   2   2   2   2
#     4  11  25  45  70  97 138 186 235 289 361 419
#     4  11  24  45  72  96 139 187 225 295 360 419
#     4  10  23  44  68 102 147 191 225 279 369 431
#     4  11  24  39  66 103 137 179 233 289 345 427
#     4  11  25  47  73  97 135 183 243 291 361 414
#     4  11  25  43  70 107 132 187 239 295 344 428
#     4  10  22  41  66 101 143 181 231 287 349 428
#     4  11  25  45  73 106 145 185 236 296 357 432
#
# _framework density 23.985583999999999
#
# number of rings (size 3 to 8) (size 9 to 14) (size 15 to 20)
#    0.000    1.250    2.500    1.875    5.250    9.000 
#    2.250    0.625    0.000    0.000    0.000    0.000 
#    0.000    0.000    0.000    0.000    0.000    0.000 
#
# Total GULP energy -89235.665987 kJ/mol
# GULP energy per Si atom -5577.229124 kJ/mol
# Density = 2.393099 g / cm^3
# Si number density = 23.985584 Si / 1000 Ang^3
#
#
#
# Elastic Constant Matrix: (Units=GPa)
#
#
# Indices 1 2 3 4 5 6 
#
# 1 59.9245 10.5025 29.1673 -9.3757 3.9582 11.8817
# 2 10.5025 109.7393 35.9657 -5.3511 18.0674 5.6911
# 3 29.1673 35.9657 103.9565 5.5179 22.1517 6.1977
# 4 -9.3757 -5.3511 5.5179 37.9129 2.6336 12.7018
# 5 3.9582 18.0674 22.1517 2.6336 34.6961 4.2909
# 6 11.8817 5.6911 6.1977 12.7018 4.2909 23.6907
#
#
#
# Elastic Compliance Matrix: (Units=1/GPa)
#
#
# Indices 1 2 3 4 5 6 
#
# 1 0.026259 0.001366 -0.008016 0.014199 0.002746 -0.019511
# 2 0.001366 0.011091 -0.003440 0.003969 -0.003550 -0.003934
# 3 -0.008016 -0.003440 0.014491 -0.005938 -0.006771 0.005465
# 4 0.014199 0.003969 -0.005938 0.040825 0.000531 -0.028506
# 5 0.002746 -0.003550 -0.006771 0.000531 0.035311 -0.005433
# 6 -0.019511 -0.003934 0.005465 -0.028506 -0.005433 0.067779
#
#
# Mechanical properties :
#
#
# Convention : Reuss Voigt Hill
#
# Bulk Modulus (GPa) = 31.58455 47.21014 39.39735
# Shear Modulus (GPa) = 22.07609 32.45893 27.26751
#
# Velocity S-wave (km/s) = 3.03708 3.68267 3.37535
# Velocity P-wave (km/s) = 5.04928 6.14884 5.62599
#
# Compressibility (1/GPa) = 0.03166105
#
# Stress axis : x y z
#
# Youngs Moduli (GPa) = 38.08289 90.16133 69.00983
#
# Poissons Ratio (x) = -0.12317 0.55315
# Poissons Ratio (y) = -0.05203 0.23741
# Poissons Ratio (z) = 0.30526 0.31017
#
# Static dielectric constant tensor:
#      x y z
#    x 1.994940 0.069490 -0.040830 
#    y 0.069490 2.045090 -0.021160 
#    z -0.040830 -0.021160 1.970300 
# 
# From -- ./inp_files/77845.got.cif
#   From: 2010.05.17/outbox.cif.g08.bks.cpg/sg2_39_cif.got.tgz:77845.got - 2010.06.03 11:33:40.
