data_PCOD9026076
_publ_section_title
;
Structure prediction by ZEFSAII (Michael W. Deem and Ramdas Pophale) SiO2 
 PCOD9026076
Probable space group: P -1
;
_chemical_formula_sum "Si O2"
_cell_formula_units_Z 14
_cell_length_a 12.879332
_cell_length_b 9.816448
_cell_length_c 9.939083
_cell_angle_alpha 133.772770
_cell_angle_beta 52.628374
_cell_angle_gamma 102.348567
_cell_volume 673.012777
_symmetry_space_group_name_H-M "P -1"
_symmetry_group_IT_number 2
_symmetry_cell_setting 'triclinic'
loop_
_space_group_symop_operation_xyz
x,y,z
-x,-y,-z
loop_
_atom_site_type_symbol
_atom_site_label
_atom_site_fract_x
_atom_site_fract_y
_atom_site_fract_z
Si Si1 0.004880 0.454735 0.732451
Si Si2 0.399837 0.620753 0.540978
Si Si3 0.888843 0.230065 0.253197
Si Si4 0.164863 0.236775 0.696701
Si Si5 0.510809 0.968815 0.629973
Si Si6 0.473005 0.650760 0.000283
Si Si7 0.840910 0.184082 0.562813
O O1 0.035412 0.606748 0.707855
O O2 0.138374 0.326224 0.629100
O O3 0.938574 0.301665 0.617182
O O4 0.902693 0.595357 0.022435
O O5 0.500000 0.500000 0.500000
O O6 0.230615 0.699182 0.720405
O O7 0.429295 0.825755 0.636711
O O8 0.456900 0.469803 0.268012
O O9 0.815418 0.236948 0.460491
O O10 0.000000 0.000000 0.000000
O O11 0.327206 0.141402 0.536822
O O12 0.100544 0.059130 0.637562
O O13 0.500000 0.000000 0.500000
O O14 0.466124 0.178333 0.888387
O O15 0.303863 0.745337 0.191394
O O16 0.500000 0.500000 0.000000
#
# Coordination Sequence:
#
# PCOD9026076 Si02
#       7
#     2   2   2   2   2   2   2
#     4  11  23  39  65  90 132 174 203 265 337 378
#     4  12  26  46  68  99 137 173 218 280 335 378
#     4  12  25  44  63  98 138 169 218 269 322 403
#     4  10  22  41  61  98 128 159 221 270 315 397
#     4  11  22  40  71  95 126 175 221 272 326 382
#     4  11  22  42  71  98 125 170 233 271 312 404
#     4  11  22  42  68  92 126 172 222 266 323 390
#
# _framework density 20.801984000000001
#
# number of rings (size 3 to 8) (size 9 to 14) (size 15 to 20)
#    0.000    0.857    4.286    3.429    0.000    1.714 
#    7.714    0.000    0.000    0.000    0.000    0.000 
#    0.000    0.000    0.000    0.000    0.000    0.000 
#
# Total GULP energy -78204.027771 kJ/mol
# GULP energy per Si atom -5586.001984 kJ/mol
# Density = 2.075464 g / cm^3
# Si number density = 20.801984 Si / 1000 Ang^3
#
#
#
# Elastic Constant Matrix: (Units=GPa)
#
#
# Indices 1 2 3 4 5 6 
#
# 1 106.2066 28.3007 38.9011 22.7489 6.8677 0.3376
# 2 28.3007 81.2892 -2.2219 15.0848 22.4016 7.0225
# 3 38.9011 -2.2219 71.7630 8.7281 15.9637 -3.3558
# 4 22.7489 15.0848 8.7281 22.8393 7.9128 5.5524
# 5 6.8677 22.4016 15.9637 7.9128 30.2938 8.6077
# 6 0.3376 7.0225 -3.3558 5.5524 8.6077 47.7365
#
#
#
# Elastic Compliance Matrix: (Units=1/GPa)
#
#
# Indices 1 2 3 4 5 6 
#
# 1 0.016670 -0.006445 -0.009888 -0.011754 0.009318 -0.000178
# 2 -0.006445 0.020262 0.008569 -0.004592 -0.017209 0.001304
# 3 -0.009888 0.008569 0.023609 0.000411 -0.017668 0.003607
# 4 -0.011754 -0.004592 0.000411 0.062721 -0.009159 -0.004856
# 5 0.009318 -0.017209 -0.017668 -0.009159 0.057628 -0.008102
# 6 -0.000178 0.001304 0.003607 -0.004856 -0.008102 0.023037
#
#
# Mechanical properties :
#
#
# Convention : Reuss Voigt Hill
#
# Bulk Modulus (GPa) = 22.21613 43.24650 32.73131
# Shear Modulus (GPa) = 21.32553 33.12584 27.22568
#
# Velocity S-wave (km/s) = 3.20530 3.99486 3.62166
# Velocity P-wave (km/s) = 4.93980 6.48948 5.76693
#
# Compressibility (1/GPa) = 0.04501234
#
# Stress axis : x y z
#
# Youngs Moduli (GPa) = 59.98651 49.35412 42.35674
#
# Poissons Ratio (x) = 0.31811 0.41882
# Poissons Ratio (y) = 0.38664 -0.36295
# Poissons Ratio (z) = 0.59314 -0.42291
#
# Static dielectric constant tensor:
#      x y z
#    x 1.785130 0.005440 -0.032260 
#    y 0.005440 1.765140 0.010740 
#    z -0.032260 0.010740 1.752500 
# 
# From -- ./inp_files/185466.got.cif
#   From: 2010.05.17/outbox.cif.g08.bks.cpg/sg2_93_cif.got.tgz:185466.got - 2010.06.03 11:33:40.
