data_PCOD9026921
_publ_section_title
;
Structure prediction by ZEFSAII (Michael W. Deem and Ramdas Pophale) SiO2 
 PCOD9026921
Probable space group: P -1
;
_chemical_formula_sum "Si O2"
_cell_formula_units_Z 16
_cell_length_a 23.776040
_cell_length_b 5.048552
_cell_length_c 5.365949
_cell_angle_alpha 96.175020
_cell_angle_beta 103.986395
_cell_angle_gamma 66.599220
_cell_volume 573.548365
_symmetry_space_group_name_H-M "P -1"
_symmetry_group_IT_number 2
_symmetry_cell_setting 'triclinic'
loop_
_space_group_symop_operation_xyz
x,y,z
-x,-y,-z
loop_
_atom_site_type_symbol
_atom_site_label
_atom_site_fract_x
_atom_site_fract_y
_atom_site_fract_z
Si Si1 0.132690 0.649721 0.120642
Si Si2 0.428953 0.535790 0.402414
Si Si3 0.901129 0.763080 0.337548
Si Si4 0.252269 0.557711 0.005614
Si Si5 0.016024 0.710379 0.227872
Si Si6 0.627953 0.573873 0.144975
Si Si7 0.671385 0.909468 0.577167
Si Si8 0.213056 0.172281 0.545627
O O1 0.182096 0.759638 0.047392
O O2 0.063313 0.843777 0.172290
O O3 0.172829 0.446815 0.363166
O O4 0.118329 0.421149 0.906185
O O5 0.500000 0.500000 0.500000
O O6 0.402716 0.497825 0.644441
O O7 0.384221 0.859378 0.311151
O O8 0.417107 0.363139 0.136964
O O9 0.942774 0.515874 0.546032
O O10 0.836741 0.956432 0.426313
O O11 0.948471 0.901590 0.294856
O O12 0.294928 0.382608 0.263262
O O13 0.301083 0.638185 0.894206
O O14 0.237489 0.313574 0.810033
O O15 0.000000 0.500000 0.000000
O O16 0.641198 0.846511 0.287722
O O17 0.727670 0.009838 0.576777
#
# Coordination Sequence:
#
# PCOD9026921 Si02
#       8
#     2   2   2   2   2   2   2   2
#     4   8  13  22  39  67 100 148 192 241 301 353
#     4  12  28  45  67  97 127 162 207 251 306 379
#     4   8  12  19  32  58  99 144 191 240 296 351
#     4   9  17  35  57  83 114 158 199 251 306 358
#     4   8  12  17  29  55  97 145 187 243 297 342
#     4  11  24  45  66  95 126 163 205 253 307 371
#     4  10  22  41  66  89 127 164 203 258 313 359
#     4   8  15  26  48  73 105 151 196 241 306 353
#
# _framework density 27.896512999999999
#
# number of rings (size 3 to 8) (size 9 to 14) (size 15 to 20)
#    0.000    2.750    1.250    0.375    3.500    1.000 
#    0.000    0.000    0.000    0.000    0.000    0.000 
#    0.000    2.000    1.000   54.000    0.000   18.375 
#
# Total GULP energy -89501.765360 kJ/mol
# GULP energy per Si atom -5593.860335 kJ/mol
# Density = 2.783302 g / cm^3
# Si number density = 27.896513 Si / 1000 Ang^3
#
#
#
# Elastic Constant Matrix: (Units=GPa)
#
#
# Indices 1 2 3 4 5 6 
#
# 1 298.9802 37.9325 66.8507 -13.3220 -6.6137 -12.1394
# 2 37.9325 74.1358 29.5538 2.6860 0.9151 0.9363
# 3 66.8507 29.5538 140.4327 -0.2115 1.2372 15.5403
# 4 -13.3220 2.6860 -0.2115 27.5843 9.8608 -11.7786
# 5 -6.6137 0.9151 1.2372 9.8608 56.8548 -4.9770
# 6 -12.1394 0.9363 15.5403 -11.7786 -4.9770 32.4533
#
#
#
# Elastic Compliance Matrix: (Units=1/GPa)
#
#
# Indices 1 2 3 4 5 6 
#
# 1 0.004397 -0.001561 -0.002230 0.003974 0.000267 0.004241
# 2 -0.001561 0.015350 -0.002399 -0.002623 0.000006 -0.000829
# 3 -0.002230 -0.002399 0.009414 -0.003437 -0.000406 -0.006582
# 4 0.003974 -0.002623 -0.003437 0.049204 -0.006194 0.020116
# 5 0.000267 0.000006 -0.000406 -0.006194 0.018784 0.000927
# 6 0.004241 -0.000829 -0.006582 0.020116 0.000927 0.043019
#
#
# Mechanical properties :
#
#
# Convention : Reuss Voigt Hill
#
# Bulk Modulus (GPa) = 59.59821 86.91364 73.25593
# Shear Modulus (GPa) = 31.61728 48.65925 40.13827
#
# Velocity S-wave (km/s) = 3.37022 4.18099 3.79730
# Velocity P-wave (km/s) = 6.04607 7.38450 6.74855
#
# Compressibility (1/GPa) = 0.01677903
#
# Stress axis : x y z
#
# Youngs Moduli (GPa) = 227.45137 65.14844 106.22363
#
# Poissons Ratio (x) = 0.10172 0.23687
# Poissons Ratio (y) = 0.35515 0.25486
# Poissons Ratio (z) = 0.50720 0.15631
#
# Static dielectric constant tensor:
#      x y z
#    x 2.245620 -0.014000 -0.121290 
#    y -0.014000 2.146480 0.030060 
#    z -0.121290 0.030060 2.238170 
# 
# From -- ./inp_files/11096.got.cif
#   From: 2010.05.17/outbox.cif.g08.bks.cpg/sg2_6_cif.got.tgz:11096.got - 2010.06.03 11:33:40.
