data_PCOD9026250
_publ_section_title
;
Structure prediction by ZEFSAII (Michael W. Deem and Ramdas Pophale) SiO2 
 PCOD9026250
Probable space group: P -1
;
_chemical_formula_sum "Si O2"
_cell_formula_units_Z 12
_cell_length_a 9.425952
_cell_length_b 11.640480
_cell_length_c 18.038661
_cell_angle_alpha 135.567812
_cell_angle_beta 157.990839
_cell_angle_gamma 42.564067
_cell_volume 497.895908
_symmetry_space_group_name_H-M "P -1"
_symmetry_group_IT_number 2
_symmetry_cell_setting 'triclinic'
loop_
_space_group_symop_operation_xyz
x,y,z
-x,-y,-z
loop_
_atom_site_type_symbol
_atom_site_label
_atom_site_fract_x
_atom_site_fract_y
_atom_site_fract_z
Si Si1 0.096763 0.152170 0.160326
Si Si2 0.513454 0.610078 0.630081
Si Si3 0.799055 0.311954 0.233124
Si Si4 0.896050 0.938025 0.500654
Si Si5 0.402052 0.596659 0.280759
Si Si6 0.061310 0.971062 0.279949
O O1 0.251359 0.259707 0.223286
O O2 0.803342 0.286019 0.134669
O O3 0.437358 0.041174 0.329221
O O4 0.000000 0.000000 0.000000
O O5 0.500000 0.500000 0.500000
O O6 0.696596 0.493467 0.734487
O O7 0.071915 0.732576 0.492949
O O8 0.484157 0.463531 0.191916
O O9 0.203545 0.353896 0.476020
O O10 0.791915 0.128303 0.176734
O O11 0.074660 0.003419 0.688609
O O12 0.000000 0.000000 0.500000
O O13 0.115932 0.775474 0.197334
O O14 0.500000 0.000000 0.500000
#
# Coordination Sequence:
#
# PCOD9026250 Si02
#       6
#     2   2   2   2   2   2
#     4  11  23  39  57  85 124 160 185 233 310 359
#     4  11  20  36  61  88 114 148 207 247 278 340
#     4  10  19  33  56  89 115 148 192 248 289 340
#     4  10  19  34  57  86 113 150 194 241 285 340
#     4  10  18  31  59  88 110 143 202 253 278 326
#     4  10  17  31  55  89 111 139 196 250 285 324
#
# _framework density 24.101423
#
# number of rings (size 3 to 8) (size 9 to 14) (size 15 to 20)
#    0.000    1.667    6.667    1.000    0.000    0.000 
#    0.000    1.667    0.000    1.000    0.000    0.000 
#    0.000    0.000    0.000    0.000    0.000    0.000 
#
# Total GULP energy -67007.114302 kJ/mol
# GULP energy per Si atom -5583.926192 kJ/mol
# Density = 2.404657 g / cm^3
# Si number density = 24.101423 Si / 1000 Ang^3
#
#
#
# Elastic Constant Matrix: (Units=GPa)
#
#
# Indices 1 2 3 4 5 6 
#
# 1 139.0962 68.7269 32.1509 22.5409 -13.8319 -6.8613
# 2 68.7269 186.5989 30.0016 42.8214 4.9855 -5.9127
# 3 32.1509 30.0016 60.0611 23.4330 0.9450 4.1577
# 4 22.5409 42.8214 23.4330 36.9602 -2.1435 -6.2416
# 5 -13.8319 4.9855 0.9450 -2.1435 15.6412 14.0440
# 6 -6.8613 -5.9127 4.1577 -6.2416 14.0440 54.5393
#
#
#
# Elastic Compliance Matrix: (Units=1/GPa)
#
#
# Indices 1 2 3 4 5 6 
#
# 1 0.011355 -0.004162 -0.004551 0.001228 0.013653 -0.002051
# 2 -0.004162 0.009068 0.001236 -0.009002 -0.009472 0.001774
# 3 -0.004551 0.001236 0.024592 -0.015011 -0.005648 -0.002577
# 4 0.001228 -0.009002 -0.015011 0.047340 0.008058 0.003666
# 5 0.013653 -0.009472 -0.005648 0.008058 0.102287 -0.024296
# 6 -0.002051 0.001774 -0.002577 0.003666 -0.024296 0.025142
#
#
# Mechanical properties :
#
#
# Convention : Reuss Voigt Hill
#
# Bulk Modulus (GPa) = 33.26483 71.94608 52.60545
# Shear Modulus (GPa) = 20.42824 38.41994 29.42409
#
# Velocity S-wave (km/s) = 2.91451 3.99694 3.49785
# Velocity P-wave (km/s) = 5.01575 7.15660 6.17959
#
# Compressibility (1/GPa) = 0.03006178
#
# Stress axis : x y z
#
# Youngs Moduli (GPa) = 88.06467 110.27464 40.66303
#
# Poissons Ratio (x) = 0.45897 0.18508
# Poissons Ratio (y) = 0.36653 -0.05028
# Poissons Ratio (z) = 0.40082 -0.13635
#
# Static dielectric constant tensor:
#      x y z
#    x 2.057490 -0.156000 -0.029320 
#    y -0.156000 1.959900 -0.034140 
#    z -0.029320 -0.034140 2.051270 
# 
# From -- ./inp_files/156120.got.cif
#   From: 2010.05.17/outbox.cif.g08.bks.cpg/sg2_79_cif.got.tgz:156120.got - 2010.06.03 11:33:40.
