data_PCOD9026836
_publ_section_title
;
Structure prediction by ZEFSAII (Michael W. Deem and Ramdas Pophale) SiO2 
 PCOD9026836
Probable space group: P -1
;
_chemical_formula_sum "Si O2"
_cell_formula_units_Z 16
_cell_length_a 14.562553
_cell_length_b 8.944324
_cell_length_c 15.909102
_cell_angle_alpha 132.475991
_cell_angle_beta 152.394722
_cell_angle_gamma 54.187957
_cell_volume 707.677345
_symmetry_space_group_name_H-M "P -1"
_symmetry_group_IT_number 2
_symmetry_cell_setting 'triclinic'
loop_
_space_group_symop_operation_xyz
x,y,z
-x,-y,-z
loop_
_atom_site_type_symbol
_atom_site_label
_atom_site_fract_x
_atom_site_fract_y
_atom_site_fract_z
Si Si1 0.197078 0.803815 0.212277
Si Si2 0.171973 0.430972 0.379517
Si Si3 0.119461 0.265710 0.708430
Si Si4 0.916140 0.097363 0.147519
Si Si5 0.583766 0.374343 0.944890
Si Si6 0.281558 0.589766 0.359492
Si Si7 0.531149 0.796196 0.372901
Si Si8 0.909708 0.013819 0.576249
O O1 0.213361 0.617806 0.218763
O O2 0.293724 0.792195 0.194251
O O3 0.355986 0.985397 0.443313
O O4 0.978617 0.886681 0.077364
O O5 0.158847 0.456209 0.278428
O O6 0.388738 0.360740 0.553480
O O7 0.097326 0.636169 0.438948
O O8 0.041230 0.256400 0.252035
O O9 0.268705 0.456505 0.914266
O O10 0.090250 0.129363 0.715444
O O11 0.170472 0.141482 0.619242
O O12 0.698427 0.179840 0.997026
O O13 0.998118 0.087527 0.305152
O O14 0.500000 0.500000 0.000000
O O15 0.429289 0.292495 0.719835
O O16 0.500000 0.500000 0.500000
O O17 0.244250 0.816328 0.454484
#
# Coordination Sequence:
#
# PCOD9026836 Si02
#       8
#     2   2   2   2   2   2   2   2
#     4   9  19  36  62  80 112 149 202 231 270 342
#     4   9  18  32  58  82 113 144 191 230 276 340
#     4   9  20  38  57  83 110 157 185 238 276 345
#     4   9  20  37  57  81 109 157 186 234 280 339
#     4  11  25  36  55  86 126 147 185 236 298 333
#     4  10  17  31  56  91 109 132 189 250 280 311
#     4  10  20  36  55  88 114 150 189 238 280 334
#     4   9  19  36  63  79 112 148 206 222 275 343
#
# _framework density 22.609173999999999
#
# number of rings (size 3 to 8) (size 9 to 14) (size 15 to 20)
#    0.000    2.500    1.250    0.000    7.000    1.500 
#    0.000    1.875    0.000    7.500    0.000    0.000 
#    0.000    0.000    0.000    0.000    0.000    0.000 
#
# Total GULP energy -89126.826960 kJ/mol
# GULP energy per Si atom -5570.426685 kJ/mol
# Density = 2.255771 g / cm^3
# Si number density = 22.609174 Si / 1000 Ang^3
#
#
#
# Elastic Constant Matrix: (Units=GPa)
#
#
# Indices 1 2 3 4 5 6 
#
# 1 115.3285 38.7154 13.1636 2.0017 -18.2302 7.1184
# 2 38.7154 89.8696 27.1989 -14.9838 -8.5474 12.4638
# 3 13.1636 27.1989 41.0940 14.8553 -9.5479 2.8421
# 4 2.0017 -14.9838 14.8553 28.6032 -6.0464 -5.5884
# 5 -18.2302 -8.5474 -9.5479 -6.0464 25.1221 -2.3787
# 6 7.1184 12.4638 2.8421 -5.5884 -2.3787 45.2298
#
#
#
# Elastic Compliance Matrix: (Units=1/GPa)
#
#
# Indices 1 2 3 4 5 6 
#
# 1 0.011434 -0.006068 0.003538 -0.004572 0.006423 -0.000577
# 2 -0.006068 0.025922 -0.024468 0.026768 0.001440 -0.001268
# 3 0.003538 -0.024468 0.055695 -0.041295 0.005269 -0.002139
# 4 -0.004572 0.026768 -0.041295 0.073577 0.008322 0.005466
# 5 0.006423 0.001440 0.005269 0.008322 0.049139 0.001874
# 6 -0.000577 -0.001268 -0.002139 0.005466 0.001874 0.023458
#
#
# Mechanical properties :
#
#
# Convention : Reuss Voigt Hill
#
# Bulk Modulus (GPa) = 25.60355 44.93865 35.27110
# Shear Modulus (GPa) = 16.32710 30.93864 23.63287
#
# Velocity S-wave (km/s) = 2.69019 3.70322 3.23658
# Velocity P-wave (km/s) = 4.58241 6.18098 5.44073
#
# Compressibility (1/GPa) = 0.03905708
#
# Stress axis : x y z
#
# Youngs Moduli (GPa) = 87.45668 38.57722 17.95481
#
# Poissons Ratio (x) = 0.23409 -0.06353
# Poissons Ratio (y) = 0.53069 0.43931
# Poissons Ratio (z) = -0.30944 0.94389
#
# Static dielectric constant tensor:
#      x y z
#    x 1.906190 -0.024250 0.058970 
#    y -0.024250 1.900500 -0.016810 
#    z 0.058970 -0.016810 1.895130 
# 
# From -- ./inp_files/217075.got.cif
#   From: 2010.05.17/outbox.cif.g08.bks.cpg/sg2_109_cif.got.tgz:217075.got - 2010.06.03 11:33:40.
