data_PCOD9026119
_publ_section_title
;
Structure prediction by ZEFSAII (Michael W. Deem and Ramdas Pophale) SiO2 
 PCOD9026119
Probable space group: P -1
;
_chemical_formula_sum "Si O2"
_cell_formula_units_Z 16
_cell_length_a 8.975597
_cell_length_b 10.937032
_cell_length_c 9.013053
_cell_angle_alpha 82.794260
_cell_angle_beta 89.824864
_cell_angle_gamma 62.559028
_cell_volume 777.519916
_symmetry_space_group_name_H-M "P -1"
_symmetry_group_IT_number 2
_symmetry_cell_setting 'triclinic'
loop_
_space_group_symop_operation_xyz
x,y,z
-x,-y,-z
loop_
_atom_site_type_symbol
_atom_site_label
_atom_site_fract_x
_atom_site_fract_y
_atom_site_fract_z
Si Si1 0.796265 0.288730 0.177013
Si Si2 0.877419 0.144451 0.897049
Si Si3 0.478739 0.509885 0.320612
Si Si4 0.816365 0.061851 0.424832
Si Si5 0.407635 0.810880 0.307121
Si Si6 0.101903 0.616841 0.321458
Si Si7 0.338367 0.131964 0.547467
Si Si8 0.971747 0.631817 0.647468
O O1 0.625485 0.402757 0.234667
O O2 0.816794 0.148501 0.272527
O O3 0.948871 0.317665 0.228650
O O4 0.795176 0.260805 0.008368
O O5 0.747954 0.104741 0.814517
O O6 0.939759 0.232412 0.772655
O O7 0.000000 0.000000 0.000000
O O8 0.500000 0.500000 0.500000
O O9 0.466313 0.658678 0.269351
O O10 0.296781 0.520722 0.294620
O O11 0.681088 0.159328 0.534221
O O12 0.776019 0.938710 0.399845
O O13 0.000000 0.000000 0.500000
O O14 0.575499 0.825748 0.327171
O O15 0.011601 0.521141 0.297077
O O16 0.077025 0.628069 0.498827
O O17 0.220712 0.258014 0.417885
O O18 0.500000 0.000000 0.500000
#
# Coordination Sequence:
#
# PCOD9026119 Si02
#       8
#     2   2   2   2   2   2   2   2
#     4  12  24  38  68  97 127 180 214 268 329 394
#     4  11  26  45  66  91 139 179 218 261 332 410
#     4  11  19  39  66  97 128 164 222 278 324 378
#     4  11  20  37  64  96 124 163 231 268 316 379
#     4  10  22  41  62  91 130 171 212 278 326 378
#     4  10  24  41  66  98 130 174 215 275 326 386
#     4  10  23  36  65  99 130 164 218 287 326 372
#     4  11  22  41  70  99 127 166 229 274 328 378
#
# _framework density 20.578249
#
# number of rings (size 3 to 8) (size 9 to 14) (size 15 to 20)
#    0.000    1.250    3.750    2.250    7.000    2.500 
#    0.000    0.625    2.750    0.000    0.000    0.000 
#    0.000    0.000    0.000    0.000    0.000    0.000 
#
# Total GULP energy -89124.755099 kJ/mol
# GULP energy per Si atom -5570.297194 kJ/mol
# Density = 2.053141 g / cm^3
# Si number density = 20.578249 Si / 1000 Ang^3
#
#
#
# Elastic Constant Matrix: (Units=GPa)
#
#
# Indices 1 2 3 4 5 6 
#
# 1 138.2177 38.2539 40.2993 -4.3092 6.6610 16.8949
# 2 38.2539 62.6994 18.6698 -5.9913 -16.3263 -5.6337
# 3 40.2993 18.6698 84.5461 10.4295 2.3997 1.2791
# 4 -4.3092 -5.9913 10.4295 40.9460 -0.1294 -5.7548
# 5 6.6610 -16.3263 2.3997 -0.1294 25.5488 3.3746
# 6 16.8949 -5.6337 1.2791 -5.7548 3.3746 44.9773
#
#
#
# Elastic Compliance Matrix: (Units=1/GPa)
#
#
# Indices 1 2 3 4 5 6 
#
# 1 0.011442 -0.008298 -0.003363 0.000167 -0.007352 -0.004669
# 2 -0.008298 0.028237 -0.003556 0.005058 0.019786 0.005918
# 3 -0.003363 -0.003556 0.014872 -0.004670 -0.002817 0.000009
# 4 0.000167 0.005058 -0.004670 0.026929 0.003248 0.003905
# 5 -0.007352 0.019786 -0.002817 0.003248 0.053757 0.001702
# 6 -0.004669 0.005918 0.000009 0.003905 0.001702 0.025100
#
#
# Mechanical properties :
#
#
# Convention : Reuss Voigt Hill
#
# Bulk Modulus (GPa) = 41.46063 53.32325 47.39194
# Shear Modulus (GPa) = 25.14965 34.84376 29.99671
#
# Velocity S-wave (km/s) = 3.49972 4.11935 3.82211
# Velocity P-wave (km/s) = 6.04336 6.97095 6.52366
#
# Compressibility (1/GPa) = 0.02411927
#
# Stress axis : x y z
#
# Youngs Moduli (GPa) = 87.39586 35.41396 67.24098
#
# Poissons Ratio (x) = 0.29385 0.22613
# Poissons Ratio (y) = 0.72518 0.23908
# Poissons Ratio (z) = 0.29391 0.12592
#
# Static dielectric constant tensor:
#      x y z
#    x 1.620870 0.446230 -0.034400 
#    y 0.446230 0.636010 0.129780 
#    z -0.034400 0.129780 1.738040 
# 
# From -- ./inp_files/177679.got.cif
#   From: 2010.05.17/outbox.cif.g08.bks.cpg/sg2_89_cif.got.tgz:177679.got - 2010.06.03 11:33:40.
