data_PCOD9026092
_publ_section_title
;
Structure prediction by ZEFSAII (Michael W. Deem and Ramdas Pophale) SiO2 
 PCOD9026092
Probable space group: P -1
;
_chemical_formula_sum "Si O2"
_cell_formula_units_Z 14
_cell_length_a 22.896065
_cell_length_b 6.645676
_cell_length_c 5.120549
_cell_angle_alpha 73.491688
_cell_angle_beta 115.796846
_cell_angle_gamma 71.072135
_cell_volume 574.892812
_symmetry_space_group_name_H-M "P -1"
_symmetry_group_IT_number 2
_symmetry_cell_setting 'triclinic'
loop_
_space_group_symop_operation_xyz
x,y,z
-x,-y,-z
loop_
_atom_site_type_symbol
_atom_site_label
_atom_site_fract_x
_atom_site_fract_y
_atom_site_fract_z
Si Si1 0.018955 0.265735 0.891967
Si Si2 0.116316 0.458993 0.842936
Si Si3 0.350064 0.505879 0.255333
Si Si4 0.323419 0.261705 0.788197
Si Si5 0.229500 0.060134 0.874836
Si Si6 0.900637 0.037030 0.362904
Si Si7 0.487198 0.876163 0.271180
O O1 0.061103 0.421701 0.941113
O O2 0.933705 0.442608 0.559633
O O3 0.062349 0.104422 0.779419
O O4 0.038791 0.085482 0.240061
O O5 0.192703 0.205822 0.018985
O O6 0.128539 0.680253 0.849171
O O7 0.328958 0.369830 0.484736
O O8 0.440816 0.399325 0.482991
O O9 0.329889 0.428033 0.967959
O O10 0.302616 0.790285 0.129702
O O11 0.251126 0.234637 0.698511
O O12 0.397683 0.985084 0.054611
O O13 0.166702 0.004206 0.667538
O O14 0.500000 0.000000 0.500000
O O15 0.500000 0.000000 0.000000
#
# Coordination Sequence:
#
# PCOD9026092 Si02
#       7
#     2   2   2   2   2   2   2
#     4  10  24  43  66  89 114 157 206 248 298 352
#     4  10  23  42  64  90 121 155 201 251 297 356
#     4  10  22  41  62  89 123 158 200 248 296 350
#     4  10  22  41  62  88 123 159 200 248 292 351
#     4  11  25  38  61  92 124 162 196 240 307 362
#     4  11  24  42  63  89 120 157 201 249 298 353
#     4   8  16  35  62  85 113 156 200 243 290 341
#
# _framework density 24.352367000000001
#
# number of rings (size 3 to 8) (size 9 to 14) (size 15 to 20)
#    0.000    2.000    0.000    1.714    0.000   17.143 
#    0.000    0.000    0.000   10.286    0.000    0.000 
#    0.000    0.000    0.000    0.000    0.000    0.000 
#
# Total GULP energy -78273.466489 kJ/mol
# GULP energy per Si atom -5590.961892 kJ/mol
# Density = 2.429694 g / cm^3
# Si number density = 24.352367 Si / 1000 Ang^3
#
#
#
# Elastic Constant Matrix: (Units=GPa)
#
#
# Indices 1 2 3 4 5 6 
#
# 1 107.6283 21.4390 -0.0200 1.2040 10.8707 13.8772
# 2 21.4390 104.5155 29.1489 -30.6208 11.2176 -16.0543
# 3 -0.0200 29.1489 61.0617 -1.2839 -9.2887 -14.0219
# 4 1.2040 -30.6208 -1.2839 44.3505 -13.8346 6.1825
# 5 10.8707 11.2176 -9.2887 -13.8346 31.2972 -7.2062
# 6 13.8772 -16.0543 -14.0219 6.1825 -7.2062 50.3123
#
#
#
# Elastic Compliance Matrix: (Units=1/GPa)
#
#
# Indices 1 2 3 4 5 6 
#
# 1 0.011152 -0.003405 -0.000330 -0.003726 -0.005452 -0.004577
# 2 -0.003405 0.015637 -0.006897 0.009856 -0.001519 0.002578
# 3 -0.000330 -0.006897 0.022438 -0.001867 0.009749 0.005769
# 4 -0.003726 0.009856 -0.001867 0.032987 0.012096 0.001331
# 5 -0.005452 -0.001519 0.009749 0.012096 0.044620 0.008641
# 6 -0.004577 0.002578 0.005769 0.001331 0.008641 0.024643
#
#
# Mechanical properties :
#
#
# Convention : Reuss Voigt Hill
#
# Bulk Modulus (GPa) = 35.76259 41.59347 38.67803
# Shear Modulus (GPa) = 27.46333 40.03449 33.74891
#
# Velocity S-wave (km/s) = 3.36184 4.05899 3.72675
# Velocity P-wave (km/s) = 5.45771 6.25173 5.86816
#
# Compressibility (1/GPa) = 0.02796218
#
# Stress axis : x y z
#
# Youngs Moduli (GPa) = 89.67000 63.95255 44.56735
#
# Poissons Ratio (x) = 0.21777 0.01469
# Poissons Ratio (y) = 0.30535 0.30740
# Poissons Ratio (z) = 0.02955 0.44110
#
# Static dielectric constant tensor:
#      x y z
#    x 1.939750 -0.000550 0.071580 
#    y -0.000550 1.980040 0.010870 
#    z 0.071580 0.010870 1.965440 
# 
# From -- ./inp_files/121485.got.cif
#   From: 2010.05.17/outbox.cif.g08.bks.cpg/sg2_61_cif.got.tgz:121485.got - 2010.06.03 11:33:40.
