data_PCOD9026153
_publ_section_title
;
Structure prediction by ZEFSAII (Michael W. Deem and Ramdas Pophale) SiO2 
 PCOD9026153
Probable space group: P -1
;
_chemical_formula_sum "Si O2"
_cell_formula_units_Z 16
_cell_length_a 14.916765
_cell_length_b 11.501952
_cell_length_c 9.059206
_cell_angle_alpha 142.792540
_cell_angle_beta 120.580084
_cell_angle_gamma 74.602823
_cell_volume 779.502388
_symmetry_space_group_name_H-M "P -1"
_symmetry_group_IT_number 2
_symmetry_cell_setting 'triclinic'
loop_
_space_group_symop_operation_xyz
x,y,z
-x,-y,-z
loop_
_atom_site_type_symbol
_atom_site_label
_atom_site_fract_x
_atom_site_fract_y
_atom_site_fract_z
Si Si1 0.110616 0.326587 0.646797
Si Si2 0.238915 0.251615 0.956279
Si Si3 0.210006 0.098456 0.274914
Si Si4 0.683972 0.121776 0.351258
Si Si5 0.588702 0.406996 0.407656
Si Si6 0.123047 0.909849 0.698371
Si Si7 0.748934 0.265340 0.876776
Si Si8 0.394012 0.506341 0.828493
O O1 0.201480 0.306716 0.821928
O O2 0.125539 0.196210 0.386209
O O3 0.994459 0.235551 0.528208
O O4 0.139574 0.559040 0.864653
O O5 0.322090 0.112278 0.874524
O O6 0.135681 0.106093 0.805125
O O7 0.297288 0.440869 0.292757
O O8 0.315334 0.282654 0.523993
O O9 0.234920 0.931383 0.232599
O O10 0.167605 0.994051 0.980134
O O11 0.593190 0.196741 0.267256
O O12 0.793173 0.191999 0.414444
O O13 0.702253 0.212975 0.621280
O O14 0.500000 0.500000 0.500000
O O15 0.578494 0.406705 0.223717
O O16 0.670094 0.360370 0.002503
O O17 0.500000 0.500000 0.000000
#
# Coordination Sequence:
#
# PCOD9026153 Si02
#       8
#     2   2   2   2   2   2   2   2
#     4  11  22  40  65  95 127 177 210 257 314 369
#     4  10  22  42  63  92 129 161 214 264 308 371
#     4  11  22  43  61  92 136 163 212 262 309 381
#     4  10  22  41  62  95 126 164 210 261 306 374
#     4  12  24  43  70  92 123 163 211 263 322 378
#     4  10  22  41  64  93 131 170 214 257 316 368
#     4  11  23  39  65  92 132 167 211 259 312 378
#     4  11  25  42  66  94 124 166 206 263 326 377
#
# _framework density 20.525915999999999
#
# number of rings (size 3 to 8) (size 9 to 14) (size 15 to 20)
#    0.750    0.500    3.750    2.250    1.750    2.000 
#    2.250    0.000    0.000    0.000    0.000    0.000 
#    0.000    0.000    0.000    0.000    0.000    0.000 
#
# Total GULP energy -89361.397720 kJ/mol
# GULP energy per Si atom -5585.087358 kJ/mol
# Density = 2.047920 g / cm^3
# Si number density = 20.525916 Si / 1000 Ang^3
#
#
#
# Elastic Constant Matrix: (Units=GPa)
#
#
# Indices 1 2 3 4 5 6 
#
# 1 58.4148 19.9072 19.6538 -4.8399 -7.9324 10.3518
# 2 19.9072 106.4873 41.1103 3.5144 -22.1139 4.7788
# 3 19.6538 41.1103 74.9541 -4.9146 -15.6991 3.2940
# 4 -4.8399 3.5144 -4.9146 35.5660 13.5635 -8.7582
# 5 -7.9324 -22.1139 -15.6991 13.5635 27.4686 -7.9013
# 6 10.3518 4.7788 3.2940 -8.7582 -7.9013 29.0089
#
#
#
# Elastic Compliance Matrix: (Units=1/GPa)
#
#
# Indices 1 2 3 4 5 6 
#
# 1 0.020293 -0.002125 -0.003894 0.001044 -0.000387 -0.006239
# 2 -0.002125 0.014452 -0.005458 -0.006754 0.011242 0.000020
# 3 -0.003894 -0.005458 0.018390 0.001116 0.004986 0.001895
# 4 0.001044 -0.006754 0.001116 0.039021 -0.021918 0.006424
# 5 -0.000387 0.011242 0.004986 -0.021918 0.061257 0.007787
# 6 -0.006239 0.000020 0.001895 0.006424 0.007787 0.040541
#
#
# Mechanical properties :
#
#
# Convention : Reuss Voigt Hill
#
# Bulk Modulus (GPa) = 33.13357 44.57766 38.85562
# Shear Modulus (GPa) = 22.02952 29.02104 25.52528
#
# Velocity S-wave (km/s) = 3.27961 3.76423 3.53025
# Velocity P-wave (km/s) = 5.52435 6.37632 5.96556
#
# Compressibility (1/GPa) = 0.03018087
#
# Stress axis : x y z
#
# Youngs Moduli (GPa) = 49.27821 69.19497 54.37618
#
# Poissons Ratio (x) = 0.14705 0.21172
# Poissons Ratio (y) = 0.10473 0.29680
# Poissons Ratio (z) = 0.19187 0.37769
#
# Static dielectric constant tensor:
#      x y z
#    x 1.723730 0.007110 0.019150 
#    y 0.007110 1.726950 0.020820 
#    z 0.019150 0.020820 1.715020 
# 
# From -- ./inp_files/308858.got.cif
#   From: 2010.05.17/outbox.cif.g08.bks.cpg/sg2_155_cif.got.tgz:308858.got - 2010.06.03 11:33:40.
