data_PCOD9026622
_publ_section_title
;
Structure prediction by ZEFSAII (Michael W. Deem and Ramdas Pophale) SiO2 
 PCOD9026622
Probable space group: P -1
;
_chemical_formula_sum "Si O2"
_cell_formula_units_Z 13
_cell_length_a 9.799379
_cell_length_b 15.714695
_cell_length_c 9.549445
_cell_angle_alpha 45.654958
_cell_angle_beta 62.185632
_cell_angle_gamma 33.426253
_cell_volume 553.293736
_symmetry_space_group_name_H-M "P -1"
_symmetry_group_IT_number 2
_symmetry_cell_setting 'triclinic'
loop_
_space_group_symop_operation_xyz
x,y,z
-x,-y,-z
loop_
_atom_site_type_symbol
_atom_site_label
_atom_site_fract_x
_atom_site_fract_y
_atom_site_fract_z
Si Si1 0.395453 0.913256 0.004436
Si Si2 0.218166 0.697729 0.476124
Si Si3 0.584120 0.298724 0.348059
Si Si4 0.000000 0.000000 0.000000
Si Si5 0.796638 0.519680 0.094521
Si Si6 0.549741 0.074081 0.737978
Si Si7 0.853245 0.325536 0.023784
O O1 0.116805 0.027490 0.022256
O O2 0.403857 0.044335 0.802058
O O3 0.532987 0.739362 0.029267
O O4 0.548277 0.814986 0.192728
O O5 0.500000 0.500000 0.500000
O O6 0.276317 0.746265 0.525052
O O7 0.115276 0.637167 0.658473
O O8 0.043191 0.868370 0.248878
O O9 0.562196 0.170669 0.508846
O O10 0.749824 0.259776 0.192639
O O11 0.297340 0.533377 0.201746
O O12 0.749994 0.479718 0.018443
O O13 0.000000 0.500000 0.000000
O O14 0.841213 0.855050 0.892497
#
# Coordination Sequence:
#
# PCOD9026622 Si02
#       7
#     2   2   2   1   2   2   2
#     4  11  25  42  69  98 137 175 231 284 335 407
#     4  11  23  41  70 100 137 181 231 283 334 410
#     4  10  22  41  65 102 131 176 226 274 343 412
#     4  12  24  44  68 106 130 184 236 282 342 408
#     4  11  22  46  67 101 141 178 224 285 344 409
#     4  11  22  45  64  99 137 174 221 288 335 400
#     4  10  23  39  71  93 136 179 218 276 346 407
#
# _framework density 23.495654999999999
#
# number of rings (size 3 to 8) (size 9 to 14) (size 15 to 20)
#    0.000    1.231    4.615    0.462    2.154    2.462 
#    5.538    3.077    0.000    0.000    0.000    0.000 
#    0.000    0.000    0.000    0.000    0.000    0.000 
#
# Total GULP energy -72430.618743 kJ/mol
# GULP energy per Si atom -5571.586057 kJ/mol
# Density = 2.344218 g / cm^3
# Si number density = 23.495655 Si / 1000 Ang^3
#
#
#
# Elastic Constant Matrix: (Units=GPa)
#
#
# Indices 1 2 3 4 5 6 
#
# 1 119.0026 -11.7843 58.3367 5.5752 -51.4950 -2.9077
# 2 -11.7843 45.7928 -0.9736 -6.4968 0.0336 2.4659
# 3 58.3367 -0.9736 171.8415 -1.5180 -27.2710 -8.3430
# 4 5.5752 -6.4968 -1.5180 18.5481 -2.7391 -0.5999
# 5 -51.4950 0.0336 -27.2710 -2.7391 50.8387 6.9222
# 6 -2.9077 2.4659 -8.3430 -0.5999 6.9222 29.4194
#
#
#
# Elastic Compliance Matrix: (Units=1/GPa)
#
#
# Indices 1 2 3 4 5 6 
#
# 1 0.017659 0.004397 -0.003560 -0.001757 0.016358 -0.003518
# 2 0.004397 0.024198 -0.000646 0.007733 0.004884 -0.002769
# 3 -0.003560 -0.000646 0.007132 0.001493 0.000064 0.001740
# 4 -0.001757 0.007733 0.001493 0.057589 0.002080 0.000287
# 5 0.016358 0.004884 0.000064 0.002080 0.037408 -0.007534
# 6 -0.003518 -0.002769 0.001740 0.000287 -0.007534 0.036148
#
#
# Mechanical properties :
#
#
# Convention : Reuss Voigt Hill
#
# Bulk Modulus (GPa) = 20.25569 47.53273 33.89421
# Shear Modulus (GPa) = 25.48290 39.16511 32.32401
#
# Velocity S-wave (km/s) = 3.29687 4.08721 3.71313
# Velocity P-wave (km/s) = 4.80959 6.52289 5.73063
#
# Compressibility (1/GPa) = 0.04936886
#
# Stress axis : x y z
#
# Youngs Moduli (GPa) = 56.62889 41.32609 140.21264
#
# Poissons Ratio (x) = -0.18170 0.49918
# Poissons Ratio (y) = -0.24898 0.09064
# Poissons Ratio (z) = 0.20161 0.02672
#
# Static dielectric constant tensor:
#      x y z
#    x 1.886530 -0.044220 -0.006290 
#    y -0.044220 2.434730 0.000150 
#    z -0.006290 0.000150 1.847950 
# 
# From -- ./inp_files/199362.got.cif
#   From: 2010.05.17/outbox.cif.g08.bks.cpg/sg2_100_cif.got.tgz:199362.got - 2010.06.03 11:33:40.
