data_PCOD9026869
_publ_section_title
;
Structure prediction by ZEFSAII (Michael W. Deem and Ramdas Pophale) SiO2 
 PCOD9026869
Probable space group: P -1
;
_chemical_formula_sum "Si O2"
_cell_formula_units_Z 16
_cell_length_a 28.130693
_cell_length_b 13.128477
_cell_length_c 9.693685
_cell_angle_alpha 33.134841
_cell_angle_beta 25.765884
_cell_angle_gamma 28.365962
_cell_volume 721.640990
_symmetry_space_group_name_H-M "P -1"
_symmetry_group_IT_number 2
_symmetry_cell_setting 'triclinic'
loop_
_space_group_symop_operation_xyz
x,y,z
-x,-y,-z
loop_
_atom_site_type_symbol
_atom_site_label
_atom_site_fract_x
_atom_site_fract_y
_atom_site_fract_z
Si Si1 0.020612 0.244515 0.646272
Si Si2 0.847587 0.723474 0.493514
Si Si3 0.853607 0.118095 0.699029
Si Si4 0.416333 0.246504 0.873680
Si Si5 0.333599 0.466062 0.128890
Si Si6 0.856675 0.709304 0.169133
Si Si7 0.539596 0.463265 0.777009
Si Si8 0.831621 0.195974 0.373442
O O1 0.128710 0.154491 0.584345
O O2 0.977555 0.480569 0.434009
O O3 0.067720 0.063652 0.612276
O O4 0.893335 0.287827 0.005116
O O5 0.845722 0.785210 0.271027
O O6 0.716124 0.730724 0.854312
O O7 0.761183 0.277447 0.878920
O O8 0.831153 0.262278 0.457365
O O9 0.000000 0.000000 0.500000
O O10 0.825000 0.935191 0.927198
O O11 0.472938 0.327537 0.512212
O O12 0.380219 0.410365 0.912664
O O13 0.500000 0.000000 0.000000
O O14 0.248443 0.357300 0.502221
O O15 0.454150 0.391257 0.998912
O O16 0.000000 0.500000 0.000000
O O17 0.689949 0.278718 0.598109
O O18 0.500000 0.500000 0.000000
#
# Coordination Sequence:
#
# PCOD9026869 Si02
#       8
#     2   2   2   2   2   2   2   2
#     4  10  22  41  69  98 136 179 233 294 373 426
#     4  10  22  41  66 100 131 178 230 299 355 434
#     4  12  24  43  73 106 144 189 236 301 370 438
#     4  11  27  49  72 103 145 196 254 301 365 450
#     4  11  27  45  73 103 144 201 243 303 368 439
#     4  11  23  42  67 106 143 177 241 293 360 436
#     4  12  26  49  71 103 149 193 248 303 370 444
#     4  11  24  43  67 101 140 185 237 300 366 436
#
# _framework density 22.171689000000001
#
# number of rings (size 3 to 8) (size 9 to 14) (size 15 to 20)
#    0.000    1.000    3.750    1.875    7.000    1.000 
#    2.250    1.250    0.000    0.000    0.000    0.000 
#    0.000    0.000    0.000    0.000    0.000    0.000 
#
# Total GULP energy -89325.889607 kJ/mol
# GULP energy per Si atom -5582.868100 kJ/mol
# Density = 2.212123 g / cm^3
# Si number density = 22.171689 Si / 1000 Ang^3
#
#
#
# Elastic Constant Matrix: (Units=GPa)
#
#
# Indices 1 2 3 4 5 6 
#
# 1 85.5310 7.1521 52.2027 26.3664 -11.8653 -8.2368
# 2 7.1521 89.8629 22.8480 5.0164 8.5074 -1.5838
# 3 52.2027 22.8480 117.6983 5.0295 4.9476 -2.2238
# 4 26.3664 5.0164 5.0295 21.4674 -5.3809 -3.6616
# 5 -11.8653 8.5074 4.9476 -5.3809 49.2669 9.2494
# 6 -8.2368 -1.5838 -2.2238 -3.6616 9.2494 28.8026
#
#
#
# Elastic Compliance Matrix: (Units=1/GPa)
#
#
# Indices 1 2 3 4 5 6 
#
# 1 0.030201 0.002298 -0.012548 -0.033283 0.004078 0.002253
# 2 0.002298 0.012230 -0.003062 -0.005289 -0.002030 0.001073
# 3 -0.012548 -0.003062 0.014240 0.012101 -0.002545 -0.000302
# 4 -0.033283 -0.005289 0.012101 0.086371 0.000767 0.001859
# 5 0.004078 -0.002030 -0.002545 0.000767 0.023188 -0.006491
# 6 0.002253 0.001073 -0.000302 0.001859 -0.006491 0.037720
#
#
# Mechanical properties :
#
#
# Convention : Reuss Voigt Hill
#
# Bulk Modulus (GPa) = 33.27988 50.83311 42.05649
# Shear Modulus (GPa) = 20.78240 33.96669 27.37454
#
# Velocity S-wave (km/s) = 3.06492 3.91830 3.51759
# Velocity P-wave (km/s) = 5.25049 6.59148 5.95883
#
# Compressibility (1/GPa) = 0.03004819
#
# Stress axis : x y z
#
# Youngs Moduli (GPa) = 33.11190 81.76641 70.22424
#
# Poissons Ratio (x) = -0.18792 0.88115
# Poissons Ratio (y) = -0.07610 0.21501
# Poissons Ratio (z) = 0.41548 0.25036
#
# Static dielectric constant tensor:
#      x y z
#    x 1.820420 -0.003390 0.022510 
#    y -0.003390 1.822440 -0.022580 
#    z 0.022510 -0.022580 1.856150 
# 
# From -- ./inp_files/357030.got.cif
#   From: 2010.05.17/outbox.cif.g08.bks.cpg/sg2_179_cif.got.tgz:357030.got - 2010.06.03 11:33:40.
