data_PCOD9026442
_publ_section_title
;
Structure prediction by ZEFSAII (Michael W. Deem and Ramdas Pophale) SiO2 
 PCOD9026442
Probable space group: P -1
;
_chemical_formula_sum "Si O2"
_cell_formula_units_Z 16
_cell_length_a 12.680408
_cell_length_b 7.894339
_cell_length_c 8.948787
_cell_angle_alpha 77.548192
_cell_angle_beta 82.736950
_cell_angle_gamma 47.531759
_cell_volume 645.020043
_symmetry_space_group_name_H-M "P -1"
_symmetry_group_IT_number 2
_symmetry_cell_setting 'triclinic'
loop_
_space_group_symop_operation_xyz
x,y,z
-x,-y,-z
loop_
_atom_site_type_symbol
_atom_site_label
_atom_site_fract_x
_atom_site_fract_y
_atom_site_fract_z
Si Si1 0.829474 0.940563 0.827344
Si Si2 0.026375 0.188743 0.875172
Si Si3 0.732222 0.841512 0.470615
Si Si4 0.117024 0.954384 0.595075
Si Si5 0.263069 0.351801 0.028816
Si Si6 0.645910 0.398654 0.569716
Si Si7 0.550294 0.816773 0.716003
Si Si8 0.879649 0.518039 0.269489
O O1 0.820352 0.919334 0.466811
O O2 0.766604 0.819284 0.900639
O O3 0.977839 0.739384 0.751958
O O4 0.878231 0.970450 0.970325
O O5 0.055865 0.036549 0.756862
O O6 0.079309 0.325268 0.798800
O O7 0.863431 0.400957 0.913952
O O8 0.636202 0.887967 0.618545
O O9 0.834585 0.578092 0.439506
O O10 0.616088 0.993967 0.330162
O O11 0.723441 0.174688 0.706579
O O12 0.251352 0.689023 0.575607
O O13 0.000000 0.000000 0.500000
O O14 0.408800 0.243388 0.106929
O O15 0.239426 0.401873 0.847564
O O16 0.500000 0.500000 0.500000
O O17 0.612376 0.595435 0.645046
#
# Coordination Sequence:
#
# PCOD9026442 Si02
#       8
#     2   2   2   2   2   2   2   2
#     4   9  19  38  67  92 127 168 208 270 327 381
#     4   8  17  37  63  97 127 162 216 269 321 381
#     4  10  22  41  64  91 130 171 218 265 318 382
#     4  11  22  41  68  96 129 166 215 273 320 381
#     4   9  17  35  65  95 121 164 214 263 326 383
#     4  12  25  42  61  92 135 175 214 259 326 386
#     4  11  23  39  62  89 131 177 215 256 320 392
#     4   8  17  36  64  95 125 159 216 274 315 379
#
# _framework density 24.805432
#
# number of rings (size 3 to 8) (size 9 to 14) (size 15 to 20)
#    0.000    2.250    1.250    3.000    1.750    2.500 
#    0.000   13.125    0.000    0.000    0.000    0.000 
#    0.000    0.000    0.000    0.000    0.000    0.000 
#
# Total GULP energy -89516.131824 kJ/mol
# GULP energy per Si atom -5594.758239 kJ/mol
# Density = 2.474897 g / cm^3
# Si number density = 24.805432 Si / 1000 Ang^3
#
#
#
# Elastic Constant Matrix: (Units=GPa)
#
#
# Indices 1 2 3 4 5 6 
#
# 1 111.5573 35.5425 50.2284 -6.2701 22.0071 11.8579
# 2 35.5425 105.1097 48.2910 2.6192 13.2088 3.7024
# 3 50.2284 48.2910 151.9679 -8.7780 37.1782 -2.9354
# 4 -6.2701 2.6192 -8.7780 54.5387 2.2580 7.8187
# 5 22.0071 13.2088 37.1782 2.2580 44.0307 -7.5942
# 6 11.8579 3.7024 -2.9354 7.8187 -7.5942 39.8494
#
#
#
# Elastic Compliance Matrix: (Units=1/GPa)
#
#
# Indices 1 2 3 4 5 6 
#
# 1 0.012229 -0.002472 -0.002126 0.002062 -0.004514 -0.004831
# 2 -0.002472 0.011768 -0.003085 -0.001322 0.000333 -0.000262
# 3 -0.002126 -0.003085 0.009956 0.001765 -0.006497 0.000068
# 4 0.002062 -0.001322 0.001765 0.019804 -0.004004 -0.005009
# 5 -0.004514 0.000333 -0.006497 -0.004004 0.031887 0.007696
# 6 -0.004831 -0.000262 0.000068 -0.005009 0.007696 0.029011
#
#
# Mechanical properties :
#
#
# Convention : Reuss Voigt Hill
#
# Bulk Modulus (GPa) = 53.80521 70.75096 62.27809
# Shear Modulus (GPa) = 36.70619 43.32196 40.01407
#
# Velocity S-wave (km/s) = 3.85094 4.18361 4.02072
# Velocity P-wave (km/s) = 6.44290 7.20563 6.83491
#
# Compressibility (1/GPa) = 0.01858556
#
# Stress axis : x y z
#
# Youngs Moduli (GPa) = 81.77412 84.97886 100.43890
#
# Poissons Ratio (x) = 0.21009 0.21354
# Poissons Ratio (y) = 0.20217 0.30988
# Poissons Ratio (z) = 0.17386 0.26218
#
# Static dielectric constant tensor:
#      x y z
#    x 2.381500 -0.098730 -0.155600 
#    y -0.098730 1.998430 0.021200 
#    z -0.155600 0.021200 2.024780 
# 
# From -- ./inp_files/305389.got.cif
#   From: 2010.05.17/outbox.cif.g08.bks.cpg/sg2_153_cif.got.tgz:305389.got - 2010.06.03 11:33:40.
