data_PCOD9026431
_publ_section_title
;
Structure prediction by ZEFSAII (Michael W. Deem and Ramdas Pophale) SiO2 
 PCOD9026431
Probable space group: P -1
;
_chemical_formula_sum "Si O2"
_cell_formula_units_Z 16
_cell_length_a 9.786837
_cell_length_b 27.199167
_cell_length_c 9.114214
_cell_angle_alpha 152.747446
_cell_angle_beta 55.454115
_cell_angle_gamma 136.366123
_cell_volume 743.898907
_symmetry_space_group_name_H-M "P -1"
_symmetry_group_IT_number 2
_symmetry_cell_setting 'triclinic'
loop_
_space_group_symop_operation_xyz
x,y,z
-x,-y,-z
loop_
_atom_site_type_symbol
_atom_site_label
_atom_site_fract_x
_atom_site_fract_y
_atom_site_fract_z
Si Si1 0.498084 0.820681 0.460993
Si Si2 0.184026 0.643844 0.710514
Si Si3 0.725672 0.727750 0.225618
Si Si4 0.459449 0.549645 0.301349
Si Si5 0.195061 0.886319 0.847620
Si Si6 0.561832 0.885113 0.268997
Si Si7 0.122931 0.830665 0.081754
Si Si8 0.801942 0.812573 0.744203
O O1 0.539043 0.726004 0.268850
O O2 0.282893 0.801896 0.528919
O O3 0.585163 0.839723 0.294565
O O4 0.628006 0.957899 0.835583
O O5 0.341528 0.610950 0.484842
O O6 0.000000 0.500000 0.500000
O O7 0.325167 0.771481 0.070965
O O8 0.117333 0.702623 0.784276
O O9 0.765744 0.780601 0.508705
O O10 0.934766 0.816951 0.243038
O O11 0.664717 0.578727 0.863857
O O12 0.676548 0.675957 0.553384
O O13 0.500000 0.500000 0.000000
O O14 0.033741 0.875330 0.805773
O O15 0.109950 0.845570 0.956470
O O16 0.658462 0.038592 0.648643
O O17 0.707154 0.886379 0.060920
#
# Coordination Sequence:
#
# PCOD9026431 Si02
#       8
#     2   2   2   2   2   2   2   2
#     4  10  23  41  62  90 129 161 206 260 318 370
#     4  11  22  41  63  95 126 164 210 260 311 372
#     4  11  22  40  66  93 123 170 211 255 315 374
#     4   9  21  39  60  86 126 164 205 257 306 372
#     4  10  23  41  60  92 127 163 203 264 315 371
#     4  10  23  41  63  93 128 167 206 261 315 372
#     4  11  23  39  65  93 129 164 209 256 321 372
#     4  10  22  41  64  91 127 166 214 256 309 376
#
# _framework density 21.508298
#
# number of rings (size 3 to 8) (size 9 to 14) (size 15 to 20)
#    0.000    1.750    1.250    1.875    7.000    4.000 
#    2.250    2.500    0.000    0.000    0.000    0.000 
#    0.000    0.000    0.000    0.000    0.000    0.000 
#
# Total GULP energy -89149.672379 kJ/mol
# GULP energy per Si atom -5571.854524 kJ/mol
# Density = 2.145934 g / cm^3
# Si number density = 21.508298 Si / 1000 Ang^3
#
#
#
# Elastic Constant Matrix: (Units=GPa)
#
#
# Indices 1 2 3 4 5 6 
#
# 1 46.6555 -2.2815 -1.5008 -2.1795 -10.2318 -5.4230
# 2 -2.2815 61.5441 13.8227 -2.5225 -5.3424 0.3113
# 3 -1.5008 13.8227 45.3790 -2.1445 -12.5109 -11.0799
# 4 -2.1795 -2.5225 -2.1445 36.4549 3.6757 -3.4387
# 5 -10.2318 -5.3424 -12.5109 3.6757 18.7048 7.4844
# 6 -5.4230 0.3113 -11.0799 -3.4387 7.4844 31.9501
#
#
#
# Elastic Compliance Matrix: (Units=1/GPa)
#
#
# Indices 1 2 3 4 5 6 
#
# 1 0.025776 0.001143 0.005884 0.000446 0.017315 0.002396
# 2 0.001143 0.017734 -0.005056 0.000447 0.003194 -0.002432
# 3 0.005884 -0.005056 0.030936 0.000548 0.019446 0.007280
# 4 0.000446 0.000447 0.000548 0.028683 -0.006883 0.004961
# 5 0.017315 0.003194 0.019446 -0.006883 0.082360 -0.010382
# 6 0.002396 -0.002432 0.007280 0.004961 -0.010382 0.037220
#
#
# Mechanical properties :
#
#
# Convention : Reuss Voigt Hill
#
# Bulk Modulus (GPa) = 12.75709 19.29550 16.02630
# Shear Modulus (GPa) = 20.41685 26.99117 23.70401
#
# Velocity S-wave (km/s) = 3.08434 3.54633 3.32337
# Velocity P-wave (km/s) = 4.31605 5.07536 4.71103
#
# Compressibility (1/GPa) = 0.07838777
#
# Stress axis : x y z
#
# Youngs Moduli (GPa) = 38.79641 56.38755 32.32487
#
# Poissons Ratio (x) = -0.06446 -0.19020
# Poissons Ratio (y) = -0.04435 0.16345
# Poissons Ratio (z) = -0.22828 0.28512
#
# Static dielectric constant tensor:
#      x y z
#    x 1.830330 0.062440 -0.001570 
#    y 0.062440 1.861610 0.060430 
#    z -0.001570 0.060430 1.805130 
# 
# From -- ./inp_files/216819.got.cif
#   From: 2010.05.17/outbox.cif.g08.bks.cpg/sg2_109_cif.got.tgz:216819.got - 2010.06.03 11:33:40.
