data_PCOD9026214
_publ_section_title
;
Structure prediction by ZEFSAII (Michael W. Deem and Ramdas Pophale) SiO2 
 PCOD9026214
Probable space group: P -1
;
_chemical_formula_sum "Si O2"
_cell_formula_units_Z 16
_cell_length_a 16.208665
_cell_length_b 12.460479
_cell_length_c 21.785054
_cell_angle_alpha 152.824281
_cell_angle_beta 154.409374
_cell_angle_gamma 28.191938
_cell_volume 795.296890
_symmetry_space_group_name_H-M "P -1"
_symmetry_group_IT_number 2
_symmetry_cell_setting 'triclinic'
loop_
_space_group_symop_operation_xyz
x,y,z
-x,-y,-z
loop_
_atom_site_type_symbol
_atom_site_label
_atom_site_fract_x
_atom_site_fract_y
_atom_site_fract_z
Si Si1 0.305233 0.505345 0.684379
Si Si2 0.230217 0.802838 0.176604
Si Si3 0.051077 0.221667 0.579268
Si Si4 0.216742 0.537506 0.160184
Si Si5 0.282327 0.644662 0.394585
Si Si6 0.662818 0.162052 0.235766
Si Si7 0.960514 0.367025 0.312619
Si Si8 0.102444 0.383087 0.831768
O O1 0.527793 0.266055 0.709297
O O2 0.321639 0.729230 0.766062
O O3 0.139915 0.411884 0.494713
O O4 0.219393 0.607576 0.746340
O O5 0.207577 0.714634 0.185925
O O6 0.071173 0.095217 0.215045
O O7 0.180862 0.607710 0.000441
O O8 0.095796 0.270791 0.703528
O O9 0.809904 0.263160 0.427012
O O10 0.109547 0.408192 0.669701
O O11 0.181147 0.931393 0.498616
O O12 0.266719 0.653557 0.315197
O O13 0.424884 0.280436 0.158244
O O14 0.000000 0.500000 0.000000
O O15 0.500000 0.500000 0.500000
O O16 0.130165 0.508623 0.242962
O O17 0.761623 0.856472 0.155449
#
# Coordination Sequence:
#
# PCOD9026214 Si02
#       8
#     2   2   2   2   2   2   2   2
#     4   9  21  40  63  89 122 165 207 261 320 373
#     4  11  24  38  61  95 131 161 207 268 320 370
#     4  10  22  42  63  87 122 175 215 252 312 384
#     4  11  22  37  61 101 130 157 207 267 326 378
#     4  11  22  41  65  95 124 166 211 261 319 387
#     4   9  20  39  63  90 125 162 202 266 319 372
#     4  10  22  41  63  88 123 170 215 259 305 381
#     4  11  22  40  61  91 127 166 209 258 325 380
#
# _framework density 20.118272999999999
#
# number of rings (size 3 to 8) (size 9 to 14) (size 15 to 20)
#    0.000    1.750    1.250    3.375    7.000    3.500 
#    4.500    0.625    0.000    0.000    0.000    0.000 
#    0.000    0.000    0.000    0.000    0.000    0.000 
#
# Total GULP energy -89379.659476 kJ/mol
# GULP energy per Si atom -5586.228717 kJ/mol
# Density = 2.007248 g / cm^3
# Si number density = 20.118273 Si / 1000 Ang^3
#
#
#
# Elastic Constant Matrix: (Units=GPa)
#
#
# Indices 1 2 3 4 5 6 
#
# 1 95.3927 39.5305 38.4322 -10.4192 -0.0938 -15.3771
# 2 39.5305 79.1737 26.8570 -6.8221 7.4283 -11.0424
# 3 38.4322 26.8570 61.2327 -1.4102 -13.5066 -3.0473
# 4 -10.4192 -6.8221 -1.4102 26.7211 -1.3860 6.1773
# 5 -0.0938 7.4283 -13.5066 -1.3860 31.9553 -6.7440
# 6 -15.3771 -11.0424 -3.0473 6.1773 -6.7440 23.4767
#
#
#
# Elastic Compliance Matrix: (Units=1/GPa)
#
#
# Indices 1 2 3 4 5 6 
#
# 1 0.017303 -0.004289 -0.008782 0.003528 -0.001045 0.006947
# 2 -0.004289 0.018060 -0.006456 0.001671 -0.006320 0.002592
# 3 -0.008782 -0.006456 0.027382 -0.002771 0.012750 -0.000843
# 4 0.003528 0.001671 -0.002771 0.040961 -0.001565 -0.008490
# 5 -0.001045 -0.006320 0.012750 -0.001565 0.040181 0.009952
# 6 0.006947 0.002592 -0.000843 -0.008490 0.009952 0.053349
#
#
# Mechanical properties :
#
#
# Convention : Reuss Voigt Hill
#
# Bulk Modulus (GPa) = 42.21160 49.49316 45.85238
# Shear Modulus (GPa) = 20.47607 25.16258 22.81932
#
# Velocity S-wave (km/s) = 3.19373 3.54041 3.37153
# Velocity P-wave (km/s) = 5.88449 6.43173 6.16418
#
# Compressibility (1/GPa) = 0.02369017
#
# Stress axis : x y z
#
# Youngs Moduli (GPa) = 57.79421 55.36980 36.52096
#
# Poissons Ratio (x) = 0.23748 0.32074
# Poissons Ratio (y) = 0.24788 0.23578
# Poissons Ratio (z) = 0.50756 0.35747
#
# Static dielectric constant tensor:
#      x y z
#    x 1.734740 -0.005400 -0.002930 
#    y -0.005400 1.710430 -0.015670 
#    z -0.002930 -0.015670 1.733960 
# 
# From -- ./inp_files/541122.got.cif
#   From: 2010.05.17/outbox.cif.g08.bks.cpg/sg2_271_cif.got.tgz:541122.got - 2010.06.03 11:33:40.
