data_PCOD9026103
_publ_section_title
;
Structure prediction by ZEFSAII (Michael W. Deem and Ramdas Pophale) SiO2 
 PCOD9026103
Probable space group: P -1
;
_chemical_formula_sum "Si O2"
_cell_formula_units_Z 14
_cell_length_a 8.900243
_cell_length_b 23.403869
_cell_length_c 11.778000
_cell_angle_alpha 147.699596
_cell_angle_beta 63.043485
_cell_angle_gamma 138.692686
_cell_volume 741.828591
_symmetry_space_group_name_H-M "P -1"
_symmetry_group_IT_number 2
_symmetry_cell_setting 'triclinic'
loop_
_space_group_symop_operation_xyz
x,y,z
-x,-y,-z
loop_
_atom_site_type_symbol
_atom_site_label
_atom_site_fract_x
_atom_site_fract_y
_atom_site_fract_z
Si Si1 0.962925 0.051396 0.483299
Si Si2 0.030117 0.688687 0.078033
Si Si3 0.315844 0.808418 0.747601
Si Si4 0.299829 0.496116 0.589638
Si Si5 0.446305 0.686308 0.325469
Si Si6 0.614217 0.306392 0.911772
Si Si7 0.743009 0.325072 0.234101
O O1 0.943987 0.171093 0.698019
O O2 0.238025 0.168339 0.519338
O O3 0.677163 0.868780 0.235530
O O4 0.000000 0.000000 0.500000
O O5 0.194429 0.699940 0.134145
O O6 0.151669 0.705895 0.947143
O O7 0.728633 0.499006 0.880290
O O8 0.350653 0.742046 0.522076
O O9 0.406141 0.799107 0.819189
O O10 0.001245 0.680945 0.640589
O O11 0.500000 0.000000 0.000000
O O12 0.500000 0.500000 0.500000
O O13 0.389160 0.641745 0.728836
O O14 0.298356 0.544664 0.799001
O O15 0.397971 0.678170 0.193053
O O16 0.000000 0.500000 0.500000
#
# Coordination Sequence:
#
# PCOD9026103 Si02
#       7
#     2   2   2   2   2   2   2
#     4  10  24  37  59  91 122 158 199 255 297 356
#     4  11  20  40  64  85 122 162 201 251 300 360
#     4  11  24  40  64  90 121 163 202 251 297 364
#     4  10  22  42  66  88 120 162 199 250 306 358
#     4  11  22  40  61  94 123 156 208 247 302 357
#     4  10  22  41  62  90 126 157 202 247 309 361
#     4   9  19  39  61  85 117 161 204 234 305 364
#
# _framework density 18.872284000000001
#
# number of rings (size 3 to 8) (size 9 to 14) (size 15 to 20)
#    0.000    1.714    4.286    1.286    6.000    3.429 
#    2.571    0.714    0.000    0.000    0.000    0.000 
#    0.000    0.000    0.000    0.000    0.000    0.000 
#
# Total GULP energy -77992.382117 kJ/mol
# GULP energy per Si atom -5570.884437 kJ/mol
# Density = 1.882933 g / cm^3
# Si number density = 18.872284 Si / 1000 Ang^3
#
#
#
# Elastic Constant Matrix: (Units=GPa)
#
#
# Indices 1 2 3 4 5 6 
#
# 1 70.1150 51.1885 30.3794 -7.1229 -14.4978 15.3268
# 2 51.1885 86.1107 42.1689 -2.5901 -2.6720 -2.7905
# 3 30.3794 42.1689 81.2024 14.9209 -9.3412 -7.6767
# 4 -7.1229 -2.5901 14.9209 38.7206 4.4665 8.5001
# 5 -14.4978 -2.6720 -9.3412 4.4665 26.1205 2.0348
# 6 15.3268 -2.7905 -7.6767 8.5001 2.0348 42.0006
#
#
#
# Elastic Compliance Matrix: (Units=1/GPa)
#
#
# Indices 1 2 3 4 5 6 
#
# 1 0.043210 -0.022206 -0.006625 0.011587 0.019053 -0.021722
# 2 -0.022206 0.028038 -0.006775 -0.000207 -0.012575 0.009379
# 3 -0.006625 -0.006775 0.021970 -0.012530 0.004985 0.008277
# 4 0.011587 -0.000207 -0.012530 0.036145 -0.003185 -0.013693
# 5 0.019053 -0.012575 0.004985 -0.003185 0.050577 -0.008683
# 6 -0.021722 0.009379 0.008277 -0.013693 -0.008683 0.037064
#
#
# Mechanical properties :
#
#
# Convention : Reuss Voigt Hill
#
# Bulk Modulus (GPa) = 45.43992 53.87795 49.65893
# Shear Modulus (GPa) = 16.91761 28.94775 22.93268
#
# Velocity S-wave (km/s) = 2.99729 3.92072 3.48968
# Velocity P-wave (km/s) = 6.00901 7.00762 6.52744
#
# Compressibility (1/GPa) = 0.02200708
#
# Stress axis : x y z
#
# Youngs Moduli (GPa) = 23.14299 35.66534 45.51727
#
# Poissons Ratio (x) = 0.79199 0.30154
# Poissons Ratio (y) = 0.51391 0.30836
# Poissons Ratio (z) = 0.15331 0.24162
#
# Static dielectric constant tensor:
#      x y z
#    x 1.648220 0.009720 0.010180 
#    y 0.009720 1.661340 0.009310 
#    z 0.010180 0.009310 1.650070 
# 
# From -- ./inp_files/175926.got.cif
#   From: 2010.05.17/outbox.cif.g08.bks.cpg/sg2_88_cif.got.tgz:175926.got - 2010.06.03 11:33:40.
