data_PCOD9026937
_publ_section_title
;
Structure prediction by ZEFSAII (Michael W. Deem and Ramdas Pophale) SiO2 
 PCOD9026937
Probable space group: P -1
;
_chemical_formula_sum "Si O2"
_cell_formula_units_Z 16
_cell_length_a 12.444346
_cell_length_b 11.189718
_cell_length_c 22.842193
_cell_angle_alpha 26.975782
_cell_angle_beta 153.739830
_cell_angle_gamma 142.907948
_cell_volume 638.358164
_symmetry_space_group_name_H-M "P -1"
_symmetry_group_IT_number 2
_symmetry_cell_setting 'triclinic'
loop_
_space_group_symop_operation_xyz
x,y,z
-x,-y,-z
loop_
_atom_site_type_symbol
_atom_site_label
_atom_site_fract_x
_atom_site_fract_y
_atom_site_fract_z
Si Si1 0.880773 0.539800 0.184273
Si Si2 0.437626 0.295704 0.141994
Si Si3 0.636967 0.769018 0.437564
Si Si4 0.446052 0.207976 0.303270
Si Si5 0.578153 0.682788 0.320050
Si Si6 0.771523 0.715090 0.714974
Si Si7 0.235260 0.036928 0.827802
Si Si8 0.049774 0.797201 0.270362
O O1 0.649007 0.402940 0.158208
O O2 0.087006 0.313462 0.379221
O O3 0.940454 0.750652 0.172707
O O4 0.808053 0.654069 0.035619
O O5 0.482986 0.403954 0.182033
O O6 0.509492 0.989776 0.317264
O O7 0.500000 0.500000 0.500000
O O8 0.595000 0.851810 0.313548
O O9 0.386316 0.329576 0.283506
O O10 0.655039 0.985919 0.512745
O O11 0.194471 0.067683 0.224821
O O12 0.310544 0.549759 0.242729
O O13 0.755293 0.436110 0.526229
O O14 0.697676 0.828936 0.259868
O O15 0.048847 0.793834 0.829626
O O16 0.100220 0.198732 0.743714
O O17 0.500000 0.000000 0.000000
#
# Coordination Sequence:
#
# PCOD9026937 Si02
#       8
#     2   2   2   2   2   2   2   2
#     4  10  24  41  63 100 128 170 219 268 327 390
#     4  11  23  41  67  96 131 169 219 271 325 388
#     4  11  24  44  65  95 129 173 221 266 327 391
#     4   9  19  37  68  91 116 169 213 267 318 375
#     4  10  22  41  66  91 120 172 213 261 328 376
#     4   9  20  40  62  96 125 159 221 262 316 397
#     4  11  24  38  62  96 129 165 206 264 328 386
#     4   9  20  40  62  89 124 161 219 259 319 389
#
# _framework density 25.064298000000001
#
# number of rings (size 3 to 8) (size 9 to 14) (size 15 to 20)
#    0.000    2.000    0.000    3.750    7.000    2.500 
#    4.500    0.000    0.000    0.000    0.000    0.000 
#    0.000    0.000    0.000    0.000    0.000    0.000 
#
# Total GULP energy -89391.273136 kJ/mol
# GULP energy per Si atom -5586.954571 kJ/mol
# Density = 2.500725 g / cm^3
# Si number density = 25.064298 Si / 1000 Ang^3
#
#
#
# Elastic Constant Matrix: (Units=GPa)
#
#
# Indices 1 2 3 4 5 6 
#
# 1 122.1962 15.3788 53.2394 12.4009 -26.1683 6.5459
# 2 15.3788 67.8495 10.9052 24.6488 16.6213 1.4524
# 3 53.2394 10.9052 96.0431 31.4132 -14.6269 -0.8187
# 4 12.4009 24.6488 31.4132 25.4909 -0.0864 -4.5808
# 5 -26.1683 16.6213 -14.6269 -0.0864 32.3517 1.1416
# 6 6.5459 1.4524 -0.8187 -4.5808 1.1416 35.2290
#
#
#
# Elastic Compliance Matrix: (Units=1/GPa)
#
#
# Indices 1 2 3 4 5 6 
#
# 1 0.015376 -0.010668 -0.010337 0.015425 0.013324 -0.001084
# 2 -0.010668 0.039354 0.015350 -0.052833 -0.021856 -0.005445
# 3 -0.010337 0.015350 0.029048 -0.046334 -0.003099 -0.003961
# 4 0.015425 -0.052833 -0.046334 0.142889 0.018481 0.016216
# 5 0.013324 -0.021856 -0.003099 0.018481 0.051597 -0.000916
# 6 -0.001084 -0.005445 -0.003961 0.016216 -0.000916 0.030858
#
#
# Mechanical properties :
#
#
# Convention : Reuss Voigt Hill
#
# Bulk Modulus (GPa) = 13.79910 49.45949 31.62930
# Shear Modulus (GPa) = 14.51014 32.38535 23.44775
#
# Velocity S-wave (km/s) = 2.40868 3.59847 3.06192
# Velocity P-wave (km/s) = 3.64048 6.08615 5.01469
#
# Compressibility (1/GPa) = 0.07246849
#
# Stress axis : x y z
#
# Youngs Moduli (GPa) = 65.03685 25.41061 34.42574
#
# Poissons Ratio (x) = 0.27108 0.35586
# Poissons Ratio (y) = 0.69381 -0.52845
# Poissons Ratio (z) = 0.67229 -0.39007
#
# Static dielectric constant tensor:
#      x y z
#    x 2.159930 -0.035020 -0.004620 
#    y -0.035020 2.009460 -0.006190 
#    z -0.004620 -0.006190 2.088810 
# 
# From -- ./inp_files/595078.got.cif
#   From: 2010.05.17/outbox.cif.g08.bks.cpg/sg2_298_cif.got.tgz:595078.got - 2010.06.03 11:33:40.
