data_PCOD9026072
_publ_section_title
;
Structure prediction by ZEFSAII (Michael W. Deem and Ramdas Pophale) SiO2 
 PCOD9026072
Probable space group: P -1
;
_chemical_formula_sum "Si O2"
_cell_formula_units_Z 16
_cell_length_a 15.560720
_cell_length_b 10.560781
_cell_length_c 20.842320
_cell_angle_alpha 146.899974
_cell_angle_beta 153.450962
_cell_angle_gamma 47.103980
_cell_volume 802.212657
_symmetry_space_group_name_H-M "P -1"
_symmetry_group_IT_number 2
_symmetry_cell_setting 'triclinic'
loop_
_space_group_symop_operation_xyz
x,y,z
-x,-y,-z
loop_
_atom_site_type_symbol
_atom_site_label
_atom_site_fract_x
_atom_site_fract_y
_atom_site_fract_z
Si Si1 0.224684 0.688358 0.079760
Si Si2 0.292720 0.211386 0.361127
Si Si3 0.641112 0.004134 0.998139
Si Si4 0.498587 0.733199 0.659999
Si Si5 0.275470 0.782182 0.303274
Si Si6 0.519566 0.381029 0.164541
Si Si7 0.201141 0.542096 0.283518
Si Si8 0.894347 0.778609 0.630733
O O1 0.213903 0.711994 0.160015
O O2 0.400250 0.562349 0.133982
O O3 0.244125 0.959312 0.183056
O O4 0.007240 0.518596 0.844691
O O5 0.367281 0.470413 0.487510
O O6 0.489170 0.193612 0.524593
O O7 0.122197 0.216210 0.300654
O O8 0.538040 0.185472 0.041457
O O9 0.876970 0.138391 0.204178
O O10 0.546067 0.917203 0.828296
O O11 0.598594 0.767736 0.915964
O O12 0.365756 0.759623 0.521323
O O13 0.703923 0.682699 0.752635
O O14 0.182677 0.603437 0.222931
O O15 0.210418 0.019757 0.376403
O O16 0.743532 0.528356 0.399238
#
# Coordination Sequence:
#
# PCOD9026072 Si02
#       8
#     2   2   2   2   2   2   2   2
#     4  11  18  33  54  86 109 140 183 227 287 317
#     4  10  18  31  58  78 117 141 168 240 277 318
#     4  11  23  35  58  81 115 152 178 225 277 328
#     4  10  20  39  50  81 118 145 187 223 268 335
#     4  10  17  31  55  83 113 136 170 243 275 319
#     4  11  21  37  56  86 115 140 186 231 270 331
#     4  10  21  32  58  81 108 152 182 225 280 328
#     4  11  18  35  59  86 111 142 181 229 285 321
#
# _framework density 19.944835999999999
#
# number of rings (size 3 to 8) (size 9 to 14) (size 15 to 20)
#    0.000    1.500    3.750    4.500    0.000    0.500 
#    0.000    1.875    0.000    0.750    0.000    0.000 
#    0.000    0.000    0.000    0.000    0.000    0.000 
#
# Total GULP energy -89225.274430 kJ/mol
# GULP energy per Si atom -5576.579652 kJ/mol
# Density = 1.989944 g / cm^3
# Si number density = 19.944836 Si / 1000 Ang^3
#
#
#
# Elastic Constant Matrix: (Units=GPa)
#
#
# Indices 1 2 3 4 5 6 
#
# 1 68.6546 16.5738 32.7688 0.7161 6.8217 -10.4919
# 2 16.5738 38.6702 16.0341 10.1314 -0.1516 -2.0213
# 3 32.7688 16.0341 88.9994 5.4476 9.0521 -10.3337
# 4 0.7161 10.1314 5.4476 18.8254 -6.9370 -2.7240
# 5 6.8217 -0.1516 9.0521 -6.9370 43.4624 4.1303
# 6 -10.4919 -2.0213 -10.3337 -2.7240 4.1303 21.4458
#
#
#
# Elastic Compliance Matrix: (Units=1/GPa)
#
#
# Indices 1 2 3 4 5 6 
#
# 1 0.020212 -0.007405 -0.005330 0.005131 -0.001997 0.007659
# 2 -0.007405 0.034828 -0.002797 -0.018479 -0.000713 -0.003898
# 3 -0.005330 -0.002797 0.014727 -0.003073 -0.003153 0.004442
# 4 0.005131 -0.018479 -0.003073 0.068355 0.010108 0.006023
# 5 -0.001997 -0.000713 -0.003153 0.010108 0.026190 -0.006324
# 6 0.007659 -0.003898 0.004442 0.006023 -0.006324 0.054132
#
#
# Mechanical properties :
#
#
# Convention : Reuss Voigt Hill
#
# Bulk Modulus (GPa) = 25.83707 36.34197 31.08952
# Shear Modulus (GPa) = 19.05420 25.47656 22.26538
#
# Velocity S-wave (km/s) = 3.09422 3.57788 3.34480
# Velocity P-wave (km/s) = 5.07425 5.94383 5.52617
#
# Compressibility (1/GPa) = 0.03870408
#
# Stress axis : x y z
#
# Youngs Moduli (GPa) = 49.47450 28.71239 67.90321
#
# Poissons Ratio (x) = 0.21261 0.36190
# Poissons Ratio (y) = 0.36635 0.18994
# Poissons Ratio (z) = 0.26368 0.08032
#
# Static dielectric constant tensor:
#      x y z
#    x 1.755920 0.058900 0.029090 
#    y 0.058900 1.720670 0.008670 
#    z 0.029090 0.008670 1.776240 
# 
# From -- ./inp_files/382973.got.cif
#   From: 2010.05.17/outbox.cif.g08.bks.cpg/sg2_192_cif.got.tgz:382973.got - 2010.06.03 11:33:40.
