data_PCOD9026440
_publ_section_title
;
Structure prediction by ZEFSAII (Michael W. Deem and Ramdas Pophale) SiO2 
 PCOD9026440
Probable space group: P -1
;
_chemical_formula_sum "Si O2"
_cell_formula_units_Z 16
_cell_length_a 12.224426
_cell_length_b 10.608844
_cell_length_c 17.094057
_cell_angle_alpha 55.802061
_cell_angle_beta 146.109932
_cell_angle_gamma 144.438660
_cell_volume 673.652389
_symmetry_space_group_name_H-M "P -1"
_symmetry_group_IT_number 2
_symmetry_cell_setting 'triclinic'
loop_
_space_group_symop_operation_xyz
x,y,z
-x,-y,-z
loop_
_atom_site_type_symbol
_atom_site_label
_atom_site_fract_x
_atom_site_fract_y
_atom_site_fract_z
Si Si1 0.980056 0.316734 0.524629
Si Si2 0.174601 0.854398 0.889560
Si Si3 0.701114 0.478597 0.099657
Si Si4 0.565034 0.342387 0.724613
Si Si5 0.392033 0.864850 0.400168
Si Si6 0.802409 0.587743 0.557341
Si Si7 0.629402 0.726446 0.185886
Si Si8 0.438284 0.929588 0.814866
O O1 0.000000 0.500000 0.500000
O O2 0.085483 0.357492 0.484717
O O3 0.196473 0.330989 0.695982
O O4 0.638961 0.072251 0.416753
O O5 0.899853 0.580831 0.817883
O O6 0.128999 0.999237 0.781988
O O7 0.500000 0.000000 0.000000
O O8 0.258809 0.911144 0.011802
O O9 0.620922 0.280242 0.172166
O O10 0.051618 0.713264 0.235002
O O11 0.500000 0.500000 0.000000
O O12 0.610059 0.397683 0.982858
O O13 0.366469 0.351671 0.558067
O O14 0.506176 0.331589 0.787184
O O15 0.485057 0.121937 0.736735
O O16 0.383359 0.675601 0.452362
O O17 0.500000 0.000000 0.500000
O O18 0.118270 0.768674 0.726492
#
# Coordination Sequence:
#
# PCOD9026440 Si02
#       8
#     2   2   2   2   2   2   2   2
#     4  11  22  40  63  89 122 167 214 259 307 378
#     4  11  22  41  65  92 128 167 207 258 316 382
#     4  10  23  41  65  97 130 170 210 264 317 375
#     4  11  22  41  67  95 124 170 211 257 326 374
#     4  11  21  40  66  86 127 171 207 258 318 371
#     4  10  23  41  63  92 126 163 210 266 314 373
#     4  10  23  41  65  91 132 165 212 264 314 378
#     4  10  22  41  64  91 130 161 207 267 306 379
#
# _framework density 23.751121999999999
#
# number of rings (size 3 to 8) (size 9 to 14) (size 15 to 20)
#    0.000    1.500    2.500    2.250    1.750    2.000 
#    4.500    1.250    0.000    0.000    0.000    0.000 
#    0.000    0.000    0.000    0.000    0.000    0.000 
#
# Total GULP energy -89391.172856 kJ/mol
# GULP energy per Si atom -5586.948303 kJ/mol
# Density = 2.369706 g / cm^3
# Si number density = 23.751122 Si / 1000 Ang^3
#
#
#
# Elastic Constant Matrix: (Units=GPa)
#
#
# Indices 1 2 3 4 5 6 
#
# 1 84.7963 55.0488 45.4350 1.3921 1.2059 -5.0531
# 2 55.0488 241.4596 87.1801 4.7013 26.2964 -1.9570
# 3 45.4350 87.1801 140.5278 2.1957 16.0781 -17.5586
# 4 1.3921 4.7013 2.1957 52.3325 -6.7663 11.7670
# 5 1.2059 26.2964 16.0781 -6.7663 35.0911 3.3467
# 6 -5.0531 -1.9570 -17.5586 11.7670 3.3467 16.5987
#
#
#
# Elastic Compliance Matrix: (Units=1/GPa)
#
#
# Indices 1 2 3 4 5 6 
#
# 1 0.015401 -0.002467 -0.003950 0.000606 0.003330 -0.000882
# 2 -0.002467 0.006064 -0.002927 -0.000194 -0.002926 -0.002405
# 3 -0.003950 -0.002927 0.013121 -0.004810 -0.006231 0.016999
# 4 0.000606 -0.000194 -0.004810 0.026337 0.009847 -0.025583
# 5 0.003330 -0.002926 -0.006231 0.009847 0.037277 -0.020420
# 6 -0.000882 -0.002405 0.016999 -0.025583 -0.020420 0.099928
#
#
# Mechanical properties :
#
#
# Convention : Reuss Voigt Hill
#
# Bulk Modulus (GPa) = 62.89797 93.56796 78.23297
# Shear Modulus (GPa) = 22.51106 39.41244 30.96175
#
# Velocity S-wave (km/s) = 3.08196 4.07798 3.61444
# Velocity P-wave (km/s) = 6.26133 7.85200 7.10134
#
# Compressibility (1/GPa) = 0.01589876
#
# Stress axis : x y z
#
# Youngs Moduli (GPa) = 64.93199 164.92047 76.21495
#
# Poissons Ratio (x) = 0.40680 0.30103
# Poissons Ratio (y) = 0.16016 0.22306
# Poissons Ratio (z) = 0.25646 0.48269
#
# Static dielectric constant tensor:
#      x y z
#    x 2.000890 0.023900 -0.127480 
#    y 0.023900 1.866450 -0.063330 
#    z -0.127480 -0.063330 2.043090 
# 
# From -- ./inp_files/597994.got.cif
#   From: 2010.05.17/outbox.cif.g08.bks.cpg/sg2_299_cif.got.tgz:597994.got - 2010.06.03 11:33:40.
