data_PCOD9026210
_publ_section_title
;
Structure prediction by ZEFSAII (Michael W. Deem and Ramdas Pophale) SiO2 
 PCOD9026210
Probable space group: P -1
;
_chemical_formula_sum "Si O2"
_cell_formula_units_Z 12
_cell_length_a 10.266173
_cell_length_b 12.606030
_cell_length_c 8.709185
_cell_angle_alpha 131.445209
_cell_angle_beta 57.568642
_cell_angle_gamma 136.416089
_cell_volume 578.931515
_symmetry_space_group_name_H-M "P -1"
_symmetry_group_IT_number 2
_symmetry_cell_setting 'triclinic'
loop_
_space_group_symop_operation_xyz
x,y,z
-x,-y,-z
loop_
_atom_site_type_symbol
_atom_site_label
_atom_site_fract_x
_atom_site_fract_y
_atom_site_fract_z
Si Si1 0.878789 0.297004 0.733458
Si Si2 0.472409 0.083378 0.955420
Si Si3 0.134969 0.385402 0.940175
Si Si4 0.458049 0.397892 0.268921
Si Si5 0.167113 0.187750 0.003446
Si Si6 0.692736 0.031291 0.348444
O O1 0.672392 0.192869 0.844547
O O2 0.858920 0.191035 0.493840
O O3 0.017759 0.303882 0.778063
O O4 0.922270 0.484646 0.850515
O O5 0.312628 0.943457 0.805221
O O6 0.426170 0.217281 0.160580
O O7 0.500000 0.000000 0.000000
O O8 0.354757 0.494069 0.852959
O O9 0.105513 0.257544 0.971889
O O10 0.500000 0.500000 0.500000
O O11 0.280030 0.332492 0.205028
O O12 0.306744 0.138761 0.800879
O O13 0.000000 0.000000 0.000000
O O14 0.500000 0.000000 0.500000
#
# Coordination Sequence:
#
# PCOD9026210 Si02
#       6
#     2   2   2   2   2   2
#     4   9  20  38  62  88 117 164 207 246 313 368
#     4   9  19  35  59  87 121 155 199 254 301 362
#     4  10  22  41  63  87 128 163 203 257 310 371
#     4  10  23  40  59  89 124 161 203 246 314 369
#     4  11  25  41  64  94 127 161 209 261 308 367
#     4   9  20  39  59  88 122 160 208 247 310 369
#
# _framework density 20.727837999999998
#
# number of rings (size 3 to 8) (size 9 to 14) (size 15 to 20)
#    0.000    2.333    0.000    1.500    7.000    4.667 
#    0.000    0.833    0.000    0.000    0.000    0.000 
#    0.000    0.000    0.000    0.000    0.000    0.000 
#
# Total GULP energy -66902.940740 kJ/mol
# GULP energy per Si atom -5575.245062 kJ/mol
# Density = 2.068066 g / cm^3
# Si number density = 20.727838 Si / 1000 Ang^3
#
#
#
# Elastic Constant Matrix: (Units=GPa)
#
#
# Indices 1 2 3 4 5 6 
#
# 1 173.3203 63.9031 62.8534 12.1545 38.8006 -28.2277
# 2 63.9031 74.7971 33.1334 0.7326 17.9381 -18.4446
# 3 62.8534 33.1334 126.4183 20.4965 38.4618 -9.0894
# 4 12.1545 0.7326 20.4965 16.6356 18.6504 -0.4542
# 5 38.8006 17.9381 38.4618 18.6504 45.3264 -0.7516
# 6 -28.2277 -18.4446 -9.0894 -0.4542 -0.7516 51.2166
#
#
#
# Elastic Compliance Matrix: (Units=1/GPa)
#
#
# Indices 1 2 3 4 5 6 
#
# 1 0.010228 -0.005896 -0.001909 0.001020 -0.005170 0.003108
# 2 -0.005896 0.022447 -0.002793 0.015672 -0.007842 0.004362
# 3 -0.001909 -0.002793 0.012266 -0.009277 -0.003852 -0.000020
# 4 0.001020 0.015672 -0.009277 0.128564 -0.052022 0.004937
# 5 -0.005170 -0.007842 -0.003852 -0.052022 0.054166 -0.006024
# 6 0.003108 0.004362 -0.000020 0.004937 -0.006024 0.022761
#
#
# Mechanical properties :
#
#
# Convention : Reuss Voigt Hill
#
# Bulk Modulus (GPa) = 42.11371 77.14616 59.62993
# Shear Modulus (GPa) = 17.88630 36.94543 27.41586
#
# Velocity S-wave (km/s) = 2.94072 4.22644 3.64078
# Velocity P-wave (km/s) = 5.64730 7.81770 6.81940
#
# Compressibility (1/GPa) = 0.02374524
#
# Stress axis : x y z
#
# Youngs Moduli (GPa) = 97.77115 44.54855 81.52669
#
# Poissons Ratio (x) = 0.26268 0.15560
# Poissons Ratio (y) = 0.57650 0.22771
# Poissons Ratio (z) = 0.18661 0.12443
#
# Static dielectric constant tensor:
#      x y z
#    x 1.791990 0.071670 -0.012410 
#    y 0.071670 1.750300 -0.005450 
#    z -0.012410 -0.005450 1.787890 
# 
# From -- ./inp_files/148051.got.cif
#   From: 2010.05.17/outbox.cif.g08.bks.cpg/sg2_75_cif.got.tgz:148051.got - 2010.06.03 11:33:40.
