data_PCOD9026923
_publ_section_title
;
Structure prediction by ZEFSAII (Michael W. Deem and Ramdas Pophale) SiO2 
 PCOD9026923
Probable space group: P -1
;
_chemical_formula_sum "Si O2"
_cell_formula_units_Z 14
_cell_length_a 5.603651
_cell_length_b 12.517253
_cell_length_c 11.402982
_cell_angle_alpha 90.754361
_cell_angle_beta 81.278138
_cell_angle_gamma 50.472596
_cell_volume 603.449635
_symmetry_space_group_name_H-M "P -1"
_symmetry_group_IT_number 2
_symmetry_cell_setting 'triclinic'
loop_
_space_group_symop_operation_xyz
x,y,z
-x,-y,-z
loop_
_atom_site_type_symbol
_atom_site_label
_atom_site_fract_x
_atom_site_fract_y
_atom_site_fract_z
Si Si1 0.784544 0.948662 0.618856
Si Si2 0.051968 0.621069 0.061890
Si Si3 0.356903 0.872369 0.736905
Si Si4 0.158354 0.745095 0.381450
Si Si5 0.356243 0.339292 0.092807
Si Si6 0.286656 0.288914 0.665733
Si Si7 0.106995 0.840213 0.118196
O O1 0.593931 0.895629 0.669507
O O2 0.091163 0.894320 0.673359
O O3 0.926060 0.883162 0.479749
O O4 0.534939 0.117653 0.643842
O O5 0.830460 0.658799 0.192806
O O6 0.359803 0.466114 0.080077
O O7 0.011121 0.759296 0.059520
O O8 0.977595 0.598354 0.937451
O O9 0.559478 0.725795 0.787414
O O10 0.148330 0.995146 0.850842
O O11 0.514301 0.667458 0.394596
O O12 0.154774 0.788403 0.248273
O O13 0.010978 0.669400 0.385436
O O14 0.583097 0.219243 0.977610
#
# Coordination Sequence:
#
# PCOD9026923 Si02
#       7
#     2   2   2   2   2   2   2
#     4  12  22  41  61 100 127 170 200 267 311 377
#     4  10  22  41  66  89 128 161 223 249 320 367
#     4  12  26  39  65  93 140 157 210 254 332 364
#     4  11  21  35  67  95 128 156 218 259 309 360
#     4  11  24  42  62  95 123 175 201 268 310 388
#     4  11  19  38  62  98 118 163 209 266 299 369
#     4  11  22  40  64  97 120 168 209 270 303 374
#
# _framework density 23.199949
#
# number of rings (size 3 to 8) (size 9 to 14) (size 15 to 20)
#    0.000    0.857    5.714    2.571    2.000    0.571 
#    0.000    0.000    0.000   12.000    0.000    0.000 
#    0.000    0.000    0.000    0.000    0.000    0.000 
#
# Total GULP energy -78066.764877 kJ/mol
# GULP energy per Si atom -5576.197491 kJ/mol
# Density = 2.314715 g / cm^3
# Si number density = 23.199949 Si / 1000 Ang^3
#
#
#
# Elastic Constant Matrix: (Units=GPa)
#
#
# Indices 1 2 3 4 5 6 
#
# 1 178.9455 30.3782 28.4337 -15.2601 14.3469 10.2164
# 2 30.3782 37.6986 7.3235 -11.0350 14.2319 2.7193
# 3 28.4337 7.3235 67.5898 12.1738 11.8930 -2.6258
# 4 -15.2601 -11.0350 12.1738 26.5567 4.2638 1.2119
# 5 14.3469 14.2319 11.8930 4.2638 28.4992 9.8819
# 6 10.2164 2.7193 -2.6258 1.2119 9.8819 17.9861
#
#
#
# Elastic Compliance Matrix: (Units=1/GPa)
#
#
# Indices 1 2 3 4 5 6 
#
# 1 0.007472 -0.003901 -0.003885 0.004543 0.000862 -0.005001
# 2 -0.003901 0.045588 -0.002365 0.021561 -0.025690 0.007640
# 3 -0.003885 -0.002365 0.020505 -0.011927 -0.007216 0.010326
# 4 0.004543 0.021561 -0.011927 0.057338 -0.015673 -0.002834
# 5 0.000862 -0.025690 -0.007216 -0.015673 0.063820 -0.031668
# 6 -0.005001 0.007640 0.010326 -0.002834 -0.031668 0.076382
#
#
# Mechanical properties :
#
#
# Convention : Reuss Voigt Hill
#
# Bulk Modulus (GPa) = 18.77478 46.27830 32.52654
# Shear Modulus (GPa) = 16.17286 29.14829 22.66057
#
# Velocity S-wave (km/s) = 2.64314 3.54841 3.12869
# Velocity P-wave (km/s) = 4.17434 6.06458 5.20597
#
# Compressibility (1/GPa) = 0.05326294
#
# Stress axis : x y z
#
# Youngs Moduli (GPa) = 133.83955 21.93566 48.76914
#
# Poissons Ratio (x) = 0.08557 0.18946
# Poissons Ratio (y) = 0.52213 0.11533
# Poissons Ratio (z) = 0.51994 0.05187
#
# Static dielectric constant tensor:
#      x y z
#    x 2.096360 -0.034170 -0.010860 
#    y -0.034170 1.861300 0.018600 
#    z -0.010860 0.018600 1.851230 
# 
# From -- ./inp_files/101311.got.cif
#   From: 2010.05.17/outbox.cif.g08.bks.cpg/sg2_51_cif.got.tgz:101311.got - 2010.06.03 11:33:40.
