data_PCOD9026685
_publ_section_title
;
Structure prediction by ZEFSAII (Michael W. Deem and Ramdas Pophale) SiO2 
 PCOD9026685
Probable space group: P -1
;
_chemical_formula_sum "Si O2"
_cell_formula_units_Z 16
_cell_length_a 13.491591
_cell_length_b 12.738960
_cell_length_c 11.523920
_cell_angle_alpha 92.296095
_cell_angle_beta 68.592025
_cell_angle_gamma 32.244846
_cell_volume 700.506739
_symmetry_space_group_name_H-M "P -1"
_symmetry_group_IT_number 2
_symmetry_cell_setting 'triclinic'
loop_
_space_group_symop_operation_xyz
x,y,z
-x,-y,-z
loop_
_atom_site_type_symbol
_atom_site_label
_atom_site_fract_x
_atom_site_fract_y
_atom_site_fract_z
Si Si1 0.842825 0.047707 0.630019
Si Si2 0.903473 0.854806 0.941519
Si Si3 0.679914 0.838850 0.531818
Si Si4 0.028145 0.719739 0.368980
Si Si5 0.313044 0.568130 0.594646
Si Si6 0.227891 0.379589 0.875900
Si Si7 0.527898 0.745051 0.656632
Si Si8 0.583529 0.633294 0.009192
O O1 0.801620 0.999712 0.542835
O O2 0.056966 0.812179 0.625271
O O3 0.563074 0.315347 0.838022
O O4 0.000000 0.000000 0.500000
O O5 0.152932 0.706653 0.792409
O O6 0.080429 0.585372 0.849067
O O7 0.649709 0.104363 0.968917
O O8 0.762760 0.981966 0.135286
O O9 0.680124 0.718222 0.567973
O O10 0.939956 0.678486 0.387993
O O11 0.500000 0.000000 0.500000
O O12 0.505773 0.064607 0.708513
O O13 0.278205 0.491465 0.344633
O O14 0.163320 0.639402 0.189969
O O15 0.500000 0.500000 0.500000
O O16 0.478650 0.315378 0.462092
O O17 0.300465 0.382478 0.956811
O O18 0.000000 0.500000 0.000000
#
# Coordination Sequence:
#
# PCOD9026685 Si02
#       8
#     2   2   2   2   2   2   2   2
#     4  10  22  41  65  92 126 168 219 270 323 385
#     4  10  23  43  64  92 133 169 211 268 319 385
#     4  12  23  38  61  96 130 165 212 267 319 382
#     4  10  22  42  63  89 128 169 213 260 323 387
#     4  10  23  41  65  95 122 167 217 267 330 380
#     4  12  23  40  64  98 133 168 219 260 319 389
#     4  10  22  43  63  88 128 168 212 260 320 391
#     4  10  23  43  64  91 131 173 214 265 324 384
#
# _framework density 22.840610000000002
#
# number of rings (size 3 to 8) (size 9 to 14) (size 15 to 20)
#    0.000    1.500    2.500    1.875    1.750    2.500 
#    2.250    0.000    0.000    0.000    0.000    0.000 
#    0.000    0.000    0.000    0.000    0.000    0.000 
#
# Total GULP energy -89199.693716 kJ/mol
# GULP energy per Si atom -5574.980857 kJ/mol
# Density = 2.278862 g / cm^3
# Si number density = 22.840610 Si / 1000 Ang^3
#
#
#
# Elastic Constant Matrix: (Units=GPa)
#
#
# Indices 1 2 3 4 5 6 
#
# 1 87.2488 -15.6862 38.9442 -9.5542 -17.1372 0.2635
# 2 -15.6862 44.8386 -1.0325 -8.8830 3.6918 -12.3434
# 3 38.9442 -1.0325 154.8580 -23.0210 -22.3066 8.1846
# 4 -9.5542 -8.8830 -23.0210 29.2072 5.2863 -3.4313
# 5 -17.1372 3.6918 -22.3066 5.2863 37.5755 -10.5326
# 6 0.2635 -12.3434 8.1846 -3.4313 -10.5326 35.9902
#
#
#
# Elastic Compliance Matrix: (Units=1/GPa)
#
#
# Indices 1 2 3 4 5 6 
#
# 1 0.015538 0.007266 -0.002608 0.004824 0.005564 0.005060
# 2 0.007266 0.030560 -0.000113 0.012676 0.001884 0.012214
# 3 -0.002608 -0.000113 0.008313 0.005075 0.002879 -0.000584
# 4 0.004824 0.012676 0.005075 0.044578 -0.000248 0.007336
# 5 0.005564 0.001884 0.002879 -0.000248 0.033431 0.009711
# 6 0.005060 0.012214 -0.000584 0.007336 0.009711 0.035611
#
#
# Mechanical properties :
#
#
# Convention : Reuss Voigt Hill
#
# Bulk Modulus (GPa) = 15.74801 36.82183 26.28492
# Shear Modulus (GPa) = 27.76122 38.20257 32.98189
#
# Velocity S-wave (km/s) = 3.49009 4.09415 3.80413
# Velocity P-wave (km/s) = 4.81151 6.20529 5.55231
#
# Compressibility (1/GPa) = 0.06350007
#
# Stress axis : x y z
#
# Youngs Moduli (GPa) = 64.35970 32.72275 120.30007
#
# Poissons Ratio (x) = -0.23777 0.31372
# Poissons Ratio (y) = -0.46764 0.01363
# Poissons Ratio (z) = 0.16784 0.00371
#
# Static dielectric constant tensor:
#      x y z
#    x 1.788630 -0.039910 -0.075930 
#    y -0.039910 1.838130 -0.056070 
#    z -0.075930 -0.056070 2.029980 
# 
# From -- ./inp_files/428376.got.cif
#   From: 2010.05.17/outbox.cif.g08.bks.cpg/sg2_215_cif.got.tgz:428376.got - 2010.06.03 11:33:40.
