data_PCOD9026883
_publ_section_title
;
Structure prediction by ZEFSAII (Michael W. Deem and Ramdas Pophale) SiO2 
 PCOD9026883
Probable space group: P -1
;
_chemical_formula_sum "Si O2"
_cell_formula_units_Z 14
_cell_length_a 7.459562
_cell_length_b 15.185468
_cell_length_c 10.806877
_cell_angle_alpha 131.139830
_cell_angle_beta 139.378455
_cell_angle_gamma 52.251717
_cell_volume 584.122880
_symmetry_space_group_name_H-M "P -1"
_symmetry_group_IT_number 2
_symmetry_cell_setting 'triclinic'
loop_
_space_group_symop_operation_xyz
x,y,z
-x,-y,-z
loop_
_atom_site_type_symbol
_atom_site_label
_atom_site_fract_x
_atom_site_fract_y
_atom_site_fract_z
Si Si1 0.379425 0.375622 0.170756
Si Si2 0.842785 0.929048 0.750599
Si Si3 0.094408 0.516794 0.385890
Si Si4 0.585607 0.613758 0.084674
Si Si5 0.995901 0.723788 0.801855
Si Si6 0.836424 0.037350 0.578100
Si Si7 0.688624 0.863749 0.986711
O O1 0.642748 0.433911 0.389281
O O2 0.160030 0.440207 0.220209
O O3 0.306524 0.403560 0.015626
O O4 0.433289 0.232429 0.088159
O O5 0.975261 0.792501 0.727687
O O6 0.500008 0.949706 0.605515
O O7 0.896924 0.958521 0.663744
O O8 0.000000 0.000000 0.000000
O O9 0.836338 0.626257 0.316466
O O10 0.037019 0.411753 0.347140
O O11 0.500000 0.500000 0.000000
O O12 0.301057 0.715955 0.016851
O O13 0.748935 0.803965 0.828717
O O14 0.999924 0.140372 0.797391
O O15 0.000000 0.000000 0.500000
O O16 0.500000 0.000000 0.000000
#
# Coordination Sequence:
#
# PCOD9026883 Si02
#       7
#     2   2   2   2   2   2   2
#     4  10  22  44  71 101 135 189 232 300 358 430
#     4  11  24  48  71 105 150 190 246 311 369 442
#     4   9  21  46  70 100 139 180 242 292 364 428
#     4  10  22  41  66 101 140 183 234 294 359 433
#     4  10  22  43  71 100 142 187 232 308 365 433
#     4  11  26  46  74 103 146 203 249 300 375 447
#     4  11  24  47  70 101 144 185 246 301 363 445
#
# _framework density 23.967556999999999
#
# number of rings (size 3 to 8) (size 9 to 14) (size 15 to 20)
#    0.000    1.714    1.429    1.286    2.000    2.286 
#   23.143    0.000    0.000    0.000    0.000    0.000 
#    0.000    0.000    0.000    0.000    0.000    0.000 
#
# Total GULP energy -78113.160454 kJ/mol
# GULP energy per Si atom -5579.511461 kJ/mol
# Density = 2.391301 g / cm^3
# Si number density = 23.967557 Si / 1000 Ang^3
#
#
#
# Elastic Constant Matrix: (Units=GPa)
#
#
# Indices 1 2 3 4 5 6 
#
# 1 130.4146 59.3266 45.1932 -8.6373 -1.3408 16.8545
# 2 59.3266 143.3627 87.0140 -25.8885 0.5206 7.4999
# 3 45.1932 87.0140 136.4870 -11.1063 3.2530 15.6307
# 4 -8.6373 -25.8885 -11.1063 46.5010 -2.5315 -6.1873
# 5 -1.3408 0.5206 3.2530 -2.5315 55.8957 -3.6181
# 6 16.8545 7.4999 15.6307 -6.1873 -3.6181 37.7494
#
#
#
# Elastic Compliance Matrix: (Units=1/GPa)
#
#
# Indices 1 2 3 4 5 6 
#
# 1 0.009982 -0.003748 -0.000572 -0.000848 0.000036 -0.003611
# 2 -0.003748 0.014002 -0.007583 0.005729 0.000677 0.003035
# 3 -0.000572 -0.007583 0.012668 -0.001875 -0.001017 -0.003888
# 4 -0.000848 0.005729 -0.001875 0.024726 0.001428 0.004206
# 5 0.000036 0.000677 -0.001017 0.001428 0.018154 0.002245
# 6 -0.003611 0.003035 -0.003888 0.004206 0.002245 0.030014
#
#
# Mechanical properties :
#
#
# Convention : Reuss Voigt Hill
#
# Bulk Modulus (GPa) = 77.85062 88.14801 82.99931
# Shear Modulus (GPa) = 36.32801 42.61125 39.46963
#
# Velocity S-wave (km/s) = 3.89744 4.22106 4.06247
# Velocity P-wave (km/s) = 7.26675 7.78552 7.53060
#
# Compressibility (1/GPa) = 0.01284511
#
# Stress axis : x y z
#
# Youngs Moduli (GPa) = 100.18152 71.41719 78.94091
#
# Poissons Ratio (x) = 0.26765 0.04517
# Poissons Ratio (y) = 0.37545 0.59864
# Poissons Ratio (z) = 0.05733 0.54159
#
# Static dielectric constant tensor:
#      x y z
#    x 2.050190 -0.016860 -0.066180 
#    y -0.016860 1.931670 0.023130 
#    z -0.066180 0.023130 2.008130 
# 
# From -- ./inp_files/197243.got.cif
#   From: 2010.05.17/outbox.cif.g08.bks.cpg/sg2_99_cif.got.tgz:197243.got - 2010.06.03 11:33:40.
