data_PCOD9026336
_publ_section_title
;
Structure prediction by ZEFSAII (Michael W. Deem and Ramdas Pophale) SiO2 
 PCOD9026336
Probable space group: P -1
;
_chemical_formula_sum "Si O2"
_cell_formula_units_Z 16
_cell_length_a 10.682284
_cell_length_b 11.360764
_cell_length_c 14.004486
_cell_angle_alpha 149.527809
_cell_angle_beta 75.830827
_cell_angle_gamma 84.686411
_cell_volume 657.360604
_symmetry_space_group_name_H-M "P -1"
_symmetry_group_IT_number 2
_symmetry_cell_setting 'triclinic'
loop_
_space_group_symop_operation_xyz
x,y,z
-x,-y,-z
loop_
_atom_site_type_symbol
_atom_site_label
_atom_site_fract_x
_atom_site_fract_y
_atom_site_fract_z
Si Si1 0.378503 0.869195 0.324685
Si Si2 0.264799 0.068186 0.809880
Si Si3 0.721749 0.668512 0.196529
Si Si4 0.579976 0.639729 0.945323
Si Si5 0.954024 0.158274 0.901004
Si Si6 0.189799 0.938102 0.972233
Si Si7 0.135190 0.618869 0.591990
Si Si8 0.551138 0.620383 0.711985
O O1 0.554518 0.719918 0.240879
O O2 0.324920 0.682355 0.247078
O O3 0.276736 0.201481 0.611486
O O4 0.418599 0.831390 0.178612
O O5 0.270173 0.140399 0.749097
O O6 0.382835 0.715803 0.555102
O O7 0.324356 0.227449 0.964975
O O8 0.074278 0.217564 0.964470
O O9 0.874281 0.327116 0.936373
O O10 0.549817 0.638812 0.839416
O O11 0.816292 0.219929 0.043063
O O12 0.076062 0.802418 0.631375
O O13 0.159125 0.797264 0.791995
O O14 0.367548 0.848498 0.867792
O O15 0.038108 0.285050 0.265669
O O16 0.321057 0.346181 0.341731
#
# Coordination Sequence:
#
# PCOD9026336 Si02
#       8
#     2   2   2   2   2   2   2   2
#     4   9  19  31  49  80 113 143 188 227 253 324
#     4  10  21  34  53  80 119 144 179 227 262 327
#     4  10  17  31  56  76 110 151 180 218 276 317
#     4  10  20  33  50  80 115 146 182 224 265 322
#     4   9  18  31  54  81 106 146 183 223 275 325
#     4   9  18  34  60  85 104 141 190 229 276 327
#     4   8  19  34  55  88 108 134 189 236 271 325
#     4  11  19  36  62  81 109 151 179 220 285 326
#
# _framework density 24.339759000000001
#
# number of rings (size 3 to 8) (size 9 to 14) (size 15 to 20)
#    0.750    1.750    1.250    1.500    3.500    0.000 
#    0.000    1.875    2.750    7.500    0.000    0.000 
#    0.000    0.000    0.000    0.000    0.000    0.000 
#
# Total GULP energy -89114.027761 kJ/mol
# GULP energy per Si atom -5569.626735 kJ/mol
# Density = 2.428436 g / cm^3
# Si number density = 24.339759 Si / 1000 Ang^3
#
#
#
# Elastic Constant Matrix: (Units=GPa)
#
#
# Indices 1 2 3 4 5 6 
#
# 1 93.0876 26.7612 47.9625 13.0580 -25.9537 6.9985
# 2 26.7612 49.7360 30.2280 -11.3811 -2.7060 10.3218
# 3 47.9625 30.2280 82.2300 -14.3497 -7.6507 -3.4690
# 4 13.0580 -11.3811 -14.3497 37.1363 -1.4203 0.7705
# 5 -25.9537 -2.7060 -7.6507 -1.4203 46.9251 3.4731
# 6 6.9985 10.3218 -3.4690 0.7705 3.4731 22.5672
#
#
#
# Elastic Compliance Matrix: (Units=1/GPa)
#
#
# Indices 1 2 3 4 5 6 
#
# 1 0.027127 -0.006343 -0.015686 -0.016884 0.012253 -0.009232
# 2 -0.006343 0.033301 -0.007589 0.009750 -0.001454 -0.014540
# 3 -0.015686 -0.007589 0.026394 0.012919 -0.005365 0.012777
# 4 -0.016884 0.009750 0.012919 0.040584 -0.005607 0.002240
# 5 0.012253 -0.001454 -0.005365 -0.005607 0.027552 -0.008008
# 6 -0.009232 -0.014540 0.012777 0.002240 -0.008008 0.056945
#
#
# Mechanical properties :
#
#
# Convention : Reuss Voigt Hill
#
# Bulk Modulus (GPa) = 36.25143 48.32854 42.28999
# Shear Modulus (GPa) = 17.83580 29.33251 23.58416
#
# Velocity S-wave (km/s) = 2.70994 3.47526 3.11618
# Velocity P-wave (km/s) = 4.97171 6.00018 5.50999
#
# Compressibility (1/GPa) = 0.02758512
#
# Stress axis : x y z
#
# Youngs Moduli (GPa) = 36.86361 30.02913 37.88690
#
# Poissons Ratio (x) = 0.19049 0.59431
# Poissons Ratio (y) = 0.23384 0.28752
# Poissons Ratio (z) = 0.57826 0.22789
#
# Static dielectric constant tensor:
#      x y z
#    x 2.000710 0.026260 -0.008220 
#    y 0.026260 1.956580 0.013060 
#    z -0.008220 0.013060 2.000910 
# 
# From -- ./inp_files/521114.got.cif
#   From: 2010.05.17/outbox.cif.g08.bks.cpg/sg2_261_cif.got.tgz:521114.got - 2010.06.03 11:33:40.
