data_PCOD9026845
_publ_section_title
;
Structure prediction by ZEFSAII (Michael W. Deem and Ramdas Pophale) SiO2 
 PCOD9026845
Probable space group: P -1
;
_chemical_formula_sum "Si O2"
_cell_formula_units_Z 12
_cell_length_a 12.559968
_cell_length_b 11.634533
_cell_length_c 5.214465
_cell_angle_alpha 100.356335
_cell_angle_beta 82.343842
_cell_angle_gamma 39.441226
_cell_volume 428.700835
_symmetry_space_group_name_H-M "P -1"
_symmetry_group_IT_number 2
_symmetry_cell_setting 'triclinic'
loop_
_space_group_symop_operation_xyz
x,y,z
-x,-y,-z
loop_
_atom_site_type_symbol
_atom_site_label
_atom_site_fract_x
_atom_site_fract_y
_atom_site_fract_z
Si Si1 0.654758 0.525246 0.931085
Si Si2 0.849426 0.556960 0.779150
Si Si3 0.119800 0.212213 0.922157
Si Si4 0.523971 0.896919 0.696794
Si Si5 0.306441 0.737552 0.909478
Si Si6 0.954838 0.158838 0.314240
O O1 0.700257 0.616820 0.028681
O O2 0.623106 0.456209 0.127508
O O3 0.836943 0.322529 0.638310
O O4 0.484111 0.660033 0.847934
O O5 0.727349 0.661082 0.597808
O O6 0.040324 0.323404 0.714982
O O7 0.886208 0.659573 0.868680
O O8 0.336870 0.985369 0.763204
O O9 0.004539 0.213137 0.103504
O O10 0.500000 0.000000 0.500000
O O11 0.500000 0.000000 0.000000
O O12 0.177391 0.826923 0.744377
O O13 0.153498 0.927618 0.228914
#
# Coordination Sequence:
#
# PCOD9026845 Si02
#       6
#     2   2   2   2   2   2
#     4  11  22  40  68  93 128 179 223 282 347 409
#     4  10  22  41  65  99 134 173 227 281 347 423
#     4  10  22  41  66  99 138 175 226 287 351 420
#     4  10  23  42  64  96 140 185 230 283 348 426
#     4  10  23  42  61  95 132 167 232 284 334 415
#     4  11  22  41  66  94 131 175 223 284 345 409
#
# _framework density 27.991547000000001
#
# number of rings (size 3 to 8) (size 9 to 14) (size 15 to 20)
#    0.000    1.667    1.667    2.000    0.000    8.000 
#    0.000    0.000    7.333    0.000    0.000    0.000 
#    0.000    0.000    0.000    0.000    0.000    0.000 
#
# Total GULP energy -67027.154938 kJ/mol
# GULP energy per Si atom -5585.596245 kJ/mol
# Density = 2.792784 g / cm^3
# Si number density = 27.991547 Si / 1000 Ang^3
#
#
#
# Elastic Constant Matrix: (Units=GPa)
#
#
# Indices 1 2 3 4 5 6 
#
# 1 151.7133 53.3217 9.5814 -2.4146 6.8341 -25.2127
# 2 53.3217 204.1481 37.8494 -25.9498 2.0516 2.9629
# 3 9.5814 37.8494 72.8358 -19.9613 6.8011 -9.2544
# 4 -2.4146 -25.9498 -19.9613 49.3460 1.9577 -7.3317
# 5 6.8341 2.0516 6.8011 1.9577 26.4043 -5.6025
# 6 -25.2127 2.9629 -9.2544 -7.3317 -5.6025 52.4729
#
#
#
# Elastic Compliance Matrix: (Units=1/GPa)
#
#
# Indices 1 2 3 4 5 6 
#
# 1 0.008074 -0.002282 0.000802 0.000170 -0.001275 0.004037
# 2 -0.002282 0.006245 -0.002679 0.001834 0.000313 -0.001632
# 3 0.000802 -0.002679 0.017737 0.006586 -0.004178 0.004139
# 4 0.000170 0.001834 0.006586 0.024650 -0.002801 0.004285
# 5 -0.001275 0.000313 -0.004178 -0.002801 0.039995 0.002512
# 6 0.004037 -0.001632 0.004139 0.004285 0.002512 0.022686
#
#
# Mechanical properties :
#
#
# Convention : Reuss Voigt Hill
#
# Bulk Modulus (GPa) = 42.12503 70.02246 56.07374
# Shear Modulus (GPa) = 36.86869 47.50761 42.18815
#
# Velocity S-wave (km/s) = 3.63317 4.12419 3.88645
# Velocity P-wave (km/s) = 5.71680 6.91003 6.34154
#
# Compressibility (1/GPa) = 0.02373885
#
# Stress axis : x y z
#
# Youngs Moduli (GPa) = 123.85846 160.13664 56.37881
#
# Poissons Ratio (x) = 0.36538 -0.04523
# Poissons Ratio (y) = 0.28261 0.15104
# Poissons Ratio (z) = -0.09937 0.42900
#
# Static dielectric constant tensor:
#      x y z
#    x 2.252280 0.062500 -0.024030 
#    y 0.062500 2.248670 0.028590 
#    z -0.024030 0.028590 2.294630 
# 
# From -- ./inp_files/64600.got.cif
#   From: 2010.05.17/outbox.cif.g08.bks.cpg/sg2_33_cif.got.tgz:64600.got - 2010.06.03 11:33:40.
