data_PCOD9026804
_publ_section_title
;
Structure prediction by ZEFSAII (Michael W. Deem and Ramdas Pophale) SiO2 
 PCOD9026804
Probable space group: P -1
;
_chemical_formula_sum "Si O2"
_cell_formula_units_Z 16
_cell_length_a 25.517287
_cell_length_b 9.467599
_cell_length_c 5.155411
_cell_angle_alpha 103.236809
_cell_angle_beta 114.337894
_cell_angle_gamma 32.170954
_cell_volume 585.486107
_symmetry_space_group_name_H-M "P -1"
_symmetry_group_IT_number 2
_symmetry_cell_setting 'triclinic'
loop_
_space_group_symop_operation_xyz
x,y,z
-x,-y,-z
loop_
_atom_site_type_symbol
_atom_site_label
_atom_site_fract_x
_atom_site_fract_y
_atom_site_fract_z
Si Si1 0.738588 0.516786 0.155336
Si Si2 0.469192 0.184960 0.304927
Si Si3 0.820360 0.092050 0.776349
Si Si4 0.948055 0.002152 0.692784
Si Si5 0.632591 0.365766 0.327482
Si Si6 0.551356 0.268106 0.315987
Si Si7 0.851786 0.560335 0.368888
Si Si8 0.890699 0.665323 0.981770
O O1 0.829045 0.299957 0.472263
O O2 0.755205 0.649754 0.166400
O O3 0.615455 0.716289 0.019831
O O4 0.783049 0.319456 0.931757
O O5 0.403606 0.453896 0.431519
O O6 0.573197 0.062545 0.387431
O O7 0.500000 0.000000 0.500000
O O8 0.932613 0.889093 0.782779
O O9 0.746418 0.192980 0.432479
O O10 0.818600 0.965692 0.924010
O O11 0.036074 0.774199 0.560423
O O12 0.000000 0.000000 0.000000
O O13 0.639903 0.178922 0.321254
O O14 0.541021 0.573283 0.013740
O O15 0.500000 0.500000 0.500000
O O16 0.851268 0.630118 0.680316
O O17 0.867642 0.647381 0.212087
O O18 0.000000 0.500000 0.000000
#
# Coordination Sequence:
#
# PCOD9026804 Si02
#       8
#     2   2   2   2   2   2   2   2
#     4  11  25  43  67  99 132 181 239 277 342 427
#     4  10  22  41  65  97 131 171 216 283 343 398
#     4  11  24  40  68  95 132 180 231 285 336 420
#     4  12  23  41  71  96 134 184 235 280 344 405
#     4   9  20  40  64  96 122 171 226 271 335 407
#     4   9  18  39  65  88 126 164 217 271 334 406
#     4  12  26  45  67 101 143 185 227 292 345 410
#     4  12  26  45  64 100 140 181 228 285 352 398
#
# _framework density 27.327718000000001
#
# number of rings (size 3 to 8) (size 9 to 14) (size 15 to 20)
#    0.000    1.250    2.500    3.000    1.750    1.500 
#    6.750    0.000    0.000    0.000    0.000    0.000 
#    0.000    0.000    0.000    0.000    0.000    0.000 
#
# Total GULP energy -89421.987349 kJ/mol
# GULP energy per Si atom -5588.874209 kJ/mol
# Density = 2.726552 g / cm^3
# Si number density = 27.327718 Si / 1000 Ang^3
#
#
#
# Elastic Constant Matrix: (Units=GPa)
#
#
# Indices 1 2 3 4 5 6 
#
# 1 187.5831 20.5616 38.7943 -5.9443 31.5209 47.5115
# 2 20.5616 65.6614 9.4113 13.3225 6.0897 29.3429
# 3 38.7943 9.4113 137.2979 4.9605 29.4463 9.3787
# 4 -5.9443 13.3225 4.9605 49.8695 6.4134 -0.9998
# 5 31.5209 6.0897 29.4463 6.4134 48.7883 4.8246
# 6 47.5115 29.3429 9.3787 -0.9998 4.8246 51.3079
#
#
#
# Elastic Compliance Matrix: (Units=1/GPa)
#
#
# Indices 1 2 3 4 5 6 
#
# 1 0.008045 0.001129 -0.000989 0.001139 -0.004150 -0.007503
# 2 0.001129 0.022413 -0.000462 -0.005942 -0.001103 -0.013791
# 3 -0.000989 -0.000462 0.008553 -0.000275 -0.004432 0.000028
# 4 0.001139 -0.005942 -0.000275 0.022259 -0.003063 0.003115
# 5 -0.004150 -0.001103 -0.004432 -0.003063 0.026119 0.002768
# 6 -0.007503 -0.013791 0.000028 0.003115 0.002768 0.034120
#
#
# Mechanical properties :
#
#
# Convention : Reuss Voigt Hill
#
# Bulk Modulus (GPa) = 26.06410 58.67521 42.36966
# Shear Modulus (GPa) = 37.05238 51.44481 44.24860
#
# Velocity S-wave (km/s) = 3.68619 4.34350 4.02827
# Velocity P-wave (km/s) = 5.26076 6.83171 6.09704
#
# Compressibility (1/GPa) = 0.03836694
#
# Stress axis : x y z
#
# Youngs Moduli (GPa) = 124.29322 44.61656 116.91526
#
# Poissons Ratio (x) = -0.05037 0.11567
# Poissons Ratio (y) = -0.14031 0.05401
# Poissons Ratio (z) = 0.12297 0.02061
#
# Static dielectric constant tensor:
#      x y z
#    x 2.313630 -0.107430 -0.029060 
#    y -0.107430 2.306120 -0.137320 
#    z -0.029060 -0.137320 2.089460 
# 
# From -- ./inp_files/126477.got.cif
#   From: 2010.05.17/outbox.cif.g08.bks.cpg/sg2_64_cif.got.tgz:126477.got - 2010.06.03 11:33:40.
