data_PCOD9026858
_publ_section_title
;
Structure prediction by ZEFSAII (Michael W. Deem and Ramdas Pophale) SiO2 
 PCOD9026858
Probable space group: P -1
;
_chemical_formula_sum "Si O2"
_cell_formula_units_Z 15
_cell_length_a 12.196843
_cell_length_b 12.106868
_cell_length_c 5.446707
_cell_angle_alpha 110.206988
_cell_angle_beta 92.699892
_cell_angle_gamma 59.834423
_cell_volume 644.596170
_symmetry_space_group_name_H-M "P -1"
_symmetry_group_IT_number 2
_symmetry_cell_setting 'triclinic'
loop_
_space_group_symop_operation_xyz
x,y,z
-x,-y,-z
loop_
_atom_site_type_symbol
_atom_site_label
_atom_site_fract_x
_atom_site_fract_y
_atom_site_fract_z
Si Si1 0.413488 0.374505 0.474411
Si Si2 0.000000 0.500000 0.000000
Si Si3 0.610299 0.404266 0.743801
Si Si4 0.854533 0.031753 0.522219
Si Si5 0.206215 0.203333 0.618506
Si Si6 0.855786 0.130347 0.095401
Si Si7 0.368833 0.146213 0.093214
Si Si8 0.182826 0.603127 0.912020
O O1 0.549730 0.315225 0.576241
O O2 0.397588 0.496741 0.396667
O O3 0.401828 0.264396 0.231525
O O4 0.294257 0.455472 0.708551
O O5 0.100818 0.364626 0.740955
O O6 0.068306 0.585615 0.976060
O O7 0.500000 0.500000 0.000000
O O8 0.747401 0.358372 0.840400
O O9 0.797642 0.113418 0.326075
O O10 0.854147 0.891921 0.423087
O O11 0.791715 0.111047 0.830327
O O12 0.000000 0.000000 0.500000
O O13 0.280845 0.162670 0.333990
O O14 0.297275 0.171829 0.844033
O O15 0.856974 0.271211 0.185218
O O16 0.000000 0.000000 0.000000
O O17 0.500000 0.000000 0.000000
#
# Coordination Sequence:
#
# PCOD9026858 Si02
#       8
#     2   1   2   2   2   2   2   2
#     4  10  22  46  72 108 143 191 260 317 384 440
#     4  12  24  46  78 112 164 200 246 316 386 482
#     4   9  21  43  71 103 143 185 254 320 367 449
#     4  10  22  45  69 100 153 190 248 296 369 461
#     4  12  27  51  75 118 149 205 253 314 394 460
#     4  10  22  41  65  99 145 195 244 299 360 448
#     4  12  28  53  77 106 153 202 263 318 379 457
#     4  11  23  42  72 111 150 199 245 313 387 457
#
# _framework density 23.270381
#
# number of rings (size 3 to 8) (size 9 to 14) (size 15 to 20)
#    0.000    1.333    1.333    3.600    3.733    2.667 
#   19.200    0.000    0.000    0.000    0.000    0.000 
#    0.000    0.000    0.000    0.000    0.000    0.000 
#
# Total GULP energy -83526.006454 kJ/mol
# GULP energy per Si atom -5568.400430 kJ/mol
# Density = 2.321742 g / cm^3
# Si number density = 23.270381 Si / 1000 Ang^3
#
#
#
# Elastic Constant Matrix: (Units=GPa)
#
#
# Indices 1 2 3 4 5 6 
#
# 1 76.7153 39.1997 23.5217 10.0789 -14.8800 31.7815
# 2 39.1997 78.0395 16.9725 17.3259 -4.4256 14.3751
# 3 23.5217 16.9725 113.8788 -9.0200 -13.0444 -1.8619
# 4 10.0789 17.3259 -9.0200 47.5537 5.6857 -3.3895
# 5 -14.8800 -4.4256 -13.0444 5.6857 49.5621 14.2475
# 6 31.7815 14.3751 -1.8619 -3.3895 14.2475 41.0142
#
#
#
# Elastic Compliance Matrix: (Units=1/GPa)
#
#
# Indices 1 2 3 4 5 6 
#
# 1 0.040368 -0.008152 -0.006181 -0.012031 0.021866 -0.037294
# 2 -0.008152 0.018488 -0.001550 -0.005285 -0.000451 -0.000514
# 3 -0.006181 -0.001550 0.010568 0.004564 -0.001684 0.006775
# 4 -0.012031 -0.005285 0.004564 0.028982 -0.011296 0.017701
# 5 0.021866 -0.000451 -0.001684 -0.011296 0.036294 -0.030403
# 6 -0.037294 -0.000514 0.006775 0.017701 -0.030403 0.065792
#
#
# Mechanical properties :
#
#
# Convention : Reuss Voigt Hill
#
# Bulk Modulus (GPa) = 26.55494 47.55793 37.05644
# Shear Modulus (GPa) = 20.42384 40.22198 30.32291
#
# Velocity S-wave (km/s) = 2.96577 4.16199 3.61372
# Velocity P-wave (km/s) = 4.81290 6.60134 5.77675
#
# Compressibility (1/GPa) = 0.03765777
#
# Stress axis : x y z
#
# Youngs Moduli (GPa) = 24.77237 54.08783 94.62179
#
# Poissons Ratio (x) = 0.44092 0.58485
# Poissons Ratio (y) = 0.20194 0.14670
# Poissons Ratio (z) = 0.15312 0.08386
#
# Static dielectric constant tensor:
#      x y z
#    x 1.902640 -0.170440 -0.012550 
#    y -0.170440 2.178070 -0.028850 
#    z -0.012550 -0.028850 2.063620 
# 
# From -- ./inp_files/71832.got.cif
#   From: 2010.05.17/outbox.cif.g08.bks.cpg/sg2_36_cif.got.tgz:71832.got - 2010.06.03 11:33:40.
