data_PCOD9026668
_publ_section_title
;
Structure prediction by ZEFSAII (Michael W. Deem and Ramdas Pophale) SiO2 
 PCOD9026668
Probable space group: P -1
;
_chemical_formula_sum "Si O2"
_cell_formula_units_Z 14
_cell_length_a 8.897333
_cell_length_b 17.963523
_cell_length_c 8.351226
_cell_angle_alpha 60.205755
_cell_angle_beta 31.118163
_cell_angle_gamma 62.996902
_cell_volume 597.402924
_symmetry_space_group_name_H-M "P -1"
_symmetry_group_IT_number 2
_symmetry_cell_setting 'triclinic'
loop_
_space_group_symop_operation_xyz
x,y,z
-x,-y,-z
loop_
_atom_site_type_symbol
_atom_site_label
_atom_site_fract_x
_atom_site_fract_y
_atom_site_fract_z
Si Si1 0.450727 0.617166 0.697522
Si Si2 0.205354 0.135675 0.909825
Si Si3 0.344678 0.913705 0.702065
Si Si4 0.256470 0.772159 0.179800
Si Si5 0.235280 0.339727 0.308803
Si Si6 0.707348 0.209683 0.507473
Si Si7 0.949178 0.509117 0.224895
O O1 0.588736 0.634281 0.724362
O O2 0.459256 0.701110 0.489946
O O3 0.620285 0.535700 0.545359
O O4 0.124497 0.588793 0.042599
O O5 0.416724 0.146323 0.552467
O O6 0.479915 0.133377 0.787141
O O7 0.963467 0.072804 0.127277
O O8 0.971619 0.197021 0.153958
O O9 0.500000 0.000000 0.500000
O O10 0.291490 0.862445 0.966520
O O11 0.181413 0.782702 0.422508
O O12 0.009090 0.725746 0.359519
O O13 0.545228 0.709788 0.961988
O O14 0.070369 0.423004 0.292755
O O15 0.000000 0.500000 0.000000
#
# Coordination Sequence:
#
# PCOD9026668 Si02
#       7
#     2   2   2   2   2   2   2
#     4  12  23  39  62  87 124 167 209 260 308 363
#     4  10  22  41  65  91 128 164 204 250 309 375
#     4  11  23  43  67  95 125 163 206 253 310 377
#     4  12  24  41  66  93 124 163 209 261 310 371
#     4  12  24  41  62  91 124 166 213 258 311 375
#     4  11  22  41  63  95 126 166 211 255 308 368
#     4  12  24  40  59  88 124 165 210 263 313 359
#
# _framework density 23.434767999999998
#
# number of rings (size 3 to 8) (size 9 to 14) (size 15 to 20)
#    0.000    0.571    0.000   10.286    0.000    0.000 
#    0.000    4.286    0.000    0.000    0.000    0.000 
#    0.000    0.000    0.000    0.000    0.000    0.000 
#
# Total GULP energy -78195.551675 kJ/mol
# GULP energy per Si atom -5585.396548 kJ/mol
# Density = 2.338143 g / cm^3
# Si number density = 23.434768 Si / 1000 Ang^3
#
#
#
# Elastic Constant Matrix: (Units=GPa)
#
#
# Indices 1 2 3 4 5 6 
#
# 1 103.4629 36.5525 11.6887 -10.2922 3.7229 -6.2643
# 2 36.5525 60.3990 26.9591 -4.3353 18.8675 4.9273
# 3 11.6887 26.9591 88.4571 4.3792 -19.5290 -17.3823
# 4 -10.2922 -4.3353 4.3792 42.9981 3.0134 -2.8843
# 5 3.7229 18.8675 -19.5290 3.0134 41.1260 -3.2761
# 6 -6.2643 4.9273 -17.3823 -2.8843 -3.2761 -20.4375
#
#
#
# Elastic Compliance Matrix: (Units=1/GPa)
#
#
# Indices 1 2 3 4 5 6 
#
# 1 0.011941 -0.006937 -0.000329 0.001726 0.001379 -0.005517
# 2 -0.006937 0.027592 -0.007573 0.004053 -0.014571 0.016983
# 3 -0.000329 -0.007573 0.013100 -0.003724 0.008901 -0.013768
# 4 0.001726 0.004053 -0.003724 0.024912 -0.005531 0.000986
# 5 0.001379 -0.014571 0.008901 -0.005531 0.034216 -0.016210
# 6 -0.005517 0.016983 -0.013768 0.000986 -0.016210 -0.028975
#
#
# Mechanical properties :
#
#
# Convention : Reuss Voigt Hill
#
# Bulk Modulus (GPa) = 43.56093 44.74661 44.15377
# Shear Modulus (GPa) = 41.62705 24.54523 33.08614
#
# Velocity S-wave (km/s) = 4.21918 3.23984 3.76152
# Velocity P-wave (km/s) = 6.50875 5.75595 6.14389
#
# Compressibility (1/GPa) = 0.02295635
#
# Stress axis : x y z
#
# Youngs Moduli (GPa) = 83.74456 36.24283 76.33427
#
# Poissons Ratio (x) = 0.25140 0.02511
# Poissons Ratio (y) = 0.58090 0.57806
# Poissons Ratio (z) = 0.02755 0.27446
#
# Static dielectric constant tensor:
#      x y z
#    x 1.870490 0.021240 -0.027040 
#    y 0.021240 1.913510 -0.011410 
#    z -0.027040 -0.011410 1.865690 
# 
# From -- ./inp_files/216899.got.cif
#   From: 2010.05.17/outbox.cif.g08.bks.cpg/sg2_109_cif.got.tgz:216899.got - 2010.06.03 11:33:40.
