data_PCOD9026083
_publ_section_title
;
Structure prediction by ZEFSAII (Michael W. Deem and Ramdas Pophale) SiO2 
 PCOD9026083
Probable space group: P -1
;
_chemical_formula_sum "Si O2"
_cell_formula_units_Z 16
_cell_length_a 14.756180
_cell_length_b 12.487277
_cell_length_c 9.042505
_cell_angle_alpha 96.220859
_cell_angle_beta 91.430087
_cell_angle_gamma 151.480886
_cell_volume 765.085330
_symmetry_space_group_name_H-M "P -1"
_symmetry_group_IT_number 2
_symmetry_cell_setting 'triclinic'
loop_
_space_group_symop_operation_xyz
x,y,z
-x,-y,-z
loop_
_atom_site_type_symbol
_atom_site_label
_atom_site_fract_x
_atom_site_fract_y
_atom_site_fract_z
Si Si1 0.613022 0.834930 0.878999
Si Si2 0.336076 0.178346 0.788719
Si Si3 0.052182 0.734329 0.513895
Si Si4 0.607796 0.605834 0.676700
Si Si5 0.050777 0.072022 0.841562
Si Si6 0.370104 0.790152 0.858781
Si Si7 0.286295 0.766992 0.527334
Si Si8 0.033933 0.291962 0.821092
O O1 0.564664 0.671124 0.773141
O O2 0.484404 0.801175 0.820475
O O3 0.604033 0.809782 0.051009
O O4 0.836333 0.092401 0.876681
O O5 0.519827 0.413273 0.736026
O O6 0.196563 0.952006 0.657193
O O7 0.206139 0.147400 0.811521
O O8 0.162221 0.740341 0.472956
O O9 0.848966 0.481010 0.544002
O O10 0.009712 0.751832 0.362885
O O11 0.500000 0.500000 0.500000
O O12 0.843709 0.845357 0.712086
O O13 0.126257 0.273180 0.857044
O O14 0.000000 0.000000 0.000000
O O15 0.312678 0.793010 0.709431
O O16 0.177251 0.542051 0.894122
O O17 0.500000 0.000000 0.000000
O O18 0.500000 0.000000 0.500000
#
# Coordination Sequence:
#
# PCOD9026083 Si02
#       8
#     2   2   2   2   2   2   2   2
#     4  11  23  39  62  90 126 167 205 260 319 368
#     4  12  23  38  66  93 129 167 214 265 314 382
#     4  10  23  40  62  93 121 166 212 262 323 375
#     4  11  25  41  64  96 129 170 217 261 318 384
#     4  11  23  42  64  94 130 172 209 257 322 379
#     4  11  24  39  63  92 121 163 211 260 319 375
#     4  10  22  43  63  85 126 164 211 266 319 379
#     4  10  22  41  62  86 130 163 206 261 313 379
#
# _framework density 20.912700999999998
#
# number of rings (size 3 to 8) (size 9 to 14) (size 15 to 20)
#    0.000    1.250    2.500    4.125    1.750    6.500 
#    0.000    0.000    0.000    0.000    0.000    0.000 
#    0.000    0.000    0.000    0.000    0.000    0.000 
#
# Total GULP energy -89487.602116 kJ/mol
# GULP energy per Si atom -5592.975132 kJ/mol
# Density = 2.086510 g / cm^3
# Si number density = 20.912701 Si / 1000 Ang^3
#
#
#
# Elastic Constant Matrix: (Units=GPa)
#
#
# Indices 1 2 3 4 5 6 
#
# 1 38.5356 -5.1766 -8.1077 -9.9988 17.9291 -4.1883
# 2 -5.1766 148.5020 31.7798 1.2329 -9.6973 -11.2820
# 3 -8.1077 31.7798 86.9708 11.4544 9.5973 -24.4870
# 4 -9.9988 1.2329 11.4544 36.4592 -6.1529 2.3945
# 5 17.9291 -9.6973 9.5973 -6.1529 25.9755 1.6089
# 6 -4.1883 -11.2820 -24.4870 2.3945 1.6089 33.9237
#
#
#
# Elastic Compliance Matrix: (Units=1/GPa)
#
#
# Indices 1 2 3 4 5 6 
#
# 1 0.051302 -0.003026 0.015901 0.000610 -0.043436 0.018822
# 2 -0.003026 0.007969 -0.004657 0.001694 0.007282 -0.001550
# 3 0.015901 -0.004657 0.024047 -0.008510 -0.024825 0.019550
# 4 0.000610 0.001694 -0.008510 0.032723 0.011625 -0.008365
# 5 -0.043436 0.007282 -0.024825 0.011625 0.084715 -0.025699
# 6 0.018822 -0.001550 0.019550 -0.008365 -0.025699 0.047207
#
#
# Mechanical properties :
#
#
# Convention : Reuss Voigt Hill
#
# Bulk Modulus (GPa) = 10.02477 34.55550 22.29013
# Shear Modulus (GPa) = 18.88370 36.30588 27.59479
#
# Velocity S-wave (km/s) = 3.00822 4.17114 3.63646
# Velocity P-wave (km/s) = 4.10730 6.30535 5.32106
#
# Compressibility (1/GPa) = 0.09975291
#
# Stress axis : x y z
#
# Youngs Moduli (GPa) = 19.49235 125.49075 41.58561
#
# Poissons Ratio (x) = 0.37973 -0.66124
# Poissons Ratio (y) = 0.05898 0.19366
# Poissons Ratio (z) = -0.30994 0.58441
#
# Static dielectric constant tensor:
#      x y z
#    x 1.734570 0.013160 0.013090 
#    y 0.013160 1.788420 0.005650 
#    z 0.013090 0.005650 1.725500 
# 
# From -- ./inp_files/208052.got.cif
#   From: 2010.05.17/outbox.cif.g08.bks.cpg/sg2_105_cif.got.tgz:208052.got - 2010.06.03 11:33:40.
