data_PCOD9026184
_publ_section_title
;
Structure prediction by ZEFSAII (Michael W. Deem and Ramdas Pophale) SiO2 
 PCOD9026184
Probable space group: P -1
;
_chemical_formula_sum "Si O2"
_cell_formula_units_Z 16
_cell_length_a 8.131753
_cell_length_b 11.203975
_cell_length_c 20.442781
_cell_angle_alpha 30.896527
_cell_angle_beta 125.637947
_cell_angle_gamma 131.533118
_cell_volume 715.460398
_symmetry_space_group_name_H-M "P -1"
_symmetry_group_IT_number 2
_symmetry_cell_setting 'triclinic'
loop_
_space_group_symop_operation_xyz
x,y,z
-x,-y,-z
loop_
_atom_site_type_symbol
_atom_site_label
_atom_site_fract_x
_atom_site_fract_y
_atom_site_fract_z
Si Si1 0.969651 0.833531 0.372015
Si Si2 0.802952 0.274354 0.242496
Si Si3 0.742913 0.408512 0.411165
Si Si4 0.317620 0.287096 0.516343
Si Si5 0.087969 0.315623 0.811354
Si Si6 0.338147 0.981648 0.065980
Si Si7 0.696483 0.553615 0.708086
Si Si8 0.810353 0.276400 0.097522
O O1 0.822427 0.609550 0.394621
O O2 0.887045 0.779401 0.452326
O O3 0.208884 0.824772 0.438539
O O4 0.914570 0.066306 0.227221
O O5 0.812255 0.472164 0.208187
O O6 0.753603 0.342814 0.126153
O O7 0.055445 0.299971 0.281773
O O8 0.657846 0.980320 0.362075
O O9 0.887378 0.548418 0.316204
O O10 0.494671 0.357513 0.357061
O O11 0.500000 0.500000 0.500000
O O12 0.294471 0.402711 0.388240
O O13 0.839011 0.143416 0.857324
O O14 0.223870 0.135676 0.926434
O O15 0.358618 0.738747 0.151037
O O16 0.579064 0.160470 0.061188
O O17 0.000000 0.500000 0.000000
#
# Coordination Sequence:
#
# PCOD9026184 Si02
#       8
#     2   2   2   2   2   2   2   2
#     4  10  22  41  63 100 124 171 223 269 325 393
#     4  10  24  42  64 100 130 171 222 268 337 391
#     4  11  22  39  68  98 132 165 223 275 331 382
#     4  11  20  42  68  89 129 173 219 262 330 396
#     4  10  24  44  68 100 134 173 219 279 325 397
#     4  10  22  45  68  95 131 180 223 261 337 396
#     4  11  21  40  68  99 129 177 217 279 328 390
#     4  11  24  44  67  96 132 175 224 273 327 396
#
# _framework density 22.363222
#
# number of rings (size 3 to 8) (size 9 to 14) (size 15 to 20)
#    0.000    1.500    2.500    2.625    1.750    5.000 
#    2.250    3.125    0.000    0.000    0.000    0.000 
#    0.000    0.000    0.000    0.000    0.000    0.000 
#
# Total GULP energy -89322.805820 kJ/mol
# GULP energy per Si atom -5582.675364 kJ/mol
# Density = 2.231232 g / cm^3
# Si number density = 22.363222 Si / 1000 Ang^3
#
#
#
# Elastic Constant Matrix: (Units=GPa)
#
#
# Indices 1 2 3 4 5 6 
#
# 1 60.9246 1.9794 27.5865 -5.9092 11.1758 7.9997
# 2 1.9794 74.7397 -1.7153 -18.4510 -6.3624 8.7409
# 3 27.5865 -1.7153 86.5003 -3.3028 6.8128 13.2160
# 4 -5.9092 -18.4510 -3.3028 24.1714 3.1041 3.2495
# 5 11.1758 -6.3624 6.8128 3.1041 20.9402 11.5529
# 6 7.9997 8.7409 13.2160 3.2495 11.5529 40.6962
#
#
#
# Elastic Compliance Matrix: (Units=1/GPa)
#
#
# Indices 1 2 3 4 5 6 
#
# 1 0.021537 -0.000271 -0.005868 0.005584 -0.010668 0.000313
# 2 -0.000271 0.018489 0.001594 0.014352 0.007346 -0.007667
# 3 -0.005868 0.001594 0.014111 0.002146 0.001046 -0.004240
# 4 0.005584 0.014352 0.002146 0.055494 -0.002856 -0.008497
# 5 -0.010668 0.007346 0.001046 -0.002856 0.065853 -0.018287
# 6 0.000313 -0.007667 -0.004240 -0.008497 -0.018287 0.033404
#
#
# Mechanical properties :
#
#
# Convention : Reuss Voigt Hill
#
# Bulk Modulus (GPa) = 22.19986 30.87400 26.53693
# Shear Modulus (GPa) = 21.45977 30.11581 25.78779
#
# Velocity S-wave (km/s) = 3.10110 3.67368 3.39947
# Velocity P-wave (km/s) = 4.77189 5.64183 5.22500
#
# Compressibility (1/GPa) = 0.04504532
#
# Stress axis : x y z
#
# Youngs Moduli (GPa) = 46.43147 54.08756 70.86636
#
# Poissons Ratio (x) = 0.01467 0.41587
# Poissons Ratio (y) = 0.01259 -0.11295
# Poissons Ratio (z) = 0.27248 -0.08621
#
# Static dielectric constant tensor:
#      x y z
#    x 1.874040 0.086440 0.051050 
#    y 0.086440 1.575800 -0.091680 
#    z 0.051050 -0.091680 1.804540 
# 
# From -- ./inp_files/469334.got.cif
#   From: 2010.05.17/outbox.cif.g08.bks.cpg/sg2_235_cif.got.tgz:469334.got - 2010.06.03 11:33:40.
