data_PCOD9026889
_publ_section_title
;
Structure prediction by ZEFSAII (Michael W. Deem and Ramdas Pophale) SiO2 
 PCOD9026889
Probable space group: P -1
;
_chemical_formula_sum "Si O2"
_cell_formula_units_Z 14
_cell_length_a 5.013774
_cell_length_b 9.927473
_cell_length_c 12.163606
_cell_angle_alpha 80.329331
_cell_angle_beta 100.436202
_cell_angle_gamma 114.824725
_cell_volume 537.524320
_symmetry_space_group_name_H-M "P -1"
_symmetry_group_IT_number 2
_symmetry_cell_setting 'triclinic'
loop_
_space_group_symop_operation_xyz
x,y,z
-x,-y,-z
loop_
_atom_site_type_symbol
_atom_site_label
_atom_site_fract_x
_atom_site_fract_y
_atom_site_fract_z
Si Si1 0.272910 0.195607 0.910044
Si Si2 0.746071 0.371039 0.563162
Si Si3 0.740584 0.084896 0.316201
Si Si4 0.170927 0.801684 0.937069
Si Si5 0.303597 0.366550 0.352391
Si Si6 0.352949 0.471271 0.114037
Si Si7 0.916349 0.099171 0.677093
O O1 0.480553 0.359640 0.857374
O O2 0.040649 0.120015 0.807527
O O3 0.533956 0.151924 0.977039
O O4 0.080215 0.184204 0.006597
O O5 0.482454 0.320117 0.462981
O O6 0.674906 0.467688 0.639611
O O7 0.863667 0.246825 0.623583
O O8 0.000000 0.500000 0.500000
O O9 0.753008 0.109375 0.182290
O O10 0.970969 0.242785 0.354561
O O11 0.407737 0.032577 0.337843
O O12 0.859554 0.954710 0.363787
O O13 0.001771 0.624383 0.915119
O O14 0.410076 0.375255 0.231526
O O15 0.500000 0.500000 0.000000
#
# Coordination Sequence:
#
# PCOD9026889 Si02
#       7
#     2   2   2   2   2   2   2
#     4  11  22  39  67 103 146 195 245 304 358 446
#     4  11  27  49  79 110 142 199 256 315 374 435
#     4  11  27  48  70 111 148 199 244 307 381 453
#     4  10  22  41  66 101 147 194 244 299 372 439
#     4  10  25  49  79 105 153 195 251 314 373 447
#     4   9  20  41  72 112 145 189 246 310 372 438
#     4  12  28  45  74 106 152 194 252 307 376 444
#
# _framework density 26.045331999999998
#
# number of rings (size 3 to 8) (size 9 to 14) (size 15 to 20)
#    0.000    1.429    0.000    3.000   10.000    4.571 
#   10.286    0.000    0.000    0.000    0.000    0.000 
#    0.000    0.000    0.000    0.000    0.000    0.000 
#
# Total GULP energy -78283.995315 kJ/mol
# GULP energy per Si atom -5591.713951 kJ/mol
# Density = 2.598605 g / cm^3
# Si number density = 26.045332 Si / 1000 Ang^3
#
#
#
# Elastic Constant Matrix: (Units=GPa)
#
#
# Indices 1 2 3 4 5 6 
#
# 1 112.2477 39.6434 37.6925 1.0703 14.0124 24.4306
# 2 39.6434 72.4351 33.3918 5.4396 29.8540 8.8089
# 3 37.6925 33.3918 102.7414 11.9951 3.9351 12.2384
# 4 1.0703 5.4396 11.9951 42.8063 8.4022 7.4026
# 5 14.0124 29.8540 3.9351 8.4022 39.9924 5.4943
# 6 24.4306 8.8089 12.2384 7.4026 5.4943 37.7482
#
#
#
# Elastic Compliance Matrix: (Units=1/GPa)
#
#
# Indices 1 2 3 4 5 6 
#
# 1 0.013118 -0.005438 -0.002492 0.002213 0.000188 -0.006874
# 2 -0.005438 0.026905 -0.006458 0.001808 -0.018146 0.001622
# 3 -0.002492 -0.006458 0.013108 -0.003630 0.005331 -0.001194
# 4 0.002213 0.001808 -0.003630 0.026231 -0.006612 -0.004859
# 5 0.000188 -0.018146 0.005331 -0.006612 0.039636 -0.002088
# 6 -0.006874 0.001622 -0.001194 -0.004859 -0.002088 0.032206
#
#
# Mechanical properties :
#
#
# Convention : Reuss Voigt Hill
#
# Bulk Modulus (GPa) = 41.06111 56.54217 48.80164
# Shear Modulus (GPa) = 26.58164 35.88915 31.23539
#
# Velocity S-wave (km/s) = 3.19814 3.71610 3.46681
# Velocity P-wave (km/s) = 5.42558 6.33789 5.89939
#
# Compressibility (1/GPa) = 0.02435394
#
# Stress axis : x y z
#
# Youngs Moduli (GPa) = 76.23158 37.16769 76.28803
#
# Poissons Ratio (x) = 0.20214 0.19009
# Poissons Ratio (y) = 0.41458 0.49270
# Poissons Ratio (z) = 0.18995 0.24004
#
# Static dielectric constant tensor:
#      x y z
#    x 2.073650 -0.142250 0.019760 
#    y -0.142250 2.236880 0.018480 
#    z 0.019760 0.018480 2.100910 
# 
# From -- ./inp_files/361949.got.cif
#   From: 2010.05.17/outbox.cif.g08.bks.cpg/sg2_181_cif.got.tgz:361949.got - 2010.06.03 11:33:40.
