data_PCOD9026817
_publ_section_title
;
Structure prediction by ZEFSAII (Michael W. Deem and Ramdas Pophale) SiO2 
 PCOD9026817
Probable space group: P -1
;
_chemical_formula_sum "Si O2"
_cell_formula_units_Z 16
_cell_length_a 8.574913
_cell_length_b 8.587576
_cell_length_c 10.855076
_cell_angle_alpha 101.517717
_cell_angle_beta 85.665511
_cell_angle_gamma 127.231354
_cell_volume 622.571306
_symmetry_space_group_name_H-M "P -1"
_symmetry_group_IT_number 2
_symmetry_cell_setting 'triclinic'
loop_
_space_group_symop_operation_xyz
x,y,z
-x,-y,-z
loop_
_atom_site_type_symbol
_atom_site_label
_atom_site_fract_x
_atom_site_fract_y
_atom_site_fract_z
Si Si1 0.298654 0.538370 0.759078
Si Si2 0.708015 0.705018 0.885394
Si Si3 0.811859 0.869931 0.575564
Si Si4 0.176633 0.485382 0.474597
Si Si5 0.479923 0.155166 0.594442
Si Si6 0.501983 0.745697 0.125719
Si Si7 0.188335 0.716988 0.982343
Si Si8 0.971111 0.105562 0.830524
O O1 0.523962 0.643130 0.798753
O O2 0.266077 0.524706 0.613478
O O3 0.163850 0.316899 0.797876
O O4 0.239369 0.673181 0.840449
O O5 0.661630 0.491872 0.876691
O O6 0.915740 0.894341 0.851144
O O7 0.658718 0.758740 0.028198
O O8 0.832207 0.702853 0.594116
O O9 0.635976 0.799636 0.483110
O O10 0.833135 0.015476 0.702403
O O11 0.000000 0.000000 0.500000
O O12 0.303261 0.645302 0.387473
O O13 0.000000 0.500000 0.500000
O O14 0.408069 0.127652 0.734238
O O15 0.500000 0.000000 0.500000
O O16 0.381196 0.801432 0.066050
O O17 0.116700 0.845148 0.045697
O O18 0.000000 0.500000 0.000000
#
# Coordination Sequence:
#
# PCOD9026817 Si02
#       8
#     2   2   2   2   2   2   2   2
#     4  10  22  43  68  96 135 174 228 283 345 411
#     4  10  22  43  70  98 129 179 224 283 348 405
#     4  12  24  44  70  98 140 185 232 285 350 419
#     4  12  26  44  69 101 140 183 233 292 350 414
#     4  12  26  42  70 104 141 186 228 285 356 422
#     4  10  22  41  65  97 139 166 225 285 338 411
#     4   9  21  39  67  92 131 177 215 278 339 401
#     4  11  22  42  71  94 131 178 229 272 346 410
#
# _framework density 25.699866
#
# number of rings (size 3 to 8) (size 9 to 14) (size 15 to 20)
#    0.000    1.250    1.250    4.125    3.500    3.000 
#    0.000   10.000    0.000    0.000    0.000    0.000 
#    0.000    0.000    0.000    0.000    0.000    0.000 
#
# Total GULP energy -89378.111561 kJ/mol
# GULP energy per Si atom -5586.131973 kJ/mol
# Density = 2.564137 g / cm^3
# Si number density = 25.699866 Si / 1000 Ang^3
#
#
#
# Elastic Constant Matrix: (Units=GPa)
#
#
# Indices 1 2 3 4 5 6 
#
# 1 75.5271 10.6048 38.7542 6.1258 -6.1080 -5.1696
# 2 10.6048 121.1018 34.3079 -2.3480 -20.2517 -3.5502
# 3 38.7542 34.3079 176.2174 21.0016 -8.3087 -9.8047
# 4 6.1258 -2.3480 21.0016 34.5920 -5.0383 -8.9358
# 5 -6.1080 -20.2517 -8.3087 -5.0383 36.7524 3.5799
# 6 -5.1696 -3.5502 -9.8047 -8.9358 3.5799 36.6854
#
#
#
# Elastic Compliance Matrix: (Units=1/GPa)
#
#
# Indices 1 2 3 4 5 6 
#
# 1 0.015086 -0.000147 -0.003122 -0.000284 0.001579 0.001054
# 2 -0.000147 0.009761 -0.001918 0.002765 0.005244 0.000573
# 3 -0.003122 -0.001918 0.007200 -0.003923 -0.000525 0.000394
# 4 -0.000284 0.002765 -0.003923 0.034006 0.004568 0.007017
# 5 0.001579 0.005244 -0.000525 0.004568 0.030997 -0.001322
# 6 0.001054 0.000573 0.000394 0.007017 -0.001322 0.029406
#
#
# Mechanical properties :
#
#
# Convention : Reuss Voigt Hill
#
# Bulk Modulus (GPa) = 46.14434 60.02000 53.08217
# Shear Modulus (GPa) = 34.70880 40.88459 37.79669
#
# Velocity S-wave (km/s) = 3.67896 3.99287 3.83913
# Velocity P-wave (km/s) = 6.00337 6.68298 6.35227
#
# Compressibility (1/GPa) = 0.02167113
#
# Stress axis : x y z
#
# Youngs Moduli (GPa) = 66.28751 102.44610 138.89476
#
# Poissons Ratio (x) = 0.01507 0.43365
# Poissons Ratio (y) = 0.00975 0.26647
# Poissons Ratio (z) = 0.20696 0.19654
#
# Static dielectric constant tensor:
#      x y z
#    x 2.045930 -0.011900 0.091480 
#    y -0.011900 2.084440 0.015180 
#    z 0.091480 0.015180 2.129850 
# 
# From -- ./inp_files/382654.got.cif
#   From: 2010.05.17/outbox.cif.g08.bks.cpg/sg2_192_cif.got.tgz:382654.got - 2010.06.03 11:33:40.
