data_PCOD9026394
_publ_section_title
;
Structure prediction by ZEFSAII (Michael W. Deem and Ramdas Pophale) SiO2 
 PCOD9026394
Probable space group: P -1
;
_chemical_formula_sum "Si O2"
_cell_formula_units_Z 16
_cell_length_a 9.089047
_cell_length_b 17.252705
_cell_length_c 9.623414
_cell_angle_alpha 80.284278
_cell_angle_beta 83.542081
_cell_angle_gamma 31.046802
_cell_volume 765.581827
_symmetry_space_group_name_H-M "P -1"
_symmetry_group_IT_number 2
_symmetry_cell_setting 'triclinic'
loop_
_space_group_symop_operation_xyz
x,y,z
-x,-y,-z
loop_
_atom_site_type_symbol
_atom_site_label
_atom_site_fract_x
_atom_site_fract_y
_atom_site_fract_z
Si Si1 0.529409 0.804651 0.651023
Si Si2 0.598825 0.381044 0.435323
Si Si3 0.718935 0.958033 0.570472
Si Si4 0.856149 0.510560 0.395452
Si Si5 0.442228 0.667647 0.825110
Si Si6 0.827257 0.879980 0.886890
Si Si7 0.480025 0.126218 0.074131
Si Si8 0.301230 0.375199 0.932943
O O1 0.485354 0.733825 0.725601
O O2 0.447119 0.892113 0.768754
O O3 0.864389 0.668222 0.622060
O O4 0.344637 0.924266 0.509897
O O5 0.500000 0.500000 0.500000
O O6 0.429689 0.390571 0.532301
O O7 0.474369 0.432203 0.274890
O O8 0.944229 0.215344 0.440139
O O9 0.653352 0.978689 0.734759
O O10 0.500000 0.000000 0.500000
O O11 0.752782 0.587475 0.233845
O O12 0.000000 0.500000 0.500000
O O13 0.121097 0.789117 0.853898
O O14 0.570216 0.616856 0.981468
O O15 0.813312 0.791505 0.925811
O O16 0.698194 0.974620 0.011097
O O17 0.466262 0.218285 0.980992
O O18 0.000000 0.500000 0.000000
#
# Coordination Sequence:
#
# PCOD9026394 Si02
#       8
#     2   2   2   2   2   2   2   2
#     4  11  22  42  69  93 136 171 218 276 326 397
#     4  11  25  44  67 100 137 174 223 277 330 399
#     4  11  23  42  68  97 133 177 217 270 340 383
#     4  12  24  44  68 100 135 171 222 277 329 398
#     4  10  23  43  65  95 132 169 223 275 326 391
#     4  10  23  41  63  94 131 167 219 276 324 394
#     4  10  22  41  64  89 129 170 217 264 328 387
#     4  11  22  42  66  92 126 177 216 265 332 387
#
# _framework density 20.899137
#
# number of rings (size 3 to 8) (size 9 to 14) (size 15 to 20)
#    0.000    1.250    5.000    0.750    3.500    6.000 
#    2.250    1.250    0.000    0.000    0.000    0.000 
#    0.000    0.000    0.000    0.000    0.000    0.000 
#
# Total GULP energy -89095.748975 kJ/mol
# GULP energy per Si atom -5568.484311 kJ/mol
# Density = 2.085157 g / cm^3
# Si number density = 20.899137 Si / 1000 Ang^3
#
#
#
# Elastic Constant Matrix: (Units=GPa)
#
#
# Indices 1 2 3 4 5 6 
#
# 1 67.3535 13.1295 35.8248 7.6453 20.7353 -17.5440
# 2 13.1295 35.9917 27.9780 6.7561 -1.8935 -1.9004
# 3 35.8248 27.9780 162.9488 9.2441 25.0355 5.1892
# 4 7.6453 6.7561 9.2441 34.2251 -3.5695 1.4853
# 5 20.7353 -1.8935 25.0355 -3.5695 36.2224 8.0862
# 6 -17.5440 -1.9004 5.1892 1.4853 8.0862 31.7504
#
#
#
# Elastic Compliance Matrix: (Units=1/GPa)
#
#
# Indices 1 2 3 4 5 6 
#
# 1 0.032085 -0.008285 -0.002329 -0.008379 -0.023363 0.023956
# 2 -0.008285 0.036190 -0.005879 -0.002330 0.011417 -0.004249
# 3 -0.002329 -0.005879 0.008467 -0.000998 -0.004517 -0.001826
# 4 -0.008379 -0.002330 -0.000998 0.033313 0.010628 -0.008871
# 5 -0.023363 0.011417 -0.004517 0.010628 0.051342 -0.025061
# 6 0.023956 -0.004249 -0.001826 -0.008871 -0.025061 0.051574
#
#
# Mechanical properties :
#
#
# Convention : Reuss Voigt Hill
#
# Bulk Modulus (GPa) = 22.85429 46.68429 34.76929
# Shear Modulus (GPa) = 19.19077 33.06369 26.12723
#
# Velocity S-wave (km/s) = 3.03356 3.98183 3.53959
# Velocity P-wave (km/s) = 4.81967 6.59745 5.77735
#
# Compressibility (1/GPa) = 0.04375547
#
# Stress axis : x y z
#
# Youngs Moduli (GPa) = 31.16767 27.63190 118.10394
#
# Poissons Ratio (x) = 0.22893 0.27511
# Poissons Ratio (y) = 0.25822 0.69431
# Poissons Ratio (z) = 0.07260 0.16244
#
# Static dielectric constant tensor:
#      x y z
#    x 2.043360 -0.062300 0.067830 
#    y -0.062300 1.789100 -0.027380 
#    z 0.067830 -0.027380 1.821070 
# 
# From -- ./inp_files/217676.got.cif
#   From: 2010.05.17/outbox.cif.g08.bks.cpg/sg2_109_cif.got.tgz:217676.got - 2010.06.03 11:33:40.
