data_PCOD9026310
_publ_section_title
;
Structure prediction by ZEFSAII (Michael W. Deem and Ramdas Pophale) SiO2 
 PCOD9026310
Probable space group: P -1
;
_chemical_formula_sum "Si O2"
_cell_formula_units_Z 14
_cell_length_a 16.664471
_cell_length_b 16.573352
_cell_length_c 26.571681
_cell_angle_alpha 16.985913
_cell_angle_beta 162.816107
_cell_angle_gamma 155.742399
_cell_volume 633.229788
_symmetry_space_group_name_H-M "P -1"
_symmetry_group_IT_number 2
_symmetry_cell_setting 'triclinic'
loop_
_space_group_symop_operation_xyz
x,y,z
-x,-y,-z
loop_
_atom_site_type_symbol
_atom_site_label
_atom_site_fract_x
_atom_site_fract_y
_atom_site_fract_z
Si Si1 0.849243 0.707064 0.079076
Si Si2 0.393503 0.596332 0.659123
Si Si3 0.334623 0.039205 0.540476
Si Si4 0.060945 0.149318 0.499196
Si Si5 0.479670 0.949153 0.096619
Si Si6 0.238608 0.528931 0.496604
Si Si7 0.131715 0.024179 0.313649
O O1 0.944785 0.571128 0.270363
O O2 0.960373 0.470462 0.248731
O O3 0.546822 0.793002 0.830415
O O4 0.000000 0.000000 0.000000
O O5 0.246705 0.638093 0.492514
O O6 0.665685 0.769553 0.715382
O O7 0.207257 0.722767 0.516004
O O8 0.478322 0.278351 0.902061
O O9 0.104750 0.021728 0.455590
O O10 0.530870 0.304518 0.495714
O O11 0.203142 0.025249 0.414709
O O12 0.373572 0.146907 0.706403
O O13 0.000000 0.000000 0.500000
O O14 0.660192 0.787467 0.259251
O O15 0.170098 0.884672 0.936928
#
# Coordination Sequence:
#
# PCOD9026310 Si02
#       7
#     2   2   2   2   2   2   2
#     4   9  20  43  65  89 126 170 213 259 316 383
#     4  10  22  41  63  95 130 162 210 258 310 387
#     4  10  22  41  66  89 129 167 213 259 317 383
#     4  11  26  42  64  96 125 169 218 268 320 373
#     4  11  24  40  64  92 134 162 207 265 318 376
#     4   9  21  39  65  96 122 168 207 258 321 371
#     4  10  24  40  64  98 123 169 210 254 321 376
#
# _framework density 22.108878000000001
#
# number of rings (size 3 to 8) (size 9 to 14) (size 15 to 20)
#    0.000    2.000    0.000    1.286   10.000    2.286 
#    0.000    7.857    0.000    0.000    0.000    0.000 
#    0.000    0.000    0.000    0.000    0.000    0.000 
#
# Total GULP energy -78147.085484 kJ/mol
# GULP energy per Si atom -5581.934677 kJ/mol
# Density = 2.205856 g / cm^3
# Si number density = 22.108878 Si / 1000 Ang^3
#
#
#
# Elastic Constant Matrix: (Units=GPa)
#
#
# Indices 1 2 3 4 5 6 
#
# 1 71.9988 28.0625 11.4417 19.4991 1.5067 -19.1786
# 2 28.0625 108.5303 38.9415 28.2226 1.9560 -18.4724
# 3 11.4417 38.9415 127.3488 37.5143 -9.2268 -10.2093
# 4 19.4991 28.2226 37.5143 50.6780 -5.3450 -3.6954
# 5 1.5067 1.9560 -9.2268 -5.3450 11.2356 0.5779
# 6 -19.1786 -18.4724 -10.2093 -3.6954 0.5779 44.8645
#
#
#
# Elastic Compliance Matrix: (Units=1/GPa)
#
#
# Indices 1 2 3 4 5 6 
#
# 1 0.018237 -0.002189 0.001202 -0.006686 -0.004601 0.006677
# 2 -0.002189 0.012588 -0.002430 -0.004792 -0.006347 0.003381
# 3 0.001202 -0.002430 0.010946 -0.006467 0.006103 0.001393
# 4 -0.006686 -0.004792 -0.006467 0.030657 0.011206 -0.003922
# 5 -0.004601 -0.006347 0.006103 0.011206 0.101251 -0.003573
# 6 0.006677 0.003381 0.001393 -0.003922 -0.003573 0.026576
#
#
# Mechanical properties :
#
#
# Convention : Reuss Voigt Hill
#
# Bulk Modulus (GPa) = 28.62124 51.64105 40.13115
# Shear Modulus (GPa) = 22.85886 36.65108 29.75497
#
# Velocity S-wave (km/s) = 3.21895 4.07597 3.67255
# Velocity P-wave (km/s) = 5.17583 6.74979 6.01452
#
# Compressibility (1/GPa) = 0.03493908
#
# Stress axis : x y z
#
# Youngs Moduli (GPa) = 54.83413 79.44162 91.35453
#
# Poissons Ratio (x) = 0.17388 -0.10984
# Poissons Ratio (y) = 0.12002 0.22195
# Poissons Ratio (z) = -0.06593 0.19301
#
# Static dielectric constant tensor:
#      x y z
#    x 1.818980 0.054570 -0.012990 
#    y 0.054570 1.900100 -0.022500 
#    z -0.012990 -0.022500 1.829580 
# 
# From -- ./inp_files/282210.got.cif
#   From: 2010.05.17/outbox.cif.g08.bks.cpg/sg2_142_cif.got.tgz:282210.got - 2010.06.03 11:33:40.
