data_PCOD9026069
_publ_section_title
;
Structure prediction by ZEFSAII (Michael W. Deem and Ramdas Pophale) SiO2 
 PCOD9026069
Probable space group: P -1
;
_chemical_formula_sum "Si O2"
_cell_formula_units_Z 16
_cell_length_a 18.844631
_cell_length_b 10.648165
_cell_length_c 13.556150
_cell_angle_alpha 126.612358
_cell_angle_beta 30.586235
_cell_angle_gamma 145.484242
_cell_volume 721.628952
_symmetry_space_group_name_H-M "P -1"
_symmetry_group_IT_number 2
_symmetry_cell_setting 'triclinic'
loop_
_space_group_symop_operation_xyz
x,y,z
-x,-y,-z
loop_
_atom_site_type_symbol
_atom_site_label
_atom_site_fract_x
_atom_site_fract_y
_atom_site_fract_z
Si Si1 0.916266 0.799357 0.397484
Si Si2 0.085672 0.877649 0.760737
Si Si3 0.528757 0.561719 0.879603
Si Si4 0.097735 0.414054 0.855910
Si Si5 0.676721 0.370062 0.110389
Si Si6 0.204249 0.079768 0.913844
Si Si7 0.688670 0.021702 0.883063
Si Si8 0.784371 0.992414 0.548030
O O1 0.766533 0.718533 0.630240
O O2 0.807478 0.579691 0.353185
O O3 0.931704 0.971950 0.395549
O O4 0.128891 0.894785 0.225194
O O5 0.247340 0.038685 0.735268
O O6 0.163824 0.891103 0.565776
O O7 0.886549 0.604410 0.909550
O O8 0.993380 0.971114 0.893128
O O9 0.376690 0.329034 0.882662
O O10 0.507178 0.731123 0.968490
O O11 0.500000 0.500000 0.000000
O O12 0.264543 0.553423 0.810635
O O13 0.000000 0.500000 0.000000
O O14 0.892155 0.134776 0.001548
O O15 0.461302 0.277939 0.296200
O O16 0.633108 0.149162 0.040225
O O17 0.778145 0.099209 0.700382
#
# Coordination Sequence:
#
# PCOD9026069 Si02
#       8
#     2   2   2   2   2   2   2   2
#     4  11  23  43  68  99 127 176 231 265 337 406
#     4  10  22  41  65  95 132 179 213 275 326 397
#     4  11  24  39  68  96 128 173 218 282 322 397
#     4  11  22  43  70  92 132 178 212 286 340 383
#     4  11  25  43  67 101 140 172 220 277 340 392
#     4  10  22  41  61  97 131 163 229 265 330 395
#     4  11  24  46  64  97 138 172 220 273 341 397
#     4  11  23  41  71  96 133 178 226 270 326 407
#
# _framework density 22.172059999999998
#
# number of rings (size 3 to 8) (size 9 to 14) (size 15 to 20)
#    0.000    1.250    2.500    4.125    3.500    1.000 
#    2.250    0.625    0.000    0.000    0.000    0.000 
#    0.000    0.000    0.000    0.000    0.000    0.000 
#
# Total GULP energy -89358.267783 kJ/mol
# GULP energy per Si atom -5584.891736 kJ/mol
# Density = 2.212160 g / cm^3
# Si number density = 22.172060 Si / 1000 Ang^3
#
#
#
# Elastic Constant Matrix: (Units=GPa)
#
#
# Indices 1 2 3 4 5 6 
#
# 1 121.3670 45.0904 36.3323 -2.3022 22.0556 22.7679
# 2 45.0904 119.7888 12.5346 3.5572 2.4203 -5.2606
# 3 36.3323 12.5346 40.1758 5.9508 17.6351 4.3487
# 4 -2.3022 3.5572 5.9508 31.9907 7.7426 1.3202
# 5 22.0556 2.4203 17.6351 7.7426 43.7181 4.6172
# 6 22.7679 -5.2606 4.3487 1.3202 4.6172 45.6046
#
#
#
# Elastic Compliance Matrix: (Units=1/GPa)
#
#
# Indices 1 2 3 4 5 6 
#
# 1 0.015338 -0.005023 -0.010849 0.004740 -0.003182 -0.007017
# 2 -0.005023 0.010375 0.000461 -0.002179 0.001785 0.003543
# 3 -0.010849 0.000461 0.039379 -0.005930 -0.009690 0.002867
# 4 0.004740 -0.002179 -0.005930 0.034431 -0.005715 -0.002470
# 5 -0.003182 0.001785 -0.009690 -0.005715 0.029310 -0.000084
# 6 -0.007017 0.003543 0.002867 -0.002470 -0.000084 0.025646
#
#
# Mechanical properties :
#
#
# Convention : Reuss Voigt Hill
#
# Bulk Modulus (GPa) = 29.18025 52.13846 40.65935
# Shear Modulus (GPa) = 25.41622 36.75430 31.08526
#
# Velocity S-wave (km/s) = 3.38940 4.07589 3.74839
# Velocity P-wave (km/s) = 5.33918 6.76143 6.09195
#
# Compressibility (1/GPa) = 0.03426976
#
# Stress axis : x y z
#
# Youngs Moduli (GPa) = 65.19765 96.38854 25.39393
#
# Poissons Ratio (x) = 0.48414 0.27551
# Poissons Ratio (y) = 0.32748 -0.01171
# Poissons Ratio (z) = 0.70736 -0.04444
#
# Static dielectric constant tensor:
#      x y z
#    x 1.842140 0.048540 0.039570 
#    y 0.048540 1.855520 -0.014140 
#    z 0.039570 -0.014140 1.843500 
# 
# From -- ./inp_files/541116.got.cif
#   From: 2010.05.17/outbox.cif.g08.bks.cpg/sg2_271_cif.got.tgz:541116.got - 2010.06.03 11:33:40.
