data_PCOD9026795
_publ_section_title
;
Structure prediction by ZEFSAII (Michael W. Deem and Ramdas Pophale) SiO2 
 PCOD9026795
Probable space group: P -1
;
_chemical_formula_sum "Si O2"
_cell_formula_units_Z 14
_cell_length_a 8.333182
_cell_length_b 18.760781
_cell_length_c 15.785411
_cell_angle_alpha 158.109719
_cell_angle_beta 134.789394
_cell_angle_gamma 48.654368
_cell_volume 652.765396
_symmetry_space_group_name_H-M "P -1"
_symmetry_group_IT_number 2
_symmetry_cell_setting 'triclinic'
loop_
_space_group_symop_operation_xyz
x,y,z
-x,-y,-z
loop_
_atom_site_type_symbol
_atom_site_label
_atom_site_fract_x
_atom_site_fract_y
_atom_site_fract_z
Si Si1 0.277427 0.174204 0.700227
Si Si2 0.073892 0.026127 0.213628
Si Si3 0.497262 0.121237 0.891962
Si Si4 0.499016 0.512005 0.411128
Si Si5 0.231046 0.785260 0.155152
Si Si6 0.976657 0.599172 0.278025
Si Si7 0.388841 0.080578 0.132964
O O1 0.302218 0.170832 0.806679
O O2 0.519467 0.232108 0.813242
O O3 0.097041 0.318563 0.749941
O O4 0.238127 0.958770 0.415971
O O5 0.302531 0.983658 0.201139
O O6 0.067201 0.863058 0.104586
O O7 0.079745 0.227943 0.486475
O O8 0.856514 0.011059 0.056819
O O9 0.449430 0.983684 0.800888
O O10 0.575564 0.316637 0.179537
O O11 0.500000 0.500000 0.500000
O O12 0.637636 0.692713 0.632517
O O13 0.241352 0.554168 0.334093
O O14 0.153797 0.589455 0.951116
O O15 0.500000 0.000000 0.000000
#
# Coordination Sequence:
#
# PCOD9026795 Si02
#       7
#     2   2   2   2   2   2   2
#     4   9  21  39  58  96 127 161 204 259 305 367
#     4  10  22  41  65  97 122 161 210 259 305 364
#     4  11  25  41  62  94 129 155 212 265 304 366
#     4  12  25  41  63  92 123 166 211 255 310 373
#     4   9  19  37  67  91 127 161 206 252 310 368
#     4  11  21  38  68  91 127 168 206 246 315 374
#     4  12  23  42  67  86 126 167 207 257 315 365
#
# _framework density 21.447216999999998
#
# number of rings (size 3 to 8) (size 9 to 14) (size 15 to 20)
#    0.000    1.429    2.857    2.571    0.000    4.571 
#    0.000    1.429    0.000    0.000    0.000    0.000 
#    0.000    0.000    0.000    0.000    0.000    0.000 
#
# Total GULP energy -78290.446781 kJ/mol
# GULP energy per Si atom -5592.174770 kJ/mol
# Density = 2.139840 g / cm^3
# Si number density = 21.447217 Si / 1000 Ang^3
#
#
#
# Elastic Constant Matrix: (Units=GPa)
#
#
# Indices 1 2 3 4 5 6 
#
# 1 37.8729 25.4412 10.2091 -1.3244 -3.5660 2.0207
# 2 25.4412 161.1179 33.0163 -7.9200 12.2069 19.8391
# 3 10.2091 33.0163 90.3877 14.1936 11.9384 14.3602
# 4 -1.3244 -7.9200 14.1936 34.5910 2.2127 -1.1894
# 5 -3.5660 12.2069 11.9384 2.2127 29.1790 1.8573
# 6 2.0207 19.8391 14.3602 -1.1894 1.8573 41.8190
#
#
#
# Elastic Compliance Matrix: (Units=1/GPa)
#
#
# Indices 1 2 3 4 5 6 
#
# 1 0.031166 -0.004984 -0.003015 0.000900 0.006957 0.001611
# 2 -0.004984 0.008097 -0.001941 0.002572 -0.003224 -0.002717
# 3 -0.003015 -0.001941 0.014325 -0.006269 -0.004699 -0.003822
# 4 0.000900 0.002572 -0.006269 0.032230 -0.000963 0.001848
# 5 0.006957 -0.003224 -0.004699 -0.000963 0.038398 0.001074
# 6 0.001611 -0.002717 -0.003822 0.001848 0.001074 0.026441
#
#
# Mechanical properties :
#
#
# Convention : Reuss Voigt Hill
#
# Bulk Modulus (GPa) = 29.66812 47.41241 38.54026
# Shear Modulus (GPa) = 27.50670 35.83193 31.66931
#
# Velocity S-wave (km/s) = 3.58513 4.09186 3.84685
# Velocity P-wave (km/s) = 5.56782 6.66925 6.14327
#
# Compressibility (1/GPa) = 0.03370622
#
# Stress axis : x y z
#
# Youngs Moduli (GPa) = 32.08637 123.50601 69.80668
#
# Poissons Ratio (x) = 0.61562 0.21050
# Poissons Ratio (y) = 0.15993 0.13549
# Poissons Ratio (z) = 0.09676 0.23971
#
# Static dielectric constant tensor:
#      x y z
#    x 1.628900 0.025480 0.027470 
#    y 0.025480 1.810350 -0.012700 
#    z 0.027470 -0.012700 1.747260 
# 
# From -- ./inp_files/303459.got.cif
#   From: 2010.05.17/outbox.cif.g08.bks.cpg/sg2_152_cif.got.tgz:303459.got - 2010.06.03 11:33:40.
