data_PCOD9026418
_publ_section_title
;
Structure prediction by ZEFSAII (Michael W. Deem and Ramdas Pophale) SiO2 
 PCOD9026418
Probable space group: P -1
;
_chemical_formula_sum "Si O2"
_cell_formula_units_Z 15
_cell_length_a 6.745958
_cell_length_b 16.998601
_cell_length_c 23.748781
_cell_angle_alpha 21.056150
_cell_angle_beta 50.015749
_cell_angle_gamma 61.649439
_cell_volume 668.228557
_symmetry_space_group_name_H-M "P -1"
_symmetry_group_IT_number 2
_symmetry_cell_setting 'triclinic'
loop_
_space_group_symop_operation_xyz
x,y,z
-x,-y,-z
loop_
_atom_site_type_symbol
_atom_site_label
_atom_site_fract_x
_atom_site_fract_y
_atom_site_fract_z
Si Si1 0.229591 0.783734 0.031211
Si Si2 0.500000 0.500000 0.000000
Si Si3 0.878293 0.478174 0.400986
Si Si4 0.011807 0.696658 0.676640
Si Si5 0.213095 0.238189 0.670885
Si Si6 0.914639 0.043122 0.738590
Si Si7 0.011049 0.123081 0.323922
Si Si8 0.340351 0.880316 0.713396
O O1 0.092762 0.686872 0.181705
O O2 0.078301 0.556288 0.168070
O O3 0.172576 0.005305 0.871395
O O4 0.572111 0.874443 0.912562
O O5 0.379214 0.646035 0.879464
O O6 0.665426 0.767984 0.831081
O O7 0.555809 0.368271 0.506871
O O8 0.853536 0.581904 0.397165
O O9 0.971781 0.263305 0.537012
O O10 0.884775 0.670867 0.780940
O O11 0.354271 0.872306 0.503152
O O12 0.908589 0.864805 0.545879
O O13 0.020457 0.156016 0.705502
O O14 0.102953 0.907449 0.777300
O O15 0.780505 0.134494 0.317578
#
# Coordination Sequence:
#
# PCOD9026418 Si02
#       8
#     2   1   2   2   2   2   2   2
#     4  11  24  41  66 100 133 172 217 272 326 391
#     4  10  24  40  62  90 122 164 212 278 316 388
#     4  10  22  45  67  95 136 175 213 268 328 396
#     4  10  23  41  64  91 127 165 222 267 327 391
#     4  10  23  42  68  99 133 173 217 266 329 389
#     4  11  25  40  67 101 130 172 221 270 327 395
#     4  10  22  41  64  91 121 171 213 274 331 386
#     4  11  23  43  65  91 128 171 219 270 333 385
#
# _framework density 22.447406999999998
#
# number of rings (size 3 to 8) (size 9 to 14) (size 15 to 20)
#    0.000    1.600    0.000    3.200    3.733    5.867 
#    2.400    0.000    0.000    0.000    0.000    0.000 
#    0.000    0.000    0.000    0.000    0.000    0.000 
#
# Total GULP energy -83799.719467 kJ/mol
# GULP energy per Si atom -5586.647964 kJ/mol
# Density = 2.239632 g / cm^3
# Si number density = 22.447407 Si / 1000 Ang^3
#
#
#
# Elastic Constant Matrix: (Units=GPa)
#
#
# Indices 1 2 3 4 5 6 
#
# 1 147.6091 23.7692 47.2890 5.1051 3.4761 11.9680
# 2 23.7692 35.4940 5.1773 -0.6651 0.9914 0.6130
# 3 47.2890 5.1773 112.5585 14.2151 3.7287 -5.6921
# 4 5.1051 -0.6651 14.2151 35.1791 6.3645 -0.9736
# 5 3.4761 0.9914 3.7287 6.3645 25.0344 -7.9883
# 6 11.9680 0.6130 -5.6921 -0.9736 -7.9883 24.8185
#
#
#
# Elastic Compliance Matrix: (Units=1/GPa)
#
#
# Indices 1 2 3 4 5 6 
#
# 1 0.009511 -0.005596 -0.004021 0.000435 -0.002584 -0.006185
# 2 -0.005596 0.031789 0.000854 0.001169 -0.000244 0.002076
# 3 -0.004021 0.000854 0.011243 -0.004066 0.001413 0.004792
# 4 0.000435 0.001169 -0.004066 0.031464 -0.008336 -0.002620
# 5 -0.002584 -0.000244 0.001413 -0.008336 0.047500 0.016538
# 6 -0.006185 0.002076 0.004792 -0.002620 0.016538 0.049543
#
#
# Mechanical properties :
#
#
# Convention : Reuss Voigt Hill
#
# Bulk Modulus (GPa) = 28.55570 49.79251 39.17410
# Shear Modulus (GPa) = 23.78152 31.63482 27.70817
#
# Velocity S-wave (km/s) = 3.25842 3.75812 3.51716
# Velocity P-wave (km/s) = 5.18702 6.40791 5.82952
#
# Compressibility (1/GPa) = 0.03501928
#
# Stress axis : x y z
#
# Youngs Moduli (GPa) = 105.14058 31.45711 88.94244
#
# Poissons Ratio (x) = 0.17602 0.35760
# Poissons Ratio (y) = 0.58833 -0.07597
# Poissons Ratio (z) = 0.42273 -0.02687
#
# Static dielectric constant tensor:
#      x y z
#    x 1.815850 -0.014330 -0.086150 
#    y -0.014330 1.932540 0.111500 
#    z -0.086150 0.111500 1.948660 
# 
# From -- ./inp_files/604878.got.cif
#   From: 2010.05.17/outbox.cif.g08.bks.cpg/sg2_303_cif.got.tgz:604878.got - 2010.06.03 11:33:40.
