data_PCOD9026022
_publ_section_title
;
Structure prediction by ZEFSAII (Michael W. Deem and Ramdas Pophale) SiO2 
 PCOD9026022
Probable space group: P -1
;
_chemical_formula_sum "Si O2"
_cell_formula_units_Z 16
_cell_length_a 11.565945
_cell_length_b 15.060231
_cell_length_c 8.815381
_cell_angle_alpha 38.840474
_cell_angle_beta 123.138842
_cell_angle_gamma 120.771761
_cell_volume 795.529141
_symmetry_space_group_name_H-M "P -1"
_symmetry_group_IT_number 2
_symmetry_cell_setting 'triclinic'
loop_
_space_group_symop_operation_xyz
x,y,z
-x,-y,-z
loop_
_atom_site_type_symbol
_atom_site_label
_atom_site_fract_x
_atom_site_fract_y
_atom_site_fract_z
Si Si1 0.263932 0.731668 0.865022
Si Si2 0.377925 0.866181 0.077030
Si Si3 0.563328 0.427367 0.367720
Si Si4 0.987328 0.588215 0.220428
Si Si5 0.001107 0.815460 0.407098
Si Si6 0.308851 0.556692 0.888747
Si Si7 0.907692 0.121852 0.958106
Si Si8 0.225984 0.466419 0.389298
O O1 0.113833 0.771711 0.663224
O O2 0.335550 0.714179 0.776451
O O3 0.330527 0.834314 0.910301
O O4 0.264044 0.566252 0.138450
O O5 0.442762 0.727551 0.358339
O O6 0.245202 0.880764 0.071776
O O7 0.500000 0.000000 0.000000
O O8 0.660419 0.432825 0.282356
O O9 0.640354 0.536384 0.404353
O O10 0.417443 0.462043 0.158997
O O11 0.853170 0.517187 0.124563
O O12 0.000000 0.500000 0.500000
O O13 0.990993 0.753403 0.044660
O O14 0.127491 0.567619 0.263236
O O15 0.070933 0.831456 0.266543
O O16 0.867904 0.688186 0.486038
O O17 0.954099 0.966828 0.209531
#
# Coordination Sequence:
#
# PCOD9026022 Si02
#       8
#     2   2   2   2   2   2   2   2
#     4  11  23  39  62  94 121 158 214 263 304 375
#     4  11  25  44  59  82 129 177 198 251 330 378
#     4  10  22  41  61  91 123 167 211 250 307 380
#     4  12  18  38  69  89 121 167 207 255 310 366
#     4  11  23  38  65  99 123 159 215 268 308 360
#     4  11  22  36  67  95 120 155 218 262 298 365
#     4  11  23  41  63  91 129 166 210 257 316 374
#     4  11  21  38  65  91 127 163 203 255 322 362
#
# _framework density 20.112400999999998
#
# number of rings (size 3 to 8) (size 9 to 14) (size 15 to 20)
#    0.000    1.000    6.250    1.125    0.000    5.500 
#    0.000    5.000    0.000    0.000    0.000    0.000 
#    0.000    0.000    0.000    0.000    0.000    0.000 
#
# Total GULP energy -89276.001755 kJ/mol
# GULP energy per Si atom -5579.750110 kJ/mol
# Density = 2.006662 g / cm^3
# Si number density = 20.112401 Si / 1000 Ang^3
#
#
#
# Elastic Constant Matrix: (Units=GPa)
#
#
# Indices 1 2 3 4 5 6 
#
# 1 47.7089 22.3605 -10.3549 1.3846 -0.8354 -3.6128
# 2 22.3605 158.2700 61.8891 1.8670 5.1244 3.6683
# 3 -10.3549 61.8891 78.4446 10.4826 5.2033 8.2506
# 4 1.3846 1.8670 10.4826 40.5140 1.4847 7.3712
# 5 -0.8354 5.1244 5.2033 1.4847 14.9326 -1.1234
# 6 -3.6128 3.6683 8.2506 7.3712 -1.1234 30.8419
#
#
#
# Elastic Compliance Matrix: (Units=1/GPa)
#
#
# Indices 1 2 3 4 5 6 
#
# 1 0.026990 -0.007689 0.009773 -0.003573 0.001276 0.002362
# 2 -0.007689 0.011432 -0.010280 0.002458 -0.001026 -0.000135
# 3 0.009773 -0.010280 0.023394 -0.005272 -0.003761 -0.002768
# 4 -0.003573 0.002458 -0.005272 0.027214 -0.002355 -0.005891
# 5 0.001276 -0.001026 -0.003761 -0.002355 0.069264 0.004363
# 6 0.002362 -0.000135 -0.002768 -0.005891 0.004363 0.035023
#
#
# Mechanical properties :
#
#
# Convention : Reuss Voigt Hill
#
# Bulk Modulus (GPa) = 22.01473 48.02364 35.01919
# Shear Modulus (GPa) = 22.23702 31.29296 26.76499
#
# Velocity S-wave (km/s) = 3.32872 3.94877 3.65193
# Velocity P-wave (km/s) = 5.07380 6.68729 5.93563
#
# Compressibility (1/GPa) = 0.04542412
#
# Stress axis : x y z
#
# Youngs Moduli (GPa) = 37.05040 87.47410 42.74638
#
# Poissons Ratio (x) = 0.67257 -0.41778
# Poissons Ratio (y) = 0.28487 0.43945
# Poissons Ratio (z) = -0.36211 0.89927
#
# Static dielectric constant tensor:
#      x y z
#    x 1.887270 -0.049980 -0.145190 
#    y -0.049980 1.729310 0.026430 
#    z -0.145190 0.026430 1.778890 
# 
# From -- ./inp_files/238382.got.cif
#   From: 2010.05.17/outbox.cif.g08.bks.cpg/sg2_120_cif.got.tgz:238382.got - 2010.06.03 11:33:40.
