data_PCOD9026645
_publ_section_title
;
Structure prediction by ZEFSAII (Michael W. Deem and Ramdas Pophale) SiO2 
 PCOD9026645
Probable space group: P -1
;
_chemical_formula_sum "Si O2"
_cell_formula_units_Z 16
_cell_length_a 14.681286
_cell_length_b 8.483716
_cell_length_c 10.623388
_cell_angle_alpha 123.074810
_cell_angle_beta 104.327317
_cell_angle_gamma 122.576487
_cell_volume 599.978361
_symmetry_space_group_name_H-M "P -1"
_symmetry_group_IT_number 2
_symmetry_cell_setting 'triclinic'
loop_
_space_group_symop_operation_xyz
x,y,z
-x,-y,-z
loop_
_atom_site_type_symbol
_atom_site_label
_atom_site_fract_x
_atom_site_fract_y
_atom_site_fract_z
Si Si1 0.768711 0.972394 0.718749
Si Si2 0.226491 0.356908 0.833978
Si Si3 0.617767 0.701422 0.289429
Si Si4 0.082985 0.432530 0.641425
Si Si5 0.495301 0.790197 0.627559
Si Si6 0.002518 0.703109 0.849217
Si Si7 0.689828 0.175046 0.354836
Si Si8 0.676994 0.566591 0.834050
O O1 0.752952 0.973021 0.564303
O O2 0.674123 0.983128 0.765955
O O3 0.642293 0.586828 0.530577
O O4 0.948200 0.233052 0.958535
O O5 0.343907 0.439030 0.811716
O O6 0.156208 0.423448 0.772328
O O7 0.295406 0.503129 0.060712
O O8 0.076913 0.954364 0.628465
O O9 0.433164 0.431129 0.165279
O O10 0.636745 0.885770 0.265726
O O11 0.030397 0.548195 0.724105
O O12 0.211605 0.670020 0.674230
O O13 0.458852 0.919505 0.745662
O O14 0.441177 0.725553 0.436020
O O15 0.822250 0.468793 0.635218
O O16 0.146658 0.079657 0.009375
#
# Coordination Sequence:
#
# PCOD9026645 Si02
#       8
#     2   2   2   2   2   2   2   2
#     4   9  21  41  62  90 129 161 198 252 308 360
#     4  11  22  42  62  90 121 162 205 254 307 362
#     4  11  23  40  64  93 125 160 202 255 305 362
#     4  11  24  40  62  88 126 159 202 261 307 355
#     4   9  21  41  63  91 126 164 200 250 306 363
#     4  11  22  42  65  90 125 164 204 252 304 364
#     4  12  23  40  65  92 125 162 207 252 303 364
#     4  10  22  41  65  89 124 162 201 251 308 364
#
# _framework density 26.667625999999998
#
# number of rings (size 3 to 8) (size 9 to 14) (size 15 to 20)
#    0.000    1.500    2.500    3.000    0.000    6.500 
#    4.500    1.875    0.000    0.000    0.000    0.000 
#    0.000    0.000    0.000    0.000    0.000    0.000 
#
# Total GULP energy -89761.914696 kJ/mol
# GULP energy per Si atom -5610.119668 kJ/mol
# Density = 2.660693 g / cm^3
# Si number density = 26.667626 Si / 1000 Ang^3
#
#
#
# Elastic Constant Matrix: (Units=GPa)
#
#
# Indices 1 2 3 4 5 6 
#
# 1 114.8358 14.7435 -13.0804 13.2802 -12.2858 -6.5755
# 2 14.7435 91.3550 8.0054 -14.1424 -10.6722 -1.6358
# 3 -13.0804 8.0054 81.5288 1.4331 -4.5834 0.7419
# 4 13.2802 -14.1424 1.4331 38.5265 -5.9731 -2.9660
# 5 -12.2858 -10.6722 -4.5834 -5.9731 38.7105 1.9593
# 6 -6.5755 -1.6358 0.7419 -2.9660 1.9593 29.2280
#
#
#
# Elastic Compliance Matrix: (Units=1/GPa)
#
#
# Indices 1 2 3 4 5 6 
#
# 1 0.009963 -0.002094 0.001978 -0.003825 0.002151 0.001542
# 2 -0.002094 0.012788 -0.001503 0.006079 0.003588 0.000659
# 3 0.001978 -0.001503 0.012844 -0.001493 0.001515 -0.000218
# 4 -0.003825 0.006079 -0.001493 0.030493 0.004875 0.002285
# 5 0.002151 0.003588 0.001515 0.004875 0.028475 -0.000768
# 6 0.001542 0.000659 -0.000218 0.002285 -0.000768 0.034886
#
#
# Mechanical properties :
#
#
# Convention : Reuss Voigt Hill
#
# Bulk Modulus (GPa) = 30.90552 34.11742 32.51147
# Shear Modulus (GPa) = 34.84968 39.82974 37.33971
#
# Velocity S-wave (km/s) = 3.61891 3.86885 3.74597
# Velocity P-wave (km/s) = 5.39225 5.72527 5.56125
#
# Compressibility (1/GPa) = 0.03235668
#
# Stress axis : x y z
#
# Youngs Moduli (GPa) = 100.37154 78.19820 77.85761
#
# Poissons Ratio (x) = 0.16378 -0.15402
# Poissons Ratio (y) = 0.21023 0.11701
# Poissons Ratio (z) = -0.19856 0.11752
#
# Static dielectric constant tensor:
#      x y z
#    x 2.013540 -0.003380 0.007730 
#    y -0.003380 2.062830 0.028210 
#    z 0.007730 0.028210 2.182570 
# 
# From -- ./inp_files/240261.got.cif
#   From: 2010.05.17/outbox.cif.g08.bks.cpg/sg2_121_cif.got.tgz:240261.got - 2010.06.03 11:33:40.
