data_PCOD9026548
_publ_section_title
;
Structure prediction by ZEFSAII (Michael W. Deem and Ramdas Pophale) SiO2 
 PCOD9026548
Probable space group: P -1
;
_chemical_formula_sum "Si O2"
_cell_formula_units_Z 10
_cell_length_a 10.146308
_cell_length_b 16.748218
_cell_length_c 13.589089
_cell_angle_alpha 24.626172
_cell_angle_beta 32.467282
_cell_angle_gamma 27.188639
_cell_volume 432.137415
_symmetry_space_group_name_H-M "P -1"
_symmetry_group_IT_number 2
_symmetry_cell_setting 'triclinic'
loop_
_space_group_symop_operation_xyz
x,y,z
-x,-y,-z
loop_
_atom_site_type_symbol
_atom_site_label
_atom_site_fract_x
_atom_site_fract_y
_atom_site_fract_z
Si Si1 0.643796 0.343999 0.488699
Si Si2 0.155736 0.092882 0.229369
Si Si3 0.663779 0.026827 0.121006
Si Si4 0.155254 0.378204 0.184977
Si Si5 0.051948 0.700779 0.391016
O O1 0.500000 0.500000 0.500000
O O2 0.373955 0.466069 0.445699
O O3 0.745233 0.082766 0.726982
O O4 0.921700 0.363972 0.277913
O O5 0.438651 0.051233 0.154204
O O6 0.000000 0.000000 0.500000
O O7 0.944903 0.359154 0.039800
O O8 0.855253 0.780815 0.327988
O O9 0.465849 0.205476 0.132997
O O10 0.869673 0.107489 0.860492
O O11 0.115500 0.306608 0.399239
#
# Coordination Sequence:
#
# PCOD9026548 Si02
#       5
#     2   2   2   2   2
#     4  10  22  41  64  96 130 169 223 265 320 392
#     4  12  23  39  72  99 126 177 227 265 329 392
#     4  11  22  42  68  97 136 171 216 279 324 393
#     4  11  22  44  68  93 134 176 218 271 323 397
#     4  10  23  41  66  97 134 175 213 270 342 377
#
# _framework density 23.140788000000001
#
# number of rings (size 3 to 8) (size 9 to 14) (size 15 to 20)
#    0.000    1.200    4.000    2.400    0.000    4.000 
#    0.000    1.000    0.000    0.000    0.000    0.000 
#    0.000    0.000    0.000    0.000    0.000    0.000 
#
# Total GULP energy -55904.370145 kJ/mol
# GULP energy per Si atom -5590.437014 kJ/mol
# Density = 2.308812 g / cm^3
# Si number density = 23.140788 Si / 1000 Ang^3
#
#
#
# Elastic Constant Matrix: (Units=GPa)
#
#
# Indices 1 2 3 4 5 6 
#
# 1 36.8743 22.5763 28.5011 1.1680 6.8917 -6.8653
# 2 22.5763 91.2691 49.8557 -17.1823 -0.1206 -4.5394
# 3 28.5011 49.8557 149.4136 -2.0722 13.1266 13.0525
# 4 1.1680 -17.1823 -2.0722 47.2875 3.4870 -0.0841
# 5 6.8917 -0.1206 13.1266 3.4870 35.0734 -4.5212
# 6 -6.8653 -4.5394 13.0525 -0.0841 -4.5212 32.3741
#
#
#
# Elastic Compliance Matrix: (Units=1/GPa)
#
#
# Indices 1 2 3 4 5 6 
#
# 1 0.037847 -0.006536 -0.005503 -0.003244 -0.003947 0.008768
# 2 -0.006536 0.016361 -0.004673 0.005691 0.002938 0.003217
# 3 -0.005503 -0.004673 0.010154 -0.000872 -0.003474 -0.006404
# 4 -0.003244 0.005691 -0.000872 0.023353 -0.001294 0.000342
# 5 -0.003947 0.002938 -0.003474 -0.001294 0.031417 0.005360
# 6 0.008768 0.003217 -0.006404 0.000342 0.005360 0.036531
#
#
# Mechanical properties :
#
#
# Convention : Reuss Voigt Hill
#
# Bulk Modulus (GPa) = 32.32134 53.26925 42.79530
# Shear Modulus (GPa) = 25.07543 34.72194 29.89869
#
# Velocity S-wave (km/s) = 3.29538 3.87779 3.59839
# Velocity P-wave (km/s) = 5.33638 6.56652 5.98315
#
# Compressibility (1/GPa) = 0.03093931
#
# Stress axis : x y z
#
# Youngs Moduli (GPa) = 26.42229 61.12087 98.48118
#
# Poissons Ratio (x) = 0.39947 0.54193
# Poissons Ratio (y) = 0.17269 0.46019
# Poissons Ratio (z) = 0.14540 0.28561
#
# Static dielectric constant tensor:
#      x y z
#    x 1.915650 0.021770 0.041670 
#    y 0.021770 1.983400 0.035190 
#    z 0.041670 0.035190 1.883830 
# 
# From -- ./inp_files/522886.got.cif
#   From: 2010.05.17/outbox.cif.g08.bks.cpg/sg2_262_cif.got.tgz:522886.got - 2010.06.03 11:33:40.
