data_PCOD9026312
_publ_section_title
;
Structure prediction by ZEFSAII (Michael W. Deem and Ramdas Pophale) SiO2 
 PCOD9026312
Probable space group: P -1
;
_chemical_formula_sum "Si O2"
_cell_formula_units_Z 16
_cell_length_a 6.606525
_cell_length_b 9.325053
_cell_length_c 18.337823
_cell_angle_alpha 127.751505
_cell_angle_beta 58.706485
_cell_angle_gamma 127.342470
_cell_volume 690.171456
_symmetry_space_group_name_H-M "P -1"
_symmetry_group_IT_number 2
_symmetry_cell_setting 'triclinic'
loop_
_space_group_symop_operation_xyz
x,y,z
-x,-y,-z
loop_
_atom_site_type_symbol
_atom_site_label
_atom_site_fract_x
_atom_site_fract_y
_atom_site_fract_z
Si Si1 0.742148 0.794454 0.470586
Si Si2 0.755513 0.475781 0.591493
Si Si3 0.420279 0.196534 0.335633
Si Si4 0.027891 0.525130 0.706195
Si Si5 0.754441 0.136001 0.837345
Si Si6 0.677907 0.722348 0.003579
Si Si7 0.935619 0.430519 0.122218
Si Si8 0.381184 0.144618 0.100425
O O1 0.503277 0.734531 0.438660
O O2 0.591121 0.764616 0.565492
O O3 0.856772 0.633629 0.384649
O O4 0.000000 0.000000 0.500000
O O5 0.681216 0.654658 0.637520
O O6 0.000000 0.500000 0.500000
O O7 0.831627 0.502272 0.670442
O O8 0.721221 0.260568 0.278150
O O9 0.247413 0.970289 0.271800
O O10 0.945846 0.497532 0.797071
O O11 0.471644 0.146108 0.900673
O O12 0.959123 0.365472 0.879981
O O13 0.796185 0.991860 0.844372
O O14 0.500000 0.500000 0.000000
O O15 0.702642 0.765291 0.925211
O O16 0.960161 0.732025 0.974545
O O17 0.625238 0.327244 0.148658
O O18 0.500000 0.000000 0.000000
#
# Coordination Sequence:
#
# PCOD9026312 Si02
#       8
#     2   2   2   2   2   2   2   2
#     4  11  23  39  65  94 136 172 217 279 338 394
#     4  11  21  41  66  91 125 178 227 268 334 401
#     4  11  21  41  63  91 135 169 222 271 337 394
#     4  11  22  40  64  93 127 178 215 279 331 401
#     4  10  22  41  63  95 130 171 218 270 331 399
#     4   9  22  41  64  95 128 167 217 269 322 391
#     4  11  23  42  67  92 133 172 220 277 331 390
#     4  10  22  41  65  91 127 169 220 264 337 391
#
# _framework density 23.182645000000001
#
# number of rings (size 3 to 8) (size 9 to 14) (size 15 to 20)
#    0.000    1.500    3.750    1.500    1.750    7.000 
#    0.000    3.750    0.000    0.000    0.000    0.000 
#    0.000    0.000    0.000    0.000    0.000    0.000 
#
# Total GULP energy -89244.268335 kJ/mol
# GULP energy per Si atom -5577.766771 kJ/mol
# Density = 2.312988 g / cm^3
# Si number density = 23.182645 Si / 1000 Ang^3
#
#
#
# Elastic Constant Matrix: (Units=GPa)
#
#
# Indices 1 2 3 4 5 6 
#
# 1 98.0737 50.9671 11.7341 9.3235 12.2043 4.2903
# 2 50.9671 111.3542 11.4954 6.2307 10.0045 -0.9645
# 3 11.7341 11.4954 67.9927 12.1322 7.6712 -8.8278
# 4 9.3235 6.2307 12.1322 31.4709 3.4756 1.6032
# 5 12.2043 10.0045 7.6712 3.4756 26.5362 4.1222
# 6 4.2903 -0.9645 -8.8278 1.6032 4.1222 27.9681
#
#
#
# Elastic Compliance Matrix: (Units=1/GPa)
#
#
# Indices 1 2 3 4 5 6 
#
# 1 0.014121 -0.005960 -0.000926 -0.002169 -0.003378 -0.002042
# 2 -0.005960 0.011954 -0.000558 -0.000261 -0.001792 0.001429
# 3 -0.000926 -0.000558 0.017452 -0.006170 -0.004636 0.006668
# 4 -0.002169 -0.000261 -0.006170 0.035156 -0.001187 -0.003464
# 5 -0.003378 -0.001792 -0.004636 -0.001187 0.042529 -0.007207
# 6 -0.002042 0.001429 0.006668 -0.003464 -0.007207 0.039483
#
#
# Mechanical properties :
#
#
# Convention : Reuss Voigt Hill
#
# Bulk Modulus (GPa) = 34.91970 47.31265 41.11617
# Shear Modulus (GPa) = 27.00823 30.74330 28.87577
#
# Velocity S-wave (km/s) = 3.41694 3.64556 3.53310
# Velocity P-wave (km/s) = 5.53741 6.17844 5.86669
#
# Compressibility (1/GPa) = 0.02863713
#
# Stress axis : x y z
#
# Youngs Moduli (GPa) = 70.81879 83.65433 57.30153
#
# Poissons Ratio (x) = 0.49860 0.05307
# Poissons Ratio (y) = 0.42209 0.03198
# Poissons Ratio (z) = 0.06559 0.04669
#
# Static dielectric constant tensor:
#      x y z
#    x 1.903600 0.030220 0.002310 
#    y 0.030220 1.936920 -0.028640 
#    z 0.002310 -0.028640 1.879640 
# 
# From -- ./inp_files/54004.got.cif
#   From: 2010.05.17/outbox.cif.g08.bks.cpg/sg2_28_cif.got.tgz:54004.got - 2010.06.03 11:33:40.
