data_PCOD9026391
_publ_section_title
;
Structure prediction by ZEFSAII (Michael W. Deem and Ramdas Pophale) SiO2 
 PCOD9026391
Probable space group: P -1
;
_chemical_formula_sum "Si O2"
_cell_formula_units_Z 16
_cell_length_a 13.201487
_cell_length_b 8.985418
_cell_length_c 6.439062
_cell_angle_alpha 95.208252
_cell_angle_beta 106.364586
_cell_angle_gamma 99.794904
_cell_volume 714.367600
_symmetry_space_group_name_H-M "P -1"
_symmetry_group_IT_number 2
_symmetry_cell_setting 'triclinic'
loop_
_space_group_symop_operation_xyz
x,y,z
-x,-y,-z
loop_
_atom_site_type_symbol
_atom_site_label
_atom_site_fract_x
_atom_site_fract_y
_atom_site_fract_z
Si Si1 0.076258 0.646153 0.447813
Si Si2 0.943886 0.068316 0.282142
Si Si3 0.692204 0.426118 0.416621
Si Si4 0.933351 0.769401 0.030782
Si Si5 0.289542 0.337397 0.225313
Si Si6 0.600660 0.631899 0.121207
Si Si7 0.621088 0.874843 0.499015
Si Si8 0.449455 0.896206 0.761834
O O1 0.104170 0.796059 0.630249
O O2 0.191255 0.604329 0.467882
O O3 0.000000 0.500000 0.500000
O O4 0.013690 0.701029 0.219999
O O5 0.886194 0.907547 0.128183
O O6 0.000000 0.000000 0.500000
O O7 0.013017 0.156501 0.141632
O O8 0.651534 0.508255 0.604485
O O9 0.695137 0.555897 0.261339
O O10 0.610762 0.277730 0.265760
O O11 0.828587 0.643965 0.901606
O O12 0.282514 0.194106 0.359109
O O13 0.355219 0.299281 0.061862
O O14 0.569434 0.746825 0.285224
O O15 0.500000 0.500000 0.000000
O O16 0.541856 0.895763 0.642623
O O17 0.640428 0.026438 0.394185
O O18 0.500000 0.000000 0.000000
#
# Coordination Sequence:
#
# PCOD9026391 Si02
#       8
#     2   2   2   2   2   2   2   2
#     4  11  23  40  61  92 132 166 208 265 312 369
#     4   9  21  40  62  86 120 164 210 261 313 368
#     4  11  25  39  62  94 123 162 212 256 311 378
#     4  10  22  41  64  89 123 170 213 256 317 377
#     4  11  23  40  63  91 124 166 213 256 307 376
#     4  11  22  41  64  87 121 164 207 256 314 372
#     4  10  23  39  61  90 122 158 205 259 310 373
#     4  11  23  42  63  91 127 162 202 261 324 374
#
# _framework density 22.397432999999999
#
# number of rings (size 3 to 8) (size 9 to 14) (size 15 to 20)
#    0.000    1.500    0.000    4.500    0.000   14.000 
#    0.000    0.000    0.000    0.000    0.000    0.000 
#    0.000    0.000    0.000    0.000    0.000    0.000 
#
# Total GULP energy -89182.096992 kJ/mol
# GULP energy per Si atom -5573.881062 kJ/mol
# Density = 2.234646 g / cm^3
# Si number density = 22.397433 Si / 1000 Ang^3
#
#
#
# Elastic Constant Matrix: (Units=GPa)
#
#
# Indices 1 2 3 4 5 6 
#
# 1 53.0049 25.8065 40.5657 -1.1057 4.3164 -13.4415
# 2 25.8065 111.4579 54.7101 -8.2275 -6.8580 -14.8371
# 3 40.5657 54.7101 136.2615 5.8366 -12.7885 -10.0838
# 4 -1.1057 -8.2275 5.8366 50.7150 -12.1083 -2.6092
# 5 4.3164 -6.8580 -12.7885 -12.1083 32.6190 1.5023
# 6 -13.4415 -14.8371 -10.0838 -2.6092 1.5023 34.4729
#
#
#
# Elastic Compliance Matrix: (Units=1/GPa)
#
#
# Indices 1 2 3 4 5 6 
#
# 1 0.028574 -0.002228 -0.007718 -0.000279 -0.007759 0.008242
# 2 -0.002228 0.012233 -0.003912 0.003118 0.002334 0.003386
# 3 -0.007718 -0.003912 0.011549 -0.001172 0.004365 -0.001594
# 4 -0.000279 0.003118 -0.001172 0.022491 0.008479 0.002223
# 5 -0.007759 0.002334 0.004365 0.008479 0.037113 -0.001719
# 6 0.008242 0.003386 -0.001594 0.002223 -0.001719 0.033456
#
#
# Mechanical properties :
#
#
# Convention : Reuss Voigt Hill
#
# Bulk Modulus (GPa) = 40.58625 60.32102 50.45363
# Shear Modulus (GPa) = 27.57156 35.53752 31.55454
#
# Velocity S-wave (km/s) = 3.51239 3.98763 3.75753
# Velocity P-wave (km/s) = 5.88298 6.94206 6.43435
#
# Compressibility (1/GPa) = 0.02463889
#
# Stress axis : x y z
#
# Youngs Moduli (GPa) = 34.99685 81.74826 86.58540
#
# Poissons Ratio (x) = 0.18214 0.66830
# Poissons Ratio (y) = 0.07798 0.33873
# Poissons Ratio (z) = 0.27012 0.31981
#
# Static dielectric constant tensor:
#      x y z
#    x 1.816350 -0.060250 0.006840 
#    y -0.060250 1.874500 -0.007170 
#    z 0.006840 -0.007170 1.892880 
# 
# From -- ./inp_files/48351.got.cif
#   From: 2010.05.17/outbox.cif.g08.bks.cpg/sg2_25_cif.got.tgz:48351.got - 2010.06.03 11:33:40.
