data_PCOD9026202
_publ_section_title
;
Structure prediction by ZEFSAII (Michael W. Deem and Ramdas Pophale) SiO2 
 PCOD9026202
Probable space group: P -1
;
_chemical_formula_sum "Si O2"
_cell_formula_units_Z 14
_cell_length_a 16.691371
_cell_length_b 7.805118
_cell_length_c 8.636378
_cell_angle_alpha 61.077112
_cell_angle_beta 55.520946
_cell_angle_gamma 92.658480
_cell_volume 727.496272
_symmetry_space_group_name_H-M "P -1"
_symmetry_group_IT_number 2
_symmetry_cell_setting 'triclinic'
loop_
_space_group_symop_operation_xyz
x,y,z
-x,-y,-z
loop_
_atom_site_type_symbol
_atom_site_label
_atom_site_fract_x
_atom_site_fract_y
_atom_site_fract_z
Si Si1 0.895370 0.521263 0.661872
Si Si2 0.065558 0.382806 0.061254
Si Si3 0.076476 0.055555 0.741287
Si Si4 0.701439 0.433586 0.431296
Si Si5 0.676011 0.308759 0.851869
Si Si6 0.457949 0.995081 0.375587
Si Si7 0.320393 0.263348 0.443300
O O1 0.908879 0.561967 0.811635
O O2 0.900178 0.718370 0.464188
O O3 0.776383 0.329176 0.837823
O O4 0.000000 0.500000 0.500000
O O5 0.179347 0.449100 0.821610
O O6 0.986514 0.130173 0.232337
O O7 0.000000 0.500000 0.000000
O O8 0.195042 0.084489 0.646403
O O9 0.000000 0.000000 0.000000
O O10 0.706642 0.310526 0.637591
O O11 0.665588 0.614326 0.458886
O O12 0.619167 0.250038 0.488654
O O13 0.661318 0.533886 0.780779
O O14 0.563762 0.107412 0.103275
O O15 0.394499 0.145157 0.379194
O O16 0.500000 0.000000 0.500000
#
# Coordination Sequence:
#
# PCOD9026202 Si02
#       7
#     2   2   2   2   2   2   2
#     4  11  23  39  63  95 125 159 210 261 312 383
#     4  12  22  38  63  92 128 166 206 258 317 380
#     4  11  20  40  63  89 124 166 206 257 315 369
#     4  10  22  41  63  85 123 165 211 248 318 370
#     4   9  21  43  60  86 124 161 209 259 304 377
#     4  12  23  38  64  93 121 160 211 259 317 374
#     4   9  22  40  63  85 123 164 205 254 308 369
#
# _framework density 19.244084999999998
#
# number of rings (size 3 to 8) (size 9 to 14) (size 15 to 20)
#    0.857    0.571    1.429    4.714    0.000    1.714 
#    0.000    0.000    0.000    0.000    0.000    0.000 
#    0.000    0.000    0.000    0.000    0.000    0.000 
#
# Total GULP energy -78079.324438 kJ/mol
# GULP energy per Si atom -5577.094603 kJ/mol
# Density = 1.920029 g / cm^3
# Si number density = 19.244085 Si / 1000 Ang^3
#
#
#
# Elastic Constant Matrix: (Units=GPa)
#
#
# Indices 1 2 3 4 5 6 
#
# 1 85.6954 30.4605 12.1203 1.3307 -16.5355 15.7202
# 2 30.4605 75.7435 15.9052 2.6613 -24.0331 24.1964
# 3 12.1203 15.9052 73.9884 -1.4314 -18.1929 2.2639
# 4 1.3307 2.6613 -1.4314 31.7849 15.3249 -3.2571
# 5 -16.5355 -24.0331 -18.1929 15.3249 35.6142 2.6498
# 6 15.7202 24.1964 2.2639 -3.2571 2.6498 37.8096
#
#
#
# Elastic Compliance Matrix: (Units=1/GPa)
#
#
# Indices 1 2 3 4 5 6 
#
# 1 0.015165 -0.000377 0.000184 -0.006214 0.010099 -0.007318
# 2 -0.000377 0.032296 0.001703 -0.021306 0.033502 -0.024797
# 3 0.000184 0.001703 0.016102 -0.005635 0.012143 -0.003467
# 4 -0.006214 -0.021306 -0.005635 0.058557 -0.047192 0.024907
# 5 0.010099 0.033502 0.012143 -0.047192 0.084591 -0.036360
# 6 -0.007318 -0.024797 -0.003467 0.024907 -0.036360 0.050261
#
#
# Mechanical properties :
#
#
# Convention : Reuss Voigt Hill
#
# Bulk Modulus (GPa) = 15.01851 39.15548 27.08699
# Shear Modulus (GPa) = 18.10633 32.83783 25.47208
#
# Velocity S-wave (km/s) = 3.07070 4.13532 3.64212
# Velocity P-wave (km/s) = 4.51591 6.57207 5.63851
#
# Compressibility (1/GPa) = 0.06658451
#
# Stress axis : x y z
#
# Youngs Moduli (GPa) = 65.94228 30.96330 62.10298
#
# Poissons Ratio (x) = 0.01166 -0.01141
# Poissons Ratio (y) = 0.02483 -0.10578
# Poissons Ratio (z) = -0.01212 -0.05274
#
# Static dielectric constant tensor:
#      x y z
#    x 1.668880 -0.030760 -0.046490 
#    y -0.030760 1.796750 0.034400 
#    z -0.046490 0.034400 1.659830 
# 
# From -- ./inp_files/296720.got.cif
#   From: 2010.05.17/outbox.cif.g08.bks.cpg/sg2_149_cif.got.tgz:296720.got - 2010.06.03 11:33:40.
