data_PCOD9026857
_publ_section_title
;
Structure prediction by ZEFSAII (Michael W. Deem and Ramdas Pophale) SiO2 
 PCOD9026857
Probable space group: P -1
;
_chemical_formula_sum "Si O2"
_cell_formula_units_Z 12
_cell_length_a 8.718521
_cell_length_b 5.246221
_cell_length_c 17.223351
_cell_angle_alpha 109.582594
_cell_angle_beta 131.210428
_cell_angle_gamma 97.084249
_cell_volume 488.131196
_symmetry_space_group_name_H-M "P -1"
_symmetry_group_IT_number 2
_symmetry_cell_setting 'triclinic'
loop_
_space_group_symop_operation_xyz
x,y,z
-x,-y,-z
loop_
_atom_site_type_symbol
_atom_site_label
_atom_site_fract_x
_atom_site_fract_y
_atom_site_fract_z
Si Si1 0.340025 0.834937 0.355901
Si Si2 0.126035 0.790994 0.015357
Si Si3 0.012267 0.044046 0.310048
Si Si4 0.331255 0.770899 0.737802
Si Si5 0.577603 0.442546 0.400576
Si Si6 0.775762 0.246708 0.131661
O O1 0.397469 0.563159 0.330419
O O2 0.500000 0.000000 0.500000
O O3 0.089742 0.783804 0.296285
O O4 0.435819 0.093133 0.347922
O O5 0.134687 0.676166 0.919382
O O6 0.000000 0.500000 0.000000
O O7 0.394610 0.003190 0.150068
O O8 0.000000 0.000000 0.000000
O O9 0.245597 0.343030 0.450774
O O10 0.809526 0.036849 0.295307
O O11 0.923809 0.091746 0.201951
O O12 0.274508 0.541103 0.623895
O O13 0.262716 0.615504 0.784208
O O14 0.500000 0.000000 0.000000
#
# Coordination Sequence:
#
# PCOD9026857 Si02
#       6
#     2   2   2   2   2   2
#     4  10  22  41  65  99 144 188 229 278 344 417
#     4  11  25  49  70 101 136 183 237 295 346 413
#     4   9  19  41  73  99 146 184 229 286 347 414
#     4   9  22  43  73 103 142 182 234 286 350 418
#     4  11  22  43  66 109 140 182 232 282 350 415
#     4   8  19  44  74  99 138 181 238 285 356 411
#
# _framework density 24.583552000000001
#
# number of rings (size 3 to 8) (size 9 to 14) (size 15 to 20)
#    1.000    1.333    0.000    2.500    2.333    1.333 
#    3.000   23.333    0.000    0.000    0.000    0.000 
#    0.000    0.000    0.000    0.000    0.000    0.000 
#
# Total GULP energy -66924.033414 kJ/mol
# GULP energy per Si atom -5577.002785 kJ/mol
# Density = 2.452760 g / cm^3
# Si number density = 24.583552 Si / 1000 Ang^3
#
#
#
# Elastic Constant Matrix: (Units=GPa)
#
#
# Indices 1 2 3 4 5 6 
#
# 1 199.5569 97.3919 64.7963 -16.0055 2.4348 6.5169
# 2 97.3919 148.5231 35.6765 -14.5395 5.3470 -7.7138
# 3 64.7963 35.6765 99.9665 -18.2500 -4.1712 -0.7258
# 4 -16.0055 -14.5395 -18.2500 24.4522 -2.6160 4.4560
# 5 2.4348 5.3470 -4.1712 -2.6160 65.7661 -16.8477
# 6 6.5169 -7.7138 -0.7258 4.4560 -16.8477 55.9594
#
#
#
# Elastic Compliance Matrix: (Units=1/GPa)
#
#
# Indices 1 2 3 4 5 6 
#
# 1 0.008744 -0.004845 -0.003948 0.000180 -0.000674 -0.001955
# 2 -0.004845 0.010267 -0.000047 0.002570 -0.000110 0.001741
# 3 -0.003948 -0.000047 0.014103 0.007991 0.001476 0.000444
# 4 0.000180 0.002570 0.007991 0.049217 0.001470 -0.003040
# 5 -0.000674 -0.000110 0.001476 0.001470 0.016668 0.004984
# 6 -0.001955 0.001741 0.000444 -0.003040 0.004984 0.020086
#
#
# Mechanical properties :
#
#
# Convention : Reuss Voigt Hill
#
# Bulk Modulus (GPa) = 64.78967 93.75287 79.27127
# Shear Modulus (GPa) = 35.23377 45.91432 40.57404
#
# Velocity S-wave (km/s) = 3.78990 4.32636 4.06699
# Velocity P-wave (km/s) = 6.75006 7.94832 7.37357
#
# Compressibility (1/GPa) = 0.01543456
#
# Stress axis : x y z
#
# Youngs Moduli (GPa) = 114.36209 97.39738 70.90899
#
# Poissons Ratio (x) = 0.47190 0.27995
# Poissons Ratio (y) = 0.55410 0.00330
# Poissons Ratio (z) = 0.45151 0.00453
#
# Static dielectric constant tensor:
#      x y z
#    x 1.938520 -0.030940 -0.016270 
#    y -0.030940 1.912100 -0.008420 
#    z -0.016270 -0.008420 1.946630 
# 
# From -- ./inp_files/552988.got.cif
#   From: 2010.05.17/outbox.cif.g08.bks.cpg/sg2_277_cif.got.tgz:552988.got - 2010.06.03 11:33:40.
