data_PCOD9026161
_publ_section_title
;
Structure prediction by ZEFSAII (Michael W. Deem and Ramdas Pophale) SiO2 
 PCOD9026161
Probable space group: P -1
;
_chemical_formula_sum "Si O2"
_cell_formula_units_Z 16
_cell_length_a 9.346121
_cell_length_b 17.104251
_cell_length_c 9.330560
_cell_angle_alpha 136.992786
_cell_angle_beta 134.042229
_cell_angle_gamma 61.752545
_cell_volume 729.448980
_symmetry_space_group_name_H-M "P -1"
_symmetry_group_IT_number 2
_symmetry_cell_setting 'triclinic'
loop_
_space_group_symop_operation_xyz
x,y,z
-x,-y,-z
loop_
_atom_site_type_symbol
_atom_site_label
_atom_site_fract_x
_atom_site_fract_y
_atom_site_fract_z
Si Si1 0.717536 0.459870 0.437544
Si Si2 0.210788 0.987969 0.215107
Si Si3 0.584314 0.142730 0.600253
Si Si4 0.438258 0.359282 0.898365
Si Si5 0.193840 0.178106 0.691309
Si Si6 0.444336 0.306866 0.268220
Si Si7 0.788367 0.226189 0.595861
Si Si8 0.900920 0.482288 0.069201
O O1 0.580404 0.381627 0.347625
O O2 0.672440 0.593004 0.604434
O O3 0.942773 0.452920 0.629808
O O4 0.651208 0.409499 0.172597
O O5 0.396294 0.049029 0.338387
O O6 0.212542 0.061920 0.462216
O O7 0.293817 0.870879 0.182234
O O8 0.000000 0.000000 0.000000
O O9 0.490591 0.267624 0.692420
O O10 0.730878 0.137678 0.562406
O O11 0.300756 0.275521 0.794974
O O12 0.308775 0.469504 0.969404
O O13 0.960686 0.189066 0.562974
O O14 0.303405 0.209407 0.959638
O O15 0.594050 0.251432 0.404793
O O16 0.876868 0.346291 0.885344
O O17 0.000000 0.500000 0.000000
#
# Coordination Sequence:
#
# PCOD9026161 Si02
#       8
#     2   2   2   2   2   2   2   2
#     4  10  17  31  55  85 124 172 210 237 275 359
#     4  10  24  51  72  83 113 161 212 262 321 379
#     4  10  26  44  62  93 123 158 210 262 311 372
#     4  10  20  37  59  86 127 174 205 240 297 362
#     4  10  21  37  66  94 115 161 209 258 303 367
#     4  10  18  32  56  91 131 160 201 247 297 349
#     4  12  22  36  61  96 134 159 200 259 304 356
#     4  12  18  33  57  92 130 168 207 237 289 364
#
# _framework density 21.934363000000001
#
# number of rings (size 3 to 8) (size 9 to 14) (size 15 to 20)
#    0.000    1.500    5.000    0.750    0.000    8.000 
#    0.000    1.875    0.000    0.000    0.000    0.000 
#    0.000    0.000    0.000    0.000    0.000    0.000 
#
# Total GULP energy -89174.659875 kJ/mol
# GULP energy per Si atom -5573.416242 kJ/mol
# Density = 2.188444 g / cm^3
# Si number density = 21.934363 Si / 1000 Ang^3
#
#
#
# Elastic Constant Matrix: (Units=GPa)
#
#
# Indices 1 2 3 4 5 6 
#
# 1 46.2373 22.2157 9.5795 0.0145 3.8151 1.0248
# 2 22.2157 58.6670 26.6576 -2.7266 10.1876 1.8353
# 3 9.5795 26.6576 92.3133 -13.9756 12.1337 -1.1727
# 4 0.0145 -2.7266 -13.9756 30.9285 -13.9822 0.1874
# 5 3.8151 10.1876 12.1337 -13.9822 22.4219 1.3364
# 6 1.0248 1.8353 -1.1727 0.1874 1.3364 21.5450
#
#
#
# Elastic Compliance Matrix: (Units=1/GPa)
#
#
# Indices 1 2 3 4 5 6 
#
# 1 0.026474 -0.009961 0.000039 -0.001199 -0.000726 -0.000353
# 2 -0.009961 0.024812 -0.005614 -0.004537 -0.009291 -0.001330
# 3 0.000039 -0.005614 0.013425 0.004728 -0.001849 0.001281
# 4 -0.001199 -0.004537 0.004728 0.047331 0.029314 -0.001529
# 5 -0.000726 -0.009291 -0.001849 0.029314 0.068449 -0.003775
# 6 -0.000353 -0.001330 0.001281 -0.001529 -0.003775 0.046862
#
#
# Mechanical properties :
#
#
# Convention : Reuss Voigt Hill
#
# Bulk Modulus (GPa) = 29.72816 34.90259 32.31538
# Shear Modulus (GPa) = 18.54333 24.23005 21.38669
#
# Velocity S-wave (km/s) = 2.91073 3.32725 3.12594
# Velocity P-wave (km/s) = 4.98790 5.54145 5.27194
#
# Compressibility (1/GPa) = 0.03363814
#
# Stress axis : x y z
#
# Youngs Moduli (GPa) = 37.77335 40.30247 74.48857
#
# Poissons Ratio (x) = 0.40145 -0.00288
# Poissons Ratio (y) = 0.37626 0.41818
# Poissons Ratio (z) = -0.00146 0.22626
#
# Static dielectric constant tensor:
#      x y z
#    x 1.838440 -0.023230 -0.024380 
#    y -0.023230 1.959480 -0.010620 
#    z -0.024380 -0.010620 1.798080 
# 
# From -- ./inp_files/216046.got.cif
#   From: 2010.05.17/outbox.cif.g08.bks.cpg/sg2_109_cif.got.tgz:216046.got - 2010.06.03 11:33:40.
