data_PCOD9026560
_publ_section_title
;
Structure prediction by ZEFSAII (Michael W. Deem and Ramdas Pophale) SiO2 
 PCOD9026560
Probable space group: P -1
;
_chemical_formula_sum "Si O2"
_cell_formula_units_Z 15
_cell_length_a 17.543379
_cell_length_b 8.207149
_cell_length_c 8.047789
_cell_angle_alpha 39.620507
_cell_angle_beta 120.750989
_cell_angle_gamma 104.028266
_cell_volume 610.296923
_symmetry_space_group_name_H-M "P -1"
_symmetry_group_IT_number 2
_symmetry_cell_setting 'triclinic'
loop_
_space_group_symop_operation_xyz
x,y,z
-x,-y,-z
loop_
_atom_site_type_symbol
_atom_site_label
_atom_site_fract_x
_atom_site_fract_y
_atom_site_fract_z
Si Si1 0.783272 0.139703 0.123527
Si Si2 0.000000 0.000000 0.000000
Si Si3 0.803220 0.300622 0.655143
Si Si4 0.656174 0.816059 0.201169
Si Si5 0.959068 0.817808 0.725206
Si Si6 0.494765 0.561641 0.187709
Si Si7 0.656198 0.623722 0.719070
Si Si8 0.634367 0.131313 0.484331
O O1 0.690242 0.074008 0.009733
O O2 0.852721 0.897533 0.483276
O O3 0.824638 0.214159 0.939835
O O4 0.749190 0.384945 0.018271
O O5 0.030773 0.090511 0.147712
O O6 0.899761 0.234983 0.721054
O O7 0.733028 0.593591 0.360505
O O8 0.738045 0.136889 0.630314
O O9 0.556510 0.769510 0.095753
O O10 0.667297 0.770908 0.446368
O O11 0.000000 0.000000 0.500000
O O12 0.000000 0.500000 0.000000
O O13 0.432597 0.484840 0.319714
O O14 0.565675 0.284141 0.429752
O O15 0.413399 0.688210 0.865886
O O16 0.636534 0.830686 0.684486
#
# Coordination Sequence:
#
# PCOD9026560 Si02
#       8
#     2   1   2   2   2   2   2   2
#     4  11  25  47  70 103 151 193 244 325 389 469
#     4  12  26  50  86 114 154 212 266 330 424 478
#     4  10  24  46  69 106 139 195 249 313 395 471
#     4  10  23  43  66  95 145 188 246 309 377 468
#     4  12  29  55  84 121 166 207 275 341 410 496
#     4  10  22  41  64  96 140 192 248 308 373 459
#     4  11  23  38  66 100 138 190 243 309 384 453
#     4  10  23  40  64  99 142 185 247 306 375 467
#
# _framework density 24.578199999999999
#
# number of rings (size 3 to 8) (size 9 to 14) (size 15 to 20)
#    0.000    1.333    1.333    2.400    5.600    9.067 
#    4.800    0.000    0.000    0.000    0.000    0.000 
#    0.000    0.000    0.000    0.000    0.000    0.000 
#
# Total GULP energy -83550.619223 kJ/mol
# GULP energy per Si atom -5570.041282 kJ/mol
# Density = 2.452226 g / cm^3
# Si number density = 24.578200 Si / 1000 Ang^3
#
#
#
# Elastic Constant Matrix: (Units=GPa)
#
#
# Indices 1 2 3 4 5 6 
#
# 1 79.7647 24.4697 13.2029 -12.1742 10.4498 -6.6954
# 2 24.4697 126.8180 52.0707 -8.1308 12.1293 -4.9031
# 3 13.2029 52.0707 108.8099 1.1630 20.9941 -9.1846
# 4 -12.1742 -8.1308 1.1630 39.4069 2.2476 17.3812
# 5 10.4498 12.1293 20.9941 2.2476 36.9488 -2.8687
# 6 -6.6954 -4.9031 -9.1846 17.3812 -2.8687 27.3167
#
#
#
# Elastic Compliance Matrix: (Units=1/GPa)
#
#
# Indices 1 2 3 4 5 6 
#
# 1 0.014306 -0.002122 -0.000072 0.004147 -0.003554 0.000089
# 2 -0.002122 0.010402 -0.004837 0.002495 -0.000366 -0.001905
# 3 -0.000072 -0.004837 0.012974 -0.003340 -0.005167 0.005058
# 4 0.004147 0.002495 -0.003340 0.038323 -0.004328 -0.024497
# 5 -0.003554 -0.000366 -0.005167 -0.004328 0.031653 0.003403
# 6 0.000089 -0.001905 0.005058 -0.024497 0.003403 0.053933
#
#
# Mechanical properties :
#
#
# Convention : Reuss Voigt Hill
#
# Bulk Modulus (GPa) = 42.33651 54.98658 48.66155
# Shear Modulus (GPa) = 27.24426 35.77777 31.51102
#
# Velocity S-wave (km/s) = 3.33299 3.81946 3.58449
# Velocity P-wave (km/s) = 5.66342 6.47084 6.08055
#
# Compressibility (1/GPa) = 0.02362027
#
# Stress axis : x y z
#
# Youngs Moduli (GPa) = 69.90237 96.13379 77.07937
#
# Poissons Ratio (x) = 0.20396 0.00552
# Poissons Ratio (y) = 0.14831 0.37286
# Poissons Ratio (z) = 0.00500 0.46504
#
# Static dielectric constant tensor:
#      x y z
#    x 1.974410 0.024800 -0.041440 
#    y 0.024800 1.999480 0.003420 
#    z -0.041440 0.003420 1.963240 
# 
# From -- ./inp_files/328350.got.cif
#   From: 2010.05.17/outbox.cif.g08.bks.cpg/sg2_165_cif.got.tgz:328350.got - 2010.06.03 11:33:40.
