data_PCOD9026084
_publ_section_title
;
Structure prediction by ZEFSAII (Michael W. Deem and Ramdas Pophale) SiO2 
 PCOD9026084
Probable space group: P -1
;
_chemical_formula_sum "Si O2"
_cell_formula_units_Z 16
_cell_length_a 10.720625
_cell_length_b 7.400803
_cell_length_c 12.872814
_cell_angle_alpha 132.747813
_cell_angle_beta 83.760673
_cell_angle_gamma 100.952242
_cell_volume 736.070705
_symmetry_space_group_name_H-M "P -1"
_symmetry_group_IT_number 2
_symmetry_cell_setting 'triclinic'
loop_
_space_group_symop_operation_xyz
x,y,z
-x,-y,-z
loop_
_atom_site_type_symbol
_atom_site_label
_atom_site_fract_x
_atom_site_fract_y
_atom_site_fract_z
Si Si1 0.415181 0.711668 0.560619
Si Si2 0.386945 0.940822 0.219347
Si Si3 0.734894 0.238785 0.201734
Si Si4 0.846608 0.577487 0.165182
Si Si5 0.869898 0.813497 0.952668
Si Si6 0.421968 0.581280 0.894907
Si Si7 0.884335 0.291242 0.853007
Si Si8 0.655996 0.602576 0.743986
O O1 0.500000 0.500000 0.500000
O O2 0.513128 0.966969 0.664040
O O3 0.314008 0.711929 0.661672
O O4 0.355324 0.631626 0.423902
O O5 0.384013 0.170954 0.230662
O O6 0.427297 0.722057 0.059118
O O7 0.241630 0.871840 0.243315
O O8 0.840189 0.465313 0.238065
O O9 0.627448 0.247661 0.125720
O O10 0.780993 0.976097 0.085660
O O11 0.974767 0.768263 0.204736
O O12 0.704264 0.634338 0.177264
O O13 0.856209 0.339332 0.995462
O O14 0.888644 0.566973 0.914808
O O15 0.794869 0.710153 0.815920
O O16 0.000000 0.000000 0.000000
O O17 0.557073 0.536594 0.822260
#
# Coordination Sequence:
#
# PCOD9026084 Si02
#       8
#     2   2   2   2   2   2   2   2
#     4  10  19  33  58  84 106 143 189 224 259 321
#     4  10  17  31  55  84 106 138 178 234 264 313
#     4  10  17  34  59  80 111 136 186 227 263 312
#     4   8  16  32  54  78 104 140 173 232 262 311
#     4  12  22  35  54  86 108 146 177 225 273 331
#     4   9  15  31  57  80 104 132 182 233 260 302
#     4  10  19  31  52  83 113 137 178 221 285 315
#     4  11  20  34  58  81 108 141 188 221 269 316
#
# _framework density 21.737041999999999
#
# number of rings (size 3 to 8) (size 9 to 14) (size 15 to 20)
#    0.750    1.250    5.000    1.125    1.750    0.000 
#    0.000    6.875    0.000    9.750    0.000    0.000 
#    0.000    0.000    0.000    0.000    0.000    0.000 
#
# Total GULP energy -89188.696206 kJ/mol
# GULP energy per Si atom -5574.293513 kJ/mol
# Density = 2.168757 g / cm^3
# Si number density = 21.737042 Si / 1000 Ang^3
#
#
#
# Elastic Constant Matrix: (Units=GPa)
#
#
# Indices 1 2 3 4 5 6 
#
# 1 84.9254 33.7780 52.5239 2.0829 17.1436 39.5774
# 2 33.7780 81.4820 28.2592 -0.3790 5.4996 33.1412
# 3 52.5239 28.2592 130.6485 -2.8824 19.1291 30.1796
# 4 2.0829 -0.3790 -2.8824 6.2245 1.7104 0.1133
# 5 17.1436 5.4996 19.1291 1.7104 20.9124 6.3118
# 6 39.5774 33.1412 30.1796 0.1133 6.3118 53.7298
#
#
#
# Elastic Compliance Matrix: (Units=1/GPa)
#
#
# Indices 1 2 3 4 5 6 
#
# 1 0.023512 -0.002631 -0.004863 -0.007323 -0.009981 -0.011777
# 2 -0.002631 0.016903 -0.000801 0.001472 0.000779 -0.008133
# 3 -0.004863 -0.000801 0.011249 0.008556 -0.006334 -0.001516
# 4 -0.007323 0.001472 0.008556 0.171706 -0.016638 0.001273
# 5 -0.009981 0.000779 -0.006334 -0.016638 0.061990 0.003183
# 6 -0.011777 -0.008133 -0.001516 0.001273 0.003183 0.032778
#
#
# Mechanical properties :
#
#
# Convention : Reuss Voigt Hill
#
# Bulk Modulus (GPa) = 28.51137 58.46422 43.48779
# Shear Modulus (GPa) = 14.43337 28.33968 21.38652
#
# Velocity S-wave (km/s) = 2.57961 3.61467 3.14008
# Velocity P-wave (km/s) = 4.69228 6.66150 5.76164
#
# Compressibility (1/GPa) = 0.03507373
#
# Stress axis : x y z
#
# Youngs Moduli (GPa) = 42.53222 59.16019 88.89725
#
# Poissons Ratio (x) = 0.15562 0.43231
# Poissons Ratio (y) = 0.11188 0.07125
# Poissons Ratio (z) = 0.20684 0.04741
#
# Static dielectric constant tensor:
#      x y z
#    x 1.913260 0.005430 0.029950 
#    y 0.005430 1.889150 -0.013300 
#    z 0.029950 -0.013300 1.786320 
# 
# From -- ./inp_files/419979.got.cif
#   From: 2010.05.17/outbox.cif.g08.bks.cpg/sg2_210_cif.got.tgz:419979.got - 2010.06.03 11:33:40.
