data_PCOD9026608
_publ_section_title
;
Structure prediction by ZEFSAII (Michael W. Deem and Ramdas Pophale) SiO2 
 PCOD9026608
Probable space group: P -1
;
_chemical_formula_sum "Si O2"
_cell_formula_units_Z 12
_cell_length_a 8.117284
_cell_length_b 9.735665
_cell_length_c 9.756156
_cell_angle_alpha 133.872524
_cell_angle_beta 114.388656
_cell_angle_gamma 89.788713
_cell_volume 456.953292
_symmetry_space_group_name_H-M "P -1"
_symmetry_group_IT_number 2
_symmetry_cell_setting 'triclinic'
loop_
_space_group_symop_operation_xyz
x,y,z
-x,-y,-z
loop_
_atom_site_type_symbol
_atom_site_label
_atom_site_fract_x
_atom_site_fract_y
_atom_site_fract_z
Si Si1 0.877924 0.235482 0.446375
Si Si2 0.718194 0.444710 0.740071
Si Si3 0.305850 0.245635 0.872215
Si Si4 0.648199 0.890435 0.506834
Si Si5 0.259059 0.616685 0.755618
Si Si6 0.976108 0.166825 0.011016
O O1 0.838622 0.316161 0.636706
O O2 0.737446 0.293139 0.333454
O O3 0.097217 0.373210 0.551778
O O4 0.817520 0.988819 0.269739
O O5 0.317492 0.207401 0.689266
O O6 0.484929 0.288438 0.553595
O O7 0.804974 0.650125 0.816888
O O8 0.240793 0.433521 0.014803
O O9 0.525080 0.326944 0.071000
O O10 0.500000 0.000000 0.500000
O O11 0.848463 0.059186 0.758942
O O12 0.155790 0.734877 0.891008
O O13 0.000000 0.000000 0.000000
#
# Coordination Sequence:
#
# PCOD9026608 Si02
#       6
#     2   2   2   2   2   2
#     4  10  22  41  64  99 140 180 226 281 341 406
#     4  11  26  43  71 104 138 184 231 284 344 411
#     4  12  24  43  69 100 138 181 230 283 343 407
#     4  12  25  47  71 102 141 185 229 285 345 411
#     4  10  22  41  68 100 139 183 226 281 345 407
#     4  11  25  46  73 104 139 181 234 286 344 412
#
# _framework density 26.260888999999999
#
# number of rings (size 3 to 8) (size 9 to 14) (size 15 to 20)
#    0.000    1.000    3.333    2.000    0.000   10.667 
#    0.000    0.000    0.000    0.000    0.000    0.000 
#    0.000    0.000    0.000    0.000    0.000    0.000 
#
# Total GULP energy -67243.871055 kJ/mol
# GULP energy per Si atom -5603.655921 kJ/mol
# Density = 2.620112 g / cm^3
# Si number density = 26.260889 Si / 1000 Ang^3
#
#
#
# Elastic Constant Matrix: (Units=GPa)
#
#
# Indices 1 2 3 4 5 6 
#
# 1 100.5279 23.3355 51.1371 1.5008 -21.5893 9.6265
# 2 23.3355 118.4423 46.1283 23.4996 25.5192 15.7323
# 3 51.1371 46.1283 138.5319 -3.7168 -0.9302 -5.6178
# 4 1.5008 23.4996 -3.7168 56.8918 -2.7010 4.3282
# 5 -21.5893 25.5192 -0.9302 -2.7010 56.0467 5.8375
# 6 9.6265 15.7323 -5.6178 4.3282 5.8375 35.9043
#
#
#
# Elastic Compliance Matrix: (Units=1/GPa)
#
#
# Indices 1 2 3 4 5 6 
#
# 1 0.014991 -0.002044 -0.004992 0.000859 0.007203 -0.005180
# 2 -0.002044 0.013706 -0.004187 -0.005885 -0.006936 -0.004276
# 3 -0.004992 -0.004187 0.010700 0.002199 -0.000214 0.004617
# 4 0.000859 -0.005885 0.002199 0.020355 0.004072 -0.000423
# 5 0.007203 -0.006936 -0.000214 0.004072 0.024319 -0.003370
# 6 -0.005180 -0.004276 0.004617 -0.000423 -0.003370 0.032436
#
#
# Mechanical properties :
#
#
# Convention : Reuss Voigt Hill
#
# Bulk Modulus (GPa) = 58.99050 66.52263 62.75657
# Shear Modulus (GPa) = 34.57718 45.56198 40.06958
#
# Velocity S-wave (km/s) = 3.63254 4.16982 3.91042
# Velocity P-wave (km/s) = 6.33292 6.96919 6.65866
#
# Compressibility (1/GPa) = 0.01695188
#
# Stress axis : x y z
#
# Youngs Moduli (GPa) = 66.70484 72.95867 93.45470
#
# Poissons Ratio (x) = 0.14911 0.46652
# Poissons Ratio (y) = 0.13633 0.39133
# Poissons Ratio (z) = 0.33299 0.30550
#
# Static dielectric constant tensor:
#      x y z
#    x 2.083720 0.037170 -0.067240 
#    y 0.037170 2.146160 0.003290 
#    z -0.067240 0.003290 2.040240 
# 
# From -- ./inp_files/232189.got.cif
#   From: 2010.05.17/outbox.cif.g08.bks.cpg/sg2_117_cif.got.tgz:232189.got - 2010.06.03 11:33:40.
