data_PCOD9026143
_publ_section_title
;
Structure prediction by ZEFSAII (Michael W. Deem and Ramdas Pophale) SiO2 
 PCOD9026143
Probable space group: P -1
;
_chemical_formula_sum "Si O2"
_cell_formula_units_Z 16
_cell_length_a 6.500192
_cell_length_b 10.565043
_cell_length_c 10.994235
_cell_angle_alpha 82.559251
_cell_angle_beta 74.016467
_cell_angle_gamma 64.240880
_cell_volume 653.668922
_symmetry_space_group_name_H-M "P -1"
_symmetry_group_IT_number 2
_symmetry_cell_setting 'triclinic'
loop_
_space_group_symop_operation_xyz
x,y,z
-x,-y,-z
loop_
_atom_site_type_symbol
_atom_site_label
_atom_site_fract_x
_atom_site_fract_y
_atom_site_fract_z
Si Si1 0.933995 0.660764 0.999657
Si Si2 0.178153 0.813591 0.030354
Si Si3 0.537490 0.195845 0.783783
Si Si4 0.381004 0.990787 0.893449
Si Si5 0.175898 0.959814 0.591210
Si Si6 0.736061 0.784092 0.493371
Si Si7 0.650900 0.561554 0.391025
Si Si8 0.009495 0.263493 0.280618
O O1 0.165977 0.670422 0.015794
O O2 0.876382 0.737333 0.868548
O O3 0.709538 0.723990 0.116085
O O4 0.000000 0.500000 0.000000
O O5 0.353138 0.846121 0.907662
O O6 0.260864 0.829131 0.149083
O O7 0.898616 0.912130 0.058226
O O8 0.515542 0.050748 0.770765
O O9 0.532159 0.304362 0.670207
O O10 0.500000 0.000000 0.000000
O O11 0.452047 0.865890 0.534173
O O12 0.091498 0.856554 0.693323
O O13 0.169228 0.113102 0.606043
O O14 0.000000 0.000000 0.500000
O O15 0.788650 0.636375 0.436512
O O16 0.839146 0.761996 0.616502
O O17 0.500000 0.500000 0.500000
O O18 0.818235 0.425813 0.304209
#
# Coordination Sequence:
#
# PCOD9026143 Si02
#       8
#     2   2   2   2   2   2   2   2
#     4  11  23  40  61  91 128 167 208 257 309 378
#     4   9  19  37  63  90 125 166 204 256 317 373
#     4  10  22  41  62  94 129 163 212 258 315 384
#     4   8  16  37  63  90 126 158 208 256 314 381
#     4   9  20  43  67  96 128 164 221 267 319 381
#     4  10  22  42  70  95 127 174 213 265 329 372
#     4  12  24  43  66  96 134 170 213 267 318 387
#     4  11  23  43  67  96 132 167 217 267 319 386
#
# _framework density 24.477222999999999
#
# number of rings (size 3 to 8) (size 9 to 14) (size 15 to 20)
#    0.000    2.000    2.500    0.375    0.000    3.500 
#    4.500   21.250    0.000    0.000    0.000    0.000 
#    0.000    0.000    0.000    0.000    0.000    0.000 
#
# Total GULP energy -89310.686067 kJ/mol
# GULP energy per Si atom -5581.917879 kJ/mol
# Density = 2.442151 g / cm^3
# Si number density = 24.477223 Si / 1000 Ang^3
#
#
#
# Elastic Constant Matrix: (Units=GPa)
#
#
# Indices 1 2 3 4 5 6 
#
# 1 158.1625 47.3223 39.5254 -23.2549 7.9171 31.1568
# 2 47.3223 87.2607 29.1718 -20.4962 -26.4444 38.4263
# 3 39.5254 29.1718 92.3614 -29.2488 1.8373 20.9113
# 4 -23.2549 -20.4962 -29.2488 45.6677 2.6777 -10.4440
# 5 7.9171 -26.4444 1.8373 2.6777 46.0172 -11.9909
# 6 31.1568 38.4263 20.9113 -10.4440 -11.9909 55.6721
#
#
#
# Elastic Compliance Matrix: (Units=1/GPa)
#
#
# Indices 1 2 3 4 5 6 
#
# 1 0.008870 -0.004539 -0.001351 0.001416 -0.004703 -0.002071
# 2 -0.004539 0.023235 -0.002279 0.003822 0.011543 -0.009438
# 3 -0.001351 -0.002279 0.015156 0.007578 -0.002785 -0.002542
# 4 0.001416 0.003822 0.007578 0.028999 -0.000270 -0.000895
# 5 -0.004703 0.011543 -0.002785 -0.000270 0.029844 0.002088
# 6 -0.002071 -0.009438 -0.002542 -0.000895 0.002088 0.026872
#
#
# Mechanical properties :
#
#
# Convention : Reuss Voigt Hill
#
# Bulk Modulus (GPa) = 32.33842 63.31371 47.82607
# Shear Modulus (GPa) = 31.32408 44.25573 37.78991
#
# Velocity S-wave (km/s) = 3.58120 4.25672 3.93349
# Velocity P-wave (km/s) = 5.50821 7.07687 6.34123
#
# Compressibility (1/GPa) = 0.03092297
#
# Stress axis : x y z
#
# Youngs Moduli (GPa) = 112.74035 43.03803 65.98172
#
# Poissons Ratio (x) = 0.19535 0.08916
# Poissons Ratio (y) = 0.51174 0.15034
# Poissons Ratio (z) = 0.15235 0.09806
#
# Static dielectric constant tensor:
#      x y z
#    x 2.080350 0.100150 0.051320 
#    y 0.100150 2.160500 -0.014620 
#    z 0.051320 -0.014620 2.039320 
# 
# From -- ./inp_files/364050.got.cif
#   From: 2010.05.17/outbox.cif.g08.bks.cpg/sg2_183_cif.got.tgz:364050.got - 2010.06.03 11:33:40.
