data_PCOD9026571
_publ_section_title
;
Structure prediction by ZEFSAII (Michael W. Deem and Ramdas Pophale) SiO2 
 PCOD9026571
Probable space group: P -1
;
_chemical_formula_sum "Si O2"
_cell_formula_units_Z 16
_cell_length_a 7.848709
_cell_length_b 12.302912
_cell_length_c 20.534273
_cell_angle_alpha 29.778233
_cell_angle_beta 128.609797
_cell_angle_gamma 135.169871
_cell_volume 694.061035
_symmetry_space_group_name_H-M "P -1"
_symmetry_group_IT_number 2
_symmetry_cell_setting 'triclinic'
loop_
_space_group_symop_operation_xyz
x,y,z
-x,-y,-z
loop_
_atom_site_type_symbol
_atom_site_label
_atom_site_fract_x
_atom_site_fract_y
_atom_site_fract_z
Si Si1 0.444772 0.342235 0.923749
Si Si2 0.140165 0.762405 0.583010
Si Si3 0.766352 0.008500 0.053776
Si Si4 0.139795 0.543784 0.827449
Si Si5 0.713091 0.435332 0.558092
Si Si6 0.916720 0.860958 0.302213
Si Si7 0.609308 0.063222 0.209519
Si Si8 0.316092 0.178312 0.320240
O O1 0.347048 0.480881 0.878012
O O2 0.668832 0.557054 0.828684
O O3 0.251298 0.182068 0.907564
O O4 0.505555 0.158360 0.076028
O O5 0.070235 0.684902 0.680742
O O6 0.404290 0.769788 0.631623
O O7 0.940849 0.563754 0.593238
O O8 0.175461 0.025587 0.429094
O O9 0.861659 0.932846 0.181111
O O10 0.934905 0.282559 0.932110
O O11 0.500000 0.000000 0.000000
O O12 0.240123 0.713999 0.824327
O O13 0.500000 0.500000 0.500000
O O14 0.800694 0.572481 0.438767
O O15 0.598562 0.146933 0.688636
O O16 0.779320 0.959182 0.269770
O O17 0.190664 0.001811 0.320614
#
# Coordination Sequence:
#
# PCOD9026571 Si02
#       8
#     2   2   2   2   2   2   2   2
#     4  11  23  42  65  95 133 172 221 268 325 394
#     4   9  19  41  64  93 134 171 218 265 318 390
#     4  12  25  41  65  96 131 173 216 276 326 384
#     4  11  25  40  65  96 131 178 215 267 328 392
#     4   9  20  39  65  95 132 173 215 270 325 386
#     4  10  22  41  64  97 133 171 219 269 329 387
#     4  11  22  40  67  96 134 171 217 274 325 388
#     4   9  20  39  66  94 130 175 214 266 324 386
#
# _framework density 23.052727999999998
#
# number of rings (size 3 to 8) (size 9 to 14) (size 15 to 20)
#    0.000    1.750    1.250    2.250    3.500    4.000 
#    0.000    5.625    0.000   14.250    0.000    0.000 
#    0.000    0.000    0.000    0.000    0.000    0.000 
#
# Total GULP energy -89441.004480 kJ/mol
# GULP energy per Si atom -5590.062780 kJ/mol
# Density = 2.300026 g / cm^3
# Si number density = 23.052728 Si / 1000 Ang^3
#
#
#
# Elastic Constant Matrix: (Units=GPa)
#
#
# Indices 1 2 3 4 5 6 
#
# 1 51.3484 15.7617 36.6199 -2.2773 -6.4781 -2.7191
# 2 15.7617 92.7167 70.1244 3.3671 -36.4556 -1.3618
# 3 36.6199 70.1244 152.4420 -10.2121 -41.3904 12.9529
# 4 -2.2773 3.3671 -10.2121 53.4076 8.9731 -1.5859
# 5 -6.4781 -36.4556 -41.3904 8.9731 40.7749 -6.0734
# 6 -2.7191 -1.3618 12.9529 -1.5859 -6.0734 36.8229
#
#
#
# Elastic Compliance Matrix: (Units=1/GPa)
#
#
# Indices 1 2 3 4 5 6 
#
# 1 0.024228 0.000152 -0.006869 0.000239 -0.002472 0.003814
# 2 0.000152 0.022055 -0.007043 -0.005006 0.014511 0.005482
# 3 -0.006869 -0.007043 0.013333 0.001710 0.005093 -0.004544
# 4 0.000239 -0.005006 0.001710 0.020587 -0.007397 -0.001102
# 5 -0.002472 0.014511 0.005093 -0.007397 0.044742 0.005623
# 6 0.003814 0.005482 -0.004544 -0.001102 0.005623 0.030120
#
#
# Mechanical properties :
#
#
# Convention : Reuss Voigt Hill
#
# Bulk Modulus (GPa) = 31.15717 60.16880 45.66299
# Shear Modulus (GPa) = 25.86885 37.80115 31.83500
#
# Velocity S-wave (km/s) = 3.35350 4.05380 3.72016
# Velocity P-wave (km/s) = 5.34224 6.93313 6.18901
#
# Compressibility (1/GPa) = 0.03209534
#
# Stress axis : x y z
#
# Youngs Moduli (GPa) = 41.27510 45.34216 74.99988
#
# Poissons Ratio (x) = -0.00689 0.51520
# Poissons Ratio (y) = -0.00627 0.52821
# Poissons Ratio (z) = 0.28353 0.31934
#
# Static dielectric constant tensor:
#      x y z
#    x 1.933450 0.020060 0.013340 
#    y 0.020060 1.810660 -0.003620 
#    z 0.013340 -0.003620 1.946410 
# 
# From -- ./inp_files/425108.got.cif
#   From: 2010.05.17/outbox.cif.g08.bks.cpg/sg2_213_cif.got.tgz:425108.got - 2010.06.03 11:33:40.
