data_PCOD9026273
_publ_section_title
;
Structure prediction by ZEFSAII (Michael W. Deem and Ramdas Pophale) SiO2 
 PCOD9026273
Probable space group: P -1
;
_chemical_formula_sum "Si O2"
_cell_formula_units_Z 14
_cell_length_a 19.575970
_cell_length_b 9.022808
_cell_length_c 5.269815
_cell_angle_alpha 99.993428
_cell_angle_beta 59.688117
_cell_angle_gamma 125.305150
_cell_volume 646.485212
_symmetry_space_group_name_H-M "P -1"
_symmetry_group_IT_number 2
_symmetry_cell_setting 'triclinic'
loop_
_space_group_symop_operation_xyz
x,y,z
-x,-y,-z
loop_
_atom_site_type_symbol
_atom_site_label
_atom_site_fract_x
_atom_site_fract_y
_atom_site_fract_z
Si Si1 0.286752 0.173295 0.318127
Si Si2 0.417920 0.756728 0.847472
Si Si3 0.031795 0.406018 0.721274
Si Si4 0.108786 0.770141 0.448893
Si Si5 0.254745 0.336200 0.928006
Si Si6 0.541567 0.855709 0.145156
Si Si7 0.939839 0.784770 0.005430
O O1 0.288741 0.267707 0.606147
O O2 0.206179 0.952709 0.411834
O O3 0.256415 0.245406 0.160139
O O4 0.387182 0.202717 0.068541
O O5 0.325016 0.555138 0.900859
O O6 0.495761 0.799162 0.494759
O O7 0.404848 0.922964 0.905257
O O8 0.459912 0.769392 0.052680
O O9 0.097255 0.578491 0.458642
O O10 0.089113 0.331862 0.715861
O O11 0.925176 0.236098 0.776579
O O12 0.000000 0.500000 0.000000
O O13 0.018424 0.757851 0.738033
O O14 0.149539 0.277859 0.023415
O O15 0.000000 0.000000 0.000000
#
# Coordination Sequence:
#
# PCOD9026273 Si02
#       7
#     2   2   2   2   2   2   2
#     4  12  26  43  67 103 134 181 217 278 336 401
#     4  10  23  47  69 101 129 173 225 275 338 400
#     4   9  21  39  61  89 124 174 223 275 324 380
#     4  10  22  41  63  92 132 173 227 270 330 392
#     4  12  27  42  68 103 136 179 226 268 339 400
#     4  10  23  46  72  95 135 173 218 284 334 394
#     4  11  22  41  63  93 137 178 216 274 324 393
#
# _framework density 21.655562
#
# number of rings (size 3 to 8) (size 9 to 14) (size 15 to 20)
#    0.000    1.429    1.429    2.571    4.000    8.000 
#    7.714    0.000    0.000    0.000    0.000    0.000 
#    0.000    0.000    0.000    0.000    0.000    0.000 
#
# Total GULP energy -78136.367318 kJ/mol
# GULP energy per Si atom -5581.169094 kJ/mol
# Density = 2.160627 g / cm^3
# Si number density = 21.655562 Si / 1000 Ang^3
#
#
#
# Elastic Constant Matrix: (Units=GPa)
#
#
# Indices 1 2 3 4 5 6 
#
# 1 86.9033 34.0249 7.2880 -4.3389 5.3849 -12.5753
# 2 34.0249 154.5053 7.0102 0.5676 7.8740 16.0941
# 3 7.2880 7.0102 53.8403 18.4862 5.4319 -5.0253
# 4 -4.3389 0.5676 18.4862 32.8946 4.2706 4.0352
# 5 5.3849 7.8740 5.4319 4.2706 31.1553 3.1686
# 6 -12.5753 16.0941 -5.0253 4.0352 3.1686 30.7555
#
#
#
# Elastic Compliance Matrix: (Units=1/GPa)
#
#
# Indices 1 2 3 4 5 6 
#
# 1 0.014465 -0.003819 -0.001191 0.002008 -0.002386 0.007701
# 2 -0.003819 0.008034 -0.001351 0.000943 -0.000649 -0.006043
# 3 -0.001191 -0.001351 0.024735 -0.014506 -0.002429 0.006415
# 4 0.002008 0.000943 -0.014506 0.040027 -0.002831 -0.007003
# 5 -0.002386 -0.000649 -0.002429 -0.002831 0.033908 -0.004155
# 6 0.007701 -0.006043 0.006415 -0.007003 -0.004155 0.041221
#
#
# Mechanical properties :
#
#
# Convention : Reuss Voigt Hill
#
# Bulk Modulus (GPa) = 28.97619 43.54390 36.26005
# Shear Modulus (GPa) = 26.79302 35.42278 31.10790
#
# Velocity S-wave (km/s) = 3.52125 4.04881 3.79421
# Velocity P-wave (km/s) = 5.47191 6.48138 5.99792
#
# Compressibility (1/GPa) = 0.03451109
#
# Stress axis : x y z
#
# Youngs Moduli (GPa) = 69.13393 124.47435 40.42828
#
# Poissons Ratio (x) = 0.47541 0.04814
# Poissons Ratio (y) = 0.26404 0.05463
# Poissons Ratio (z) = 0.08232 0.16819
#
# Static dielectric constant tensor:
#      x y z
#    x 1.869010 0.000910 0.185740 
#    y 0.000910 1.771570 -0.001070 
#    z 0.185740 -0.001070 2.026010 
# 
# From -- ./inp_files/39714.got.cif
#   From: 2010.05.17/outbox.cif.g08.bks.cpg/sg2_20_cif.got.tgz:39714.got - 2010.06.03 11:33:40.
