data_PCOD9026900
_publ_section_title
;
Structure prediction by ZEFSAII (Michael W. Deem and Ramdas Pophale) SiO2 
 PCOD9026900
Probable space group: P -1
;
_chemical_formula_sum "Si O2"
_cell_formula_units_Z 14
_cell_length_a 16.743103
_cell_length_b 14.355375
_cell_length_c 7.828547
_cell_angle_alpha 118.990714
_cell_angle_beta 49.796122
_cell_angle_gamma 154.990589
_cell_volume 577.488255
_symmetry_space_group_name_H-M "P -1"
_symmetry_group_IT_number 2
_symmetry_cell_setting 'triclinic'
loop_
_space_group_symop_operation_xyz
x,y,z
-x,-y,-z
loop_
_atom_site_type_symbol
_atom_site_label
_atom_site_fract_x
_atom_site_fract_y
_atom_site_fract_z
Si Si1 0.146854 0.895704 0.840950
Si Si2 0.642434 0.410765 0.209756
Si Si3 0.219717 0.145757 0.685050
Si Si4 0.332956 0.794990 0.912613
Si Si5 0.172332 0.683829 0.671162
Si Si6 0.255470 0.318895 0.112169
Si Si7 0.395911 0.678262 0.205562
O O1 0.167694 0.996466 0.746728
O O2 0.168333 0.790303 0.667007
O O3 0.356145 0.107428 0.864642
O O4 0.904790 0.684054 0.084335
O O5 0.617051 0.285504 0.256719
O O6 0.455417 0.329996 0.435166
O O7 0.590824 0.316790 0.011275
O O8 0.986579 0.945150 0.719567
O O9 0.250492 0.272393 0.882301
O O10 0.312545 0.828134 0.782812
O O11 0.083138 0.571658 0.143068
O O12 0.500000 0.000000 0.000000
O O13 0.270342 0.670947 0.429735
O O14 0.259116 0.448684 0.245080
O O15 0.500000 0.500000 0.000000
#
# Coordination Sequence:
#
# PCOD9026900 Si02
#       7
#     2   2   2   2   2   2   2
#     4  11  23  46  69 102 142 179 226 282 342 411
#     4  11  26  42  68 106 135 182 229 280 346 406
#     4  11  25  48  73  97 142 176 232 291 337 410
#     4  10  22  41  66 102 142 186 225 274 339 408
#     4  10  24  41  68 104 143 181 228 276 337 417
#     4  11  25  47  74 100 129 187 233 283 351 399
#     4  12  24  43  70 102 141 184 230 280 344 404
#
# _framework density 24.242916999999998
#
# number of rings (size 3 to 8) (size 9 to 14) (size 15 to 20)
#    0.000    1.143    2.857    2.143    2.000    6.286 
#    0.000    1.429    0.000    0.000    0.000    0.000 
#    0.000    0.000    0.000    0.000    0.000    0.000 
#
# Total GULP energy -78403.912603 kJ/mol
# GULP energy per Si atom -5600.279472 kJ/mol
# Density = 2.418774 g / cm^3
# Si number density = 24.242917 Si / 1000 Ang^3
#
#
#
# Elastic Constant Matrix: (Units=GPa)
#
#
# Indices 1 2 3 4 5 6 
#
# 1 74.6033 26.9774 7.3918 3.9856 -13.2988 -1.8463
# 2 26.9774 161.2761 55.9806 -4.5680 -25.2910 16.9021
# 3 7.3918 55.9806 137.4363 -6.9249 -41.0709 6.6463
# 4 3.9856 -4.5680 -6.9249 35.1253 6.7813 -9.7301
# 5 -13.2988 -25.2910 -41.0709 6.7813 35.4261 -5.0032
# 6 -1.8463 16.9021 6.6463 -9.7301 -5.0032 48.5304
#
#
#
# Elastic Compliance Matrix: (Units=1/GPa)
#
#
# Indices 1 2 3 4 5 6 
#
# 1 0.015541 -0.002412 0.002120 -0.002689 0.007275 0.001352
# 2 -0.002412 0.007976 -0.002559 -0.000148 0.001512 -0.002393
# 3 0.002120 -0.002559 0.012083 -0.000578 0.013167 0.000559
# 4 -0.002689 -0.000148 -0.000578 0.031559 -0.007032 0.005631
# 5 0.007275 0.001512 0.013167 -0.007032 0.048872 0.001575
# 6 0.001352 -0.002393 0.000559 0.005631 0.001575 0.022705
#
#
# Mechanical properties :
#
#
# Convention : Reuss Voigt Hill
#
# Bulk Modulus (GPa) = 33.44819 61.55727 47.50273
# Shear Modulus (GPa) = 32.38261 42.68075 37.53168
#
# Velocity S-wave (km/s) = 3.65876 4.20044 3.93892
# Velocity P-wave (km/s) = 5.62812 6.99799 6.35010
#
# Compressibility (1/GPa) = 0.02989698
#
# Stress axis : x y z
#
# Youngs Moduli (GPa) = 64.34794 125.37535 82.76131
#
# Poissons Ratio (x) = 0.30245 -0.17545
# Poissons Ratio (y) = 0.15523 0.21177
# Poissons Ratio (z) = -0.13642 0.32082
#
# Static dielectric constant tensor:
#      x y z
#    x 2.027470 -0.018280 -0.019610 
#    y -0.018280 1.939040 -0.041940 
#    z -0.019610 -0.041940 1.910090 
# 
# From -- ./inp_files/348558.got.cif
#   From: 2010.05.17/outbox.cif.g08.bks.cpg/sg2_175_cif.got.tgz:348558.got - 2010.06.03 11:33:40.
