data_PCOD9026564
_publ_section_title
;
Structure prediction by ZEFSAII (Michael W. Deem and Ramdas Pophale) SiO2 
 PCOD9026564
Probable space group: P -1
;
_chemical_formula_sum "Si O2"
_cell_formula_units_Z 14
_cell_length_a 8.757754
_cell_length_b 14.200242
_cell_length_c 11.941283
_cell_angle_alpha 33.193798
_cell_angle_beta 130.928353
_cell_angle_gamma 109.146380
_cell_volume 519.953687
_symmetry_space_group_name_H-M "P -1"
_symmetry_group_IT_number 2
_symmetry_cell_setting 'triclinic'
loop_
_space_group_symop_operation_xyz
x,y,z
-x,-y,-z
loop_
_atom_site_type_symbol
_atom_site_label
_atom_site_fract_x
_atom_site_fract_y
_atom_site_fract_z
Si Si1 0.329909 0.488182 0.665596
Si Si2 0.291855 0.868603 0.175476
Si Si3 0.870890 0.252112 0.084005
Si Si4 0.538224 0.705775 0.857580
Si Si5 0.984995 0.160691 0.555313
Si Si6 0.628921 0.868275 0.523947
Si Si7 0.245586 0.390945 0.488454
O O1 0.230002 0.717593 0.354453
O O2 0.618927 0.373643 0.904487
O O3 0.250658 0.397274 0.618754
O O4 0.286831 0.448301 0.810532
O O5 0.442940 0.910888 0.294760
O O6 0.483547 0.744712 0.291646
O O7 0.067986 0.052939 0.823770
O O8 0.852604 0.387951 0.832554
O O9 0.927618 0.032414 0.292760
O O10 0.097375 0.224510 0.286890
O O11 0.626204 0.719350 0.763915
O O12 0.452805 0.922602 0.659750
O O13 0.298546 0.704074 0.728730
O O14 0.112986 0.284717 0.483953
#
# Coordination Sequence:
#
# PCOD9026564 Si02
#       7
#     2   2   2   2   2   2   2
#     4  11  22  41  66  96 128 158 215 264 308 377
#     4  11  22  39  65  94 129 164 207 262 317 370
#     4  10  22  41  64  97 128 162 208 265 312 370
#     4  10  25  43  62  94 126 168 216 255 308 384
#     4  11  22  39  67  94 126 168 208 256 321 369
#     4  10  24  43  64  87 134 168 208 259 316 369
#     4  11  22  39  65 101 126 160 211 266 310 377
#
# _framework density 26.925476
#
# number of rings (size 3 to 8) (size 9 to 14) (size 15 to 20)
#    0.000    1.429    2.857    2.143    6.000    3.429 
#    0.000    2.143    0.000    0.000    0.000    0.000 
#    0.000    0.000    0.000    0.000    0.000    0.000 
#
# Total GULP energy -78603.684550 kJ/mol
# GULP energy per Si atom -5614.548896 kJ/mol
# Density = 2.686419 g / cm^3
# Si number density = 26.925476 Si / 1000 Ang^3
#
#
#
# Elastic Constant Matrix: (Units=GPa)
#
#
# Indices 1 2 3 4 5 6 
#
# 1 52.9730 29.4036 53.9477 7.1058 -15.3261 0.3540
# 2 29.4036 159.4032 50.2304 22.0128 -30.5317 4.1449
# 3 53.9477 50.2304 156.6938 19.7142 -29.6739 8.5346
# 4 7.1058 22.0128 19.7142 59.4577 0.3073 -9.6883
# 5 -15.3261 -30.5317 -29.6739 0.3073 39.5275 -2.0651
# 6 0.3540 4.1449 8.5346 -9.6883 -2.0651 41.9394
#
#
#
# Elastic Compliance Matrix: (Units=1/GPa)
#
#
# Indices 1 2 3 4 5 6 
#
# 1 0.030474 -0.002197 -0.009380 0.000619 0.003185 0.002169
# 2 -0.002197 0.008231 -0.000503 -0.002823 0.005093 -0.001094
# 3 -0.009380 -0.000503 0.011051 -0.002796 0.004159 -0.002561
# 4 0.000619 -0.002823 -0.002796 0.019580 -0.003921 0.005173
# 5 0.003185 0.005093 0.004159 -0.003921 0.033588 -0.000629
# 6 0.002169 -0.001094 -0.002561 0.005173 -0.000629 0.025619
#
#
# Mechanical properties :
#
#
# Convention : Reuss Voigt Hill
#
# Bulk Modulus (GPa) = 39.06876 70.69258 54.88067
# Shear Modulus (GPa) = 31.01059 43.88413 37.44736
#
# Velocity S-wave (km/s) = 3.39738 4.04150 3.73336
# Velocity P-wave (km/s) = 5.47093 6.93471 6.24585
#
# Compressibility (1/GPa) = 0.02559590
#
# Stress axis : x y z
#
# Youngs Moduli (GPa) = 32.81485 121.49370 90.48598
#
# Poissons Ratio (x) = 0.26693 0.84878
# Poissons Ratio (y) = 0.07210 0.04551
# Poissons Ratio (z) = 0.30781 0.06110
#
# Static dielectric constant tensor:
#      x y z
#    x 2.096980 -0.033660 0.011430 
#    y -0.033660 2.067570 -0.024740 
#    z 0.011430 -0.024740 2.086780 
# 
# From -- ./inp_files/150884.got.cif
#   From: 2010.05.17/outbox.cif.g08.bks.cpg/sg2_76_cif.got.tgz:150884.got - 2010.06.03 11:33:40.
