data_PCOD9026094
_publ_section_title
;
Structure prediction by ZEFSAII (Michael W. Deem and Ramdas Pophale) SiO2 
 PCOD9026094
Probable space group: P -1
;
_chemical_formula_sum "Si O2"
_cell_formula_units_Z 16
_cell_length_a 13.089355
_cell_length_b 27.525973
_cell_length_c 8.954488
_cell_angle_alpha 31.796363
_cell_angle_beta 138.166153
_cell_angle_gamma 151.719840
_cell_volume 805.324496
_symmetry_space_group_name_H-M "P -1"
_symmetry_group_IT_number 2
_symmetry_cell_setting 'triclinic'
loop_
_space_group_symop_operation_xyz
x,y,z
-x,-y,-z
loop_
_atom_site_type_symbol
_atom_site_label
_atom_site_fract_x
_atom_site_fract_y
_atom_site_fract_z
Si Si1 0.373652 0.360236 0.914776
Si Si2 0.027702 0.920517 0.836445
Si Si3 0.524935 0.090376 0.912179
Si Si4 0.693609 0.360662 0.407403
Si Si5 0.166913 0.615292 0.162445
Si Si6 0.077328 0.128863 0.810350
Si Si7 0.724496 0.130550 0.336411
Si Si8 0.534887 0.390031 0.673044
O O1 0.473498 0.375374 0.820129
O O2 0.403256 0.481473 0.648252
O O3 0.510229 0.357724 0.185035
O O4 0.123272 0.225149 0.010174
O O5 0.277817 0.004525 0.913443
O O6 0.000000 0.000000 0.500000
O O7 0.930919 0.892406 0.967141
O O8 0.619845 0.230054 0.604053
O O9 0.675112 0.121000 0.131869
O O10 0.500000 0.000000 0.000000
O O11 0.733551 0.367231 0.611365
O O12 0.914191 0.486944 0.240075
O O13 0.278390 0.602059 0.189711
O O14 0.212437 0.743070 0.858853
O O15 0.319568 0.262382 0.690047
O O16 0.912709 0.138696 0.556513
O O17 0.000000 0.000000 0.000000
O O18 0.500000 0.000000 0.500000
#
# Coordination Sequence:
#
# PCOD9026094 Si02
#       8
#     2   2   2   2   2   2   2   2
#     4  10  22  41  62  88 125 158 207 248 302 366
#     4  11  23  42  62  91 127 162 200 258 301 368
#     4  11  25  40  62  92 126 163 206 250 310 361
#     4  10  22  42  60  88 123 162 203 253 297 368
#     4  10  23  41  63  89 124 158 204 252 309 357
#     4  11  24  40  67  93 122 161 206 252 311 363
#     4  11  22  42  64  90 126 160 203 258 302 366
#     4  10  23  40  62  92 120 161 203 252 305 365
#
# _framework density 19.867767000000001
#
# number of rings (size 3 to 8) (size 9 to 14) (size 15 to 20)
#    0.000    1.500    2.500    1.500    5.250    2.000 
#    0.000    0.000    0.000    0.000    0.000    0.000 
#    0.000    0.000    0.000    0.000    0.000    0.000 
#
# Total GULP energy -89347.562935 kJ/mol
# GULP energy per Si atom -5584.222683 kJ/mol
# Density = 1.982255 g / cm^3
# Si number density = 19.867767 Si / 1000 Ang^3
#
#
#
# Elastic Constant Matrix: (Units=GPa)
#
#
# Indices 1 2 3 4 5 6 
#
# 1 48.2321 8.0750 20.0493 -19.1987 19.2284 -5.5665
# 2 8.0750 102.8340 42.1832 -32.5339 5.8440 1.5249
# 3 20.0493 42.1832 124.7420 -20.5250 15.5675 -6.7533
# 4 -19.1987 -32.5339 -20.5250 49.6116 -4.6936 1.2619
# 5 19.2284 5.8440 15.5675 -4.6936 23.3149 -9.8467
# 6 -5.5665 1.5249 -6.7533 1.2619 -9.8467 26.4363
#
#
#
# Elastic Compliance Matrix: (Units=1/GPa)
#
#
# Indices 1 2 3 4 5 6 
#
# 1 0.037701 0.003799 -0.001574 0.013692 -0.030170 -0.004574
# 2 0.003799 0.013935 -0.003561 0.008863 -0.003594 -0.002675
# 3 -0.001574 -0.003561 0.010168 0.000857 -0.004034 0.000928
# 4 0.013692 0.008863 0.000857 0.030845 -0.008786 -0.002154
# 5 -0.030170 -0.003594 -0.004034 -0.008786 0.079204 0.022745
# 6 -0.004574 -0.002675 0.000928 -0.002154 0.022745 0.045830
#
#
# Mechanical properties :
#
#
# Convention : Reuss Voigt Hill
#
# Bulk Modulus (GPa) = 16.91100 46.26923 31.59011
# Shear Modulus (GPa) = 20.82763 33.57258 27.20011
#
# Velocity S-wave (km/s) = 3.24128 4.11518 3.70409
# Velocity P-wave (km/s) = 4.74743 6.77634 5.85051
#
# Compressibility (1/GPa) = 0.05913311
#
# Stress axis : x y z
#
# Youngs Moduli (GPa) = 26.52454 71.76321 98.34335
#
# Poissons Ratio (x) = -0.27265 0.15479
# Poissons Ratio (y) = -0.10077 0.35018
# Poissons Ratio (z) = 0.04175 0.25554
#
# Static dielectric constant tensor:
#      x y z
#    x 1.693960 -0.021310 -0.011750 
#    y -0.021310 1.738050 -0.010190 
#    z -0.011750 -0.010190 1.680030 
# 
# From -- ./inp_files/175033.got.cif
#   From: 2010.05.17/outbox.cif.g08.bks.cpg/sg2_88_cif.got.tgz:175033.got - 2010.06.03 11:33:40.
