data_PCOD9026093
_publ_section_title
;
Structure prediction by ZEFSAII (Michael W. Deem and Ramdas Pophale) SiO2 
 PCOD9026093
Probable space group: P -1
;
_chemical_formula_sum "Si O2"
_cell_formula_units_Z 12
_cell_length_a 5.106812
_cell_length_b 23.573952
_cell_length_c 5.379558
_cell_angle_alpha 94.718907
_cell_angle_beta 87.246369
_cell_angle_gamma 129.630333
_cell_volume 497.092017
_symmetry_space_group_name_H-M "P -1"
_symmetry_group_IT_number 2
_symmetry_cell_setting 'triclinic'
loop_
_space_group_symop_operation_xyz
x,y,z
-x,-y,-z
loop_
_atom_site_type_symbol
_atom_site_label
_atom_site_fract_x
_atom_site_fract_y
_atom_site_fract_z
Si Si1 0.579134 0.331611 0.490572
Si Si2 0.931197 0.708513 0.140579
Si Si3 0.409221 0.053387 0.508885
Si Si4 0.251558 0.586887 0.992539
Si Si5 0.679496 0.913045 0.973673
Si Si6 0.350860 0.217653 0.085526
O O1 0.204987 0.304280 0.576346
O O2 0.781515 0.376028 0.749827
O O3 0.762641 0.386135 0.267229
O O4 0.484447 0.256305 0.363654
O O5 0.653302 0.626312 0.009382
O O6 0.842275 0.755913 0.019853
O O7 0.312667 0.746482 0.081792
O O8 0.517104 0.101161 0.768139
O O9 0.500000 0.000000 0.500000
O O10 0.527908 0.099920 0.268536
O O11 0.000000 0.000000 0.500000
O O12 0.000000 0.500000 0.000000
O O13 0.810988 0.867010 0.932911
O O14 0.000000 0.000000 0.000000
#
# Coordination Sequence:
#
# PCOD9026093 Si02
#       6
#     2   2   2   2   2   2
#     4   9  21  40  64  95 135 173 216 266 327 387
#     4   9  24  40  67  95 134 173 219 262 333 388
#     4  10  22  41  62  88 124 156 205 265 329 382
#     4   9  18  40  68  98 132 172 218 266 320 385
#     4  10  24  43  67  94 126 169 219 276 326 385
#     4  11  23  45  65  97 132 176 222 270 331 397
#
# _framework density 24.140398000000001
#
# number of rings (size 3 to 8) (size 9 to 14) (size 15 to 20)
#    1.000    1.333    0.000    1.000    2.333    8.000 
#    3.000    4.167    0.000    0.000    0.000    0.000 
#    0.000    0.000    0.000    0.000    0.000    0.000 
#
# Total GULP energy -66932.843992 kJ/mol
# GULP energy per Si atom -5577.736999 kJ/mol
# Density = 2.408545 g / cm^3
# Si number density = 24.140398 Si / 1000 Ang^3
#
#
#
# Elastic Constant Matrix: (Units=GPa)
#
#
# Indices 1 2 3 4 5 6 
#
# 1 93.5084 9.5053 27.0999 1.6193 -4.4544 -3.3429
# 2 9.5053 131.6364 30.5763 21.1345 -4.0618 8.3129
# 3 27.0999 30.5763 216.5911 14.1413 13.4618 -14.6144
# 4 1.6193 21.1345 14.1413 30.4908 -5.6923 -8.4187
# 5 -4.4544 -4.0618 13.4618 -5.6923 32.1397 -1.2336
# 6 -3.3429 8.3129 -14.6144 -8.4187 -1.2336 20.2030
#
#
#
# Elastic Compliance Matrix: (Units=1/GPa)
#
#
# Indices 1 2 3 4 5 6 
#
# 1 0.011349 -0.000798 -0.001430 0.001619 0.002434 0.001995
# 2 -0.000798 0.009900 -0.001313 -0.008668 -0.000182 -0.008778
# 3 -0.001430 -0.001313 0.005464 -0.001042 -0.002697 0.003657
# 4 0.001619 -0.008668 -0.001042 0.047293 0.008837 0.023328
# 5 0.002434 -0.000182 -0.002697 0.008837 0.034288 0.004303
# 6 0.001995 -0.008778 0.003657 0.023328 0.004303 0.066069
#
#
# Mechanical properties :
#
#
# Convention : Reuss Voigt Hill
#
# Bulk Modulus (GPa) = 50.93988 64.01100 57.47544
# Shear Modulus (GPa) = 26.59756 41.53700 34.06728
#
# Velocity S-wave (km/s) = 3.32292 4.15256 3.76069
# Velocity P-wave (km/s) = 5.98913 7.04027 6.53587
#
# Compressibility (1/GPa) = 0.01963099
#
# Stress axis : x y z
#
# Youngs Moduli (GPa) = 88.11387 101.01289 183.03038
#
# Poissons Ratio (x) = 0.08063 0.26167
# Poissons Ratio (y) = 0.07034 0.24027
# Poissons Ratio (z) = 0.12597 0.13260
#
# Static dielectric constant tensor:
#      x y z
#    x 1.999290 0.025000 0.031490 
#    y 0.025000 1.945940 -0.045620 
#    z 0.031490 -0.045620 2.069850 
# 
# From -- ./inp_files/13414.got.cif
#   From: 2010.05.17/outbox.cif.g08.bks.cpg/sg2_7_cif.got.tgz:13414.got - 2010.06.03 11:33:40.
