data_PCOD9026654
_publ_section_title
;
Structure prediction by ZEFSAII (Michael W. Deem and Ramdas Pophale) SiO2 
 PCOD9026654
Probable space group: P -1
;
_chemical_formula_sum "Si O2"
_cell_formula_units_Z 14
_cell_length_a 8.100748
_cell_length_b 6.243617
_cell_length_c 15.150292
_cell_angle_alpha 90.036140
_cell_angle_beta 140.412701
_cell_angle_gamma 89.497401
_cell_volume 488.267238
_symmetry_space_group_name_H-M "P -1"
_symmetry_group_IT_number 2
_symmetry_cell_setting 'triclinic'
loop_
_space_group_symop_operation_xyz
x,y,z
-x,-y,-z
loop_
_atom_site_type_symbol
_atom_site_label
_atom_site_fract_x
_atom_site_fract_y
_atom_site_fract_z
Si Si1 0.180835 0.851202 0.474682
Si Si2 0.387794 0.915423 0.238542
Si Si3 0.705220 0.577636 0.297581
Si Si4 0.839538 0.369118 0.700318
Si Si5 0.600556 0.742815 0.022590
Si Si6 0.228631 0.326109 0.106974
Si Si7 0.071436 0.774661 0.747421
O O1 0.960801 0.707468 0.431572
O O2 0.297116 0.690778 0.447910
O O3 0.371556 0.962787 0.619689
O O4 0.070256 0.048056 0.369458
O O5 0.503845 0.783371 0.201965
O O6 0.286866 0.756763 0.271909
O O7 0.180621 0.101828 0.134104
O O8 0.487584 0.432222 0.254587
O O9 0.819565 0.400941 0.277870
O O10 0.888332 0.622199 0.730742
O O11 0.131937 0.266406 0.813142
O O12 0.694529 0.743020 0.960387
O O13 0.317836 0.861983 0.904884
O O14 0.500000 0.500000 0.000000
O O15 0.000000 0.500000 0.000000
#
# Coordination Sequence:
#
# PCOD9026654 Si02
#       7
#     2   2   2   2   2   2   2
#     4  11  24  42  65  94 130 174 224 261 309 390
#     4  12  26  41  63  98 133 171 216 265 324 386
#     4  10  22  41  65  90 127 169 208 266 318 371
#     4  10  23  41  64  93 133 173 211 269 322 375
#     4   9  19  40  65  92 122 162 216 262 315 378
#     4  11  25  43  65  97 131 165 213 270 331 389
#     4   9  21  41  65  96 126 167 220 263 318 384
#
# _framework density 28.672826000000001
#
# number of rings (size 3 to 8) (size 9 to 14) (size 15 to 20)
#    0.000    1.714    0.000    4.286    0.000   11.429 
#    0.000    2.857    0.000    0.000    0.000    0.000 
#    0.000    0.000    0.000    0.000    0.000    0.000 
#
# Total GULP energy -78164.445609 kJ/mol
# GULP energy per Si atom -5583.174686 kJ/mol
# Density = 2.860757 g / cm^3
# Si number density = 28.672826 Si / 1000 Ang^3
#
#
#
# Elastic Constant Matrix: (Units=GPa)
#
#
# Indices 1 2 3 4 5 6 
#
# 1 95.8768 44.9485 -4.2309 3.9223 8.7818 5.8699
# 2 44.9485 132.0710 60.8540 3.7396 4.6925 25.8088
# 3 -4.2309 60.8540 119.7664 23.6099 25.1862 16.4979
# 4 3.9223 3.7396 23.6099 52.3060 14.6801 8.1401
# 5 8.7818 4.6925 25.1862 14.6801 38.3082 5.9060
# 6 5.8699 25.8088 16.4979 8.1401 5.9060 57.5370
#
#
#
# Elastic Compliance Matrix: (Units=1/GPa)
#
#
# Indices 1 2 3 4 5 6 
#
# 1 0.014837 -0.007707 0.005853 -0.001746 -0.005807 0.001108
# 2 -0.007707 0.014863 -0.008907 0.002674 0.005435 -0.004263
# 3 0.005853 -0.008907 0.015796 -0.004476 -0.008986 0.000425
# 4 -0.001746 0.002674 -0.004476 0.022977 -0.005414 -0.002433
# 5 -0.005807 0.005435 -0.008986 -0.005414 0.035076 -0.002103
# 6 0.001108 -0.004263 0.000425 -0.002433 -0.002103 0.019617
#
#
# Mechanical properties :
#
#
# Convention : Reuss Voigt Hill
#
# Bulk Modulus (GPa) = 41.71351 61.20641 51.45996
# Shear Modulus (GPa) = 32.74819 46.03975 39.39397
#
# Velocity S-wave (km/s) = 3.38321 4.01146 3.71065
# Velocity P-wave (km/s) = 5.46271 6.54588 6.02867
#
# Compressibility (1/GPa) = 0.02397305
#
# Stress axis : x y z
#
# Youngs Moduli (GPa) = 67.39860 67.28086 63.30855
#
# Poissons Ratio (x) = 0.51855 -0.37054
# Poissons Ratio (y) = 0.51946 0.56390
# Poissons Ratio (z) = -0.39448 0.59928
#
# Static dielectric constant tensor:
#      x y z
#    x 2.269900 0.007280 -0.044320 
#    y 0.007280 2.326060 -0.035640 
#    z -0.044320 -0.035640 2.343200 
# 
# From -- ./inp_files/553487.got.cif
#   From: 2010.05.17/outbox.cif.g08.bks.cpg/sg2_277_cif.got.tgz:553487.got - 2010.06.03 11:33:40.
