data_PCOD9026986
_publ_section_title
;
Structure prediction by ZEFSAII (Michael W. Deem and Ramdas Pophale) SiO2 
 PCOD9026986
Probable space group: P -1
;
_chemical_formula_sum "Si O2"
_cell_formula_units_Z 16
_cell_length_a 14.421870
_cell_length_b 14.573035
_cell_length_c 7.938793
_cell_angle_alpha 61.190183
_cell_angle_beta 50.764862
_cell_angle_gamma 29.832944
_cell_volume 633.178576
_symmetry_space_group_name_H-M "P -1"
_symmetry_group_IT_number 2
_symmetry_cell_setting 'triclinic'
loop_
_space_group_symop_operation_xyz
x,y,z
-x,-y,-z
loop_
_atom_site_type_symbol
_atom_site_label
_atom_site_fract_x
_atom_site_fract_y
_atom_site_fract_z
Si Si1 0.612669 0.170291 0.152906
Si Si2 0.224636 0.426009 0.161232
Si Si3 0.962645 0.229212 0.064469
Si Si4 0.129323 0.429285 0.738146
Si Si5 0.367446 0.709215 0.636871
Si Si6 0.485639 0.834647 0.248300
Si Si7 0.658379 0.351185 0.796856
Si Si8 0.985418 0.764909 0.605027
O O1 0.373487 0.308531 0.258237
O O2 0.633387 0.219067 0.257854
O O3 0.666720 0.220708 0.905774
O O4 0.798470 0.950281 0.125614
O O5 0.988746 0.550409 0.288863
O O6 0.182635 0.578839 0.030996
O O7 0.371158 0.261984 0.997323
O O8 0.849070 0.198952 0.207899
O O9 0.986004 0.238635 0.225467
O O10 0.371295 0.236382 0.692801
O O11 0.094638 0.575998 0.608936
O O12 0.000000 0.500000 0.000000
O O13 0.423546 0.756303 0.396094
O O14 0.551983 0.487706 0.640379
O O15 0.265086 0.055853 0.301828
O O16 0.892443 0.233344 0.641355
O O17 0.500000 0.500000 0.000000
#
# Coordination Sequence:
#
# PCOD9026986 Si02
#       8
#     2   2   2   2   2   2   2   2
#     4  11  24  42  62  98 134 172 218 268 330 392
#     4  11  23  41  67  97 127 173 217 277 324 381
#     4  12  23  37  66  99 132 167 219 269 324 394
#     4  10  22  42  65  99 130 168 219 277 330 372
#     4  11  23  41  64  90 136 175 209 271 330 392
#     4  11  23  41  66  97 134 168 218 270 326 394
#     4  10  22  41  66  93 132 175 209 259 336 395
#     4  12  23  39  70 101 130 174 216 272 328 385
#
# _framework density 25.269331999999999
#
# number of rings (size 3 to 8) (size 9 to 14) (size 15 to 20)
#    0.000    1.000    6.250    1.125    1.750    6.000 
#    0.000    0.625    0.000    1.500    0.000    0.000 
#    0.000    0.000    0.000    0.000    0.000    0.000 
#
# Total GULP energy -89602.663329 kJ/mol
# GULP energy per Si atom -5600.166458 kJ/mol
# Density = 2.521182 g / cm^3
# Si number density = 25.269332 Si / 1000 Ang^3
#
#
#
# Elastic Constant Matrix: (Units=GPa)
#
#
# Indices 1 2 3 4 5 6 
#
# 1 154.9269 30.4401 18.8027 14.2270 -3.6113 -33.8933
# 2 30.4401 108.2277 14.7642 35.3604 13.7413 -42.2127
# 3 18.8027 14.7642 45.8569 13.6251 -4.1035 -7.8704
# 4 14.2270 35.3604 13.6251 30.1685 -6.4060 -9.9750
# 5 -3.6113 13.7413 -4.1035 -6.4060 33.6784 1.5239
# 6 -33.8933 -42.2127 -7.8704 -9.9750 1.5239 42.7880
#
#
#
# Elastic Compliance Matrix: (Units=1/GPa)
#
#
# Indices 1 2 3 4 5 6 
#
# 1 0.008176 0.002040 -0.001890 -0.003172 -0.001126 0.007443
# 2 0.002040 0.034308 0.002100 -0.037564 -0.021930 0.027874
# 3 -0.001890 0.002100 0.026035 -0.012605 -0.000395 0.002438
# 4 -0.003172 -0.037564 -0.012605 0.082989 0.030305 -0.023622
# 5 -0.001126 -0.021930 -0.000395 0.030305 0.045011 -0.017138
# 6 0.007443 0.027874 0.002438 -0.023622 -0.017138 0.052317
#
#
# Mechanical properties :
#
#
# Convention : Reuss Voigt Hill
#
# Bulk Modulus (GPa) = 13.69505 48.55840 31.12673
# Shear Modulus (GPa) = 18.60972 37.66063 28.13518
#
# Velocity S-wave (km/s) = 2.71671 3.86472 3.34040
# Velocity P-wave (km/s) = 3.90795 6.25882 5.21751
#
# Compressibility (1/GPa) = 0.07301907
#
# Stress axis : x y z
#
# Youngs Moduli (GPa) = 122.30254 29.14732 38.41054
#
# Poissons Ratio (x) = -0.05947 0.07261
# Poissons Ratio (y) = -0.24955 -0.08066
# Poissons Ratio (z) = 0.23121 -0.06121
#
# Static dielectric constant tensor:
#      x y z
#    x 2.005050 -0.030620 -0.009940 
#    y -0.030620 1.962830 -0.023790 
#    z -0.009940 -0.023790 2.121520 
# 
# From -- ./inp_files/312940.got.cif
#   From: 2010.05.17/outbox.cif.g08.bks.cpg/sg2_157_cif.got.tgz:312940.got - 2010.06.03 11:33:40.
