data_PCOD9026753
_publ_section_title
;
Structure prediction by ZEFSAII (Michael W. Deem and Ramdas Pophale) SiO2 
 PCOD9026753
Probable space group: P -1
;
_chemical_formula_sum "Si O2"
_cell_formula_units_Z 14
_cell_length_a 25.212265
_cell_length_b 22.470632
_cell_length_c 5.651147
_cell_angle_alpha 81.108556
_cell_angle_beta 96.341266
_cell_angle_gamma 169.127664
_cell_volume 581.764219
_symmetry_space_group_name_H-M "P -1"
_symmetry_group_IT_number 2
_symmetry_cell_setting 'triclinic'
loop_
_space_group_symop_operation_xyz
x,y,z
-x,-y,-z
loop_
_atom_site_type_symbol
_atom_site_label
_atom_site_fract_x
_atom_site_fract_y
_atom_site_fract_z
Si Si1 0.267337 0.265995 0.346849
Si Si2 0.383664 0.958841 0.577785
Si Si3 0.105535 0.820773 0.017525
Si Si4 0.876568 0.729679 0.269058
Si Si5 0.922293 0.492067 0.255441
Si Si6 0.409834 0.265044 0.016586
Si Si7 0.810723 0.529638 0.561083
O O1 0.500000 0.500000 0.500000
O O2 0.411612 0.480247 0.143346
O O3 0.000000 0.000000 0.500000
O O4 0.118733 0.045070 0.280865
O O5 0.227229 0.733207 0.792862
O O6 0.155764 0.727717 0.413014
O O7 0.654473 0.226927 0.419700
O O8 0.516233 0.165250 0.631352
O O9 0.080152 0.720298 0.051862
O O10 0.984601 0.700535 0.301910
O O11 0.944683 0.663694 0.798320
O O12 0.394107 0.181781 0.937423
O O13 0.794581 0.583298 0.485611
O O14 0.586945 0.443595 0.231311
O O15 0.077028 0.918484 0.055543
#
# Coordination Sequence:
#
# PCOD9026753 Si02
#       7
#     2   2   2   2   2   2   2
#     4  12  24  40  64  96 130 170 217 268 325 386
#     4   9  18  36  61  91 127 168 214 265 321 382
#     4  10  22  41  65  95 130 171 217 268 324 385
#     4  11  23  42  64  91 128 172 217 266 324 386
#     4   9  18  36  61  91 127 168 214 265 321 382
#     4  11  23  42  64  91 128 172 217 266 324 386
#     4  10  22  41  65  95 130 171 217 268 324 385
#
# _framework density 24.064730999999998
#
# number of rings (size 3 to 8) (size 9 to 14) (size 15 to 20)
#    0.000    1.714    0.000    4.286    0.000    2.857 
#    0.000   17.143    0.000   15.429    0.000    0.000 
#    0.000    0.000    0.000    0.000    0.000    0.000 
#
# Total GULP energy -78022.468440 kJ/mol
# GULP energy per Si atom -5573.033460 kJ/mol
# Density = 2.400996 g / cm^3
# Si number density = 24.064731 Si / 1000 Ang^3
#
#
#
# Elastic Constant Matrix: (Units=GPa)
#
#
# Indices 1 2 3 4 5 6 
#
# 1 52.0656 112.4522 113.5704 -86.9974 100.7282 -29.8842
# 2 112.4522 97.0701 11.4214 51.3162 -22.5256 -33.8883
# 3 113.5704 11.4214 79.0791 45.8370 -6.7417 -12.3792
# 4 -86.9974 51.3162 45.8370 -15.8704 53.0369 13.7281
# 5 100.7282 -22.5256 -6.7417 53.0369 20.1128 -30.0650
# 6 -29.8842 -33.8883 -12.3792 13.7281 -30.0650 93.0066
#
#
#
# Elastic Compliance Matrix: (Units=1/GPa)
#
#
# Indices 1 2 3 4 5 6 
#
# 1 0.003913 0.001081 -0.001184 -0.006432 0.003542 0.003588
# 2 0.001081 0.008214 -0.004212 0.002677 -0.002169 0.001684
# 3 -0.001184 -0.004212 0.012218 0.002934 -0.006792 -0.002918
# 4 -0.006432 0.002677 0.002934 0.011113 0.006561 -0.000220
# 5 0.003542 -0.002169 -0.006792 0.006561 0.014891 0.003289
# 6 0.003588 0.001684 -0.002918 -0.000220 0.003289 0.013226
#
#
# Mechanical properties :
#
#
# Convention : Reuss Voigt Hill
#
# Bulk Modulus (GPa) = 63.63215 78.12253 70.87734
# Shear Modulus (GPa) = 64.56458 18.83453 41.69955
#
# Velocity S-wave (km/s) = 5.18534 2.80064 4.16722
# Velocity P-wave (km/s) = 7.89619 6.55684 7.25748
#
# Compressibility (1/GPa) = 0.01571533
#
# Stress axis : x y z
#
# Youngs Moduli (GPa) = 255.56071 121.73894 81.84962
#
# Poissons Ratio (x) = -0.13162 0.09690
# Poissons Ratio (y) = -0.27631 0.34475
# Poissons Ratio (z) = 0.30255 0.51277
#
# Static dielectric constant tensor:
#      x y z
#    x 2.198770 -0.056430 -0.070060 
#    y -0.056430 1.920590 -0.031520 
#    z -0.070060 -0.031520 1.971860 
# 
# From -- ./inp_files/121500.got.cif
#   From: 2010.05.17/outbox.cif.g08.bks.cpg/sg2_61_cif.got.tgz:121500.got - 2010.06.03 11:33:40.
