data_PCOD9026684
_publ_section_title
;
Structure prediction by ZEFSAII (Michael W. Deem and Ramdas Pophale) SiO2 
 PCOD9026684
Probable space group: P -1
;
_chemical_formula_sum "Si O2"
_cell_formula_units_Z 12
_cell_length_a 7.316556
_cell_length_b 14.027143
_cell_length_c 13.544377
_cell_angle_alpha 21.638501
_cell_angle_beta 103.442311
_cell_angle_gamma 95.739768
_cell_volume 471.710760
_symmetry_space_group_name_H-M "P -1"
_symmetry_group_IT_number 2
_symmetry_cell_setting 'triclinic'
loop_
_space_group_symop_operation_xyz
x,y,z
-x,-y,-z
loop_
_atom_site_type_symbol
_atom_site_label
_atom_site_fract_x
_atom_site_fract_y
_atom_site_fract_z
Si Si1 0.384141 0.792135 0.657824
Si Si2 0.166276 0.920600 0.692695
Si Si3 0.807514 0.361201 0.708187
Si Si4 0.264032 0.131765 0.912227
Si Si5 0.971613 0.486696 0.808037
Si Si6 0.397979 0.075292 0.199634
O O1 0.187994 0.908277 0.588156
O O2 0.500000 0.000000 0.500000
O O3 0.378130 0.827320 0.505057
O O4 0.500000 0.500000 0.000000
O O5 0.397240 0.869777 0.805122
O O6 0.061345 0.205971 0.460226
O O7 0.095681 0.674492 0.958531
O O8 0.699125 0.611495 0.382268
O O9 0.833415 0.467383 0.717402
O O10 0.034429 0.243333 0.811069
O O11 0.724593 0.109796 0.930201
O O12 0.382913 0.027020 0.128164
O O13 0.201048 0.325904 0.964711
#
# Coordination Sequence:
#
# PCOD9026684 Si02
#       6
#     2   2   2   2   2   2
#     4  10  22  41  65  92 126 163 205 261 312 365
#     4  11  24  42  63  95 129 161 211 264 307 369
#     4   9  18  35  56  88 123 155 204 256 300 360
#     4   9  18  34  60  85 118 164 202 248 309 364
#     4  11  24  41  66  94 127 168 208 256 314 373
#     4  10  24  43  67  92 126 170 210 254 318 374
#
# _framework density 25.439316999999999
#
# number of rings (size 3 to 8) (size 9 to 14) (size 15 to 20)
#    0.000    2.000    0.000    3.000    0.000   13.333 
#    0.000    5.000    0.000    0.000    0.000    0.000 
#    0.000    0.000    0.000    0.000    0.000    0.000 
#
# Total GULP energy -67202.600366 kJ/mol
# GULP energy per Si atom -5600.216697 kJ/mol
# Density = 2.538142 g / cm^3
# Si number density = 25.439317 Si / 1000 Ang^3
#
#
#
# Elastic Constant Matrix: (Units=GPa)
#
#
# Indices 1 2 3 4 5 6 
#
# 1 56.9164 -13.3636 -0.8460 -12.0203 10.9146 -13.4253
# 2 -13.3636 132.7092 31.8330 16.6940 1.4580 14.6824
# 3 -0.8460 31.8330 119.1826 7.7264 -3.8638 2.1463
# 4 -12.0203 16.6940 7.7264 46.6078 -2.7250 -4.5364
# 5 10.9146 1.4580 -3.8638 -2.7250 39.4798 -0.8397
# 6 -13.4253 14.6824 2.1463 -4.5364 -0.8397 31.4350
#
#
#
# Elastic Compliance Matrix: (Units=1/GPa)
#
#
# Indices 1 2 3 4 5 6 
#
# 1 0.022532 0.000589 -0.000778 0.006388 -0.005670 0.010171
# 2 0.000589 0.008997 -0.002148 -0.003192 -0.001017 -0.004292
# 3 -0.000778 -0.002148 0.009052 -0.000871 0.001119 -0.000043
# 4 0.006388 -0.003192 -0.000871 0.025171 0.000172 0.007915
# 5 -0.005670 -0.001017 0.001119 0.000172 0.027029 -0.001276
# 6 0.010171 -0.004292 -0.000043 0.007915 -0.001276 0.039271
#
#
# Mechanical properties :
#
#
# Convention : Reuss Voigt Hill
#
# Bulk Modulus (GPa) = 27.84961 38.22834 33.03898
# Shear Modulus (GPa) = 33.62569 42.91684 38.27127
#
# Velocity S-wave (km/s) = 3.63960 4.11180 3.88289
# Velocity P-wave (km/s) = 5.35103 6.13208 5.75482
#
# Compressibility (1/GPa) = 0.03590715
#
# Stress axis : x y z
#
# Youngs Moduli (GPa) = 44.38159 111.14456 110.47138
#
# Poissons Ratio (x) = -0.06548 0.08600
# Poissons Ratio (y) = -0.02615 0.23726
# Poissons Ratio (z) = 0.03455 0.23870
#
# Static dielectric constant tensor:
#      x y z
#    x 2.065550 -0.002170 0.121960 
#    y -0.002170 2.011700 0.046070 
#    z 0.121960 0.046070 1.979590 
# 
# From -- ./inp_files/45691.got.cif
#   From: 2010.05.17/outbox.cif.g08.bks.cpg/sg2_23_cif.got.tgz:45691.got - 2010.06.03 11:33:40.
