data_PCOD9026140
_publ_section_title
;
Structure prediction by ZEFSAII (Michael W. Deem and Ramdas Pophale) SiO2 
 PCOD9026140
Probable space group: P -1
;
_chemical_formula_sum "Si O2"
_cell_formula_units_Z 14
_cell_length_a 8.090079
_cell_length_b 12.676930
_cell_length_c 5.456850
_cell_angle_alpha 88.894810
_cell_angle_beta 82.533575
_cell_angle_gamma 94.472068
_cell_volume 552.960602
_symmetry_space_group_name_H-M "P -1"
_symmetry_group_IT_number 2
_symmetry_cell_setting 'triclinic'
loop_
_space_group_symop_operation_xyz
x,y,z
-x,-y,-z
loop_
_atom_site_type_symbol
_atom_site_label
_atom_site_fract_x
_atom_site_fract_y
_atom_site_fract_z
Si Si1 0.045998 0.227823 0.459185
Si Si2 0.447340 0.088114 0.813221
Si Si3 0.666867 0.701782 0.281144
Si Si4 0.106326 0.418498 0.118617
Si Si5 0.384697 0.566102 0.191686
Si Si6 0.870585 0.049885 0.213562
Si Si7 0.247396 0.779624 0.128655
O O1 0.990706 0.109761 0.387093
O O2 0.930017 0.244724 0.711236
O O3 0.237097 0.250655 0.503556
O O4 0.010729 0.319090 0.271503
O O5 0.363357 0.196786 0.891334
O O6 0.629117 0.148518 0.710565
O O7 0.294282 0.029101 0.689457
O O8 0.500000 0.000000 0.000000
O O9 0.499767 0.626378 0.373397
O O10 0.779918 0.630094 0.106023
O O11 0.225320 0.486604 0.286563
O O12 0.000000 0.500000 0.000000
O O13 0.320926 0.668763 0.062343
O O14 0.500000 0.500000 0.000000
O O15 0.783827 0.145031 0.093004
O O16 0.000000 0.000000 0.000000
#
# Coordination Sequence:
#
# PCOD9026140 Si02
#       7
#     2   2   2   2   2   2   2
#     4  12  24  38  64  94 128 164 208 268 312 368
#     4   9  20  41  65  87 124 166 203 255 311 368
#     4  10  22  41  62  94 127 159 212 260 309 376
#     4  11  23  41  65  91 125 168 209 257 317 373
#     4   9  20  41  65  87 124 166 203 255 311 368
#     4  11  23  41  65  91 125 168 209 257 317 373
#     4  10  22  41  62  94 127 159 212 260 309 376
#
# _framework density 25.318261
#
# number of rings (size 3 to 8) (size 9 to 14) (size 15 to 20)
#    0.000    1.714    0.000    4.286    0.000    5.714 
#    0.000   25.714    0.000    0.000    0.000    0.000 
#    0.000    0.000    0.000    0.000    0.000    0.000 
#
# Total GULP energy -78105.223962 kJ/mol
# GULP energy per Si atom -5578.944569 kJ/mol
# Density = 2.526064 g / cm^3
# Si number density = 25.318261 Si / 1000 Ang^3
#
#
#
# Elastic Constant Matrix: (Units=GPa)
#
#
# Indices 1 2 3 4 5 6 
#
# 1 98.2156 64.8609 9.0429 22.8713 38.8338 34.9187
# 2 64.8609 191.3015 26.5458 8.8904 18.5847 6.7065
# 3 9.0429 26.5458 32.1706 6.9519 13.9665 3.7190
# 4 22.8713 8.8904 6.9519 39.5423 11.3045 10.0858
# 5 38.8338 18.5847 13.9665 11.3045 24.7434 11.6647
# 6 34.9187 6.7065 3.7190 10.0858 11.6647 86.4732
#
#
#
# Elastic Compliance Matrix: (Units=1/GPa)
#
#
# Indices 1 2 3 4 5 6 
#
# 1 0.065449 -0.017363 0.044996 -0.008683 -0.105564 -0.011765
# 2 -0.017363 0.010604 -0.015900 0.002298 0.025734 0.003133
# 3 0.044996 -0.015900 0.074927 -0.006863 -0.094732 -0.006580
# 4 -0.008683 0.002298 -0.006863 0.030498 0.001934 -0.000195
# 5 -0.105564 0.025734 -0.094732 0.001934 0.233214 0.013021
# 6 -0.011765 0.003133 -0.006580 -0.000195 0.013021 0.014621
#
#
# Mechanical properties :
#
#
# Convention : Reuss Voigt Hill
#
# Bulk Modulus (GPa) = 5.73248 58.06524 31.89886
# Shear Modulus (GPa) = 10.77590 44.90097 27.83843
#
# Velocity S-wave (km/s) = 2.06529 4.21582 3.31953
# Velocity P-wave (km/s) = 2.82069 6.83238 5.22674
#
# Compressibility (1/GPa) = 0.17444472
#
# Stress axis : x y z
#
# Youngs Moduli (GPa) = 15.27897 94.30347 13.34633
#
# Poissons Ratio (x) = 1.63740 -0.60053
# Poissons Ratio (y) = 0.26529 0.21221
# Poissons Ratio (z) = -0.68749 1.49946
#
# Static dielectric constant tensor:
#      x y z
#    x 1.884200 0.089730 -0.329320 
#    y 0.089730 1.967540 0.144890 
#    z -0.329320 0.144890 1.113570 
# 
# From -- ./inp_files/27737.got.cif
#   From: 2010.05.17/outbox.cif.g08.bks.cpg/sg2_14_cif.got.tgz:27737.got - 2010.06.03 11:33:40.
