data_PCOD9026010
_publ_section_title
;
Structure prediction by ZEFSAII (Michael W. Deem and Ramdas Pophale) SiO2 
 PCOD9026010
Probable space group: P -1
;
_chemical_formula_sum "Si O2"
_cell_formula_units_Z 16
_cell_length_a 5.756364
_cell_length_b 5.084580
_cell_length_c 24.121314
_cell_angle_alpha 66.486638
_cell_angle_beta 107.307762
_cell_angle_gamma 104.252860
_cell_volume 611.474285
_symmetry_space_group_name_H-M "P -1"
_symmetry_group_IT_number 2
_symmetry_cell_setting 'triclinic'
loop_
_space_group_symop_operation_xyz
x,y,z
-x,-y,-z
loop_
_atom_site_type_symbol
_atom_site_label
_atom_site_fract_x
_atom_site_fract_y
_atom_site_fract_z
Si Si1 0.103821 0.467346 0.637717
Si Si2 0.482446 0.832627 0.954881
Si Si3 0.217146 0.256081 0.478897
Si Si4 0.533423 0.969371 0.592484
Si Si5 0.448539 0.144456 0.746316
Si Si6 0.661981 0.558177 0.814038
Si Si7 0.071466 0.283960 0.070277
Si Si8 0.147184 0.331622 0.292150
O O1 0.319334 0.701057 0.609624
O O2 0.206100 0.183335 0.691258
O O3 0.899728 0.466013 0.574777
O O4 0.037105 0.620036 0.676878
O O5 0.728334 0.900782 0.927681
O O6 0.199531 0.857470 0.914075
O O7 0.500000 0.500000 0.000000
O O8 0.500000 0.000000 0.000000
O O9 0.333019 0.128724 0.443941
O O10 0.402482 0.248609 0.544625
O O11 0.000000 0.000000 0.500000
O O12 0.708795 0.935773 0.659614
O O13 0.482230 0.287109 0.798187
O O14 0.657982 0.369737 0.712452
O O15 0.507447 0.824365 0.779540
O O16 0.777261 0.548429 0.883022
O O17 0.885253 0.648620 0.777783
O O18 0.000000 0.500000 0.000000
#
# Coordination Sequence:
#
# PCOD9026010 Si02
#       8
#     2   2   2   2   2   2   2   2
#     4   9  15  31  53  82 114 159 201 256 303 367
#     4  10  22  41  66  96 130 168 208 257 320 385
#     4   8  13  21  46  83 116 157 199 249 307 361
#     4   8  13  25  46  80 117 153 200 252 302 365
#     4   9  21  39  55  85 119 157 203 251 305 367
#     4  10  22  41  61  88 122 160 205 253 311 376
#     4  10  23  44  69  99 133 172 216 270 329 389
#     4   8  18  34  53  79 115 157 202 249 309 365
#
# _framework density 26.166267999999999
#
# number of rings (size 3 to 8) (size 9 to 14) (size 15 to 20)
#    0.750    2.250    0.000    0.375    0.000    5.000 
#    4.500    0.000    0.000    0.750    0.000   26.250 
#    0.000    0.000    0.000    0.000    0.000    0.000 
#
# Total GULP energy -89261.788599 kJ/mol
# GULP energy per Si atom -5578.861787 kJ/mol
# Density = 2.610671 g / cm^3
# Si number density = 26.166268 Si / 1000 Ang^3
#
#
#
# Elastic Constant Matrix: (Units=GPa)
#
#
# Indices 1 2 3 4 5 6 
#
# 1 160.4757 29.8639 51.8824 16.5226 5.2194 -6.9305
# 2 29.8639 102.7379 26.5897 5.6108 5.6193 -23.0187
# 3 51.8824 26.5897 141.1892 2.3475 6.9944 -1.4245
# 4 16.5226 5.6108 2.3475 41.1195 -3.7088 6.1950
# 5 5.2194 5.6193 6.9944 -3.7088 43.2154 9.7360
# 6 -6.9305 -23.0187 -1.4245 6.1950 9.7360 27.8014
#
#
#
# Elastic Compliance Matrix: (Units=1/GPa)
#
#
# Indices 1 2 3 4 5 6 
#
# 1 0.007676 -0.000830 -0.002528 -0.003273 -0.001197 0.002246
# 2 -0.000830 0.014087 -0.001896 -0.004031 -0.004920 0.013981
# 3 -0.002528 -0.001896 0.008346 0.001061 -0.000277 -0.001912
# 4 -0.003273 -0.004031 0.001061 0.028563 0.006032 -0.012576
# 5 -0.001197 -0.004920 -0.000277 0.006032 0.027986 -0.015531
# 6 0.002246 0.013981 -0.001912 -0.012576 -0.015531 0.056248
#
#
# Mechanical properties :
#
#
# Convention : Reuss Voigt Hill
#
# Bulk Modulus (GPa) = 51.01835 69.00830 60.01333
# Shear Modulus (GPa) = 31.26026 42.16506 36.71266
#
# Velocity S-wave (km/s) = 3.46016 4.01861 3.74980
# Velocity P-wave (km/s) = 5.95850 6.92550 6.46012
#
# Compressibility (1/GPa) = 0.01960079
#
# Stress axis : x y z
#
# Youngs Moduli (GPa) = 130.27412 70.98654 119.82372
#
# Poissons Ratio (x) = 0.05889 0.30293
# Poissons Ratio (y) = 0.10808 0.22722
# Poissons Ratio (z) = 0.32935 0.13461
#
# Static dielectric constant tensor:
#      x y z
#    x 2.180630 0.087550 0.036560 
#    y 0.087550 2.041240 -0.032670 
#    z 0.036560 -0.032670 2.067360 
# 
# From -- ./inp_files/614680.got.cif
#   From: 2010.05.17/outbox.cif.g08.bks.cpg/sg2_308_cif.got.tgz:614680.got - 2010.06.03 11:33:40.
