data_PCOD9026664
_publ_section_title
;
Structure prediction by ZEFSAII (Michael W. Deem and Ramdas Pophale) SiO2 
 PCOD9026664
Probable space group: P -1
;
_chemical_formula_sum "Si O2"
_cell_formula_units_Z 16
_cell_length_a 5.521950
_cell_length_b 8.399721
_cell_length_c 17.034560
_cell_angle_alpha 76.665627
_cell_angle_beta 75.631752
_cell_angle_gamma 87.956084
_cell_volume 744.567684
_symmetry_space_group_name_H-M "P -1"
_symmetry_group_IT_number 2
_symmetry_cell_setting 'triclinic'
loop_
_space_group_symop_operation_xyz
x,y,z
-x,-y,-z
loop_
_atom_site_type_symbol
_atom_site_label
_atom_site_fract_x
_atom_site_fract_y
_atom_site_fract_z
Si Si1 0.835189 0.727791 0.643056
Si Si2 0.084187 0.908442 0.354679
Si Si3 0.060885 0.099778 0.904988
Si Si4 0.037645 0.486343 0.905832
Si Si5 0.626029 0.143824 0.819233
Si Si6 0.818688 0.360989 0.493279
Si Si7 0.618372 0.829283 0.480704
Si Si8 0.596869 0.522784 0.821337
O O1 0.720087 0.765849 0.563388
O O2 0.685433 0.606115 0.724324
O O3 0.098689 0.656182 0.602106
O O4 0.865814 0.900324 0.663146
O O5 0.249174 0.846019 0.277714
O O6 0.139921 0.807364 0.440888
O O7 0.786599 0.879677 0.385757
O O8 0.048932 0.294240 0.902883
O O9 0.344218 0.067670 0.855470
O O10 0.838119 0.061122 0.865377
O O11 0.000000 0.000000 0.000000
O O12 0.310728 0.566228 0.856876
O O13 0.805829 0.560299 0.867355
O O14 0.000000 0.500000 0.000000
O O15 0.599580 0.327839 0.831710
O O16 0.523541 0.335055 0.518928
O O17 0.000000 0.500000 0.500000
O O18 0.500000 0.000000 0.500000
#
# Coordination Sequence:
#
# PCOD9026664 Si02
#       8
#     2   2   2   2   2   2   2   2
#     4  11  23  38  61  92 123 168 215 267 318 383
#     4  11  23  38  61  92 123 168 215 267 318 383
#     4  10  22  41  65  91 126 163 206 260 321 386
#     4  10  22  41  65  91 126 163 206 260 321 386
#     4  10  23  41  61  93 129 164 208 266 320 380
#     4  11  23  41  61  89 125 166 216 260 325 378
#     4  11  21  41  65  86 130 171 215 273 323 373
#     4  10  23  41  61  93 129 164 208 266 320 380
#
# _framework density 21.488979
#
# number of rings (size 3 to 8) (size 9 to 14) (size 15 to 20)
#    0.000    1.500    2.500    2.250    3.500    4.000 
#    4.500    0.000    0.000    0.000    0.000    0.000 
#    0.000    0.000    0.000    0.000    0.000    0.000 
#
# Total GULP energy -89091.824328 kJ/mol
# GULP energy per Si atom -5568.239020 kJ/mol
# Density = 2.144007 g / cm^3
# Si number density = 21.488979 Si / 1000 Ang^3
#
#
#
# Elastic Constant Matrix: (Units=GPa)
#
#
# Indices 1 2 3 4 5 6 
#
# 1 109.0246 21.7826 34.8773 -10.1084 -17.3330 16.9912
# 2 21.7826 29.4329 -18.4203 -3.8984 -2.4407 5.0934
# 3 34.8773 -18.4203 102.9960 -14.2663 -21.3050 -3.0665
# 4 -10.1084 -3.8984 -14.2663 38.8226 -1.0909 -1.0651
# 5 -17.3330 -2.4407 -21.3050 -1.0909 36.0743 -0.9763
# 6 16.9912 5.0934 -3.0665 -1.0651 -0.9763 9.9556
#
#
#
# Elastic Compliance Matrix: (Units=1/GPa)
#
#
# Indices 1 2 3 4 5 6 
#
# 1 0.020928 -0.017025 -0.010834 -0.001026 0.001655 -0.030293
# 2 -0.017025 0.059512 0.019468 0.009090 0.007790 0.006343
# 3 -0.010834 0.019468 0.020140 0.007227 0.008668 0.016356
# 4 -0.001026 0.009090 0.007227 0.029292 0.005357 0.002986
# 5 0.001655 0.007790 0.008668 0.005357 0.034318 -0.000202
# 6 -0.030293 0.006343 0.016356 0.002986 -0.000202 0.154238
#
#
# Mechanical properties :
#
#
# Convention : Reuss Voigt Hill
#
# Bulk Modulus (GPa) = 11.93333 35.32586 23.62960
# Shear Modulus (GPa) = 13.76864 30.51810 22.14337
#
# Velocity S-wave (km/s) = 2.53401 3.77261 3.21355
# Velocity P-wave (km/s) = 3.75858 5.95412 4.97888
#
# Compressibility (1/GPa) = 0.08379892
#
# Stress axis : x y z
#
# Youngs Moduli (GPa) = 47.78180 16.80340 49.65145
#
# Poissons Ratio (x) = 0.28608 0.53790
# Poissons Ratio (y) = 0.81350 -0.96661
# Poissons Ratio (z) = 0.51765 -0.32713
#
# Static dielectric constant tensor:
#      x y z
#    x 2.535020 -0.217270 -0.071180 
#    y -0.217270 1.837210 0.049570 
#    z -0.071180 0.049570 1.728460 
# 
# From -- ./inp_files/473523.got.cif
#   From: 2010.05.17/outbox.cif.g08.bks.cpg/sg2_237_cif.got.tgz:473523.got - 2010.06.03 11:33:40.
