data_PCOD9026963
_publ_section_title
;
Structure prediction by ZEFSAII (Michael W. Deem and Ramdas Pophale) SiO2 
 PCOD9026963
Probable space group: P -1
;
_chemical_formula_sum "Si O2"
_cell_formula_units_Z 16
_cell_length_a 14.865403
_cell_length_b 11.864904
_cell_length_c 8.260932
_cell_angle_alpha 107.477083
_cell_angle_beta 109.620853
_cell_angle_gamma 28.281891
_cell_volume 650.237409
_symmetry_space_group_name_H-M "P -1"
_symmetry_group_IT_number 2
_symmetry_cell_setting 'triclinic'
loop_
_space_group_symop_operation_xyz
x,y,z
-x,-y,-z
loop_
_atom_site_type_symbol
_atom_site_label
_atom_site_fract_x
_atom_site_fract_y
_atom_site_fract_z
Si Si1 0.491011 0.677897 0.992700
Si Si2 0.799720 0.171555 0.034173
Si Si3 0.519424 0.280693 0.363661
Si Si4 0.578723 0.876902 0.704880
Si Si5 0.189440 0.308902 0.927474
Si Si6 0.014912 0.588745 0.417257
Si Si7 0.743611 0.590909 0.270146
Si Si8 0.222294 0.776679 0.570481
O O1 0.626636 0.417260 0.935591
O O2 0.614425 0.618590 0.167237
O O3 0.278111 0.880471 0.021813
O O4 0.497293 0.727917 0.842008
O O5 0.773289 0.230828 0.233963
O O6 0.000000 0.000000 0.000000
O O7 0.501354 0.170380 0.381328
O O8 0.348043 0.541541 0.455101
O O9 0.696724 0.183736 0.429399
O O10 0.789560 0.645626 0.659606
O O11 0.414827 0.140860 0.656929
O O12 0.637324 0.864667 0.914734
O O13 0.181159 0.434663 0.864360
O O14 0.155613 0.240168 0.742462
O O15 0.000000 0.500000 0.000000
O O16 0.081637 0.621940 0.592290
O O17 0.000000 0.500000 0.500000
O O18 0.000000 0.000000 0.500000
#
# Coordination Sequence:
#
# PCOD9026963 Si02
#       8
#     2   2   2   2   2   2   2   2
#     4  10  22  41  66  92 129 170 213 269 320 384
#     4  10  22  44  67  94 124 167 219 266 328 385
#     4  10  22  41  66  93 128 169 214 270 320 379
#     4  11  21  39  63  93 127 174 211 257 319 390
#     4   9  19  38  59  83 123 169 212 256 306 372
#     4   9  21  40  56  84 130 170 209 263 308 376
#     4  11  21  39  61  92 133 166 211 257 324 383
#     4  10  22  44  66  94 128 163 218 272 324 382
#
# _framework density 24.606397000000001
#
# number of rings (size 3 to 8) (size 9 to 14) (size 15 to 20)
#    0.000    2.000    1.250    1.500    1.750    1.000 
#   13.500    0.000    0.000    0.000    0.000    0.000 
#    0.000    0.000    0.000    0.000    0.000    0.000 
#
# Total GULP energy -89108.171304 kJ/mol
# GULP energy per Si atom -5569.260707 kJ/mol
# Density = 2.455039 g / cm^3
# Si number density = 24.606397 Si / 1000 Ang^3
#
#
#
# Elastic Constant Matrix: (Units=GPa)
#
#
# Indices 1 2 3 4 5 6 
#
# 1 140.7067 43.8625 35.9712 25.4233 3.9001 -36.6512
# 2 43.8625 71.4048 20.9105 0.0688 -1.0934 -23.2257
# 3 35.9712 20.9105 106.2695 -25.4413 24.7605 -9.5027
# 4 25.4233 0.0688 -25.4413 37.6502 -12.1007 -12.4763
# 5 3.9001 -1.0934 24.7605 -12.1007 54.8159 6.8811
# 6 -36.6512 -23.2257 -9.5027 -12.4763 6.8811 46.9208
#
#
#
# Elastic Compliance Matrix: (Units=1/GPa)
#
#
# Indices 1 2 3 4 5 6 
#
# 1 0.013479 -0.005427 -0.005721 -0.012275 -0.001653 0.003662
# 2 -0.005427 0.019670 -0.000264 0.006180 0.001398 0.006882
# 3 -0.005721 -0.000264 0.016081 0.014450 -0.004061 0.003095
# 4 -0.012275 0.006180 0.014450 0.048844 0.004150 0.008776
# 5 -0.001653 0.001398 -0.004061 0.004150 0.021576 -0.003482
# 6 0.003662 0.006882 0.003095 0.008776 -0.003482 0.031051
#
#
# Mechanical properties :
#
#
# Convention : Reuss Voigt Hill
#
# Bulk Modulus (GPa) = 37.87101 57.76327 47.81714
# Shear Modulus (GPa) = 27.42358 42.38651 34.90505
#
# Velocity S-wave (km/s) = 3.34202 4.15490 3.77043
# Velocity P-wave (km/s) = 5.50602 6.82228 6.19918
#
# Compressibility (1/GPa) = 0.02640542
#
# Stress axis : x y z
#
# Youngs Moduli (GPa) = 74.19103 50.84006 62.18626
#
# Poissons Ratio (x) = 0.27589 0.35575
# Poissons Ratio (y) = 0.40261 0.01644
# Poissons Ratio (z) = 0.42442 0.01344
#
# Static dielectric constant tensor:
#      x y z
#    x 2.090080 0.030220 0.095380 
#    y 0.030220 1.948280 0.016720 
#    z 0.095380 0.016720 2.165710 
# 
# From -- ./inp_files/308111.got.cif
#   From: 2010.05.17/outbox.cif.g08.bks.cpg/sg2_155_cif.got.tgz:308111.got - 2010.06.03 11:33:40.
