data_PCOD9026020
_publ_section_title
;
Structure prediction by ZEFSAII (Michael W. Deem and Ramdas Pophale) SiO2 
 PCOD9026020
Probable space group: P -1
;
_chemical_formula_sum "Si O2"
_cell_formula_units_Z 16
_cell_length_a 14.979915
_cell_length_b 12.712926
_cell_length_c 15.844444
_cell_angle_alpha 37.671594
_cell_angle_beta 151.194640
_cell_angle_gamma 124.218101
_cell_volume 795.394392
_symmetry_space_group_name_H-M "P -1"
_symmetry_group_IT_number 2
_symmetry_cell_setting 'triclinic'
loop_
_space_group_symop_operation_xyz
x,y,z
-x,-y,-z
loop_
_atom_site_type_symbol
_atom_site_label
_atom_site_fract_x
_atom_site_fract_y
_atom_site_fract_z
Si Si1 0.756580 0.565582 0.123931
Si Si2 0.660328 0.683252 0.472432
Si Si3 0.215272 0.424957 0.540396
Si Si4 0.830003 0.161812 0.813331
Si Si5 0.197359 0.749917 0.076968
Si Si6 0.526526 0.006134 0.617225
Si Si7 0.503070 0.378197 0.963345
Si Si8 0.220389 0.052306 0.476655
O O1 0.675779 0.538254 0.165971
O O2 0.999857 0.444146 0.387471
O O3 0.690407 0.792146 0.917378
O O4 0.621595 0.511562 0.979031
O O5 0.723684 0.689376 0.424182
O O6 0.418173 0.735830 0.243103
O O7 0.773576 0.465489 0.741831
O O8 0.713831 0.824196 0.484013
O O9 0.179088 0.637528 0.348527
O O10 0.395039 0.359558 0.800501
O O11 0.869077 0.136498 0.961530
O O12 0.615484 0.154092 0.622065
O O13 0.000000 0.000000 0.000000
O O14 0.024210 0.853801 0.797887
O O15 0.500000 0.000000 0.500000
O O16 0.318311 0.057049 0.463601
O O17 0.672181 0.168470 0.265727
#
# Coordination Sequence:
#
# PCOD9026020 Si02
#       8
#     2   2   2   2   2   2   2   2
#     4  10  22  42  60  90 126 161 199 250 310 356
#     4  10  23  41  62  91 121 161 207 248 304 363
#     4  11  23  40  64  89 126 163 203 254 300 361
#     4  11  20  36  63  97 123 154 200 253 314 364
#     4  10  22  41  61  90 128 157 198 253 309 363
#     4  11  21  36  62  96 126 150 199 256 310 370
#     4  10  24  42  61  91 122 163 209 248 301 363
#     4  11  23  41  64  86 122 167 200 249 305 361
#
# _framework density 20.115808999999999
#
# number of rings (size 3 to 8) (size 9 to 14) (size 15 to 20)
#    0.000    1.500    2.500    2.250    1.750    4.500 
#    0.000    1.250    0.000    0.000    0.000    0.000 
#    0.000    0.000    0.000    0.000    0.000    0.000 
#
# Total GULP energy -89419.879764 kJ/mol
# GULP energy per Si atom -5588.742485 kJ/mol
# Density = 2.007002 g / cm^3
# Si number density = 20.115809 Si / 1000 Ang^3
#
#
#
# Elastic Constant Matrix: (Units=GPa)
#
#
# Indices 1 2 3 4 5 6 
#
# 1 56.2422 26.3257 32.5651 1.4897 4.6686 -10.9675
# 2 26.3257 88.1471 15.9139 9.5906 4.8997 -6.4070
# 3 32.5651 15.9139 75.6900 20.2620 13.9532 -2.0801
# 4 1.4897 9.5906 20.2620 25.6467 -6.7179 4.6814
# 5 4.6686 4.8997 13.9532 -6.7179 19.9353 2.6270
# 6 -10.9675 -6.4070 -2.0801 4.6814 2.6270 28.7958
#
#
#
# Elastic Compliance Matrix: (Units=1/GPa)
#
#
# Indices 1 2 3 4 5 6 
#
# 1 0.032892 -0.008937 -0.020629 0.021006 0.015454 0.004224
# 2 -0.008937 0.015284 0.006705 -0.014255 -0.011670 0.003863
# 3 -0.020629 0.006705 0.041054 -0.046248 -0.042186 0.007968
# 4 0.021006 -0.014255 -0.046248 0.101283 0.067875 -0.021170
# 5 0.015454 -0.011670 -0.042186 0.067875 0.104490 -0.020325
# 6 0.004224 0.003863 0.007968 -0.021170 -0.020325 0.043067
#
#
# Mechanical properties :
#
#
# Convention : Reuss Voigt Hill
#
# Bulk Modulus (GPa) = 22.98364 41.07652 32.03008
# Shear Modulus (GPa) = 12.55358 24.56053 18.55705
#
# Velocity S-wave (km/s) = 2.50084 3.49801 3.04058
# Velocity P-wave (km/s) = 4.44853 6.06458 5.31829
#
# Compressibility (1/GPa) = 0.04350921
#
# Stress axis : x y z
#
# Youngs Moduli (GPa) = 30.40244 65.42944 24.35843
#
# Poissons Ratio (x) = 0.58472 0.50248
# Poissons Ratio (y) = 0.27170 -0.16333
# Poissons Ratio (z) = 0.62716 -0.43871
#
# Static dielectric constant tensor:
#      x y z
#    x 1.723170 0.005980 0.015320 
#    y 0.005980 1.711080 0.000380 
#    z 0.015320 0.000380 1.705550 
# 
# From -- ./inp_files/454328.got.cif
#   From: 2010.05.17/outbox.cif.g08.bks.cpg/sg2_228_cif.got.tgz:454328.got - 2010.06.03 11:33:40.
