data_PCOD9026866
_publ_section_title
;
Structure prediction by ZEFSAII (Michael W. Deem and Ramdas Pophale) SiO2 
 PCOD9026866
Probable space group: P -1
;
_chemical_formula_sum "Si O2"
_cell_formula_units_Z 12
_cell_length_a 6.534924
_cell_length_b 11.607420
_cell_length_c 10.345199
_cell_angle_alpha 145.076803
_cell_angle_beta 102.818450
_cell_angle_gamma 87.627166
_cell_volume 423.935593
_symmetry_space_group_name_H-M "P -1"
_symmetry_group_IT_number 2
_symmetry_cell_setting 'triclinic'
loop_
_space_group_symop_operation_xyz
x,y,z
-x,-y,-z
loop_
_atom_site_type_symbol
_atom_site_label
_atom_site_fract_x
_atom_site_fract_y
_atom_site_fract_z
Si Si1 0.280161 0.811423 0.644545
Si Si2 0.253290 0.994790 0.095672
Si Si3 0.981223 0.925043 0.242023
Si Si4 0.476231 0.416851 0.113353
Si Si5 0.764320 0.534850 0.510401
Si Si6 0.232003 0.665867 0.161732
O O1 0.506741 0.960341 0.770473
O O2 0.303993 0.582358 0.471417
O O3 0.252522 0.894081 0.862805
O O4 0.078975 0.852027 0.573220
O O5 0.226658 0.224863 0.273929
O O6 0.083861 0.892301 0.087099
O O7 0.159072 0.880486 0.325705
O O8 0.750547 0.760268 0.077923
O O9 0.619379 0.429166 0.272816
O O10 0.394167 0.625776 0.259162
O O11 0.638798 0.382479 0.990709
O O12 0.000000 0.500000 0.500000
O O13 0.000000 0.500000 0.000000
#
# Coordination Sequence:
#
# PCOD9026866 Si02
#       6
#     2   2   2   2   2   2
#     4  11  23  40  65  95 136 182 221 268 329 399
#     4  11  24  42  64  97 137 179 222 271 334 394
#     4  11  20  38  68  94 127 171 220 275 328 390
#     4  10  22  41  66 100 131 171 228 273 333 394
#     4  12  25  43  66 101 139 178 218 274 334 399
#     4   9  20  40  70  95 126 176 223 276 331 392
#
# _framework density 28.306187999999999
#
# number of rings (size 3 to 8) (size 9 to 14) (size 15 to 20)
#    0.000    1.333    1.667    5.000    2.333    0.000 
#    3.000    0.833    0.000   10.000    0.000    0.000 
#    0.000    0.000    0.000    0.000    0.000    0.000 
#
# Total GULP energy -67240.545671 kJ/mol
# GULP energy per Si atom -5603.378806 kJ/mol
# Density = 2.824176 g / cm^3
# Si number density = 28.306188 Si / 1000 Ang^3
#
#
#
# Elastic Constant Matrix: (Units=GPa)
#
#
# Indices 1 2 3 4 5 6 
#
# 1 209.5955 79.6664 20.9215 -17.0660 12.7294 1.2149
# 2 79.6664 201.4326 39.6536 -18.1461 -2.0013 -44.4438
# 3 20.9215 39.6536 75.0183 -3.5648 0.1146 1.4444
# 4 -17.0660 -18.1461 -3.5648 42.9950 0.0567 2.2180
# 5 12.7294 -2.0013 0.1146 0.0567 17.8056 3.7141
# 6 1.2149 -44.4438 1.4444 2.2180 3.7141 103.6924
#
#
#
# Elastic Compliance Matrix: (Units=1/GPa)
#
#
# Indices 1 2 3 4 5 6 
#
# 1 0.006149 -0.002516 -0.000291 0.001413 -0.004469 -0.001016
# 2 -0.002516 0.007469 -0.003228 0.001720 0.001993 0.003167
# 3 -0.000291 -0.003228 0.015142 -0.000141 0.000080 -0.001591
# 4 0.001413 0.001720 -0.000141 0.024523 -0.000942 0.000232
# 5 -0.004469 0.001993 0.000080 -0.000942 0.059838 -0.001218
# 6 -0.001016 0.003167 -0.001591 0.000232 -0.001218 0.011074
#
#
# Mechanical properties :
#
#
# Convention : Reuss Voigt Hill
#
# Bulk Modulus (GPa) = 59.92471 85.16994 72.54732
# Shear Modulus (GPa) = 35.25402 55.95226 45.60314
#
# Velocity S-wave (km/s) = 3.53293 4.45081 4.01816
# Velocity P-wave (km/s) = 6.15290 7.52111 6.87115
#
# Compressibility (1/GPa) = 0.01668761
#
# Stress axis : x y z
#
# Youngs Moduli (GPa) = 162.63251 133.89394 66.04284
#
# Poissons Ratio (x) = 0.33686 0.01925
# Poissons Ratio (y) = 0.40916 0.21322
# Poissons Ratio (z) = 0.04739 0.43227
#
# Static dielectric constant tensor:
#      x y z
#    x 2.276740 0.017880 -0.058620 
#    y 0.017880 2.265040 0.062890 
#    z -0.058620 0.062890 2.244670 
# 
# From -- ./inp_files/45109.got.cif
#   From: 2010.05.17/outbox.cif.g08.bks.cpg/sg2_23_cif.got.tgz:45109.got - 2010.06.03 11:33:40.
