data_PCOD9026914
_publ_section_title
;
Structure prediction by ZEFSAII (Michael W. Deem and Ramdas Pophale) SiO2 
 PCOD9026914
Probable space group: P -1
;
_chemical_formula_sum "Si O2"
_cell_formula_units_Z 15
_cell_length_a 11.388875
_cell_length_b 12.559674
_cell_length_c 18.242253
_cell_angle_alpha 144.256821
_cell_angle_beta 153.145101
_cell_angle_gamma 51.589756
_cell_volume 634.142472
_symmetry_space_group_name_H-M "P -1"
_symmetry_group_IT_number 2
_symmetry_cell_setting 'triclinic'
loop_
_space_group_symop_operation_xyz
x,y,z
-x,-y,-z
loop_
_atom_site_type_symbol
_atom_site_label
_atom_site_fract_x
_atom_site_fract_y
_atom_site_fract_z
Si Si1 0.204431 0.403396 0.593827
Si Si2 0.120506 0.520794 0.762936
Si Si3 0.825875 0.332284 0.751689
Si Si4 0.914296 0.980312 0.141586
Si Si5 0.252052 0.956734 0.076676
Si Si6 0.500000 0.000000 0.500000
Si Si7 0.919227 0.182194 0.579549
Si Si8 0.481345 0.555114 0.687500
O O1 0.041656 0.166399 0.371543
O O2 0.433160 0.457462 0.687178
O O3 0.000000 0.500000 0.500000
O O4 0.290033 0.484021 0.767565
O O5 0.068102 0.359774 0.705734
O O6 0.812655 0.483814 0.536836
O O7 0.246751 0.747009 0.984104
O O8 0.629293 0.138096 0.576667
O O9 0.001811 0.264759 0.753624
O O10 0.644489 0.441397 0.671720
O O11 0.000000 0.500000 0.000000
O O12 0.178904 0.921861 0.242420
O O13 0.825683 0.058138 0.061520
O O14 0.659096 0.788744 0.921165
O O15 0.576617 0.109117 0.346960
O O16 0.000000 0.000000 0.000000
O O17 0.000000 0.000000 0.500000
#
# Coordination Sequence:
#
# PCOD9026914 Si02
#       8
#     2   2   2   2   2   1   2   2
#     4  10  22  41  66 109 145 182 249 293 372 447
#     4  11  25  46  74 104 152 193 244 314 374 455
#     4  12  27  47  73 108 144 194 252 310 372 447
#     4  12  23  41  72 108 143 194 242 315 363 438
#     4  12  26  48  77 105 150 199 254 306 378 447
#     4  12  24  44  72 110 150 184 256 312 366 428
#     4  12  31  50  73 115 154 197 251 310 392 451
#     4  11  22  42  73 110 138 192 256 305 362 441
#
# _framework density 23.653988999999999
#
# number of rings (size 3 to 8) (size 9 to 14) (size 15 to 20)
#    0.000    0.533    6.667    1.600    3.733    6.933 
#    0.000    0.000    0.000    0.000    0.000    0.000 
#    0.000    0.000    0.000    0.000    0.000    0.000 
#
# Total GULP energy -83651.058265 kJ/mol
# GULP energy per Si atom -5576.737218 kJ/mol
# Density = 2.360015 g / cm^3
# Si number density = 23.653989 Si / 1000 Ang^3
#
#
#
# Elastic Constant Matrix: (Units=GPa)
#
#
# Indices 1 2 3 4 5 6 
#
# 1 92.6523 30.7431 16.2540 29.0948 -9.8803 -10.6559
# 2 30.7431 75.5487 13.2070 22.4139 -0.1118 3.2291
# 3 16.2540 13.2070 76.0825 10.5801 1.1945 -8.0380
# 4 29.0948 22.4139 10.5801 56.4546 -2.1227 4.4008
# 5 -9.8803 -0.1118 1.1945 -2.1227 28.2449 8.9661
# 6 -10.6559 3.2291 -8.0380 4.4008 8.9661 35.2462
#
#
#
# Elastic Compliance Matrix: (Units=1/GPa)
#
#
# Indices 1 2 3 4 5 6 
#
# 1 0.015290 -0.004379 -0.001216 -0.006145 0.003449 0.004636
# 2 -0.004379 0.016554 -0.001655 -0.003843 -0.000888 -0.002512
# 3 -0.001216 -0.001655 0.014393 -0.001809 -0.002417 0.003907
# 4 -0.006145 -0.003843 -0.001809 0.023194 0.001287 -0.005142
# 5 0.003449 -0.000888 -0.002417 0.001287 0.039898 -0.009737
# 6 0.004636 -0.002512 0.003907 -0.005142 -0.009737 0.034014
#
#
# Mechanical properties :
#
#
# Convention : Reuss Voigt Hill
#
# Bulk Modulus (GPa) = 31.50982 40.52130 36.01556
# Shear Modulus (GPa) = 29.68717 36.26109 32.97413
#
# Velocity S-wave (km/s) = 3.54653 3.91958 3.73771
# Velocity P-wave (km/s) = 5.48822 6.13613 5.82120
#
# Compressibility (1/GPa) = 0.03173613
#
# Stress axis : x y z
#
# Youngs Moduli (GPa) = 65.40100 60.40804 69.47821
#
# Poissons Ratio (x) = 0.26455 0.08449
# Poissons Ratio (y) = 0.28642 0.11499
# Poissons Ratio (z) = 0.07954 0.09998
#
# Static dielectric constant tensor:
#      x y z
#    x 1.969360 -0.071080 -0.027240 
#    y -0.071080 1.955770 -0.025660 
#    z -0.027240 -0.025660 1.917150 
# 
# From -- ./inp_files/595563.got.cif
#   From: 2010.05.17/outbox.cif.g08.bks.cpg/sg2_298_cif.got.tgz:595563.got - 2010.06.03 11:33:40.
