data_PCOD9026387
_publ_section_title
;
Structure prediction by ZEFSAII (Michael W. Deem and Ramdas Pophale) SiO2 
 PCOD9026387
Probable space group: P -1
;
_chemical_formula_sum "Si O2"
_cell_formula_units_Z 12
_cell_length_a 13.389016
_cell_length_b 5.036855
_cell_length_c 20.524358
_cell_angle_alpha 87.615763
_cell_angle_beta 24.442222
_cell_angle_gamma 96.698880
_cell_volume 530.749761
_symmetry_space_group_name_H-M "P -1"
_symmetry_group_IT_number 2
_symmetry_cell_setting 'triclinic'
loop_
_space_group_symop_operation_xyz
x,y,z
-x,-y,-z
loop_
_atom_site_type_symbol
_atom_site_label
_atom_site_fract_x
_atom_site_fract_y
_atom_site_fract_z
Si Si1 0.134705 0.084343 0.224619
Si Si2 0.690995 0.824809 0.389008
Si Si3 0.697823 0.622582 0.136359
Si Si4 0.187001 0.327678 0.388028
Si Si5 0.966957 0.236606 0.932880
Si Si6 0.331246 0.660583 0.171947
O O1 0.158338 0.396218 0.231694
O O2 0.191116 0.889728 0.249722
O O3 0.381653 0.166556 0.028178
O O4 0.870458 0.916728 0.345517
O O5 0.500000 0.500000 0.500000
O O6 0.888725 0.842993 0.211948
O O7 0.500000 0.000000 0.500000
O O8 0.401211 0.406645 0.316335
O O9 0.835077 0.670396 0.124634
O O10 0.853260 0.487426 0.996688
O O11 0.728932 0.940705 0.093508
O O12 0.353306 0.486098 0.224272
O O13 0.000000 0.500000 0.500000
O O14 0.000000 0.000000 0.500000
#
# Coordination Sequence:
#
# PCOD9026387 Si02
#       6
#     2   2   2   2   2   2
#     4  10  22  41  64  89 121 165 212 253 302 371
#     4  12  25  39  62  96 130 163 200 259 327 378
#     4  10  22  42  66  89 117 164 214 257 304 366
#     4  12  25  39  62  96 130 163 202 261 326 376
#     4  10  22  42  66  88 118 162 213 258 303 369
#     4  10  22  41  64  88 120 165 211 254 302 370
#
# _framework density 22.609527
#
# number of rings (size 3 to 8) (size 9 to 14) (size 15 to 20)
#    0.000    1.333    0.000    5.000    0.000    8.000 
#    0.000    0.000    0.000    0.000    0.000    0.000 
#    0.000    0.000    0.000    0.000    0.000    0.000 
#
# Total GULP energy -66984.247306 kJ/mol
# GULP energy per Si atom -5582.020609 kJ/mol
# Density = 2.255807 g / cm^3
# Si number density = 22.609527 Si / 1000 Ang^3
#
#
#
# Elastic Constant Matrix: (Units=GPa)
#
#
# Indices 1 2 3 4 5 6 
#
# 1 52.6254 26.6216 24.4514 -12.9756 -14.2875 4.2765
# 2 26.6216 149.6532 41.9087 -13.6281 -26.9620 -12.1364
# 3 24.4514 41.9087 54.1613 -30.8030 -24.3826 11.2869
# 4 -12.9756 -13.6281 -30.8030 50.6910 15.8260 2.5104
# 5 -14.2875 -26.9620 -24.3826 15.8260 34.8718 -12.3853
# 6 4.2765 -12.1364 11.2869 2.5104 -12.3853 30.4489
#
#
#
# Elastic Compliance Matrix: (Units=1/GPa)
#
#
# Indices 1 2 3 4 5 6 
#
# 1 0.024559 -0.001132 -0.009369 -0.000810 0.003362 0.001007
# 2 -0.001132 0.012465 -0.012643 -0.008155 0.009069 0.014175
# 3 -0.009369 -0.012643 0.055036 0.027849 0.003325 -0.025068
# 4 -0.000810 -0.008155 0.027849 0.039330 -0.012795 -0.021907
# 5 0.003362 0.009069 0.003325 -0.012795 0.054060 0.024954
# 6 0.001007 0.014175 -0.025068 -0.021907 0.024954 0.059599
#
#
# Mechanical properties :
#
#
# Convention : Reuss Voigt Hill
#
# Bulk Modulus (GPa) = 21.84757 49.15591 35.50174
# Shear Modulus (GPa) = 16.30825 34.09956 25.20390
#
# Velocity S-wave (km/s) = 2.68862 3.88776 3.34240
# Velocity P-wave (km/s) = 4.39570 6.47621 5.53460
#
# Compressibility (1/GPa) = 0.04577169
#
# Stress axis : x y z
#
# Youngs Moduli (GPa) = 40.71863 80.22530 18.17009
#
# Poissons Ratio (x) = 0.09078 0.17023
# Poissons Ratio (y) = 0.04607 0.22973
# Poissons Ratio (z) = 0.38149 1.01431
#
# Static dielectric constant tensor:
#      x y z
#    x 1.991390 -0.006120 0.194550 
#    y -0.006120 1.786780 -0.059170 
#    z 0.194550 -0.059170 2.155660 
# 
# From -- ./inp_files/426106.got.cif
#   From: 2010.05.17/outbox.cif.g08.bks.cpg/sg2_214_cif.got.tgz:426106.got - 2010.06.03 11:33:40.
