data_PCOD9026735
_publ_section_title
;
Structure prediction by ZEFSAII (Michael W. Deem and Ramdas Pophale) SiO2 
 PCOD9026735
Probable space group: P -1
;
_chemical_formula_sum "Si O2"
_cell_formula_units_Z 16
_cell_length_a 19.778484
_cell_length_b 6.608998
_cell_length_c 11.116095
_cell_angle_alpha 93.081706
_cell_angle_beta 29.860008
_cell_angle_gamma 89.716897
_cell_volume 718.506531
_symmetry_space_group_name_H-M "P -1"
_symmetry_group_IT_number 2
_symmetry_cell_setting 'triclinic'
loop_
_space_group_symop_operation_xyz
x,y,z
-x,-y,-z
loop_
_atom_site_type_symbol
_atom_site_label
_atom_site_fract_x
_atom_site_fract_y
_atom_site_fract_z
Si Si1 0.927086 0.690314 0.541176
Si Si2 0.883850 0.970688 0.049165
Si Si3 0.175716 0.960081 0.113049
Si Si4 0.901131 0.330515 0.170355
Si Si5 0.479843 0.799097 0.951518
Si Si6 0.403755 0.045358 0.462010
Si Si7 0.548237 0.264633 0.433789
Si Si8 0.276055 0.509835 0.336097
O O1 0.836386 0.594202 0.573598
O O2 0.000000 0.500000 0.500000
O O3 0.054658 0.814993 0.312237
O O4 0.828978 0.867521 0.770008
O O5 0.755107 0.917945 0.324727
O O6 0.875391 0.215195 0.083077
O O7 0.021115 0.851821 0.878329
O O8 0.863838 0.912451 0.942125
O O9 0.315666 0.821691 0.854687
O O10 0.780730 0.416717 0.443809
O O11 0.000000 0.500000 0.000000
O O12 0.510149 0.862508 0.770747
O O13 0.596059 0.645997 0.829510
O O14 0.337826 0.698718 0.179942
O O15 0.500000 0.000000 0.000000
O O16 0.427289 0.161496 0.552604
O O17 0.437242 0.813625 0.452251
O O18 0.500000 0.500000 0.500000
#
# Coordination Sequence:
#
# PCOD9026735 Si02
#       8
#     2   2   2   2   2   2   2   2
#     4  11  25  43  70 100 141 186 233 286 348 432
#     4  10  22  41  65  94 132 165 221 284 344 403
#     4  10  24  43  65  99 135 181 225 290 355 413
#     4  11  22  39  68  97 129 172 222 289 338 408
#     4  11  26  45  68  96 144 186 229 290 341 425
#     4  10  23  43  65  99 130 180 228 282 353 408
#     4  10  24  43  70  99 133 179 236 298 349 415
#     4  11  26  43  66 108 134 189 237 276 357 419
#
# _framework density 22.268409999999999
#
# number of rings (size 3 to 8) (size 9 to 14) (size 15 to 20)
#    0.000    1.500    0.000    3.000    3.500   14.000 
#    0.000    0.000    0.000    0.000    0.000    0.000 
#    0.000    0.000    0.000    0.000    0.000    0.000 
#
# Total GULP energy -89209.343862 kJ/mol
# GULP energy per Si atom -5575.583991 kJ/mol
# Density = 2.221773 g / cm^3
# Si number density = 22.268410 Si / 1000 Ang^3
#
#
#
# Elastic Constant Matrix: (Units=GPa)
#
#
# Indices 1 2 3 4 5 6 
#
# 1 66.4058 10.3902 -4.9090 -2.1316 -5.3918 8.1721
# 2 10.3902 109.5994 42.4484 -0.3228 -0.7791 4.5136
# 3 -4.9090 42.4484 83.7262 -14.7967 2.2850 3.7292
# 4 -2.1316 -0.3228 -14.7967 39.7082 -4.9521 -0.3013
# 5 -5.3918 -0.7791 2.2850 -4.9521 33.9534 -5.6110
# 6 8.1721 4.5136 3.7292 -0.3013 -5.6110 33.5763
#
#
#
# Elastic Compliance Matrix: (Units=1/GPa)
#
#
# Indices 1 2 3 4 5 6 
#
# 1 0.016304 -0.002401 0.002642 0.002071 0.002068 -0.003575
# 2 -0.002401 0.011917 -0.006609 -0.002507 -0.000082 -0.000320
# 3 0.002642 -0.006609 0.016629 0.006248 -0.000201 -0.001579
# 4 0.002071 -0.002507 0.006248 0.028097 0.003957 0.000053
# 5 0.002068 -0.000082 -0.000201 0.003957 0.031158 0.004772
# 6 -0.003575 -0.000320 -0.001579 0.000053 0.004772 0.031669
#
#
# Mechanical properties :
#
#
# Convention : Reuss Voigt Hill
#
# Bulk Modulus (GPa) = 31.13894 39.51007 35.32450
# Shear Modulus (GPa) = 31.40413 35.56770 33.48591
#
# Velocity S-wave (km/s) = 3.75941 4.00087 3.88202
# Velocity P-wave (km/s) = 5.73219 6.25490 5.99924
#
# Compressibility (1/GPa) = 0.03211413
#
# Stress axis : x y z
#
# Youngs Moduli (GPa) = 61.33404 83.91604 60.13485
#
# Poissons Ratio (x) = 0.20147 -0.15887
# Poissons Ratio (y) = 0.14726 0.39744
# Poissons Ratio (z) = -0.16204 0.55461
#
# Static dielectric constant tensor:
#      x y z
#    x 2.019140 0.106690 0.054070 
#    y 0.106690 1.981300 0.008840 
#    z 0.054070 0.008840 1.885820 
# 
# From -- ./inp_files/468360.got.cif
#   From: 2010.05.17/outbox.cif.g08.bks.cpg/sg2_235_cif.got.tgz:468360.got - 2010.06.03 11:33:40.
