data_PCOD9026680
_publ_section_title
;
Structure prediction by ZEFSAII (Michael W. Deem and Ramdas Pophale) SiO2 
 PCOD9026680
Probable space group: P -1
;
_chemical_formula_sum "Si O2"
_cell_formula_units_Z 12
_cell_length_a 26.535473
_cell_length_b 25.500170
_cell_length_c 11.770347
_cell_angle_alpha 160.492078
_cell_angle_beta 19.313711
_cell_angle_gamma 168.640968
_cell_volume 500.059160
_symmetry_space_group_name_H-M "P -1"
_symmetry_group_IT_number 2
_symmetry_cell_setting 'triclinic'
loop_
_space_group_symop_operation_xyz
x,y,z
-x,-y,-z
loop_
_atom_site_type_symbol
_atom_site_label
_atom_site_fract_x
_atom_site_fract_y
_atom_site_fract_z
Si Si1 0.382584 0.045629 0.914303
Si Si2 0.959793 0.068873 0.338908
Si Si3 0.794676 0.187556 0.774958
Si Si4 0.218680 0.431155 0.722799
Si Si5 0.323221 0.186925 0.110747
Si Si6 0.896231 0.715584 0.890131
O O1 0.500000 0.000000 0.500000
O O2 0.581347 0.266624 0.042514
O O3 0.355828 0.167425 0.131269
O O4 0.083599 0.760874 0.012606
O O5 0.795332 0.072848 0.646924
O O6 0.218389 0.360882 0.450958
O O7 0.840841 0.846206 0.228667
O O8 0.000000 0.000000 0.000000
O O9 0.918684 0.205587 0.438290
O O10 0.000000 0.500000 0.000000
O O11 0.500000 0.000000 0.000000
O O12 0.259058 0.313302 0.477067
O O13 0.609475 0.394640 0.865977
O O14 0.078519 0.882906 0.955617
#
# Coordination Sequence:
#
# PCOD9026680 Si02
#       6
#     2   2   2   2   2   2
#     4  12  26  42  63  97 135 171 213 267 325 384
#     4   9  22  44  68  95 128 165 217 267 316 382
#     4  11  24  40  62  95 130 166 207 262 325 385
#     4  11  23  43  68  94 125 175 219 263 320 382
#     4  11  22  42  66  91 124 167 218 265 312 379
#     4  10  22  41  65  92 123 170 215 262 317 376
#
# _framework density 23.997159
#
# number of rings (size 3 to 8) (size 9 to 14) (size 15 to 20)
#    0.000    1.333    0.000    5.500    0.000    8.000 
#    0.000   14.167    0.000    0.000    0.000    0.000 
#    0.000    0.000    0.000    0.000    0.000    0.000 
#
# Total GULP energy -67169.778430 kJ/mol
# GULP energy per Si atom -5597.481536 kJ/mol
# Density = 2.394254 g / cm^3
# Si number density = 23.997159 Si / 1000 Ang^3
#
#
#
# Elastic Constant Matrix: (Units=GPa)
#
#
# Indices 1 2 3 4 5 6 
#
# 1 121.6013 51.8344 33.9188 3.1111 12.6853 28.8164
# 2 51.8344 168.6362 66.4332 -14.3302 9.9244 32.1439
# 3 33.9188 66.4332 117.2837 -2.6733 16.9759 21.9231
# 4 3.1111 -14.3302 -2.6733 38.2043 7.1641 12.8899
# 5 12.6853 9.9244 16.9759 7.1641 42.3667 0.2726
# 6 28.8164 32.1439 21.9231 12.8899 0.2726 39.1455
#
#
#
# Elastic Compliance Matrix: (Units=1/GPa)
#
#
# Indices 1 2 3 4 5 6 
#
# 1 0.010936 -0.001544 -0.000550 0.001360 -0.002878 -0.006902
# 2 -0.001544 0.009657 -0.003388 0.006106 -0.001430 -0.006896
# 3 -0.000550 -0.003388 0.012007 0.001768 -0.004125 -0.004090
# 4 0.001360 0.006106 0.001768 0.036486 -0.008594 -0.018959
# 5 -0.002878 -0.001430 -0.004125 -0.008594 0.027853 0.008239
# 6 -0.006902 -0.006896 -0.004090 -0.018959 0.008239 0.044765
#
#
# Mechanical properties :
#
#
# Convention : Reuss Voigt Hill
#
# Bulk Modulus (GPa) = 46.22281 79.09933 62.66107
# Shear Modulus (GPa) = 31.27314 40.96561 36.11938
#
# Velocity S-wave (km/s) = 3.61391 4.13619 3.88384
# Velocity P-wave (km/s) = 6.05948 7.47290 6.80300
#
# Compressibility (1/GPa) = 0.02163434
#
# Stress axis : x y z
#
# Youngs Moduli (GPa) = 91.43747 103.55486 83.28773
#
# Poissons Ratio (x) = 0.15990 0.04584
# Poissons Ratio (y) = 0.14119 0.28219
# Poissons Ratio (z) = 0.05033 0.35086
#
# Static dielectric constant tensor:
#      x y z
#    x 1.926450 -0.028420 0.043610 
#    y -0.028420 1.924510 -0.013250 
#    z 0.043610 -0.013250 1.986210 
# 
# From -- ./inp_files/206118.got.cif
#   From: 2010.05.17/outbox.cif.g08.bks.cpg/sg2_104_cif.got.tgz:206118.got - 2010.06.03 11:33:40.
