data_PCOD9026380
_publ_section_title
;
Structure prediction by ZEFSAII (Michael W. Deem and Ramdas Pophale) SiO2 
 PCOD9026380
Probable space group: P -1
;
_chemical_formula_sum "Si O2"
_cell_formula_units_Z 14
_cell_length_a 14.522287
_cell_length_b 5.210431
_cell_length_c 9.189408
_cell_angle_alpha 110.601366
_cell_angle_beta 86.319739
_cell_angle_gamma 116.417100
_cell_volume 579.359241
_symmetry_space_group_name_H-M "P -1"
_symmetry_group_IT_number 2
_symmetry_cell_setting 'triclinic'
loop_
_space_group_symop_operation_xyz
x,y,z
-x,-y,-z
loop_
_atom_site_type_symbol
_atom_site_label
_atom_site_fract_x
_atom_site_fract_y
_atom_site_fract_z
Si Si1 0.350802 0.541119 0.677600
Si Si2 0.985871 0.298393 0.605374
Si Si3 0.665008 0.719364 0.098842
Si Si4 0.792700 0.272885 0.788478
Si Si5 0.477283 0.831730 0.154164
Si Si6 0.826538 0.326400 0.126196
Si Si7 0.327697 0.430137 0.318840
O O1 0.336685 0.254561 0.721611
O O2 0.259867 0.604020 0.770258
O O3 0.332889 0.494844 0.501220
O O4 0.466749 0.808638 0.746823
O O5 0.070441 0.496273 0.757023
O O6 0.000000 0.500000 0.500000
O O7 0.875994 0.218094 0.673480
O O8 0.000000 0.000000 0.500000
O O9 0.574129 0.796184 0.069872
O O10 0.774972 0.955943 0.074834
O O11 0.619566 0.364274 0.981296
O O12 0.753262 0.475135 0.735895
O O13 0.702635 0.929381 0.762028
O O14 0.837638 0.405804 0.970134
O O15 0.434339 0.649508 0.271956
#
# Coordination Sequence:
#
# PCOD9026380 Si02
#       7
#     2   2   2   2   2   2   2
#     4  11  24  40  69 102 145 190 240 291 352 408
#     4  12  28  50  78 109 141 179 231 296 362 422
#     4  10  22  41  68 102 138 193 238 288 347 420
#     4  12  27  49  72 107 141 187 236 288 352 428
#     4  10  22  41  64 103 140 194 238 289 345 415
#     4  11  25  45  73 103 143 187 236 288 354 424
#     4  12  27  44  72 105 148 185 239 294 349 410
#
# _framework density 24.164626999999999
#
# number of rings (size 3 to 8) (size 9 to 14) (size 15 to 20)
#    0.000    0.857    1.429    4.714   10.000    0.571 
#    0.000    2.857    0.000    0.000    0.000    0.000 
#    0.000    0.000    0.000    0.000    0.000    0.000 
#
# Total GULP energy -78274.837648 kJ/mol
# GULP energy per Si atom -5591.059832 kJ/mol
# Density = 2.410963 g / cm^3
# Si number density = 24.164627 Si / 1000 Ang^3
#
#
#
# Elastic Constant Matrix: (Units=GPa)
#
#
# Indices 1 2 3 4 5 6 
#
# 1 80.9869 21.2952 26.2682 5.7864 -2.0265 -0.0119
# 2 21.2952 94.6022 45.7626 -9.3607 12.1452 -9.9139
# 3 26.2682 45.7626 185.4952 -31.4492 9.2083 -15.8954
# 4 5.7864 -9.3607 -31.4492 43.4398 4.9631 -1.8602
# 5 -2.0265 12.1452 9.2083 4.9631 43.3809 -6.6424
# 6 -0.0119 -9.9139 -15.8954 -1.8602 -6.6424 37.3150
#
#
#
# Elastic Compliance Matrix: (Units=1/GPa)
#
#
# Indices 1 2 3 4 5 6 
#
# 1 0.014264 -0.003008 -0.002297 -0.004539 0.002271 -0.001595
# 2 -0.003008 0.013122 -0.002098 0.002177 -0.003294 0.002114
# 3 -0.002297 -0.002098 0.007464 0.005524 -0.001329 0.002660
# 4 -0.004539 0.002177 0.005524 0.028786 -0.004748 0.003520
# 5 0.002271 -0.003294 -0.001329 -0.004748 0.025339 0.002833
# 6 -0.001595 0.002114 0.002660 0.003520 0.002833 0.029173
#
#
# Mechanical properties :
#
#
# Convention : Reuss Voigt Hill
#
# Bulk Modulus (GPa) = 49.88487 60.85960 55.37224
# Shear Modulus (GPa) = 35.80745 42.67770 39.24257
#
# Velocity S-wave (km/s) = 3.85361 4.20709 4.03422
# Velocity P-wave (km/s) = 6.36309 6.98853 6.68313
#
# Compressibility (1/GPa) = 0.02004616
#
# Stress axis : x y z
#
# Youngs Moduli (GPa) = 70.10439 76.20696 133.97317
#
# Poissons Ratio (x) = 0.22920 0.30773
# Poissons Ratio (y) = 0.21085 0.28103
# Poissons Ratio (z) = 0.16103 0.15986
#
# Static dielectric constant tensor:
#      x y z
#    x 1.974520 -0.085300 -0.023090 
#    y -0.085300 1.992370 0.023320 
#    z -0.023090 0.023320 1.949910 
# 
# From -- ./inp_files/49425.got.cif
#   From: 2010.05.17/outbox.cif.g08.bks.cpg/sg2_25_cif.got.tgz:49425.got - 2010.06.03 11:33:40.
