data_PCOD9026597
_publ_section_title
;
Structure prediction by ZEFSAII (Michael W. Deem and Ramdas Pophale) SiO2 
 PCOD9026597
Probable space group: P -1
;
_chemical_formula_sum "Si O2"
_cell_formula_units_Z 12
_cell_length_a 10.836304
_cell_length_b 5.457564
_cell_length_c 7.937547
_cell_angle_alpha 90.584414
_cell_angle_beta 75.605726
_cell_angle_gamma 89.891542
_cell_volume 454.660528
_symmetry_space_group_name_H-M "P -1"
_symmetry_group_IT_number 2
_symmetry_cell_setting 'triclinic'
loop_
_space_group_symop_operation_xyz
x,y,z
-x,-y,-z
loop_
_atom_site_type_symbol
_atom_site_label
_atom_site_fract_x
_atom_site_fract_y
_atom_site_fract_z
Si Si1 0.356398 0.277516 0.033370
Si Si2 0.222114 0.764755 0.176587
Si Si3 0.051558 0.056012 0.802232
Si Si4 0.077803 0.742731 0.508487
Si Si5 0.492181 0.312483 0.343682
Si Si6 0.336661 0.112471 0.681154
O O1 0.269039 0.518669 0.073383
O O2 0.450102 0.324157 0.161154
O O3 0.285886 0.018134 0.097872
O O4 0.402769 0.248045 0.822856
O O5 0.219431 0.731625 0.380551
O O6 0.069118 0.786553 0.218818
O O7 0.188741 0.180167 0.745874
O O8 0.080343 0.792342 0.706844
O O9 0.000000 0.000000 0.000000
O O10 0.000000 0.500000 0.500000
O O11 0.000000 0.000000 0.500000
O O12 0.500000 0.500000 0.500000
O O13 0.384160 0.149845 0.474725
O O14 0.625155 0.166707 0.294844
#
# Coordination Sequence:
#
# PCOD9026597 Si02
#       6
#     2   2   2   2   2   2
#     4  12  27  50  83 111 159 203 261 323 392 459
#     4  11  25  47  75 118 153 205 249 314 397 473
#     4  11  23  46  74 115 160 192 252 314 395 472
#     4  10  22  41  64  98 148 201 240 293 363 455
#     4  11  29  52  78 112 149 209 273 323 382 456
#     4  11  27  51  78 115 154 207 258 327 387 463
#
# _framework density 26.393318000000001
#
# number of rings (size 3 to 8) (size 9 to 14) (size 15 to 20)
#    0.000    1.000    1.667    3.500    9.333    2.667 
#    6.000    0.000    0.000    0.000    0.000    0.000 
#    0.000    0.000    0.000    0.000    0.000    0.000 
#
# Total GULP energy -66891.309161 kJ/mol
# GULP energy per Si atom -5574.275763 kJ/mol
# Density = 2.633325 g / cm^3
# Si number density = 26.393318 Si / 1000 Ang^3
#
#
#
# Elastic Constant Matrix: (Units=GPa)
#
#
# Indices 1 2 3 4 5 6 
#
# 1 112.0853 18.2180 5.7858 15.9326 5.7639 -1.0633
# 2 18.2180 117.2070 35.4690 33.7541 5.8543 7.7057
# 3 5.7858 35.4690 171.5573 24.4476 -6.3056 -1.2299
# 4 15.9326 33.7541 24.4476 48.4892 6.2037 -12.1987
# 5 5.7639 5.8543 -6.3056 6.2037 37.4070 12.2220
# 6 -1.0633 7.7057 -1.2299 -12.1987 12.2220 37.8722
#
#
#
# Elastic Compliance Matrix: (Units=1/GPa)
#
#
# Indices 1 2 3 4 5 6 
#
# 1 0.009443 -0.000710 0.000172 -0.002632 -0.000824 -0.000167
# 2 -0.000710 0.011948 -0.001121 -0.009209 0.001520 -0.005944
# 3 0.000172 -0.001121 0.006584 -0.003207 0.002216 -0.001301
# 4 -0.002632 -0.009209 -0.003207 0.034790 -0.009702 0.016032
# 5 -0.000824 0.001520 0.002216 -0.009702 0.033213 -0.014104
# 6 -0.000167 -0.005944 -0.001301 0.016032 -0.014104 0.037283
#
#
# Mechanical properties :
#
#
# Convention : Reuss Voigt Hill
#
# Bulk Modulus (GPa) = 40.55449 57.75501 49.15475
# Shear Modulus (GPa) = 34.53102 47.51212 41.02157
#
# Velocity S-wave (km/s) = 3.62100 4.24743 3.94666
# Velocity P-wave (km/s) = 5.73419 6.78116 6.27954
#
# Compressibility (1/GPa) = 0.02465818
#
# Stress axis : x y z
#
# Youngs Moduli (GPa) = 105.89650 83.69356 151.88439
#
# Poissons Ratio (x) = 0.05940 -0.02610
# Poissons Ratio (y) = 0.07516 0.17023
# Poissons Ratio (z) = -0.01820 0.09380
#
# Static dielectric constant tensor:
#      x y z
#    x 1.690220 0.543810 -1.033570 
#    y 0.543810 1.869340 0.807340 
#    z -1.033570 0.807340 -0.306530 
# 
# From -- ./inp_files/25291.got.cif
#   From: 2010.05.17/outbox.cif.g08.bks.cpg/sg2_13_cif.got.tgz:25291.got - 2010.06.03 11:33:40.
