data_PCOD9026966
_publ_section_title
;
Structure prediction by ZEFSAII (Michael W. Deem and Ramdas Pophale) SiO2 
 PCOD9026966
Probable space group: P -1
;
_chemical_formula_sum "Si O2"
_cell_formula_units_Z 16
_cell_length_a 18.892821
_cell_length_b 7.516548
_cell_length_c 7.470495
_cell_angle_alpha 67.239210
_cell_angle_beta 123.294015
_cell_angle_gamma 76.417879
_cell_volume 665.984448
_symmetry_space_group_name_H-M "P -1"
_symmetry_group_IT_number 2
_symmetry_cell_setting 'triclinic'
loop_
_space_group_symop_operation_xyz
x,y,z
-x,-y,-z
loop_
_atom_site_type_symbol
_atom_site_label
_atom_site_fract_x
_atom_site_fract_y
_atom_site_fract_z
Si Si1 0.209835 0.945510 0.743107
Si Si2 0.580951 0.225964 0.777468
Si Si3 0.119189 0.341376 0.016078
Si Si4 0.246547 0.503524 0.036816
Si Si5 0.101536 0.482379 0.348569
Si Si6 0.243068 0.640401 0.609050
Si Si7 0.453266 0.046263 0.618271
Si Si8 0.662134 0.153277 0.525111
O O1 0.152159 0.217764 0.599000
O O2 0.208318 0.764747 0.944903
O O3 0.175130 0.887947 0.532649
O O4 0.332534 0.829150 0.938076
O O5 0.500000 0.500000 0.500000
O O6 0.527085 0.096534 0.806039
O O7 0.644873 0.129371 0.718779
O O8 0.149521 0.489754 0.885974
O O9 0.017322 0.359458 0.813210
O O10 0.102230 0.447229 0.150074
O O11 0.224278 0.082248 0.261941
O O12 0.295591 0.467153 0.920879
O O13 0.338433 0.296208 0.363052
O O14 0.170043 0.579272 0.442537
O O15 0.324521 0.643677 0.595661
O O16 0.500000 0.000000 0.500000
O O17 0.427697 0.855880 0.691333
#
# Coordination Sequence:
#
# PCOD9026966 Si02
#       8
#     2   2   2   2   2   2   2   2
#     4  10  23  42  59  97 133 161 214 272 305 380
#     4  11  21  40  68  92 124 176 213 255 327 386
#     4  10  22  44  65  98 122 173 220 253 326 392
#     4   9  20  40  62  86 138 157 210 274 306 376
#     4  11  24  41  69  91 134 171 211 265 321 386
#     4  10  23  41  62  96 131 165 211 272 318 363
#     4   9  19  36  63  88 118 166 211 253 314 381
#     4  10  22  41  66  92 130 164 216 272 312 384
#
# _framework density 24.024584000000001
#
# number of rings (size 3 to 8) (size 9 to 14) (size 15 to 20)
#    0.750    1.250    2.500    0.000    7.000    1.500 
#    0.000    6.250    0.000    0.000    0.000    0.000 
#    0.000    0.000    0.000    0.000    0.000    0.000 
#
# Total GULP energy -89202.513112 kJ/mol
# GULP energy per Si atom -5575.157069 kJ/mol
# Density = 2.396990 g / cm^3
# Si number density = 24.024584 Si / 1000 Ang^3
#
#
#
# Elastic Constant Matrix: (Units=GPa)
#
#
# Indices 1 2 3 4 5 6 
#
# 1 97.3563 34.1599 15.8108 -5.4845 10.2931 29.4957
# 2 34.1599 99.2543 26.0157 17.2580 21.0251 31.0308
# 3 15.8108 26.0157 38.6661 8.6781 16.5159 17.5768
# 4 -5.4845 17.2580 8.6781 27.9873 3.5717 6.5616
# 5 10.2931 21.0251 16.5159 3.5717 27.8999 4.5873
# 6 29.4957 31.0308 17.5768 6.5616 4.5873 43.8681
#
#
#
# Elastic Compliance Matrix: (Units=1/GPa)
#
#
# Indices 1 2 3 4 5 6 
#
# 1 0.014583 -0.003029 -0.000928 0.007195 -0.002130 -0.008144
# 2 -0.003029 0.016961 -0.001406 -0.007797 -0.008629 -0.007329
# 3 -0.000928 -0.001406 0.043681 -0.007173 -0.021472 -0.012566
# 4 0.007195 -0.007797 -0.007173 0.044669 0.002304 -0.003370
# 5 -0.002130 -0.008629 -0.021472 0.002304 0.053876 0.010161
# 6 -0.008144 -0.007329 -0.012566 -0.003370 0.010161 0.037932
#
#
# Mechanical properties :
#
#
# Convention : Reuss Voigt Hill
#
# Bulk Modulus (GPa) = 15.50398 43.02770 29.26584
# Shear Modulus (GPa) = 20.49782 30.57040 25.53411
#
# Velocity S-wave (km/s) = 2.92413 3.57103 3.26365
# Velocity P-wave (km/s) = 4.22707 5.91200 5.13906
#
# Compressibility (1/GPa) = 0.06449957
#
# Stress axis : x y z
#
# Youngs Moduli (GPa) = 68.57280 58.95826 22.89307
#
# Poissons Ratio (x) = 0.17861 0.02123
# Poissons Ratio (y) = 0.20774 0.03219
# Poissons Ratio (z) = 0.06360 0.08289
#
# Static dielectric constant tensor:
#      x y z
#    x 2.087710 0.021100 -0.078220 
#    y 0.021100 2.048440 0.010560 
#    z -0.078220 0.010560 1.965910 
# 
# From -- ./inp_files/328617.got.cif
#   From: 2010.05.17/outbox.cif.g08.bks.cpg/sg2_165_cif.got.tgz:328617.got - 2010.06.03 11:33:40.
