data_PCOD9026322
_publ_section_title
;
Structure prediction by ZEFSAII (Michael W. Deem and Ramdas Pophale) SiO2 
 PCOD9026322
Probable space group: P -1
;
_chemical_formula_sum "Si O2"
_cell_formula_units_Z 16
_cell_length_a 8.933378
_cell_length_b 12.359106
_cell_length_c 22.819160
_cell_angle_alpha 22.412566
_cell_angle_beta 52.148103
_cell_angle_gamma 64.318279
_cell_volume 679.330868
_symmetry_space_group_name_H-M "P -1"
_symmetry_group_IT_number 2
_symmetry_cell_setting 'triclinic'
loop_
_space_group_symop_operation_xyz
x,y,z
-x,-y,-z
loop_
_atom_site_type_symbol
_atom_site_label
_atom_site_fract_x
_atom_site_fract_y
_atom_site_fract_z
Si Si1 0.975421 0.885891 0.130956
Si Si2 0.414803 0.687534 0.529407
Si Si3 0.244533 0.190799 0.307421
Si Si4 0.557248 0.869082 0.877723
Si Si5 0.435354 0.265027 0.408889
Si Si6 0.685636 0.343216 0.848272
Si Si7 0.234356 0.859019 0.861266
Si Si8 0.950209 0.869909 0.740810
O O1 0.745017 0.584385 0.337647
O O2 0.158087 0.781916 0.153465
O O3 0.950936 0.114009 0.070482
O O4 0.000000 0.000000 0.000000
O O5 0.426710 0.568664 0.650912
O O6 0.308423 0.924496 0.444872
O O7 0.643631 0.882191 0.347166
O O8 0.466787 0.487109 0.087609
O O9 0.102346 0.118065 0.321198
O O10 0.825290 0.641203 0.708763
O O11 0.478374 0.911657 0.939283
O O12 0.422772 0.925538 0.830391
O O13 0.805057 0.005520 0.740402
O O14 0.429496 0.515955 0.237869
O O15 0.500000 0.000000 0.500000
O O16 0.197122 0.071260 0.586810
O O17 0.130115 0.501524 0.040902
#
# Coordination Sequence:
#
# PCOD9026322 Si02
#       8
#     2   2   2   2   2   2   2   2
#     4  12  25  42  70  96 124 174 226 267 310 376
#     4  12  24  42  62  96 135 165 215 265 325 384
#     4   9  17  36  65  94 119 157 215 277 314 353
#     4   9  17  37  68  97 123 151 219 282 312 366
#     4  12  27  40  62 102 139 168 199 267 340 391
#     4  10  22  41  63  96 128 166 215 266 326 369
#     4  11  21  42  67 100 125 167 222 269 312 376
#     4  11  20  38  70  98 126 161 218 268 333 377
#
# _framework density 23.552588
#
# number of rings (size 3 to 8) (size 9 to 14) (size 15 to 20)
#    0.750    0.500    5.000    1.875    3.500    1.500 
#    0.000    1.250    0.000    0.000    0.000    0.000 
#    0.000    0.000    0.000    0.000    0.000    0.000 
#
# Total GULP energy -89424.710782 kJ/mol
# GULP energy per Si atom -5589.044424 kJ/mol
# Density = 2.349898 g / cm^3
# Si number density = 23.552588 Si / 1000 Ang^3
#
#
#
# Elastic Constant Matrix: (Units=GPa)
#
#
# Indices 1 2 3 4 5 6 
#
# 1 83.9564 17.3639 -0.9909 -1.6802 14.7800 -1.7093
# 2 17.3639 99.4533 1.6414 4.5755 -1.9499 -20.6653
# 3 -0.9909 1.6414 33.5757 13.6522 0.3640 2.5024
# 4 -1.6802 4.5755 13.6522 32.9090 -5.1589 5.6729
# 5 14.7800 -1.9499 0.3640 -5.1589 31.7535 10.4543
# 6 -1.7093 -20.6653 2.5024 5.6729 10.4543 29.6912
#
#
#
# Elastic Compliance Matrix: (Units=1/GPa)
#
#
# Indices 1 2 3 4 5 6 
#
# 1 0.013658 -0.002090 0.000767 -0.000814 -0.007281 0.001986
# 2 -0.002090 0.012699 0.000247 -0.004111 -0.002308 0.010296
# 3 0.000767 0.000247 0.036174 -0.015873 -0.003847 0.001554
# 4 -0.000814 -0.004111 -0.015873 0.041657 0.011553 -0.013597
# 5 -0.007281 -0.002308 -0.003847 0.011553 0.042923 -0.019022
# 6 0.001986 0.010296 0.001554 -0.013597 -0.019022 0.050125
#
#
# Mechanical properties :
#
#
# Convention : Reuss Voigt Hill
#
# Bulk Modulus (GPa) = 16.56197 28.11269 22.33733
# Shear Modulus (GPa) = 22.77761 32.13547 27.45654
#
# Velocity S-wave (km/s) = 3.11319 3.69780 3.41802
# Velocity P-wave (km/s) = 4.46876 5.49488 5.00817
#
# Compressibility (1/GPa) = 0.06037928
#
# Stress axis : x y z
#
# Youngs Moduli (GPa) = 73.21675 78.74648 27.64417
#
# Poissons Ratio (x) = 0.16457 -0.02121
# Poissons Ratio (y) = 0.15301 -0.00682
# Poissons Ratio (z) = -0.05617 -0.01944
#
# Static dielectric constant tensor:
#      x y z
#    x 1.872140 0.002700 -0.002800 
#    y 0.002700 1.893590 0.029430 
#    z -0.002800 0.029430 1.950860 
# 
# From -- ./inp_files/175216.got.cif
#   From: 2010.05.17/outbox.cif.g08.bks.cpg/sg2_88_cif.got.tgz:175216.got - 2010.06.03 11:33:40.
