data_PCOD9026721
_publ_section_title
;
Structure prediction by ZEFSAII (Michael W. Deem and Ramdas Pophale) SiO2 
 PCOD9026721
Probable space group: P -1
;
_chemical_formula_sum "Si O2"
_cell_formula_units_Z 16
_cell_length_a 27.422804
_cell_length_b 14.504192
_cell_length_c 10.879724
_cell_angle_alpha 29.735218
_cell_angle_beta 29.717049
_cell_angle_gamma 21.325809
_cell_volume 736.700059
_symmetry_space_group_name_H-M "P -1"
_symmetry_group_IT_number 2
_symmetry_cell_setting 'triclinic'
loop_
_space_group_symop_operation_xyz
x,y,z
-x,-y,-z
loop_
_atom_site_type_symbol
_atom_site_label
_atom_site_fract_x
_atom_site_fract_y
_atom_site_fract_z
Si Si1 0.029422 0.175377 0.892385
Si Si2 0.308380 0.652579 0.759050
Si Si3 0.703894 0.969925 0.784820
Si Si4 0.494719 0.299863 0.085280
Si Si5 0.259543 0.514739 0.769393
Si Si6 0.474435 0.734724 0.657312
Si Si7 0.683407 0.685327 0.695395
Si Si8 0.038329 0.563079 0.518257
O O1 0.076156 0.295558 0.723358
O O2 0.947464 0.359252 0.736127
O O3 0.910146 0.234162 0.163981
O O4 0.160235 0.886122 0.886131
O O5 0.354834 0.800648 0.452635
O O6 0.296842 0.574974 0.740991
O O7 0.373372 0.401346 0.991064
O O8 0.870057 0.799587 0.639903
O O9 0.620965 0.095202 0.949413
O O10 0.707270 0.751386 0.987120
O O11 0.548758 0.227257 0.190215
O O12 0.374623 0.308681 0.314637
O O13 0.432566 0.591503 0.862602
O O14 0.358975 0.462362 0.507007
O O15 0.392460 0.018249 0.449660
O O16 0.850058 0.495904 0.566500
#
# Coordination Sequence:
#
# PCOD9026721 Si02
#       8
#     2   2   2   2   2   2   2   2
#     4   9  19  38  61  91 136 171 199 240 318 392
#     4  11  23  35  62  99 133 159 203 254 321 372
#     4  10  22  41  65  94 126 171 210 246 312 387
#     4  11  25  48  67  86 121 175 216 263 310 371
#     4  11  20  39  64  94 121 174 208 248 304 385
#     4  11  26  45  67  86 125 168 222 257 314 375
#     4  12  25  39  65  98 131 162 202 275 312 366
#     4   9  20  38  63  94 131 166 203 255 309 376
#
# _framework density 21.718471999999998
#
# number of rings (size 3 to 8) (size 9 to 14) (size 15 to 20)
#    0.000    1.500    3.750    1.500    3.500    1.000 
#    0.000    0.625    0.000    2.250    0.000    0.000 
#    0.000    0.000    0.000    0.000    0.000    0.000 
#
# Total GULP energy -89329.354806 kJ/mol
# GULP energy per Si atom -5583.084675 kJ/mol
# Density = 2.166904 g / cm^3
# Si number density = 21.718472 Si / 1000 Ang^3
#
#
#
# Elastic Constant Matrix: (Units=GPa)
#
#
# Indices 1 2 3 4 5 6 
#
# 1 49.1534 27.6522 6.1062 1.6278 -20.2378 12.2018
# 2 27.6522 93.0065 39.1109 -1.0990 5.7189 19.7011
# 3 6.1062 39.1109 69.6614 -8.3597 -10.8453 7.0502
# 4 1.6278 -1.0990 -8.3597 40.0737 8.2496 -9.2058
# 5 -20.2378 5.7189 -10.8453 8.2496 33.6083 4.8578
# 6 12.2018 19.7011 7.0502 -9.2058 4.8578 27.5644
#
#
#
# Elastic Compliance Matrix: (Units=1/GPa)
#
#
# Indices 1 2 3 4 5 6 
#
# 1 0.062819 -0.022747 0.017059 -0.018593 0.056401 -0.032063
# 2 -0.022747 0.025342 -0.015709 0.003656 -0.024187 0.001458
# 3 0.017059 -0.015709 0.025758 -0.002237 0.022920 -0.007699
# 4 -0.018593 0.003656 -0.002237 0.035524 -0.024494 0.022370
# 5 0.056401 -0.024187 0.022920 -0.024494 0.086587 -0.036982
# 6 -0.032063 0.001458 -0.007699 0.022370 -0.036982 0.065388
#
#
# Mechanical properties :
#
#
# Convention : Reuss Voigt Hill
#
# Bulk Modulus (GPa) = 14.05937 39.72887 26.89412
# Shear Modulus (GPa) = 13.58991 29.51276 21.55133
#
# Velocity S-wave (km/s) = 2.50417 3.69030 3.15350
# Velocity P-wave (km/s) = 3.85340 6.04070 5.06650
#
# Compressibility (1/GPa) = 0.07112696
#
# Stress axis : x y z
#
# Youngs Moduli (GPa) = 15.91880 39.45959 38.82228
#
# Poissons Ratio (x) = 0.89758 -0.66228
# Poissons Ratio (y) = 0.36210 0.60985
# Poissons Ratio (z) = -0.27156 0.61986
#
# Static dielectric constant tensor:
#      x y z
#    x 1.795270 -0.048670 -0.020750 
#    y -0.048670 1.837230 -0.020700 
#    z -0.020750 -0.020700 1.838300 
# 
# From -- ./inp_files/477659.got.cif
#   From: 2010.05.17/outbox.cif.g08.bks.cpg/sg2_239_cif.got.tgz:477659.got - 2010.06.03 11:33:40.
