data_PCOD9026464
_publ_section_title
;
Structure prediction by ZEFSAII (Michael W. Deem and Ramdas Pophale) SiO2 
 PCOD9026464
Probable space group: P -1
;
_chemical_formula_sum "Si O2"
_cell_formula_units_Z 16
_cell_length_a 9.875606
_cell_length_b 15.584776
_cell_length_c 6.793590
_cell_angle_alpha 122.368106
_cell_angle_beta 51.855020
_cell_angle_gamma 107.710169
_cell_volume 693.992141
_symmetry_space_group_name_H-M "P -1"
_symmetry_group_IT_number 2
_symmetry_cell_setting 'triclinic'
loop_
_space_group_symop_operation_xyz
x,y,z
-x,-y,-z
loop_
_atom_site_type_symbol
_atom_site_label
_atom_site_fract_x
_atom_site_fract_y
_atom_site_fract_z
Si Si1 0.146701 0.568343 0.859645
Si Si2 0.464242 0.106977 0.767891
Si Si3 0.689125 0.379369 0.823123
Si Si4 0.286691 0.433501 0.227756
Si Si5 0.853668 0.239314 0.184580
Si Si6 0.190850 0.118415 0.380704
Si Si7 0.783827 0.772357 0.132943
Si Si8 0.211405 0.895623 0.266876
O O1 0.253526 0.486917 0.530906
O O2 0.099594 0.663860 0.876765
O O3 0.252676 0.617797 0.001549
O O4 0.000000 0.500000 0.000000
O O5 0.381295 0.177845 0.761709
O O6 0.641909 0.134766 0.746277
O O7 0.500000 0.000000 0.500000
O O8 0.316888 0.108064 0.070058
O O9 0.761567 0.480674 0.783341
O O10 0.758277 0.285819 0.515029
O O11 0.485879 0.397286 0.999952
O O12 0.187882 0.335420 0.132960
O O13 0.751659 0.165456 0.044416
O O14 0.031219 0.178602 0.007039
O O15 0.237888 0.213315 0.595012
O O16 0.986378 0.126505 0.524534
O O17 0.218174 0.015497 0.359071
#
# Coordination Sequence:
#
# PCOD9026464 Si02
#       8
#     2   2   2   2   2   2   2   2
#     4  11  22  40  66  93 131 174 215 267 325 392
#     4  12  26  43  69 100 130 178 225 268 336 394
#     4  10  22  41  64  92 130 173 211 269 330 384
#     4  10  23  39  62  96 131 167 216 272 320 388
#     4  10  24  42  65  98 130 169 224 264 329 390
#     4  10  24  47  67  95 137 170 220 277 330 395
#     4  11  24  43  63 100 128 171 221 270 326 394
#     4  10  23  46  68  96 135 174 216 280 329 387
#
# _framework density 23.055015000000001
#
# number of rings (size 3 to 8) (size 9 to 14) (size 15 to 20)
#    0.000    1.500    1.250    2.250    3.500    7.500 
#    0.000    0.000    0.000    0.000    0.000    0.000 
#    0.000    0.000    0.000    0.000    0.000    0.000 
#
# Total GULP energy -89436.306290 kJ/mol
# GULP energy per Si atom -5589.769143 kJ/mol
# Density = 2.300254 g / cm^3
# Si number density = 23.055015 Si / 1000 Ang^3
#
#
#
# Elastic Constant Matrix: (Units=GPa)
#
#
# Indices 1 2 3 4 5 6 
#
# 1 153.1868 13.2900 47.3659 7.3298 23.2569 -1.2965
# 2 13.2900 40.1413 21.3780 8.0628 7.7614 7.5718
# 3 47.3659 21.3780 178.3373 22.2088 17.8150 1.6194
# 4 7.3298 8.0628 22.2088 40.2661 7.8704 5.1858
# 5 23.2569 7.7614 17.8150 7.8704 37.2511 7.8502
# 6 -1.2965 7.5718 1.6194 5.1858 7.8502 13.3179
#
#
#
# Elastic Compliance Matrix: (Units=1/GPa)
#
#
# Indices 1 2 3 4 5 6 
#
# 1 0.007917 -0.001831 -0.001444 0.000055 -0.004906 0.004857
# 2 -0.001831 0.030500 -0.002754 -0.002150 0.000005 -0.016349
# 3 -0.001444 -0.002754 0.006842 -0.002975 -0.001755 0.002786
# 4 0.000055 -0.002150 -0.002975 0.028412 -0.002478 -0.008013
# 5 -0.004906 0.000005 -0.001755 -0.002478 0.035537 -0.020249
# 6 0.004857 -0.016349 0.002786 -0.008013 -0.020249 0.099572
#
#
# Mechanical properties :
#
#
# Convention : Reuss Voigt Hill
#
# Bulk Modulus (GPa) = 30.12053 59.52589 44.82321
# Shear Modulus (GPa) = 21.56064 37.47578 29.51821
#
# Velocity S-wave (km/s) = 3.06139 4.03611 3.58206
# Velocity P-wave (km/s) = 5.05857 6.89894 6.04916
#
# Compressibility (1/GPa) = 0.03319994
#
# Stress axis : x y z
#
# Youngs Moduli (GPa) = 126.31697 32.78715 146.16569
#
# Poissons Ratio (x) = 0.06002 0.21108
# Poissons Ratio (y) = 0.23125 0.40256
# Poissons Ratio (z) = 0.18241 0.09030
#
# Static dielectric constant tensor:
#      x y z
#    x 1.899440 0.006660 -0.022960 
#    y 0.006660 1.899830 -0.008180 
#    z -0.022960 -0.008180 1.879840 
# 
# From -- ./inp_files/48800.got.cif
#   From: 2010.05.17/outbox.cif.g08.bks.cpg/sg2_25_cif.got.tgz:48800.got - 2010.06.03 11:33:40.
