data_PCOD9026363
_publ_section_title
;
Structure prediction by ZEFSAII (Michael W. Deem and Ramdas Pophale) SiO2 
 PCOD9026363
Probable space group: P -1
;
_chemical_formula_sum "Si O2"
_cell_formula_units_Z 14
_cell_length_a 7.504726
_cell_length_b 16.520754
_cell_length_c 8.411340
_cell_angle_alpha 132.224972
_cell_angle_beta 47.706152
_cell_angle_gamma 105.512311
_cell_volume 537.751431
_symmetry_space_group_name_H-M "P -1"
_symmetry_group_IT_number 2
_symmetry_cell_setting 'triclinic'
loop_
_space_group_symop_operation_xyz
x,y,z
-x,-y,-z
loop_
_atom_site_type_symbol
_atom_site_label
_atom_site_fract_x
_atom_site_fract_y
_atom_site_fract_z
Si Si1 0.634935 0.386083 0.165766
Si Si2 0.982642 0.986243 0.177244
Si Si3 0.754256 0.277576 0.280658
Si Si4 0.741637 0.840286 0.694494
Si Si5 0.266669 0.026739 0.403900
Si Si6 0.873456 0.639889 0.605003
Si Si7 0.299953 0.473623 0.965474
O O1 0.500000 0.500000 0.500000
O O2 0.767221 0.297811 0.109744
O O3 0.409267 0.354901 0.169833
O O4 0.776952 0.431965 0.006230
O O5 0.741353 0.975879 0.404849
O O6 0.037106 0.102651 0.346753
O O7 0.187791 0.858418 0.914532
O O8 0.000000 0.000000 0.000000
O O9 0.474176 0.354341 0.619637
O O10 0.963240 0.315131 0.306391
O O11 0.714186 0.858964 0.544723
O O12 0.815443 0.723870 0.596490
O O13 0.499093 0.926804 0.050346
O O14 0.000000 0.000000 0.500000
O O15 0.043245 0.509096 0.273244
O O16 0.500000 0.500000 0.000000
#
# Coordination Sequence:
#
# PCOD9026363 Si02
#       7
#     2   2   2   2   2   2   2
#     4  10  24  42  68  95 132 170 229 276 332 401
#     4  11  22  42  65  96 146 172 225 283 332 405
#     4  10  23  43  64 103 132 175 224 275 336 403
#     4  10  22  41  64 101 129 184 228 271 342 407
#     4   9  22  39  64  91 136 179 227 275 330 401
#     4  11  23  43  70  95 136 176 222 280 341 395
#     4   9  22  44  68  96 131 173 223 278 339 396
#
# _framework density 26.034331999999999
#
# number of rings (size 3 to 8) (size 9 to 14) (size 15 to 20)
#    0.000    2.000    1.429    0.000    8.000    9.143 
#    0.000    4.286    0.000    0.000    0.000    0.000 
#    0.000    0.000    0.000    0.000    0.000    0.000 
#
# Total GULP energy -78072.697696 kJ/mol
# GULP energy per Si atom -5576.621264 kJ/mol
# Density = 2.597508 g / cm^3
# Si number density = 26.034332 Si / 1000 Ang^3
#
#
#
# Elastic Constant Matrix: (Units=GPa)
#
#
# Indices 1 2 3 4 5 6 
#
# 1 106.2979 17.7004 -0.3836 -12.7688 -3.0823 -4.6880
# 2 17.7004 128.8205 15.8855 -8.5583 1.9236 -29.3758
# 3 -0.3836 15.8855 122.5143 -10.6322 -4.3154 -15.8575
# 4 -12.7688 -8.5583 -10.6322 47.6937 -9.3925 6.0488
# 5 -3.0823 1.9236 -4.3154 -9.3925 25.0396 -1.7694
# 6 -4.6880 -29.3758 -15.8575 6.0488 -1.7694 39.0878
#
#
#
# Elastic Compliance Matrix: (Units=1/GPa)
#
#
# Indices 1 2 3 4 5 6 
#
# 1 0.010072 -0.001257 0.000572 0.003095 0.002605 0.000134
# 2 -0.001257 0.009564 -0.000339 0.000374 -0.000325 0.006826
# 3 0.000572 -0.000339 0.008909 0.002200 0.002684 0.003209
# 4 0.003095 0.000374 0.002200 0.024512 0.009798 -0.001805
# 5 0.002605 -0.000325 0.002684 0.009798 0.044537 0.001657
# 6 0.000134 0.006826 0.003209 -0.001805 0.001657 0.032386
#
#
# Mechanical properties :
#
#
# Convention : Reuss Voigt Hill
#
# Bulk Modulus (GPa) = 37.74143 47.11525 42.42834
# Shear Modulus (GPa) = 35.49612 43.99292 39.74452
#
# Velocity S-wave (km/s) = 3.69648 4.11518 3.91144
# Velocity P-wave (km/s) = 5.72249 6.38093 6.06066
#
# Compressibility (1/GPa) = 0.02649608
#
# Stress axis : x y z
#
# Youngs Moduli (GPa) = 99.28378 104.56195 112.24737
#
# Poissons Ratio (x) = 0.13145 -0.06424
# Poissons Ratio (y) = 0.12482 0.03810
# Poissons Ratio (z) = -0.05682 0.03549
#
# Static dielectric constant tensor:
#      x y z
#    x 3.035960 0.151840 0.274680 
#    y 0.151840 2.294390 0.030310 
#    z 0.274680 0.030310 2.180620 
# 
# From -- ./inp_files/208607.got.cif
#   From: 2010.05.17/outbox.cif.g08.bks.cpg/sg2_105_cif.got.tgz:208607.got - 2010.06.03 11:33:40.
