data_PCOD9026419
_publ_section_title
;
Structure prediction by ZEFSAII (Michael W. Deem and Ramdas Pophale) SiO2 
 PCOD9026419
Probable space group: P -1
;
_chemical_formula_sum "Si O2"
_cell_formula_units_Z 16
_cell_length_a 7.423088
_cell_length_b 11.902266
_cell_length_c 20.985757
_cell_angle_alpha 156.065238
_cell_angle_beta 92.997847
_cell_angle_gamma 85.172964
_cell_volume 748.152782
_symmetry_space_group_name_H-M "P -1"
_symmetry_group_IT_number 2
_symmetry_cell_setting 'triclinic'
loop_
_space_group_symop_operation_xyz
x,y,z
-x,-y,-z
loop_
_atom_site_type_symbol
_atom_site_label
_atom_site_fract_x
_atom_site_fract_y
_atom_site_fract_z
Si Si1 0.025474 0.054850 0.102564
Si Si2 0.439436 0.542483 0.593130
Si Si3 0.341204 0.666025 0.936193
Si Si4 0.114397 0.317802 0.538007
Si Si5 0.680674 0.630574 0.093558
Si Si6 0.274774 0.175314 0.938620
Si Si7 0.297241 0.135856 0.576988
Si Si8 0.255178 0.847574 0.556025
O O1 0.965304 0.372809 0.282575
O O2 0.893083 0.862617 0.038450
O O3 0.000000 0.000000 0.000000
O O4 0.233807 0.959960 0.072358
O O5 0.500000 0.500000 0.500000
O O6 0.276416 0.359327 0.514322
O O7 0.366667 0.862541 0.766177
O O8 0.609691 0.429519 0.581087
O O9 0.255012 0.569341 0.950949
O O10 0.302010 0.444766 0.766467
O O11 0.557523 0.671686 0.950240
O O12 0.193795 0.158235 0.519674
O O13 0.943725 0.181836 0.435295
O O14 0.782013 0.683726 0.057142
O O15 0.651695 0.924807 0.282366
O O16 0.500000 0.500000 0.000000
O O17 0.500000 0.000000 0.500000
O O18 0.224080 0.953556 0.538207
#
# Coordination Sequence:
#
# PCOD9026419 Si02
#       8
#     2   2   2   2   2   2   2   2
#     4  11  23  41  62  91 129 165 209 259 305 375
#     4  11  22  41  65  92 130 168 210 265 318 377
#     4  10  22  42  64  89 125 164 209 260 311 370
#     4  11  24  42  64  95 127 166 218 260 318 380
#     4   9  20  42  64  88 123 160 209 259 312 376
#     4  10  22  41  64  91 122 167 211 254 318 370
#     4  11  22  42  66  93 128 168 211 263 320 374
#     4  11  22  40  65  93 126 166 209 267 317 371
#
# _framework density 21.386006999999999
#
# number of rings (size 3 to 8) (size 9 to 14) (size 15 to 20)
#    0.000    1.500    3.750    1.125    0.000    2.500 
#    6.750    0.000    0.000    0.000    0.000    0.000 
#    0.000    0.000    0.000    0.000    0.000    0.000 
#
# Total GULP energy -89328.452893 kJ/mol
# GULP energy per Si atom -5583.028306 kJ/mol
# Density = 2.133733 g / cm^3
# Si number density = 21.386007 Si / 1000 Ang^3
#
#
#
# Elastic Constant Matrix: (Units=GPa)
#
#
# Indices 1 2 3 4 5 6 
#
# 1 98.2537 22.7129 26.8947 1.3579 0.5984 1.8570
# 2 22.7129 78.9403 28.7159 0.5501 0.1408 11.8068
# 3 26.8947 28.7159 45.1231 -1.6784 2.9313 -1.9366
# 4 1.3579 0.5501 -1.6784 22.2602 3.3784 -11.3877
# 5 0.5984 0.1408 2.9313 3.3784 23.0374 6.7560
# 6 1.8570 11.8068 -1.9366 -11.3877 6.7560 34.4536
#
#
#
# Elastic Compliance Matrix: (Units=1/GPa)
#
#
# Indices 1 2 3 4 5 6 
#
# 1 0.012372 -0.000591 -0.007284 -0.002570 0.001582 -0.002033
# 2 -0.000591 0.019326 -0.013118 -0.008062 0.006026 -0.011175
# 3 -0.007284 -0.013118 0.036454 0.011464 -0.009757 0.012639
# 4 -0.002570 -0.008062 0.011464 0.063459 -0.018928 0.028232
# 5 0.001582 0.006026 -0.009757 -0.018928 0.053022 -0.019352
# 6 -0.002033 -0.011175 0.012639 0.028232 -0.019352 0.046800
#
#
# Mechanical properties :
#
#
# Convention : Reuss Voigt Hill
#
# Bulk Modulus (GPa) = 38.21570 42.10713 40.16141
# Shear Modulus (GPa) = 17.72162 25.54982 21.63572
#
# Velocity S-wave (km/s) = 2.88176 3.46019 3.18414
# Velocity P-wave (km/s) = 5.38340 5.97459 5.68668
#
# Compressibility (1/GPa) = 0.02616726
#
# Stress axis : x y z
#
# Youngs Moduli (GPa) = 80.82460 51.74262 27.43205
#
# Poissons Ratio (x) = 0.03058 0.19981
# Poissons Ratio (y) = 0.04777 0.35985
# Poissons Ratio (z) = 0.58872 0.67875
#
# Static dielectric constant tensor:
#      x y z
#    x 1.773720 0.001770 0.015280 
#    y 0.001770 1.799930 0.022340 
#    z 0.015280 0.022340 1.773870 
# 
# From -- ./inp_files/70538.got.cif
#   From: 2010.05.17/outbox.cif.g08.bks.cpg/sg2_36_cif.got.tgz:70538.got - 2010.06.03 11:33:40.
