data_PCOD9026460
_publ_section_title
;
Structure prediction by ZEFSAII (Michael W. Deem and Ramdas Pophale) SiO2 
 PCOD9026460
Probable space group: P -1
;
_chemical_formula_sum "Si O2"
_cell_formula_units_Z 14
_cell_length_a 8.590008
_cell_length_b 7.671234
_cell_length_c 21.491800
_cell_angle_alpha 121.033666
_cell_angle_beta 54.511672
_cell_angle_gamma 144.896557
_cell_volume 660.619242
_symmetry_space_group_name_H-M "P -1"
_symmetry_group_IT_number 2
_symmetry_cell_setting 'triclinic'
loop_
_space_group_symop_operation_xyz
x,y,z
-x,-y,-z
loop_
_atom_site_type_symbol
_atom_site_label
_atom_site_fract_x
_atom_site_fract_y
_atom_site_fract_z
Si Si1 0.151597 0.037512 0.033662
Si Si2 0.202820 0.127124 0.671572
Si Si3 0.131917 0.546265 0.785172
Si Si4 0.536151 0.996908 0.878894
Si Si5 0.153618 0.482696 0.411013
Si Si6 0.910509 0.598119 0.725817
Si Si7 0.541693 0.498165 0.129242
O O1 0.367154 0.358181 0.078611
O O2 0.879360 0.775951 0.092167
O O3 0.342706 0.994793 0.963789
O O4 0.000000 0.000000 0.000000
O O5 0.201214 0.366439 0.721390
O O6 0.511957 0.281689 0.613242
O O7 0.984626 0.852795 0.622680
O O8 0.088674 0.940089 0.728081
O O9 0.389092 0.854193 0.819293
O O10 0.052248 0.593636 0.748595
O O11 0.855861 0.328945 0.854775
O O12 0.531884 0.772656 0.870209
O O13 0.105932 0.528970 0.360107
O O14 0.000000 0.500000 0.500000
O O15 0.599201 0.431646 0.786729
#
# Coordination Sequence:
#
# PCOD9026460 Si02
#       7
#     2   2   2   2   2   2   2
#     4  12  25  40  59  90 125 167 216 264 315 366
#     4  10  22  41  64  92 128 159 208 249 314 364
#     4  12  23  41  65  94 126 165 218 254 308 373
#     4  12  24  41  61  91 126 169 214 266 312 367
#     4  10  22  43  69  94 130 164 201 252 316 374
#     4  10  25  38  69  91 125 166 210 258 312 371
#     4  12  23  41  62  87 125 167 212 260 317 370
#
# _framework density 21.192236000000001
#
# number of rings (size 3 to 8) (size 9 to 14) (size 15 to 20)
#    0.857    0.000    1.429    6.857    4.000    0.000 
#    0.000    1.429    0.000    0.000    0.000    0.000 
#    0.000    0.000    0.000    0.000    0.000    0.000 
#
# Total GULP energy -78311.918859 kJ/mol
# GULP energy per Si atom -5593.708490 kJ/mol
# Density = 2.114400 g / cm^3
# Si number density = 21.192236 Si / 1000 Ang^3
#
#
#
# Elastic Constant Matrix: (Units=GPa)
#
#
# Indices 1 2 3 4 5 6 
#
# 1 78.0267 -9.4215 33.2752 -12.1169 -1.7957 -3.5126
# 2 -9.4215 52.5147 11.0841 -1.0671 -10.4352 12.3018
# 3 33.2752 11.0841 132.2372 -2.7941 -8.9918 -1.7060
# 4 -12.1169 -1.0671 -2.7941 23.7326 11.4750 -2.1059
# 5 -1.7957 -10.4352 -8.9918 11.4750 26.6992 0.7914
# 6 -3.5126 12.3018 -1.7060 -2.1059 0.7914 26.8428
#
#
#
# Elastic Compliance Matrix: (Units=1/GPa)
#
#
# Indices 1 2 3 4 5 6 
#
# 1 0.016605 0.003120 -0.004448 0.009880 -0.003448 0.001337
# 2 0.003120 0.025045 -0.002355 -0.004080 0.011311 -0.011873
# 3 -0.004448 -0.002355 0.009033 -0.002670 0.002947 0.000775
# 4 0.009880 -0.004080 -0.002670 0.061167 -0.028374 0.008628
# 5 -0.003448 0.011311 0.002947 -0.028374 0.055106 -0.009298
# 6 0.001337 -0.011873 0.000775 0.008628 -0.009298 0.043870
#
#
# Mechanical properties :
#
#
# Convention : Reuss Voigt Hill
#
# Bulk Modulus (GPa) = 23.08519 36.96158 30.02339
# Shear Modulus (GPa) = 21.49319 30.64431 26.06875
#
# Velocity S-wave (km/s) = 3.18811 3.80678 3.51110
# Velocity P-wave (km/s) = 4.94661 6.06638 5.53489
#
# Compressibility (1/GPa) = 0.04331781
#
# Stress axis : x y z
#
# Youngs Moduli (GPa) = 60.22243 39.92796 110.70668
#
# Poissons Ratio (x) = -0.12459 0.49246
# Poissons Ratio (y) = -0.18792 0.26069
# Poissons Ratio (z) = 0.26789 0.09402
#
# Static dielectric constant tensor:
#      x y z
#    x 1.759680 -0.003740 0.036080 
#    y -0.003740 1.776810 0.009010 
#    z 0.036080 0.009010 1.750210 
# 
# From -- ./inp_files/115694.got.cif
#   From: 2010.05.17/outbox.cif.g08.bks.cpg/sg2_58_cif.got.tgz:115694.got - 2010.06.03 11:33:40.
