data_PCOD9026334
_publ_section_title
;
Structure prediction by ZEFSAII (Michael W. Deem and Ramdas Pophale) SiO2 
 PCOD9026334
Probable space group: P -1
;
_chemical_formula_sum "Si O2"
_cell_formula_units_Z 12
_cell_length_a 9.744620
_cell_length_b 4.989054
_cell_length_c 14.372680
_cell_angle_alpha 54.798784
_cell_angle_beta 115.288006
_cell_angle_gamma 103.913109
_cell_volume 516.239402
_symmetry_space_group_name_H-M "P -1"
_symmetry_group_IT_number 2
_symmetry_cell_setting 'triclinic'
loop_
_space_group_symop_operation_xyz
x,y,z
-x,-y,-z
loop_
_atom_site_type_symbol
_atom_site_label
_atom_site_fract_x
_atom_site_fract_y
_atom_site_fract_z
Si Si1 0.980904 0.132815 0.107031
Si Si2 0.700793 0.950529 0.840461
Si Si3 0.807168 0.700580 0.481036
Si Si4 0.930389 0.007269 0.629244
Si Si5 0.502004 0.887867 0.417092
Si Si6 0.357652 0.802413 0.037867
O O1 0.121421 0.959586 0.129982
O O2 0.020306 0.109923 0.231936
O O3 0.807228 0.026454 0.063024
O O4 0.000000 0.500000 0.000000
O O5 0.633247 0.987308 0.710968
O O6 0.663798 0.569481 0.930562
O O7 0.625205 0.185942 0.847615
O O8 0.866351 0.730412 0.598345
O O9 0.657066 0.926246 0.395040
O O10 0.811630 0.313772 0.537738
O O11 0.924249 0.855079 0.411544
O O12 0.500000 0.500000 0.500000
O O13 0.500000 0.000000 0.500000
O O14 0.500000 0.000000 0.000000
#
# Coordination Sequence:
#
# PCOD9026334 Si02
#       6
#     2   2   2   2   2   2
#     4  10  23  43  69  95 131 174 224 269 331 389
#     4  11  24  43  66  96 133 171 221 268 327 398
#     4  10  22  41  63  97 128 168 218 262 332 385
#     4  10  22  41  66  93 130 169 214 273 322 393
#     4  12  24  40  67  96 135 171 217 267 332 392
#     4  11  25  44  65  96 130 173 222 272 331 383
#
# _framework density 23.245031000000001
#
# number of rings (size 3 to 8) (size 9 to 14) (size 15 to 20)
#    0.000    1.333    0.000    5.000    2.333    6.667 
#    6.000    0.000    0.000    0.000    0.000    0.000 
#    0.000    0.000    0.000    0.000    0.000    0.000 
#
# Total GULP energy -67044.214357 kJ/mol
# GULP energy per Si atom -5587.017863 kJ/mol
# Density = 2.319212 g / cm^3
# Si number density = 23.245031 Si / 1000 Ang^3
#
#
#
# Elastic Constant Matrix: (Units=GPa)
#
#
# Indices 1 2 3 4 5 6 
#
# 1 157.6223 28.9091 26.0117 4.6383 -3.3824 19.8636
# 2 28.9091 98.1341 6.4692 13.2675 -10.3022 -2.3881
# 3 26.0117 6.4692 88.1944 11.7316 -2.7721 1.9870
# 4 4.6383 13.2675 11.7316 29.5646 -6.7910 -5.1123
# 5 -3.3824 -10.3022 -2.7721 -6.7910 33.0946 10.6354
# 6 19.8636 -2.3881 1.9870 -5.1123 10.6354 36.3688
#
#
#
# Elastic Compliance Matrix: (Units=1/GPa)
#
#
# Indices 1 2 3 4 5 6 
#
# 1 0.007667 -0.002095 -0.001964 0.000051 0.001469 -0.004640
# 2 -0.002095 0.011638 0.000413 -0.004418 0.002351 0.000577
# 3 -0.001964 0.000413 0.012547 -0.004891 0.000070 -0.000294
# 4 0.000051 -0.004418 -0.004891 0.039597 0.005048 0.004039
# 5 0.001469 0.002351 0.000070 0.005048 0.035453 -0.010310
# 6 -0.004640 0.000577 -0.000294 0.004039 -0.010310 0.033667
#
#
# Mechanical properties :
#
#
# Convention : Reuss Voigt Hill
#
# Bulk Modulus (GPa) = 40.71583 51.85899 46.28741
# Shear Modulus (GPa) = 32.04117 38.64296 35.34207
#
# Velocity S-wave (km/s) = 3.71672 4.08170 3.90348
# Velocity P-wave (km/s) = 5.99772 6.67621 6.34604
#
# Compressibility (1/GPa) = 0.02456047
#
# Stress axis : x y z
#
# Youngs Moduli (GPa) = 130.42295 85.92346 79.70106
#
# Poissons Ratio (x) = 0.18000 0.15652
# Poissons Ratio (y) = 0.27323 -0.03290
# Poissons Ratio (z) = 0.25613 -0.03547
#
# Static dielectric constant tensor:
#      x y z
#    x 2.152050 0.053730 0.021500 
#    y 0.053730 1.855600 0.012010 
#    z 0.021500 0.012010 1.842400 
# 
# From -- ./inp_files/371774.got.cif
#   From: 2010.05.17/outbox.cif.g08.bks.cpg/sg2_186_cif.got.tgz:371774.got - 2010.06.03 11:33:40.
