data_PCOD9026427
_publ_section_title
;
Structure prediction by ZEFSAII (Michael W. Deem and Ramdas Pophale) SiO2 
 PCOD9026427
Probable space group: P -1
;
_chemical_formula_sum "Si O2"
_cell_formula_units_Z 12
_cell_length_a 4.924075
_cell_length_b 14.065245
_cell_length_c 7.608112
_cell_angle_alpha 115.102809
_cell_angle_beta 71.969138
_cell_angle_gamma 105.507862
_cell_volume 448.023224
_symmetry_space_group_name_H-M "P -1"
_symmetry_group_IT_number 2
_symmetry_cell_setting 'triclinic'
loop_
_space_group_symop_operation_xyz
x,y,z
-x,-y,-z
loop_
_atom_site_type_symbol
_atom_site_label
_atom_site_fract_x
_atom_site_fract_y
_atom_site_fract_z
Si Si1 0.355707 0.237828 0.263094
Si Si2 0.679728 0.957302 0.085258
Si Si3 0.307164 0.079027 0.476871
Si Si4 0.471188 0.300597 0.812635
Si Si5 0.294024 0.424744 0.612462
Si Si6 0.103073 0.634183 0.915338
O O1 0.293449 0.149955 0.358464
O O2 0.167613 0.326215 0.434104
O O3 0.329456 0.167720 0.037044
O O4 0.682544 0.300033 0.218959
O O5 0.558187 0.008329 0.322102
O O6 0.500000 0.000000 0.000000
O O7 0.000000 0.000000 0.000000
O O8 0.389619 0.177901 0.671763
O O9 0.000000 0.000000 0.500000
O O10 0.459231 0.371899 0.693658
O O11 0.761499 0.324400 0.889109
O O12 0.219123 0.341843 0.009026
O O13 0.500000 0.500000 0.500000
O O14 0.109055 0.509433 0.793575
#
# Coordination Sequence:
#
# PCOD9026427 Si02
#       6
#     2   2   2   2   2   2
#     4   9  21  41  64  93 128 171 216 264 322 384
#     4  10  22  41  64  91 126 169 214 263 318 381
#     4  10  22  42  67  98 132 172 219 271 325 387
#     4  11  24  42  66  96 129 167 213 265 321 383
#     4   9  20  42  66  94 127 166 212 264 321 382
#     4  11  23  42  65  94 129 169 213 265 321 383
#
# _framework density 26.784327000000001
#
# number of rings (size 3 to 8) (size 9 to 14) (size 15 to 20)
#    0.000    2.000    0.000    2.000    0.000    9.333 
#    0.000   28.333    0.000    0.000    0.000    0.000 
#    0.000    0.000    0.000    0.000    0.000    0.000 
#
# Total GULP energy -67094.907321 kJ/mol
# GULP energy per Si atom -5591.242277 kJ/mol
# Density = 2.672336 g / cm^3
# Si number density = 26.784327 Si / 1000 Ang^3
#
#
#
# Elastic Constant Matrix: (Units=GPa)
#
#
# Indices 1 2 3 4 5 6 
#
# 1 85.5365 12.6774 11.2855 4.9220 0.0104 -0.5689
# 2 12.6774 204.8730 62.0386 25.5343 -4.2538 -4.3281
# 3 11.2855 62.0386 196.8899 34.2777 10.5631 5.4402
# 4 4.9220 25.5343 34.2777 84.0524 3.8004 -0.7883
# 5 0.0104 -4.2538 10.5631 3.8004 43.1662 -3.4180
# 6 -0.5689 -4.3281 5.4402 -0.7883 -3.4180 39.4168
#
#
#
# Elastic Compliance Matrix: (Units=1/GPa)
#
#
# Indices 1 2 3 4 5 6 
#
# 1 0.011853 -0.000546 -0.000458 -0.000344 0.000100 0.000176
# 2 -0.000546 0.005581 -0.001631 -0.001040 0.001112 0.000906
# 3 -0.000458 -0.001631 0.006066 -0.001892 -0.001573 -0.001197
# 4 -0.000344 -0.001040 -0.001892 0.013042 -0.000761 0.000337
# 5 0.000100 0.001112 -0.001573 -0.000761 0.023918 0.002400
# 6 0.000176 0.000906 -0.001197 0.000337 0.002400 0.025852
#
#
# Mechanical properties :
#
#
# Convention : Reuss Voigt Hill
#
# Bulk Modulus (GPa) = 54.85261 73.25585 64.05423
# Shear Modulus (GPa) = 51.19925 60.08026 55.63975
#
# Velocity S-wave (km/s) = 4.37686 4.74129 4.56271
# Velocity P-wave (km/s) = 6.78722 7.57514 7.19198
#
# Compressibility (1/GPa) = 0.01823067
#
# Stress axis : x y z
#
# Youngs Moduli (GPa) = 84.36528 179.19431 164.85779
#
# Poissons Ratio (x) = 0.09788 0.07543
# Poissons Ratio (y) = 0.04608 0.26883
# Poissons Ratio (z) = 0.03860 0.29221
#
# Static dielectric constant tensor:
#      x y z
#    x 2.268540 0.041180 0.101590 
#    y 0.041180 2.176740 -0.045590 
#    z 0.101590 -0.045590 2.194490 
# 
# From -- ./inp_files/134406.got.cif
#   From: 2010.05.17/outbox.cif.g08.bks.cpg/sg2_68_cif.got.tgz:134406.got - 2010.06.03 11:33:40.
