data_PCOD9026169
_publ_section_title
;
Structure prediction by ZEFSAII (Michael W. Deem and Ramdas Pophale) SiO2 
 PCOD9026169
Probable space group: P -1
;
_chemical_formula_sum "Si O2"
_cell_formula_units_Z 15
_cell_length_a 7.739121
_cell_length_b 15.905441
_cell_length_c 14.303146
_cell_angle_alpha 28.594131
_cell_angle_beta 103.221901
_cell_angle_gamma 84.619982
_cell_volume 635.525447
_symmetry_space_group_name_H-M "P -1"
_symmetry_group_IT_number 2
_symmetry_cell_setting 'triclinic'
loop_
_space_group_symop_operation_xyz
x,y,z
-x,-y,-z
loop_
_atom_site_type_symbol
_atom_site_label
_atom_site_fract_x
_atom_site_fract_y
_atom_site_fract_z
Si Si1 0.500000 0.000000 0.000000
Si Si2 0.067386 0.868570 0.037406
Si Si3 0.768751 0.870607 0.637810
Si Si4 0.831652 0.658592 0.237587
Si Si5 0.186327 0.408918 0.237451
Si Si6 0.828333 0.300959 0.489439
Si Si7 0.382850 0.695328 0.720695
Si Si8 0.581463 0.614556 0.522868
O O1 0.587090 0.833032 0.083401
O O2 0.519703 0.809025 0.255153
O O3 0.896591 0.809784 0.059655
O O4 0.299060 0.617710 0.293218
O O5 0.044244 0.044473 0.791890
O O6 0.000000 0.000000 0.000000
O O7 0.818806 0.782686 0.622697
O O8 0.500000 0.000000 0.500000
O O9 0.778823 0.064899 0.481056
O O10 0.950341 0.649123 0.940288
O O11 0.854352 0.485181 0.339905
O O12 0.000000 0.500000 0.500000
O O13 0.404914 0.352465 0.263691
O O14 0.250392 0.408810 0.352872
O O15 0.760037 0.323046 0.353709
O O16 0.631580 0.336717 0.495565
O O17 0.500000 0.500000 0.000000
#
# Coordination Sequence:
#
# PCOD9026169 Si02
#       8
#     1   2   2   2   2   2   2   2
#     4  12  24  40  64  94 132 170 226 276 326 390
#     4  12  24  43  69  94 133 177 226 280 337 397
#     4   9  18  39  67  92 124 169 213 271 333 396
#     4  12  25  43  64  99 131 174 229 275 338 399
#     4   9  20  40  64  95 128 170 221 269 334 400
#     4  11  25  44  67  94 135 180 220 279 341 397
#     4  10  22  41  62  96 132 170 218 271 333 401
#     4  11  24  41  66  97 135 178 226 277 335 401
#
# _framework density 23.602516999999999
#
# number of rings (size 3 to 8) (size 9 to 14) (size 15 to 20)
#    0.000    1.333    4.000    0.800    1.867    2.667 
#   12.000    0.000    0.000    0.000    0.000    0.000 
#    0.000    0.000    0.000    0.000    0.000    0.000 
#
# Total GULP energy -83564.905060 kJ/mol
# GULP energy per Si atom -5570.993671 kJ/mol
# Density = 2.354880 g / cm^3
# Si number density = 23.602517 Si / 1000 Ang^3
#
#
#
# Elastic Constant Matrix: (Units=GPa)
#
#
# Indices 1 2 3 4 5 6 
#
# 1 75.8793 46.3473 26.6051 -12.3212 -3.6792 0.4105
# 2 46.3473 177.4022 86.6581 -32.6473 -15.3596 31.3965
# 3 26.6051 86.6581 138.8274 -44.4713 -6.2793 6.0121
# 4 -12.3212 -32.6473 -44.4713 43.9383 7.7153 -7.2067
# 5 -3.6792 -15.3596 -6.2793 7.7153 41.0394 -4.3574
# 6 0.4105 31.3965 6.0121 -7.2067 -4.3574 37.2079
#
#
#
# Elastic Compliance Matrix: (Units=1/GPa)
#
#
# Indices 1 2 3 4 5 6 
#
# 1 0.016297 -0.004811 0.000355 0.002084 -0.000231 0.004199
# 2 -0.004811 0.011333 -0.005902 -0.000660 0.002136 -0.008434
# 3 0.000355 -0.005902 0.014068 0.010996 -0.001598 0.004645
# 4 0.002084 -0.000660 0.010996 0.035618 -0.004530 0.005126
# 5 -0.000231 0.002136 -0.001598 -0.004530 0.025817 0.000605
# 6 0.004199 -0.008434 0.004645 0.005126 0.000605 0.034259
#
#
# Mechanical properties :
#
#
# Convention : Reuss Voigt Hill
#
# Bulk Modulus (GPa) = 47.65766 79.03664 63.34715
# Shear Modulus (GPa) = 30.28453 39.93701 35.11077
#
# Velocity S-wave (km/s) = 3.58593 4.11794 3.86111
# Velocity P-wave (km/s) = 6.11399 7.49460 6.83922
#
# Compressibility (1/GPa) = 0.02098298
#
# Stress axis : x y z
#
# Youngs Moduli (GPa) = 61.36003 88.24079 71.08390
#
# Poissons Ratio (x) = 0.42450 -0.02524
# Poissons Ratio (y) = 0.29519 0.41952
# Poissons Ratio (z) = -0.02179 0.52077
#
# Static dielectric constant tensor:
#      x y z
#    x 1.994160 0.031130 0.080620 
#    y 0.031130 1.883300 0.008650 
#    z 0.080620 0.008650 1.871880 
# 
# From -- ./inp_files/505086.got.cif
#   From: 2010.05.17/outbox.cif.g08.bks.cpg/sg2_253_cif.got.tgz:505086.got - 2010.06.03 11:33:40.
