data_PCOD9026389
_publ_section_title
;
Structure prediction by ZEFSAII (Michael W. Deem and Ramdas Pophale) SiO2 
 PCOD9026389
Probable space group: P -1
;
_chemical_formula_sum "Si O2"
_cell_formula_units_Z 16
_cell_length_a 9.133493
_cell_length_b 24.442965
_cell_length_c 12.426754
_cell_angle_alpha 153.637156
_cell_angle_beta 33.886239
_cell_angle_gamma 137.119254
_cell_volume 686.171763
_symmetry_space_group_name_H-M "P -1"
_symmetry_group_IT_number 2
_symmetry_cell_setting 'triclinic'
loop_
_space_group_symop_operation_xyz
x,y,z
-x,-y,-z
loop_
_atom_site_type_symbol
_atom_site_label
_atom_site_fract_x
_atom_site_fract_y
_atom_site_fract_z
Si Si1 0.666423 0.621628 0.624167
Si Si2 0.622835 0.079879 0.910224
Si Si3 0.345365 0.384775 0.844820
Si Si4 0.328674 0.336766 0.534002
Si Si5 0.315177 0.872877 0.276071
Si Si6 0.119102 0.534603 0.601326
Si Si7 0.284206 0.856809 0.799995
Si Si8 0.140898 0.015586 0.828716
O O1 0.500000 0.500000 0.500000
O O2 0.813672 0.637702 0.448027
O O3 0.840764 0.585037 0.556786
O O4 0.456409 0.737573 0.965642
O O5 0.784494 0.100292 0.737519
O O6 0.471100 0.954610 0.800249
O O7 0.399628 0.191367 0.238652
O O8 0.768849 0.102650 0.973146
O O9 0.230741 0.387518 0.797693
O O10 0.554454 0.271311 0.522450
O O11 0.500000 0.500000 0.000000
O O12 0.091319 0.372185 0.050608
O O13 0.607917 0.401562 0.468512
O O14 0.558191 0.963182 0.292704
O O15 0.134353 0.910988 0.555231
O O16 0.000000 0.500000 0.500000
O O17 0.008494 0.864880 0.921366
O O18 0.000000 0.000000 0.000000
#
# Coordination Sequence:
#
# PCOD9026389 Si02
#       8
#     2   2   2   2   2   2   2   2
#     4   9  21  42  62  92 125 159 206 255 305 365
#     4   9  19  43  60  90 122 157 203 256 300 370
#     4  11  23  40  61  93 123 161 206 249 308 364
#     4   9  20  43  62  86 126 154 205 260 295 373
#     4  10  22  42  66  90 123 161 208 253 310 368
#     4  11  22  39  63  89 123 162 204 251 303 360
#     4  10  22  41  64  88 127 159 203 258 304 365
#     4  11  23  41  62  93 122 160 206 257 307 363
#
# _framework density 23.317777
#
# number of rings (size 3 to 8) (size 9 to 14) (size 15 to 20)
#    0.000    2.000    2.500    0.000    1.750    2.000 
#   24.750    0.000    0.000    0.000    0.000    0.000 
#    0.000    0.000    0.000    0.000    0.000    0.000 
#
# Total GULP energy -89368.680648 kJ/mol
# GULP energy per Si atom -5585.542541 kJ/mol
# Density = 2.326471 g / cm^3
# Si number density = 23.317777 Si / 1000 Ang^3
#
#
#
# Elastic Constant Matrix: (Units=GPa)
#
#
# Indices 1 2 3 4 5 6 
#
# 1 133.4547 37.1152 37.6409 -5.4363 9.4223 -50.7372
# 2 37.1152 63.2343 32.8882 -0.1810 19.9306 -19.1712
# 3 37.6409 32.8882 120.0223 -3.7328 27.0212 -26.6236
# 4 -5.4363 -0.1810 -3.7328 49.3778 -8.9838 -0.0205
# 5 9.4223 19.9306 27.0212 -8.9838 36.7067 -7.5286
# 6 -50.7372 -19.1712 -26.6236 -0.0205 -7.5286 37.0366
#
#
#
# Elastic Compliance Matrix: (Units=1/GPa)
#
#
# Indices 1 2 3 4 5 6 
#
# 1 0.016605 -0.004280 0.000079 0.002360 0.002926 0.021185
# 2 -0.004280 0.023459 -0.002347 -0.002375 -0.009966 0.002566
# 3 0.000079 -0.002347 0.011666 -0.000235 -0.006155 0.006028
# 4 0.002360 -0.002375 -0.000235 0.021731 0.006839 0.003236
# 5 0.002926 -0.009966 -0.006155 0.006839 0.038574 0.002270
# 6 0.021185 0.002566 0.006028 0.003236 0.002270 0.062146
#
#
# Mechanical properties :
#
#
# Convention : Reuss Voigt Hill
#
# Bulk Modulus (GPa) = 25.88385 59.11111 42.49748
# Shear Modulus (GPa) = 24.98076 38.56202 31.77139
#
# Velocity S-wave (km/s) = 3.27665 4.07106 3.69526
# Velocity P-wave (km/s) = 5.04379 6.89226 6.03917
#
# Compressibility (1/GPa) = 0.03863413
#
# Stress axis : x y z
#
# Youngs Moduli (GPa) = 60.22355 42.62701 85.72254
#
# Poissons Ratio (x) = 0.18244 -0.00679
# Poissons Ratio (y) = 0.25776 0.20119
# Poissons Ratio (z) = -0.00477 0.10004
#
# Static dielectric constant tensor:
#      x y z
#    x 1.953680 -0.000580 0.041470 
#    y -0.000580 1.894060 -0.004320 
#    z 0.041470 -0.004320 1.885660 
# 
# From -- ./inp_files/406738.got.cif
#   From: 2010.05.17/outbox.cif.g08.bks.cpg/sg2_204_cif.got.tgz:406738.got - 2010.06.03 11:33:40.
