data_PCOD9026121
_publ_section_title
;
Structure prediction by ZEFSAII (Michael W. Deem and Ramdas Pophale) SiO2 
 PCOD9026121
Probable space group: P -1
;
_chemical_formula_sum "Si O2"
_cell_formula_units_Z 16
_cell_length_a 13.493677
_cell_length_b 20.266444
_cell_length_c 21.771023
_cell_angle_alpha 20.355886
_cell_angle_beta 160.437494
_cell_angle_gamma 152.258890
_cell_volume 693.373943
_symmetry_space_group_name_H-M "P -1"
_symmetry_group_IT_number 2
_symmetry_cell_setting 'triclinic'
loop_
_space_group_symop_operation_xyz
x,y,z
-x,-y,-z
loop_
_atom_site_type_symbol
_atom_site_label
_atom_site_fract_x
_atom_site_fract_y
_atom_site_fract_z
Si Si1 0.891366 0.125445 0.165726
Si Si2 0.046611 0.538971 0.897363
Si Si3 0.379184 0.541364 0.646457
Si Si4 0.231190 0.943304 0.631728
Si Si5 0.922303 0.199990 0.672521
Si Si6 0.188948 0.842073 0.173206
Si Si7 0.592930 0.437308 0.540137
Si Si8 0.781170 0.826797 0.255761
O O1 0.849080 0.977987 0.215561
O O2 0.565418 0.144603 0.990420
O O3 0.123620 0.051019 0.414884
O O4 0.994311 0.329313 0.022814
O O5 0.208394 0.717645 0.803875
O O6 0.703640 0.599424 0.642160
O O7 0.272599 0.503681 0.117210
O O8 0.198862 0.345763 0.720660
O O9 0.215209 0.665855 0.389719
O O10 0.346033 0.673391 0.572003
O O11 0.539220 0.022681 0.766629
O O12 0.000000 0.000000 0.500000
O O13 0.981615 0.162139 0.669111
O O14 0.926195 0.993962 0.887100
O O15 0.227936 0.751588 0.206795
O O16 0.500000 0.500000 0.500000
O O17 0.771946 0.617204 0.461941
#
# Coordination Sequence:
#
# PCOD9026121 Si02
#       8
#     2   2   2   2   2   2   2   2
#     4  10  23  38  61  90 131 152 202 261 311 376
#     4  11  23  39  62  91 126 162 201 255 315 368
#     4  11  24  44  61  92 123 168 215 260 303 362
#     4  12  22  34  59  93 125 157 197 254 321 372
#     4  11  24  42  67  86 126 168 215 257 301 372
#     4  12  23  39  66  92 123 163 208 258 317 368
#     4  11  24  39  65  98 132 160 200 260 319 380
#     4  10  22  41  62  92 123 170 205 250 319 370
#
# _framework density 23.075572000000001
#
# number of rings (size 3 to 8) (size 9 to 14) (size 15 to 20)
#    0.000    1.000    5.000    1.875    5.250    1.000 
#    0.000    0.625    0.000    1.500    0.000    0.000 
#    0.000    0.000    0.000    0.000    0.000    0.000 
#
# Total GULP energy -89269.914902 kJ/mol
# GULP energy per Si atom -5579.369681 kJ/mol
# Density = 2.302305 g / cm^3
# Si number density = 23.075572 Si / 1000 Ang^3
#
#
#
# Elastic Constant Matrix: (Units=GPa)
#
#
# Indices 1 2 3 4 5 6 
#
# 1 89.8433 3.9006 20.6543 -11.5463 3.9069 -7.8490
# 2 3.9006 96.7114 22.9980 -35.6517 -1.9735 0.7771
# 3 20.6543 22.9980 86.7375 -30.0461 -9.9163 -1.4045
# 4 -11.5463 -35.6517 -30.0461 46.1898 8.6703 -1.0853
# 5 3.9069 -1.9735 -9.9163 8.6703 27.6543 -9.0618
# 6 -7.8490 0.7771 -1.4045 -1.0853 -9.0618 27.6545
#
#
#
# Elastic Compliance Matrix: (Units=1/GPa)
#
#
# Indices 1 2 3 4 5 6 
#
# 1 0.012365 0.001068 -0.002499 0.002839 -0.002601 0.002612
# 2 0.001068 0.014748 -0.000395 0.011984 -0.003233 -0.000720
# 3 -0.002499 -0.000395 0.015665 0.008586 0.003800 0.001680
# 4 0.002839 0.011984 0.008586 0.038834 -0.008790 -0.000451
# 5 -0.002601 -0.003233 0.003800 -0.008790 0.044984 0.013941
# 6 0.002612 -0.000720 0.001680 -0.000451 0.013941 0.041558
#
#
# Mechanical properties :
#
#
# Convention : Reuss Voigt Hill
#
# Bulk Modulus (GPa) = 25.55822 40.93312 33.24567
# Shear Modulus (GPa) = 27.04924 35.34900 31.19912
#
# Velocity S-wave (km/s) = 3.42746 3.91817 3.68100
# Velocity P-wave (km/s) = 5.17332 6.18439 5.70131
#
# Compressibility (1/GPa) = 0.03912636
#
# Stress axis : x y z
#
# Youngs Moduli (GPa) = 80.87460 67.80420 63.83699
#
# Poissons Ratio (x) = -0.07243 0.15954
# Poissons Ratio (y) = -0.08639 0.02521
# Poissons Ratio (z) = 0.20212 0.02678
#
# Static dielectric constant tensor:
#      x y z
#    x 1.928200 0.001810 -0.016500 
#    y 0.001810 1.820450 0.008480 
#    z -0.016500 0.008480 1.951690 
# 
# From -- ./inp_files/612257.got.cif
#   From: 2010.05.17/outbox.cif.g08.bks.cpg/sg2_307_cif.got.tgz:612257.got - 2010.06.03 11:33:40.
