data_PCOD9026441
_publ_section_title
;
Structure prediction by ZEFSAII (Michael W. Deem and Ramdas Pophale) SiO2 
 PCOD9026441
Probable space group: P -1
;
_chemical_formula_sum "Si O2"
_cell_formula_units_Z 14
_cell_length_a 17.827242
_cell_length_b 9.223408
_cell_length_c 7.421468
_cell_angle_alpha 113.016561
_cell_angle_beta 94.739575
_cell_angle_gamma 37.477475
_cell_volume 624.360052
_symmetry_space_group_name_H-M "P -1"
_symmetry_group_IT_number 2
_symmetry_cell_setting 'triclinic'
loop_
_space_group_symop_operation_xyz
x,y,z
-x,-y,-z
loop_
_atom_site_type_symbol
_atom_site_label
_atom_site_fract_x
_atom_site_fract_y
_atom_site_fract_z
Si Si1 0.410106 0.155196 0.376821
Si Si2 0.597479 0.585104 0.008942
Si Si3 0.265514 0.737899 0.603808
Si Si4 0.885430 0.075469 0.966322
Si Si5 0.788573 0.777287 0.687457
Si Si6 0.078237 0.196173 0.492772
Si Si7 0.576311 0.342024 0.164124
O O1 0.350998 0.428625 0.456493
O O2 0.284613 0.253115 0.407552
O O3 0.500000 0.000000 0.500000
O O4 0.509552 0.894140 0.131472
O O5 0.555369 0.544574 0.151718
O O6 0.750881 0.364727 0.971913
O O7 0.556146 0.536977 0.817863
O O8 0.361797 0.718115 0.662479
O O9 0.162796 0.943384 0.521654
O O10 0.173494 0.884543 0.838080
O O11 0.942956 0.848402 0.728005
O O12 0.000000 0.000000 0.000000
O O13 0.832262 0.808038 0.541954
O O14 0.929396 0.495011 0.677766
O O15 0.688504 0.050320 0.928988
#
# Coordination Sequence:
#
# PCOD9026441 Si02
#       7
#     2   2   2   2   2   2   2
#     4  11  20  37  67  95 126 170 210 258 321 371
#     4   9  18  35  63  88 125 166 204 253 316 371
#     4  11  23  41  69  96 124 169 212 262 316 370
#     4  11  22  39  63  92 128 166 203 260 322 368
#     4  10  22  41  64  91 130 169 208 263 315 372
#     4  11  24  42  65  95 130 165 217 260 309 383
#     4   9  17  37  65  87 120 171 206 250 314 371
#
# _framework density 22.42296
#
# number of rings (size 3 to 8) (size 9 to 14) (size 15 to 20)
#    0.000    1.714    5.714    0.857    0.000    2.857 
#    0.000    3.571    6.286    0.000    0.000    0.000 
#    0.000    0.000    0.000    0.000    0.000    0.000 
#
# Total GULP energy -78182.460246 kJ/mol
# GULP energy per Si atom -5584.461446 kJ/mol
# Density = 2.237192 g / cm^3
# Si number density = 22.422960 Si / 1000 Ang^3
#
#
#
# Elastic Constant Matrix: (Units=GPa)
#
#
# Indices 1 2 3 4 5 6 
#
# 1 131.6866 57.2662 33.0227 -3.2092 20.2574 -36.8232
# 2 57.2662 160.3866 57.4747 16.1725 9.6365 -6.1230
# 3 33.0227 57.4747 83.6240 5.8766 14.6358 -3.9718
# 4 -3.2092 16.1725 5.8766 39.3639 -5.8047 -0.4796
# 5 20.2574 9.6365 14.6358 -5.8047 35.0891 3.5816
# 6 -36.8232 -6.1230 -3.9718 -0.4796 3.5816 33.6005
#
#
#
# Elastic Compliance Matrix: (Units=1/GPa)
#
#
# Indices 1 2 3 4 5 6 
#
# 1 0.016242 -0.004391 -0.001090 0.002155 -0.009185 0.017881
# 2 -0.004391 0.009762 -0.005256 -0.003353 0.001890 -0.003904
# 3 -0.001090 -0.005256 0.017032 -0.001246 -0.005279 0.000405
# 4 0.002155 -0.003353 -0.001246 0.027847 0.004650 0.001505
# 5 -0.009185 0.001890 -0.005279 0.004650 0.037713 -0.014299
# 6 0.017881 -0.003904 0.000405 0.001505 -0.014299 0.050239
#
#
# Mechanical properties :
#
#
# Convention : Reuss Voigt Hill
#
# Bulk Modulus (GPa) = 46.38082 74.58049 60.48065
# Shear Modulus (GPa) = 26.66714 36.80628 31.73671
#
# Velocity S-wave (km/s) = 3.45233 4.05588 3.76622
# Velocity P-wave (km/s) = 6.05152 7.43415 6.77818
#
# Compressibility (1/GPa) = 0.02156064
#
# Stress axis : x y z
#
# Youngs Moduli (GPa) = 61.56793 102.44094 58.71357
#
# Poissons Ratio (x) = 0.44985 0.06402
# Poissons Ratio (y) = 0.27036 0.30859
# Poissons Ratio (z) = 0.06714 0.53841
#
# Static dielectric constant tensor:
#      x y z
#    x 1.859420 -0.019950 -0.029880 
#    y -0.019950 1.832470 0.000950 
#    z -0.029880 0.000950 1.917210 
# 
# From -- ./inp_files/329454.got.cif
#   From: 2010.05.17/outbox.cif.g08.bks.cpg/sg2_165_cif.got.tgz:329454.got - 2010.06.03 11:33:40.
