data_PCOD9026133
_publ_section_title
;
Structure prediction by ZEFSAII (Michael W. Deem and Ramdas Pophale) SiO2 
 PCOD9026133
Probable space group: P -1
;
_chemical_formula_sum "Si O2"
_cell_formula_units_Z 14
_cell_length_a 15.712400
_cell_length_b 9.361130
_cell_length_c 7.921856
_cell_angle_alpha 97.814640
_cell_angle_beta 48.864554
_cell_angle_gamma 133.465625
_cell_volume 519.246573
_symmetry_space_group_name_H-M "P -1"
_symmetry_group_IT_number 2
_symmetry_cell_setting 'triclinic'
loop_
_space_group_symop_operation_xyz
x,y,z
-x,-y,-z
loop_
_atom_site_type_symbol
_atom_site_label
_atom_site_fract_x
_atom_site_fract_y
_atom_site_fract_z
Si Si1 0.655321 0.658804 0.585272
Si Si2 0.066348 0.967818 0.088268
Si Si3 0.834318 0.443342 0.883284
Si Si4 0.621920 0.478067 0.267088
Si Si5 0.223303 0.424051 0.350678
Si Si6 0.148280 0.757760 0.752942
Si Si7 0.486012 0.935759 0.203848
O O1 0.555466 0.459254 0.536808
O O2 0.543128 0.689280 0.688682
O O3 0.680905 0.633374 0.740248
O O4 0.873236 0.858071 0.271862
O O5 0.984966 0.810524 0.339040
O O6 0.131293 0.897488 0.881191
O O7 0.220861 0.247992 0.961885
O O8 0.802044 0.510049 0.772909
O O9 0.053037 0.656140 0.674134
O O10 0.731625 0.442481 0.151072
O O11 0.705576 0.169132 0.008859
O O12 0.364920 0.667059 0.316151
O O13 0.357674 0.910387 0.481980
O O14 0.000000 0.500000 0.000000
O O15 0.500000 0.000000 0.000000
#
# Coordination Sequence:
#
# PCOD9026133 Si02
#       7
#     2   2   2   2   2   2   2
#     4   9  21  39  60  89 130 161 208 260 314 366
#     4  10  22  41  62  93 131 157 212 270 302 375
#     4  11  25  41  65  93 128 170 213 252 321 383
#     4  11  22  38  64  93 123 172 204 259 320 366
#     4   9  21  45  59  90 130 162 208 265 310 369
#     4  12  24  42  69  96 122 170 217 259 316 374
#     4  10  24  45  64  94 132 163 206 269 317 374
#
# _framework density 26.962140999999999
#
# number of rings (size 3 to 8) (size 9 to 14) (size 15 to 20)
#    0.857    0.857    2.857    0.429    4.000    5.143 
#    5.143    0.000    0.000    0.000    0.000    0.000 
#    0.000    0.000    0.000    0.000    0.000    0.000 
#
# Total GULP energy -78031.791658 kJ/mol
# GULP energy per Si atom -5573.699404 kJ/mol
# Density = 2.690077 g / cm^3
# Si number density = 26.962141 Si / 1000 Ang^3
#
#
#
# Elastic Constant Matrix: (Units=GPa)
#
#
# Indices 1 2 3 4 5 6 
#
# 1 110.2637 0.3759 20.5815 -7.5304 7.0320 15.5281
# 2 0.3759 68.8613 7.6194 -28.9876 1.5930 -9.7883
# 3 20.5815 7.6194 90.4797 -15.3042 -14.8361 -0.0476
# 4 -7.5304 -28.9876 -15.3042 34.3078 8.0270 -2.3158
# 5 7.0320 1.5930 -14.8361 8.0270 43.0012 -4.8178
# 6 15.5281 -9.7883 -0.0476 -2.3158 -4.8178 38.8228
#
#
#
# Elastic Compliance Matrix: (Units=1/GPa)
#
#
# Indices 1 2 3 4 5 6 
#
# 1 0.010560 0.000619 -0.002672 0.002189 -0.003571 -0.004384
# 2 0.000619 0.025415 0.000998 0.023537 -0.004304 0.007031
# 3 -0.002672 0.000998 0.013160 0.005292 0.004196 0.002173
# 4 0.002189 0.023537 0.005292 0.054411 -0.008751 0.007225
# 5 -0.003571 -0.004304 0.004196 -0.008751 0.027442 0.003232
# 6 -0.004384 0.007031 0.002173 0.007225 0.003232 0.030119
#
#
# Mechanical properties :
#
#
# Convention : Reuss Voigt Hill
#
# Bulk Modulus (GPa) = 21.26508 36.30648 28.78578
# Shear Modulus (GPa) = 27.94957 39.29488 33.62222
#
# Velocity S-wave (km/s) = 3.22316 3.82174 3.53514
# Velocity P-wave (km/s) = 4.66431 5.74189 5.23092
#
# Compressibility (1/GPa) = 0.04702545
#
# Stress axis : x y z
#
# Youngs Moduli (GPa) = 94.69335 39.34665 75.98603
#
# Poissons Ratio (x) = -0.02435 0.20304
# Poissons Ratio (y) = -0.05859 -0.07584
# Poissons Ratio (z) = 0.25302 -0.03927
#
# Static dielectric constant tensor:
#      x y z
#    x 2.295770 0.003480 0.005520 
#    y 0.003480 2.188070 0.102900 
#    z 0.005520 0.102900 2.359330 
# 
# From -- ./inp_files/333351.got.cif
#   From: 2010.05.17/outbox.cif.g08.bks.cpg/sg2_167_cif.got.tgz:333351.got - 2010.06.03 11:33:40.
