data_PCOD9026793
_publ_section_title
;
Structure prediction by ZEFSAII (Michael W. Deem and Ramdas Pophale) SiO2 
 PCOD9026793
Probable space group: P -1
;
_chemical_formula_sum "Si O2"
_cell_formula_units_Z 12
_cell_length_a 11.854112
_cell_length_b 9.054205
_cell_length_c 7.140153
_cell_angle_alpha 76.126174
_cell_angle_beta 101.177296
_cell_angle_gamma 141.797214
_cell_volume 460.100662
_symmetry_space_group_name_H-M "P -1"
_symmetry_group_IT_number 2
_symmetry_cell_setting 'triclinic'
loop_
_space_group_symop_operation_xyz
x,y,z
-x,-y,-z
loop_
_atom_site_type_symbol
_atom_site_label
_atom_site_fract_x
_atom_site_fract_y
_atom_site_fract_z
Si Si1 0.009515 0.157540 0.665625
Si Si2 0.769127 0.065406 0.296736
Si Si3 0.355220 0.369523 0.761371
Si Si4 0.405551 0.821494 0.199924
Si Si5 0.722590 0.632850 0.837040
Si Si6 0.039720 0.587370 0.269829
O O1 0.916011 0.907733 0.781512
O O2 0.884772 0.095255 0.480233
O O3 0.007626 0.283655 0.787894
O O4 0.213092 0.325963 0.613555
O O5 0.902521 0.336879 0.187865
O O6 0.706692 0.870903 0.191643
O O7 0.580300 0.948743 0.340254
O O8 0.565723 0.579221 0.708699
O O9 0.329713 0.408412 0.949116
O O10 0.302306 0.562828 0.180731
O O11 0.250939 0.770360 0.248819
O O12 0.500000 0.000000 0.000000
O O13 0.000000 0.500000 0.500000
#
# Coordination Sequence:
#
# PCOD9026793 Si02
#       6
#     2   2   2   2   2   2
#     4  11  23  39  69  98 132 178 222 285 330 400
#     4  10  24  44  67 101 135 179 230 274 342 403
#     4  10  22  41  65  96 137 169 222 279 340 396
#     4  11  26  45  71  98 140 181 225 282 338 408
#     4  10  24  42  66 101 131 176 228 275 340 401
#     4  10  25  43  66 101 137 179 223 275 342 400
#
# _framework density 26.081247999999999
#
# number of rings (size 3 to 8) (size 9 to 14) (size 15 to 20)
#    0.000    1.667    0.000    2.000    9.333   10.000 
#    0.000    0.000    0.000    0.000    0.000    0.000 
#    0.000    0.000    0.000    0.000    0.000    0.000 
#
# Total GULP energy -67233.980781 kJ/mol
# GULP energy per Si atom -5602.831732 kJ/mol
# Density = 2.602189 g / cm^3
# Si number density = 26.081248 Si / 1000 Ang^3
#
#
#
# Elastic Constant Matrix: (Units=GPa)
#
#
# Indices 1 2 3 4 5 6 
#
# 1 195.0025 50.4438 14.8977 -1.4663 10.7859 32.1203
# 2 50.4438 116.7192 16.9635 -10.5147 4.7478 -0.7396
# 3 14.8977 16.9635 59.1406 -2.0188 6.8799 8.1058
# 4 -1.4663 -10.5147 -2.0188 39.8709 9.2059 4.4362
# 5 10.7859 4.7478 6.8799 9.2059 34.6280 1.3636
# 6 32.1203 -0.7396 8.1058 4.4362 1.3636 54.8861
#
#
#
# Elastic Compliance Matrix: (Units=1/GPa)
#
#
# Indices 1 2 3 4 5 6 
#
# 1 0.006575 -0.002754 -0.000146 0.000299 -0.001569 -0.003848
# 2 -0.002754 0.010372 -0.002362 0.002493 -0.000833 0.001919
# 3 -0.000146 -0.002362 0.018458 0.001431 -0.003572 -0.002699
# 4 0.000299 0.002493 0.001431 0.027950 -0.008055 -0.002411
# 5 -0.001569 -0.000833 -0.003572 -0.008055 0.032282 0.001284
# 6 -0.003848 0.001919 -0.002699 -0.002411 0.001284 0.021059
#
#
# Mechanical properties :
#
#
# Convention : Reuss Voigt Hill
#
# Bulk Modulus (GPa) = 40.19384 59.49694 49.84539
# Shear Modulus (GPa) = 36.89697 45.11415 41.00556
#
# Velocity S-wave (km/s) = 3.76532 4.16354 3.96943
# Velocity P-wave (km/s) = 5.86072 6.78050 6.33732
#
# Compressibility (1/GPa) = 0.02487943
#
# Stress axis : x y z
#
# Youngs Moduli (GPa) = 152.10106 96.41616 54.17832
#
# Poissons Ratio (x) = 0.26551 0.00792
# Poissons Ratio (y) = 0.41886 0.12798
# Poissons Ratio (z) = 0.02222 0.22776
#
# Static dielectric constant tensor:
#      x y z
#    x 2.027860 -0.015180 0.028660 
#    y -0.015180 2.047380 0.106160 
#    z 0.028660 0.106160 2.484380 
# 
# From -- ./inp_files/237939.got.cif
#   From: 2010.05.17/outbox.cif.g08.bks.cpg/sg2_119_cif.got.tgz:237939.got - 2010.06.03 11:33:40.
