data_PCOD9026800
_publ_section_title
;
Structure prediction by ZEFSAII (Michael W. Deem and Ramdas Pophale) SiO2 
 PCOD9026800
Probable space group: P -1
;
_chemical_formula_sum "Si O2"
_cell_formula_units_Z 14
_cell_length_a 12.162251
_cell_length_b 11.904768
_cell_length_c 9.693584
_cell_angle_alpha 84.751215
_cell_angle_beta 37.551488
_cell_angle_gamma 56.980431
_cell_volume 534.793731
_symmetry_space_group_name_H-M "P -1"
_symmetry_group_IT_number 2
_symmetry_cell_setting 'triclinic'
loop_
_space_group_symop_operation_xyz
x,y,z
-x,-y,-z
loop_
_atom_site_type_symbol
_atom_site_label
_atom_site_fract_x
_atom_site_fract_y
_atom_site_fract_z
Si Si1 0.343526 0.419598 0.549458
Si Si2 0.146782 0.668663 0.943070
Si Si3 0.195015 0.979301 0.932276
Si Si4 0.802040 0.507451 0.613097
Si Si5 0.250538 0.912050 0.451508
Si Si6 0.204153 0.755504 0.313940
Si Si7 0.574403 0.968283 0.595755
O O1 0.181177 0.538215 0.834818
O O2 0.547614 0.428615 0.311038
O O3 0.559237 0.208970 0.373115
O O4 0.159607 0.489535 0.588216
O O5 0.911371 0.773339 0.285348
O O6 0.012016 0.831501 0.959507
O O7 0.375909 0.969323 0.857277
O O8 0.992456 0.987970 0.203053
O O9 0.845546 0.353621 0.618765
O O10 0.000000 0.500000 0.500000
O O11 0.459973 0.677973 0.969837
O O12 0.309059 0.758958 0.354265
O O13 0.472741 0.889873 0.300302
O O14 0.097184 0.048830 0.461548
O O15 0.500000 0.000000 0.500000
#
# Coordination Sequence:
#
# PCOD9026800 Si02
#       7
#     2   2   2   2   2   2   2
#     4  11  22  40  67  94 126 174 209 263 330 375
#     4  10  22  41  65  97 130 164 219 260 321 397
#     4  11  22  40  68  91 132 171 208 267 325 379
#     4  11  24  44  64  93 133 166 216 270 316 383
#     4  11  22  42  66  92 127 167 217 264 319 384
#     4  10  24  42  66  92 123 173 215 264 323 374
#     4  10  23  38  63  97 130 165 212 263 323 386
#
# _framework density 26.178318000000001
#
# number of rings (size 3 to 8) (size 9 to 14) (size 15 to 20)
#    0.000    1.429    2.857    1.286    4.000    4.000 
#    0.000    2.857    0.000    0.000    0.000    0.000 
#    0.000    0.000    0.000    0.000    0.000    0.000 
#
# Total GULP energy -78240.474338 kJ/mol
# GULP energy per Si atom -5588.605310 kJ/mol
# Density = 2.611874 g / cm^3
# Si number density = 26.178318 Si / 1000 Ang^3
#
#
#
# Elastic Constant Matrix: (Units=GPa)
#
#
# Indices 1 2 3 4 5 6 
#
# 1 169.0214 51.0181 15.2481 -0.6263 -4.8575 47.9925
# 2 51.0181 121.9324 15.1361 8.8203 -8.8528 32.9375
# 3 15.2481 15.1361 51.1555 -0.1755 1.2110 10.9956
# 4 -0.6263 8.8203 -0.1755 31.9717 15.7324 -9.7914
# 5 -4.8575 -8.8528 1.2110 15.7324 36.6163 -5.9125
# 6 47.9925 32.9375 10.9956 -9.7914 -5.9125 49.3855
#
#
#
# Elastic Compliance Matrix: (Units=1/GPa)
#
#
# Indices 1 2 3 4 5 6 
#
# 1 0.008532 -0.001231 -0.000542 -0.002109 0.000514 -0.007706
# 2 -0.001231 0.011848 -0.001713 -0.008011 0.005019 -0.007312
# 3 -0.000542 -0.001713 0.020932 0.000573 -0.001927 -0.003108
# 4 -0.002109 -0.008011 0.000573 0.047929 -0.020518 0.014311
# 5 0.000514 0.005019 -0.001927 -0.020518 0.036977 -0.003059
# 6 -0.007706 -0.007312 -0.003108 0.014311 -0.003059 0.035777
#
#
# Mechanical properties :
#
#
# Convention : Reuss Voigt Hill
#
# Bulk Modulus (GPa) = 29.12080 56.10154 42.61117
# Shear Modulus (GPa) = 27.71387 40.97518 34.34453
#
# Velocity S-wave (km/s) = 3.25723 3.96060 3.62601
# Velocity P-wave (km/s) = 5.02934 6.51093 5.81749
#
# Compressibility (1/GPa) = 0.03433972
#
# Stress axis : x y z
#
# Youngs Moduli (GPa) = 117.20612 84.40189 47.77280
#
# Poissons Ratio (x) = 0.10390 0.02589
# Poissons Ratio (y) = 0.14429 0.08186
# Poissons Ratio (z) = 0.06351 0.14462
#
# Static dielectric constant tensor:
#      x y z
#    x 2.185000 0.023730 0.041040 
#    y 0.023730 2.074040 -0.016720 
#    z 0.041040 -0.016720 2.149730 
# 
# From -- ./inp_files/426132.got.cif
#   From: 2010.05.17/outbox.cif.g08.bks.cpg/sg2_214_cif.got.tgz:426132.got - 2010.06.03 11:33:40.
