data_PCOD9026745
_publ_section_title
;
Structure prediction by ZEFSAII (Michael W. Deem and Ramdas Pophale) SiO2 
 PCOD9026745
Probable space group: P -1
;
_chemical_formula_sum "Si O2"
_cell_formula_units_Z 16
_cell_length_a 14.893151
_cell_length_b 7.931413
_cell_length_c 5.284492
_cell_angle_alpha 89.394604
_cell_angle_beta 106.437000
_cell_angle_gamma 98.814232
_cell_volume 591.287979
_symmetry_space_group_name_H-M "P -1"
_symmetry_group_IT_number 2
_symmetry_cell_setting 'triclinic'
loop_
_space_group_symop_operation_xyz
x,y,z
-x,-y,-z
loop_
_atom_site_type_symbol
_atom_site_label
_atom_site_fract_x
_atom_site_fract_y
_atom_site_fract_z
Si Si1 0.386740 0.052621 0.158395
Si Si2 0.832970 0.740023 0.616591
Si Si3 0.200991 0.959138 0.719067
Si Si4 0.304058 0.793409 0.430127
Si Si5 0.475447 0.717614 0.080865
Si Si6 0.064793 0.354255 0.798098
Si Si7 0.892790 0.266730 0.991687
Si Si8 0.373100 0.474227 0.634069
O O1 0.361491 0.983914 0.423581
O O2 0.458791 0.210701 0.111327
O O3 0.285731 0.066127 0.948197
O O4 0.427608 0.881519 0.106019
O O5 0.870189 0.706114 0.924229
O O6 0.729586 0.632904 0.487302
O O7 0.825581 0.934287 0.541492
O O8 0.900428 0.686878 0.449366
O O9 0.249680 0.804103 0.650008
O O10 0.111384 0.893116 0.822491
O O11 0.368002 0.646715 0.470378
O O12 0.216935 0.745575 0.171731
O O13 0.399366 0.558978 0.928830
O O14 0.547658 0.646690 0.331866
O O15 0.959488 0.272238 0.801204
O O16 0.074017 0.557538 0.838167
#
# Coordination Sequence:
#
# PCOD9026745 Si02
#       8
#     2   2   2   2   2   2   2   2
#     4  10  22  42  63  97 132 179 225 286 350 412
#     4  12  27  45  71 104 146 185 232 291 349 412
#     4  11  24  44  68  97 143 184 227 285 351 417
#     4  11  23  42  69  97 134 183 229 280 354 413
#     4  10  22  41  65  94 139 171 235 289 343 418
#     4  11  27  47  74 107 140 183 235 289 347 420
#     4  10  25  45  73 101 138 182 230 286 349 420
#     4  11  22  41  66  98 134 180 230 292 344 409
#
# _framework density 27.059574000000001
#
# number of rings (size 3 to 8) (size 9 to 14) (size 15 to 20)
#    0.000    1.250    3.750    0.750    7.000    3.000 
#    0.000    2.500    0.000    0.000    0.000    0.000 
#    0.000    0.000    0.000    0.000    0.000    0.000 
#
# Total GULP energy -89604.681978 kJ/mol
# GULP energy per Si atom -5600.292624 kJ/mol
# Density = 2.699799 g / cm^3
# Si number density = 27.059574 Si / 1000 Ang^3
#
#
#
# Elastic Constant Matrix: (Units=GPa)
#
#
# Indices 1 2 3 4 5 6 
#
# 1 100.6223 26.0190 30.7865 5.1242 12.7627 -2.1246
# 2 26.0190 105.6113 24.0854 -12.9492 18.2911 5.9261
# 3 30.7865 24.0854 93.4271 -19.0383 18.5256 0.6515
# 4 5.1242 -12.9492 -19.0383 40.5611 -10.7149 0.0124
# 5 12.7627 18.2911 18.5256 -10.7149 46.7401 0.9488
# 6 -2.1246 5.9261 0.6515 0.0124 0.9488 45.5592
#
#
#
# Elastic Compliance Matrix: (Units=1/GPa)
#
#
# Indices 1 2 3 4 5 6 
#
# 1 0.012296 -0.002414 -0.004017 -0.004718 -0.001922 0.000986
# 2 -0.002414 0.011167 -0.000994 0.002699 -0.002668 -0.001496
# 3 -0.004017 -0.000994 0.014056 0.006078 -0.002688 -0.000205
# 4 -0.004718 0.002699 0.006078 0.030224 0.004767 -0.000766
# 5 -0.001922 -0.002668 -0.002688 0.004767 0.025127 -0.000229
# 6 0.000986 -0.001496 -0.000205 -0.000766 -0.000229 0.022198
#
#
# Mechanical properties :
#
#
# Convention : Reuss Voigt Hill
#
# Bulk Modulus (GPa) = 44.11044 51.27138 47.69091
# Shear Modulus (GPa) = 36.37042 41.15674 38.76358
#
# Velocity S-wave (km/s) = 3.67016 3.90419 3.78898
# Velocity P-wave (km/s) = 5.85634 6.26995 6.06667
#
# Compressibility (1/GPa) = 0.02267037
#
# Stress axis : x y z
#
# Youngs Moduli (GPa) = 81.32582 89.54898 71.14273
#
# Poissons Ratio (x) = 0.21619 0.28575
# Poissons Ratio (y) = 0.19634 0.07070
# Poissons Ratio (z) = 0.32665 0.08900
#
# Static dielectric constant tensor:
#      x y z
#    x 2.117640 -0.019210 -0.048250 
#    y -0.019210 2.072820 -0.019260 
#    z -0.048250 -0.019260 2.220660 
# 
# From -- ./inp_files/48937.got.cif
#   From: 2010.05.17/outbox.cif.g08.bks.cpg/sg2_25_cif.got.tgz:48937.got - 2010.06.03 11:33:40.
