data_PCOD9026809
_publ_section_title
;
Structure prediction by ZEFSAII (Michael W. Deem and Ramdas Pophale) SiO2 
 PCOD9026809
Probable space group: P -1
;
_chemical_formula_sum "Si O2"
_cell_formula_units_Z 16
_cell_length_a 28.042764
_cell_length_b 17.443905
_cell_length_c 6.528470
_cell_angle_alpha 133.772495
_cell_angle_beta 46.005373
_cell_angle_gamma 160.958357
_cell_volume 741.077384
_symmetry_space_group_name_H-M "P -1"
_symmetry_group_IT_number 2
_symmetry_cell_setting 'triclinic'
loop_
_space_group_symop_operation_xyz
x,y,z
-x,-y,-z
loop_
_atom_site_type_symbol
_atom_site_label
_atom_site_fract_x
_atom_site_fract_y
_atom_site_fract_z
Si Si1 0.902679 0.613029 0.660173
Si Si2 0.574809 0.505993 0.681648
Si Si3 0.362060 0.142334 0.295423
Si Si4 0.668437 0.205879 0.851756
Si Si5 0.492218 0.194222 0.648318
Si Si6 0.662735 0.245588 0.365167
Si Si7 0.838790 0.008863 0.699801
Si Si8 0.913251 0.265347 0.344397
O O1 0.766467 0.443466 0.909511
O O2 0.794570 0.417061 0.443461
O O3 0.990491 0.662138 0.642167
O O4 0.031010 0.848543 0.574029
O O5 0.499933 0.387281 0.462977
O O6 0.539017 0.354168 0.649901
O O7 0.747263 0.782502 0.656682
O O8 0.500000 0.500000 0.000000
O O9 0.275080 0.092150 0.298772
O O10 0.244388 0.946679 0.463351
O O11 0.429260 0.146372 0.962031
O O12 0.643909 0.067004 0.530788
O O13 0.708141 0.238820 0.025853
O O14 0.500000 0.000000 0.000000
O O15 0.635925 0.326494 0.509841
O O16 0.500000 0.000000 0.500000
O O17 0.891754 0.166716 0.014346
O O18 0.000000 0.500000 0.500000
#
# Coordination Sequence:
#
# PCOD9026809 Si02
#       8
#     2   2   2   2   2   2   2   2
#     4  11  24  40  67  92 134 177 218 275 343 399
#     4  12  24  44  70  98 140 179 232 279 327 404
#     4  11  24  41  69 100 134 177 234 269 343 402
#     4  10  22  41  65  97 133 169 224 279 335 394
#     4  11  25  37  69 104 131 173 231 283 333 392
#     4  11  23  43  69  99 136 177 227 280 343 401
#     4  11  25  45  63  99 136 188 216 278 343 399
#     4  11  26  40  64  98 145 177 220 280 347 409
#
# _framework density 21.590188000000001
#
# number of rings (size 3 to 8) (size 9 to 14) (size 15 to 20)
#    0.000    1.000    5.000    1.125    7.000    1.000 
#    0.000    0.625    0.000    6.000    0.000    0.000 
#    0.000    0.000    0.000    0.000    0.000    0.000 
#
# Total GULP energy -89077.649456 kJ/mol
# GULP energy per Si atom -5567.353091 kJ/mol
# Density = 2.154105 g / cm^3
# Si number density = 21.590188 Si / 1000 Ang^3
#
#
#
# Elastic Constant Matrix: (Units=GPa)
#
#
# Indices 1 2 3 4 5 6 
#
# 1 78.6021 23.3521 22.1343 16.1866 19.8271 -9.8035
# 2 23.3521 132.4621 25.0046 -20.6713 5.5065 -12.6331
# 3 22.1343 25.0046 117.1445 -1.9610 24.4870 5.2640
# 4 16.1866 -20.6713 -1.9610 41.8131 5.4764 11.4990
# 5 19.8271 5.5065 24.4870 5.4764 33.5057 2.5548
# 6 -9.8035 -12.6331 5.2640 11.4990 2.5548 33.3423
#
#
#
# Elastic Compliance Matrix: (Units=1/GPa)
#
#
# Indices 1 2 3 4 5 6 
#
# 1 0.019938 -0.003655 -0.001738 -0.010984 -0.008834 0.009217
# 2 -0.003655 0.009385 -0.001382 0.005719 0.000644 0.000678
# 3 -0.001738 -0.001382 0.010735 0.002190 -0.006721 -0.002970
# 4 -0.010984 0.005719 0.002190 0.034872 -0.000720 -0.013380
# 5 -0.008834 0.000644 -0.006721 -0.000720 0.040313 -0.004133
# 6 0.009217 0.000678 -0.002970 -0.013380 -0.004133 0.038359
#
#
# Mechanical properties :
#
#
# Convention : Reuss Voigt Hill
#
# Bulk Modulus (GPa) = 37.72526 52.13230 44.92878
# Shear Modulus (GPa) = 28.41123 38.91338 33.66231
#
# Velocity S-wave (km/s) = 3.63151 4.25003 3.95289
# Velocity P-wave (km/s) = 5.92411 6.94855 6.45668
#
# Compressibility (1/GPa) = 0.02650743
#
# Stress axis : x y z
#
# Youngs Moduli (GPa) = 50.15646 106.55528 93.15321
#
# Poissons Ratio (x) = 0.38941 0.16195
# Poissons Ratio (y) = 0.18330 0.12874
# Poissons Ratio (z) = 0.08720 0.14726
#
# Static dielectric constant tensor:
#      x y z
#    x 1.867220 -0.005070 0.058570 
#    y -0.005070 1.867910 -0.041830 
#    z 0.058570 -0.041830 1.956100 
# 
# From -- ./inp_files/128761.got.cif
#   From: 2010.05.17/outbox.cif.g08.bks.cpg/sg2_65_cif.got.tgz:128761.got - 2010.06.03 11:33:40.
