data_PCOD9026726
_publ_section_title
;
Structure prediction by ZEFSAII (Michael W. Deem and Ramdas Pophale) SiO2 
 PCOD9026726
Probable space group: P -1
;
_chemical_formula_sum "Si O2"
_cell_formula_units_Z 16
_cell_length_a 15.029788
_cell_length_b 12.416559
_cell_length_c 9.495821
_cell_angle_alpha 105.893765
_cell_angle_beta 94.086391
_cell_angle_gamma 27.563921
_cell_volume 727.750117
_symmetry_space_group_name_H-M "P -1"
_symmetry_group_IT_number 2
_symmetry_cell_setting 'triclinic'
loop_
_space_group_symop_operation_xyz
x,y,z
-x,-y,-z
loop_
_atom_site_type_symbol
_atom_site_label
_atom_site_fract_x
_atom_site_fract_y
_atom_site_fract_z
Si Si1 0.857863 0.638515 0.667179
Si Si2 0.636119 0.540136 0.879334
Si Si3 0.441974 0.746613 0.503370
Si Si4 0.179770 0.869080 0.394192
Si Si5 0.467134 0.228255 0.765870
Si Si6 0.151291 0.405705 0.848990
Si Si7 0.824310 0.418888 0.589018
Si Si8 0.241152 0.079537 0.858392
O O1 0.782846 0.596337 0.632118
O O2 0.000000 0.500000 0.500000
O O3 0.002803 0.500456 0.767027
O O4 0.666145 0.940728 0.751075
O O5 0.714869 0.323987 0.784468
O O6 0.795326 0.426771 0.754665
O O7 0.410972 0.826856 0.887264
O O8 0.627054 0.585970 0.056298
O O9 0.368443 0.704400 0.448301
O O10 0.470206 0.778059 0.369855
O O11 0.653881 0.533437 0.534649
O O12 0.270265 0.993116 0.677106
O O13 0.000000 0.000000 0.500000
O O14 0.044006 0.134360 0.443270
O O15 0.301741 0.316943 0.749705
O O16 0.277371 0.172636 0.874069
O O17 0.990197 0.662012 0.013265
#
# Coordination Sequence:
#
# PCOD9026726 Si02
#       8
#     2   2   2   2   2   2   2   2
#     4  12  24  41  66  98 137 171 211 263 324 388
#     4  10  23  42  64  95 126 170 216 273 313 383
#     4  11  24  44  64  96 129 169 215 269 320 386
#     4  10  23  43  70  94 125 167 223 268 322 374
#     4  12  25  41  65  98 136 169 211 263 333 376
#     4  11  24  38  65  98 133 171 213 262 318 385
#     4  10  23  41  68  96 127 171 219 260 321 382
#     4  10  22  41  65  94 129 171 216 262 316 381
#
# _framework density 21.985568000000001
#
# number of rings (size 3 to 8) (size 9 to 14) (size 15 to 20)
#    0.000    1.250    1.250    4.500    7.000    7.500 
#    0.000    0.625    0.000    0.000    0.000    0.000 
#    0.000    0.000    0.000    0.000    0.000    0.000 
#
# Total GULP energy -89345.771809 kJ/mol
# GULP energy per Si atom -5584.110738 kJ/mol
# Density = 2.193553 g / cm^3
# Si number density = 21.985568 Si / 1000 Ang^3
#
#
#
# Elastic Constant Matrix: (Units=GPa)
#
#
# Indices 1 2 3 4 5 6 
#
# 1 96.8870 7.5602 17.1323 -7.9684 4.3616 -23.2349
# 2 7.5602 69.7382 19.8741 8.8748 14.8171 -10.5716
# 3 17.1323 19.8741 85.6018 8.0427 12.5889 4.0549
# 4 -7.9684 8.8748 8.0427 36.9700 4.0521 2.1114
# 5 4.3616 14.8171 12.5889 4.0521 31.6327 -0.3854
# 6 -23.2349 -10.5716 4.0549 2.1114 -0.3854 24.6972
#
#
#
# Elastic Compliance Matrix: (Units=1/GPa)
#
#
# Indices 1 2 3 4 5 6 
#
# 1 0.014866 0.001805 -0.004182 0.002971 -0.001426 0.015169
# 2 0.001805 0.018714 -0.003892 -0.003096 -0.006941 0.010504
# 3 -0.004182 -0.003892 0.014476 -0.002323 -0.003159 -0.007828
# 4 0.002971 -0.003096 -0.002323 0.029171 -0.001780 -0.000670
# 5 -0.001426 -0.006941 -0.003159 -0.001780 0.036509 -0.003073
# 6 0.015169 0.010504 -0.007828 -0.000670 -0.003073 0.060552
#
#
# Mechanical properties :
#
#
# Convention : Reuss Voigt Hill
#
# Bulk Modulus (GPa) = 28.15501 37.92890 33.04195
# Shear Modulus (GPa) = 25.16784 32.50399 28.83592
#
# Velocity S-wave (km/s) = 3.38708 3.84920 3.62551
# Velocity P-wave (km/s) = 5.30380 6.08640 5.70853
#
# Compressibility (1/GPa) = 0.03551766
#
# Stress axis : x y z
#
# Youngs Moduli (GPa) = 67.26614 53.43660 69.07852
#
# Poissons Ratio (x) = -0.09644 0.28890
# Poissons Ratio (y) = -0.12139 0.26884
# Poissons Ratio (z) = 0.28132 0.20797
#
# Static dielectric constant tensor:
#      x y z
#    x 1.847900 -0.005400 0.039170 
#    y -0.005400 1.872500 -0.002970 
#    z 0.039170 -0.002970 1.813230 
# 
# From -- ./inp_files/308069.got.cif
#   From: 2010.05.17/outbox.cif.g08.bks.cpg/sg2_155_cif.got.tgz:308069.got - 2010.06.03 11:33:40.
