data_PCOD9026459
_publ_section_title
;
Structure prediction by ZEFSAII (Michael W. Deem and Ramdas Pophale) SiO2 
 PCOD9026459
Probable space group: P -1
;
_chemical_formula_sum "Si O2"
_cell_formula_units_Z 16
_cell_length_a 8.935944
_cell_length_b 20.095017
_cell_length_c 14.513175
_cell_angle_alpha 157.869921
_cell_angle_beta 46.304860
_cell_angle_gamma 134.408799
_cell_volume 692.482325
_symmetry_space_group_name_H-M "P -1"
_symmetry_group_IT_number 2
_symmetry_cell_setting 'triclinic'
loop_
_space_group_symop_operation_xyz
x,y,z
-x,-y,-z
loop_
_atom_site_type_symbol
_atom_site_label
_atom_site_fract_x
_atom_site_fract_y
_atom_site_fract_z
Si Si1 0.583856 0.545624 0.736383
Si Si2 0.682651 0.121430 0.439116
Si Si3 0.642128 0.371529 0.320337
Si Si4 0.070760 0.131302 0.051373
Si Si5 0.255484 0.642763 0.126128
Si Si6 0.696524 0.060835 0.764791
Si Si7 0.080875 0.254637 0.721732
Si Si8 0.123527 0.590050 0.426486
O O1 0.557618 0.368811 0.457651
O O2 0.723137 0.523880 0.738918
O O3 0.715880 0.711955 0.834072
O O4 0.374425 0.599929 0.929637
O O5 0.616757 0.200513 0.663089
O O6 0.781914 0.291190 0.548904
O O7 0.862852 0.003420 0.224083
O O8 0.487302 0.005412 0.316945
O O9 0.500000 0.500000 0.500000
O O10 0.893771 0.467054 0.340933
O O11 0.626574 0.185756 0.033197
O O12 0.905826 0.262100 0.292258
O O13 0.000000 0.000000 0.000000
O O14 0.044827 0.703713 0.261728
O O15 0.204930 0.451451 0.954460
O O16 0.905874 0.170498 0.763875
O O17 0.765368 0.879098 0.536270
#
# Coordination Sequence:
#
# PCOD9026459 Si02
#       8
#     2   2   2   2   2   2   2   2
#     4  11  23  40  65  93 126 170 218 261 313 384
#     4  11  23  40  66  94 127 168 214 266 316 380
#     4  11  22  40  66  94 129 167 206 261 325 384
#     4   9  19  36  58  90 122 153 202 259 313 364
#     4  11  24  43  64  92 130 175 216 260 323 383
#     4  11  23  41  65  96 126 166 218 268 322 376
#     4  10  24  43  62  91 131 169 214 266 322 384
#     4  10  22  41  64  92 127 168 214 262 317 382
#
# _framework density 23.105283
#
# number of rings (size 3 to 8) (size 9 to 14) (size 15 to 20)
#    0.000    1.500    0.000    6.000    0.000    9.000 
#    0.000    2.500    0.000    1.500    0.000    0.000 
#    0.000    0.000    0.000    0.000    0.000    0.000 
#
# Total GULP energy -89277.659350 kJ/mol
# GULP energy per Si atom -5579.853709 kJ/mol
# Density = 2.305269 g / cm^3
# Si number density = 23.105283 Si / 1000 Ang^3
#
#
#
# Elastic Constant Matrix: (Units=GPa)
#
#
# Indices 1 2 3 4 5 6 
#
# 1 80.8556 -14.1871 56.4347 0.8126 -11.9566 4.6707
# 2 -14.1871 49.1842 21.4134 -1.4408 10.0658 5.8105
# 3 56.4347 21.4134 186.6642 -14.1394 3.8380 -5.4578
# 4 0.8126 -1.4408 -14.1394 35.2920 -6.0192 -3.3761
# 5 -11.9566 10.0658 3.8380 -6.0192 47.5209 -1.1234
# 6 4.6707 5.8105 -5.4578 -3.3761 -1.1234 12.0856
#
#
#
# Elastic Compliance Matrix: (Units=1/GPa)
#
#
# Indices 1 2 3 4 5 6 
#
# 1 0.022572 0.012190 -0.009254 -0.005175 0.002717 -0.019956
# 2 0.012190 0.031163 -0.008332 -0.005483 -0.004155 -0.025374
# 3 -0.009254 -0.008332 0.009894 0.005052 -0.000405 0.013424
# 4 -0.005175 -0.005483 0.005052 0.032494 0.003954 0.016362
# 5 0.002717 -0.004155 -0.000405 0.003954 0.023236 0.004029
# 6 -0.019956 -0.025374 0.013424 0.016362 0.004029 0.113662
#
#
# Mechanical properties :
#
#
# Convention : Reuss Voigt Hill
#
# Bulk Modulus (GPa) = 18.92631 49.33624 34.13128
# Shear Modulus (GPa) = 19.12588 35.84924 27.48756
#
# Velocity S-wave (km/s) = 2.88022 3.94326 3.45289
# Velocity P-wave (km/s) = 4.38976 6.49088 5.54083
#
# Compressibility (1/GPa) = 0.05283650
#
# Stress axis : x y z
#
# Youngs Moduli (GPa) = 44.30221 32.08977 101.06781
#
# Poissons Ratio (x) = -0.39116 0.93529
# Poissons Ratio (y) = -0.54003 0.84209
# Poissons Ratio (z) = 0.40998 0.26737
#
# Static dielectric constant tensor:
#      x y z
#    x 1.878640 -0.016460 0.013470 
#    y -0.016460 1.895950 -0.002440 
#    z 0.013470 -0.002440 1.896130 
# 
# From -- ./inp_files/500542.got.cif
#   From: 2010.05.17/outbox.cif.g08.bks.cpg/sg2_251_cif.got.tgz:500542.got - 2010.06.03 11:33:40.
