data_PCOD9026747
_publ_section_title
;
Structure prediction by ZEFSAII (Michael W. Deem and Ramdas Pophale) SiO2 
 PCOD9026747
Probable space group: P -1
;
_chemical_formula_sum "Si O2"
_cell_formula_units_Z 16
_cell_length_a 16.766318
_cell_length_b 8.785096
_cell_length_c 11.741724
_cell_angle_alpha 73.203871
_cell_angle_beta 131.600153
_cell_angle_gamma 65.466548
_cell_volume 656.204652
_symmetry_space_group_name_H-M "P -1"
_symmetry_group_IT_number 2
_symmetry_cell_setting 'triclinic'
loop_
_space_group_symop_operation_xyz
x,y,z
-x,-y,-z
loop_
_atom_site_type_symbol
_atom_site_label
_atom_site_fract_x
_atom_site_fract_y
_atom_site_fract_z
Si Si1 0.273231 0.451254 0.676932
Si Si2 0.621202 0.256996 0.501558
Si Si3 0.985891 0.512860 0.633422
Si Si4 0.966509 0.939779 0.751022
Si Si5 0.548064 0.178058 0.785956
Si Si6 0.652399 0.655189 0.675657
Si Si7 0.127629 0.313512 0.050116
Si Si8 0.900301 0.294234 0.318692
O O1 0.452012 0.252756 0.800522
O O2 0.290167 0.457685 0.828775
O O3 0.183890 0.390110 0.589213
O O4 0.103889 0.792574 0.400148
O O5 0.510071 0.563989 0.347983
O O6 0.458138 0.323865 0.344142
O O7 0.777737 0.982624 0.800232
O O8 0.760943 0.108184 0.555090
O O9 0.974604 0.705016 0.532045
O O10 0.979911 0.526360 0.760549
O O11 0.215848 0.159823 0.912250
O O12 0.084584 0.724044 0.799342
O O13 0.128594 0.707923 0.053624
O O14 0.446960 0.217922 0.572322
O O15 0.702776 0.764269 0.753637
O O16 0.000000 0.500000 0.000000
O O17 0.000000 0.000000 0.500000
#
# Coordination Sequence:
#
# PCOD9026747 Si02
#       8
#     2   2   2   2   2   2   2   2
#     4  10  24  42  68  89 126 170 214 262 319 362
#     4  11  23  39  60  94 136 165 211 248 311 388
#     4  12  23  43  64  94 129 163 213 262 314 377
#     4  10  22  41  65  95 125 167 213 262 310 376
#     4  11  26  39  63 101 129 168 206 256 317 389
#     4  12  22  38  62  93 134 170 203 253 325 370
#     4  12  23  38  60  92 129 172 205 252 306 376
#     4  10  22  46  69  91 122 166 219 269 311 368
#
# _framework density 24.382636999999999
#
# number of rings (size 3 to 8) (size 9 to 14) (size 15 to 20)
#    0.000    1.000    3.750    2.625    1.750    1.500 
#    0.000    1.250    0.000    6.750    0.000    0.000 
#    0.000    0.000    0.000    0.000    0.000    0.000 
#
# Total GULP energy -89222.145962 kJ/mol
# GULP energy per Si atom -5576.384123 kJ/mol
# Density = 2.432714 g / cm^3
# Si number density = 24.382637 Si / 1000 Ang^3
#
#
#
# Elastic Constant Matrix: (Units=GPa)
#
#
# Indices 1 2 3 4 5 6 
#
# 1 151.1082 63.8755 20.6589 1.5577 13.3375 -4.8217
# 2 63.8755 110.2497 24.3596 -15.2289 -6.4730 0.0136
# 3 20.6589 24.3596 51.4374 -4.4959 1.1653 1.4268
# 4 1.5577 -15.2289 -4.4959 29.1517 0.3599 -9.2102
# 5 13.3375 -6.4730 1.1653 0.3599 29.1939 -8.9296
# 6 -4.8217 0.0136 1.4268 -9.2102 -8.9296 68.5000
#
#
#
# Elastic Compliance Matrix: (Units=1/GPa)
#
#
# Indices 1 2 3 4 5 6 
#
# 1 0.010118 -0.006555 -0.001175 -0.004272 -0.006172 -0.000641
# 2 -0.006555 0.015308 -0.004108 0.008140 0.006948 0.001621
# 3 -0.001175 -0.004108 0.022007 0.001147 -0.001442 -0.000574
# 4 -0.004272 0.008140 0.001147 0.040732 0.004983 0.005800
# 5 -0.006172 0.006948 -0.001442 0.004983 0.040298 0.005517
# 6 -0.000641 0.001621 -0.000574 0.005800 0.005517 0.016064
#
#
# Mechanical properties :
#
#
# Convention : Reuss Voigt Hill
#
# Bulk Modulus (GPa) = 42.09217 58.95369 50.52293
# Shear Modulus (GPa) = 28.38967 38.96254 33.67611
#
# Velocity S-wave (km/s) = 3.41594 4.00179 3.72042
# Velocity P-wave (km/s) = 5.73227 6.75155 6.26268
#
# Compressibility (1/GPa) = 0.02375739
#
# Stress axis : x y z
#
# Youngs Moduli (GPa) = 98.83840 65.32713 45.43944
#
# Poissons Ratio (x) = 0.42819 0.05340
# Poissons Ratio (y) = 0.64784 0.18665
# Poissons Ratio (z) = 0.11616 0.26834
#
# Static dielectric constant tensor:
#      x y z
#    x 1.994850 -0.030020 -0.005890 
#    y -0.030020 1.989440 -0.041960 
#    z -0.005890 -0.041960 2.030260 
# 
# From -- ./inp_files/447207.got.cif
#   From: 2010.05.17/outbox.cif.g08.bks.cpg/sg2_224_cif.got.tgz:447207.got - 2010.06.03 11:33:40.
