data_PCOD9026807
_publ_section_title
;
Structure prediction by ZEFSAII (Michael W. Deem and Ramdas Pophale) SiO2 
 PCOD9026807
Probable space group: P -1
;
_chemical_formula_sum "Si O2"
_cell_formula_units_Z 16
_cell_length_a 11.350363
_cell_length_b 16.985356
_cell_length_c 10.372923
_cell_angle_alpha 52.087308
_cell_angle_beta 145.643007
_cell_angle_gamma 139.435410
_cell_volume 733.482635
_symmetry_space_group_name_H-M "P -1"
_symmetry_group_IT_number 2
_symmetry_cell_setting 'triclinic'
loop_
_space_group_symop_operation_xyz
x,y,z
-x,-y,-z
loop_
_atom_site_type_symbol
_atom_site_label
_atom_site_fract_x
_atom_site_fract_y
_atom_site_fract_z
Si Si1 0.575116 0.642116 0.151401
Si Si2 0.842259 0.153735 0.111363
Si Si3 0.201846 0.673095 0.926910
Si Si4 0.149448 0.800639 0.501801
Si Si5 0.262487 0.629789 0.637902
Si Si6 0.651290 0.478120 0.554642
Si Si7 0.342697 0.003381 0.654883
Si Si8 0.632326 0.755664 0.606302
O O1 0.621512 0.540432 0.338469
O O2 0.859498 0.757003 0.267244
O O3 0.439403 0.666783 0.118953
O O4 0.392692 0.610815 0.897111
O O5 0.799314 0.253709 0.026213
O O6 0.093361 0.219290 0.187114
O O7 0.851513 0.087668 0.316479
O O8 0.612560 0.054846 0.914024
O O9 0.188090 0.746283 0.721016
O O10 0.936961 0.544830 0.793331
O O11 0.210896 0.733466 0.518363
O O12 0.309319 0.940192 0.550095
O O13 0.470447 0.687931 0.654827
O O14 0.000000 0.500000 0.500000
O O15 0.500000 0.500000 0.500000
O O16 0.529779 0.340113 0.555421
O O17 0.327918 0.116730 0.505823
#
# Coordination Sequence:
#
# PCOD9026807 Si02
#       8
#     2   2   2   2   2   2   2   2
#     4  10  22  41  70  89 131 181 209 271 339 375
#     4  10  22  41  65  97 132 172 219 263 335 395
#     4   9  19  38  63  96 128 167 217 268 328 395
#     4   9  21  42  65  93 124 171 222 264 322 385
#     4  11  25  46  69  97 131 171 227 269 322 393
#     4  11  23  39  61 100 137 163 218 270 330 401
#     4  10  24  42  64  93 136 172 215 275 324 386
#     4  12  25  40  65  98 133 173 218 272 324 392
#
# _framework density 21.813742000000001
#
# number of rings (size 3 to 8) (size 9 to 14) (size 15 to 20)
#    0.000    1.750    1.250    2.625    1.750   10.000 
#    0.000    1.250    0.000    0.000    0.000    0.000 
#    0.000    0.000    0.000    0.000    0.000    0.000 
#
# Total GULP energy -89302.002063 kJ/mol
# GULP energy per Si atom -5581.375129 kJ/mol
# Density = 2.176409 g / cm^3
# Si number density = 21.813742 Si / 1000 Ang^3
#
#
#
# Elastic Constant Matrix: (Units=GPa)
#
#
# Indices 1 2 3 4 5 6 
#
# 1 155.1351 49.8956 59.1571 21.0954 25.3681 -13.0409
# 2 49.8956 142.3966 -3.6645 -14.2426 -8.1761 -20.7147
# 3 59.1571 -3.6645 183.0924 44.7820 31.7287 -29.0788
# 4 21.0954 -14.2426 44.7820 60.7876 18.6364 -13.8531
# 5 25.3681 -8.1761 31.7287 18.6364 40.1202 -3.0423
# 6 -13.0409 -20.7147 -29.0788 -13.8531 -3.0423 45.7645
#
#
#
# Elastic Compliance Matrix: (Units=1/GPa)
#
#
# Indices 1 2 3 4 5 6 
#
# 1 0.009349 -0.003913 -0.002167 -0.001499 -0.004393 -0.001229
# 2 -0.003913 0.009620 0.001034 0.003234 0.002497 0.005041
# 3 -0.002167 0.001034 0.008094 -0.003156 -0.003064 0.003835
# 4 -0.001499 0.003234 -0.003156 0.023267 -0.006277 0.005657
# 5 -0.004393 0.002497 -0.003064 -0.006277 0.033418 -0.001747
# 6 -0.001229 0.005041 0.003835 0.005657 -0.001747 0.027816
#
#
# Mechanical properties :
#
#
# Convention : Reuss Voigt Hill
#
# Bulk Modulus (GPa) = 58.91674 76.82227 67.86951
# Shear Modulus (GPa) = 39.27338 54.35018 46.81178
#
# Velocity S-wave (km/s) = 4.24771 4.99696 4.63749
# Velocity P-wave (km/s) = 7.15018 8.28171 7.73666
#
# Compressibility (1/GPa) = 0.01697310
#
# Stress axis : x y z
#
# Youngs Moduli (GPa) = 106.95963 103.94574 123.54426
#
# Poissons Ratio (x) = 0.40670 0.26766
# Poissons Ratio (y) = 0.41850 -0.12771
# Poissons Ratio (z) = 0.23173 -0.10745
#
# Static dielectric constant tensor:
#      x y z
#    x 2.455090 0.159810 -0.140770 
#    y 0.159810 1.918240 -0.024450 
#    z -0.140770 -0.024450 1.818490 
# 
# From -- ./inp_files/436687.got.cif
#   From: 2010.05.17/outbox.cif.g08.bks.cpg/sg2_219_cif.got.tgz:436687.got - 2010.06.03 11:33:40.
