data_PCOD9026942
_publ_section_title
;
Structure prediction by ZEFSAII (Michael W. Deem and Ramdas Pophale) SiO2 
 PCOD9026942
Probable space group: P -1
;
_chemical_formula_sum "Si O2"
_cell_formula_units_Z 16
_cell_length_a 20.638763
_cell_length_b 8.798799
_cell_length_c 21.613084
_cell_angle_alpha 39.481203
_cell_angle_beta 19.496830
_cell_angle_gamma 49.745840
_cell_volume 769.186418
_symmetry_space_group_name_H-M "P -1"
_symmetry_group_IT_number 2
_symmetry_cell_setting 'triclinic'
loop_
_space_group_symop_operation_xyz
x,y,z
-x,-y,-z
loop_
_atom_site_type_symbol
_atom_site_label
_atom_site_fract_x
_atom_site_fract_y
_atom_site_fract_z
Si Si1 0.340471 0.161125 0.417831
Si Si2 0.034430 0.118404 0.074443
Si Si3 0.908052 0.031636 0.507000
Si Si4 0.245748 0.619092 0.815210
Si Si5 0.290984 0.417763 0.255555
Si Si6 0.716699 0.578647 0.022146
Si Si7 0.453936 0.978921 0.974319
Si Si8 0.544575 0.793251 0.386716
O O1 0.306795 0.254020 0.352044
O O2 0.545107 0.374783 0.196993
O O3 0.392148 0.902726 0.452859
O O4 0.138690 0.108097 0.659718
O O5 0.907472 0.229766 0.106788
O O6 0.145563 0.349325 0.951529
O O7 0.213807 0.054816 0.897499
O O8 0.886898 0.779697 0.565079
O O9 0.677493 0.031611 0.724406
O O10 0.000000 0.000000 0.500000
O O11 0.062394 0.286628 0.253732
O O12 0.266064 0.553595 0.887900
O O13 0.467969 0.781267 0.530309
O O14 0.500000 0.500000 0.000000
O O15 0.295554 0.690309 0.189771
O O16 0.635183 0.810078 0.032816
O O17 0.500000 0.000000 0.000000
O O18 0.500000 0.500000 0.500000
#
# Coordination Sequence:
#
# PCOD9026942 Si02
#       8
#     2   2   2   2   2   2   2   2
#     4  11  22  39  60  91 124 163 208 260 315 373
#     4   9  19  38  62  85 120 156 204 258 313 379
#     4  11  23  41  63  90 126 165 211 265 311 367
#     4   9  20  38  60  89 118 156 202 260 314 367
#     4  10  22  41  66  91 126 171 209 260 318 368
#     4  12  24  39  62  92 128 164 212 263 311 373
#     4  11  22  44  63  89 131 169 209 261 309 374
#     4   9  20  38  63  87 121 158 206 262 311 383
#
# _framework density 20.801200000000001
#
# number of rings (size 3 to 8) (size 9 to 14) (size 15 to 20)
#    0.000    1.750    2.500    2.250    0.000    8.500 
#    0.000    1.250    0.000    0.000    0.000    0.000 
#    0.000    0.000    0.000    0.000    0.000    0.000 
#
# Total GULP energy -89390.676745 kJ/mol
# GULP energy per Si atom -5586.917297 kJ/mol
# Density = 2.075386 g / cm^3
# Si number density = 20.801200 Si / 1000 Ang^3
#
#
#
# Elastic Constant Matrix: (Units=GPa)
#
#
# Indices 1 2 3 4 5 6 
#
# 1 145.4577 28.8722 41.8744 -8.5607 18.4729 -0.3756
# 2 28.8722 67.4868 25.7927 1.1057 6.2742 -2.7332
# 3 41.8744 25.7927 158.7758 18.5688 16.2256 0.5197
# 4 -8.5607 1.1057 18.5688 41.3135 3.2471 -5.1341
# 5 18.4729 6.2742 16.2256 3.2471 32.0369 -13.0829
# 6 -0.3756 -2.7332 0.5197 -5.1341 -13.0829 26.6019
#
#
#
# Elastic Compliance Matrix: (Units=1/GPa)
#
#
# Indices 1 2 3 4 5 6 
#
# 1 0.008650 -0.002750 -0.001675 0.002750 -0.004649 -0.001883
# 2 -0.002750 0.016838 -0.002031 0.000110 0.000026 0.001765
# 3 -0.001675 -0.002031 0.007882 -0.003919 -0.003376 -0.002803
# 4 0.002750 0.000110 -0.003919 0.027206 -0.000231 0.005264
# 5 -0.004649 0.000026 -0.003376 -0.000231 0.044554 0.021870
# 6 -0.001883 0.001765 -0.002803 0.005264 0.021870 0.049573
#
#
# Mechanical properties :
#
#
# Convention : Reuss Voigt Hill
#
# Bulk Modulus (GPa) = 48.88061 62.75543 55.81802
# Shear Modulus (GPa) = 28.66415 38.33586 33.50000
#
# Velocity S-wave (km/s) = 3.71618 4.29763 4.01744
# Velocity P-wave (km/s) = 6.47790 7.40681 6.95788
#
# Compressibility (1/GPa) = 0.02045801
#
# Stress axis : x y z
#
# Youngs Moduli (GPa) = 115.60357 59.39062 126.86489
#
# Poissons Ratio (x) = 0.16331 0.21251
# Poissons Ratio (y) = 0.31787 0.25771
# Poissons Ratio (z) = 0.19365 0.12064
#
# Static dielectric constant tensor:
#      x y z
#    x 1.698700 0.027100 -0.017400 
#    y 0.027100 1.774030 -0.013970 
#    z -0.017400 -0.013970 1.787980 
# 
# From -- ./inp_files/529513.got.cif
#   From: 2010.05.17/outbox.cif.g08.bks.cpg/sg2_265_cif.got.tgz:529513.got - 2010.06.03 11:33:40.
