data_PCOD9026289
_publ_section_title
;
Structure prediction by ZEFSAII (Michael W. Deem and Ramdas Pophale) SiO2 
 PCOD9026289
Probable space group: P -1
;
_chemical_formula_sum "Si O2"
_cell_formula_units_Z 14
_cell_length_a 7.422789
_cell_length_b 22.922489
_cell_length_c 7.912156
_cell_angle_alpha 129.924166
_cell_angle_beta 58.194015
_cell_angle_gamma 145.262917
_cell_volume 588.288629
_symmetry_space_group_name_H-M "P -1"
_symmetry_group_IT_number 2
_symmetry_cell_setting 'triclinic'
loop_
_space_group_symop_operation_xyz
x,y,z
-x,-y,-z
loop_
_atom_site_type_symbol
_atom_site_label
_atom_site_fract_x
_atom_site_fract_y
_atom_site_fract_z
Si Si1 0.243314 0.621901 0.196897
Si Si2 0.221167 0.081609 0.888354
Si Si3 0.203612 0.245074 0.264649
Si Si4 0.128314 0.157238 0.801017
Si Si5 0.281486 0.385133 0.991756
Si Si6 0.193104 0.487365 0.487090
Si Si7 0.175373 0.841545 0.361043
O O1 0.485131 0.746723 0.228712
O O2 0.021929 0.592416 0.397047
O O3 0.514432 0.636306 0.146622
O O4 0.000000 0.500000 0.000000
O O5 0.356077 0.200186 0.107044
O O6 0.030513 0.056438 0.766712
O O7 0.460185 0.078491 0.712309
O O8 0.000000 0.000000 0.000000
O O9 0.472884 0.381386 0.399006
O O10 0.957134 0.181856 0.426192
O O11 0.067869 0.206861 0.067810
O O12 0.959167 0.134432 0.668333
O O13 0.229907 0.417825 0.245966
O O14 0.500000 0.500000 0.000000
O O15 0.975576 0.279760 0.846265
O O16 0.000000 0.500000 0.500000
#
# Coordination Sequence:
#
# PCOD9026289 Si02
#       7
#     2   2   2   2   2   2   2
#     4  11  21  36  54  83 131 162 201 259 291 359
#     4  10  24  46  71  93 120 165 218 269 328 377
#     4  10  22  41  63  93 132 165 213 260 314 376
#     4   9  23  43  59  98 129 159 219 259 314 378
#     4  11  22  34  58  93 120 172 213 232 313 377
#     4  12  20  34  62  87 125 175 206 249 305 369
#     4  11  22  44  65  90 138 165 202 274 309 373
#
# _framework density 23.797843
#
# number of rings (size 3 to 8) (size 9 to 14) (size 15 to 20)
#    0.857    0.571    4.286    1.714    2.000    1.714 
#    7.714    0.714    0.000    0.000    0.000    0.000 
#    0.000    0.000    0.000    0.000    0.000    0.000 
#
# Total GULP energy -77976.852327 kJ/mol
# GULP energy per Si atom -5569.775166 kJ/mol
# Density = 2.374368 g / cm^3
# Si number density = 23.797843 Si / 1000 Ang^3
#
#
#
# Elastic Constant Matrix: (Units=GPa)
#
#
# Indices 1 2 3 4 5 6 
#
# 1 59.9930 31.5572 17.0178 -10.9199 -4.9877 -0.8800
# 2 31.5572 106.0664 61.2679 -34.3554 11.1467 -6.5084
# 3 17.0178 61.2679 164.3448 -52.7755 9.2074 9.5118
# 4 -10.9199 -34.3554 -52.7755 57.6534 1.2060 4.7890
# 5 -4.9877 11.1467 9.2074 1.2060 27.9548 -5.1110
# 6 -0.8800 -6.5084 9.5118 4.7890 -5.1110 29.5434
#
#
#
# Elastic Compliance Matrix: (Units=1/GPa)
#
#
# Indices 1 2 3 4 5 6 
#
# 1 0.020830 -0.006963 -0.000098 -0.000460 0.006607 0.000336
# 2 -0.006963 0.015875 -0.003408 0.004943 -0.006204 0.002513
# 3 -0.000098 -0.003408 0.010551 0.008191 -0.003603 -0.006102
# 4 -0.000460 0.004943 0.008191 0.028473 -0.007341 -0.007447
# 5 0.006607 -0.006204 -0.003603 -0.007341 0.042487 0.008530
# 6 0.000336 0.002513 -0.006102 -0.007447 0.008530 0.039060
#
#
# Mechanical properties :
#
#
# Convention : Reuss Voigt Hill
#
# Bulk Modulus (GPa) = 37.99866 61.12113 49.55990
# Shear Modulus (GPa) = 26.73976 37.73440 32.23708
#
# Velocity S-wave (km/s) = 3.35568 3.98631 3.68451
# Velocity P-wave (km/s) = 5.56921 6.85031 6.24271
#
# Compressibility (1/GPa) = 0.02631672
#
# Stress axis : x y z
#
# Youngs Moduli (GPa) = 48.00835 62.99020 94.78019
#
# Poissons Ratio (x) = 0.43862 0.00932
# Poissons Ratio (y) = 0.33430 0.32301
# Poissons Ratio (z) = 0.00472 0.21467
#
# Static dielectric constant tensor:
#      x y z
#    x 1.934240 0.193610 0.075710 
#    y 0.193610 0.892760 -0.188030 
#    z 0.075710 -0.188030 1.853440 
# 
# From -- ./inp_files/197028.got.cif
#   From: 2010.05.17/outbox.cif.g08.bks.cpg/sg2_99_cif.got.tgz:197028.got - 2010.06.03 11:33:40.
