data_PCOD9026951
_publ_section_title
;
Structure prediction by ZEFSAII (Michael W. Deem and Ramdas Pophale) SiO2 
 PCOD9026951
Probable space group: P -1
;
_chemical_formula_sum "Si O2"
_cell_formula_units_Z 14
_cell_length_a 19.979723
_cell_length_b 9.410853
_cell_length_c 7.763621
_cell_angle_alpha 128.128171
_cell_angle_beta 136.240484
_cell_angle_gamma 31.275456
_cell_volume 524.147922
_symmetry_space_group_name_H-M "P -1"
_symmetry_group_IT_number 2
_symmetry_cell_setting 'triclinic'
loop_
_space_group_symop_operation_xyz
x,y,z
-x,-y,-z
loop_
_atom_site_type_symbol
_atom_site_label
_atom_site_fract_x
_atom_site_fract_y
_atom_site_fract_z
Si Si1 0.665128 0.959482 0.291026
Si Si2 0.327393 0.699134 0.287272
Si Si3 0.122765 0.349518 0.971706
Si Si4 0.681211 0.759730 0.498270
Si Si5 0.988198 0.186843 0.489711
Si Si6 0.854912 0.379513 0.036637
Si Si7 0.562666 0.569696 0.055466
O O1 0.748363 0.012533 0.570653
O O2 0.556835 0.179609 0.108346
O O3 0.591188 0.975073 0.335570
O O4 0.764554 0.672096 0.172324
O O5 0.500000 0.500000 0.500000
O O6 0.318640 0.669033 0.044019
O O7 0.258152 0.625818 0.200200
O O8 0.085996 0.592314 0.993793
O O9 0.109540 0.177344 0.718091
O O10 0.279672 0.165625 0.216195
O O11 0.000000 0.500000 0.000000
O O12 0.836781 0.492530 0.499012
O O13 0.617419 0.654342 0.341987
O O14 0.968217 0.160584 0.232597
O O15 0.000000 0.000000 0.500000
O O16 0.500000 0.500000 0.000000
#
# Coordination Sequence:
#
# PCOD9026951 Si02
#       7
#     2   2   2   2   2   2   2
#     4  10  23  42  69  94 137 178 221 269 338 412
#     4  10  23  40  68  99 137 171 228 267 336 411
#     4  10  24  44  66  97 131 172 236 282 336 404
#     4  10  22  41  66  91 137 177 217 275 344 393
#     4  10  22  43  67  92 130 173 228 286 333 395
#     4  11  23  46  72  96 135 185 220 281 350 394
#     4  11  23  41  66 103 138 174 223 275 335 413
#
# _framework density 26.710018999999999
#
# number of rings (size 3 to 8) (size 9 to 14) (size 15 to 20)
#    0.000    1.714    2.857    0.857    8.000    2.286 
#    2.571    4.286    0.000    0.000    0.000    0.000 
#    0.000    0.000    0.000    0.000    0.000    0.000 
#
# Total GULP energy -78326.391892 kJ/mol
# GULP energy per Si atom -5594.742278 kJ/mol
# Density = 2.664923 g / cm^3
# Si number density = 26.710019 Si / 1000 Ang^3
#
#
#
# Elastic Constant Matrix: (Units=GPa)
#
#
# Indices 1 2 3 4 5 6 
#
# 1 159.1975 28.3916 84.8208 8.0234 38.3387 50.0354
# 2 28.3916 74.8493 36.6423 14.5517 13.9202 23.0554
# 3 84.8208 36.6423 149.1851 2.3192 41.8078 33.2483
# 4 8.0234 14.5517 2.3192 43.3441 16.5268 3.2295
# 5 38.3387 13.9202 41.8078 16.5268 45.1129 10.5451
# 6 50.0354 23.0554 33.2483 3.2295 10.5451 56.4764
#
#
#
# Elastic Compliance Matrix: (Units=1/GPa)
#
#
# Indices 1 2 3 4 5 6 
#
# 1 0.011720 0.000561 -0.003719 0.000327 -0.005054 -0.007498
# 2 0.000561 0.017499 -0.003538 -0.005669 0.000735 -0.005371
# 3 -0.003719 -0.003538 0.012254 0.004548 -0.008502 -0.001148
# 4 0.000327 -0.005669 0.004548 0.029895 -0.013743 0.000204
# 5 -0.005054 0.000735 -0.008502 -0.013743 0.038498 0.002780
# 6 -0.007498 -0.005371 -0.001148 0.000204 0.002780 0.026687
#
#
# Mechanical properties :
#
#
# Convention : Reuss Voigt Hill
#
# Bulk Modulus (GPa) = 35.61025 75.88238 55.74632
# Shear Modulus (GPa) = 31.38586 44.54515 37.96551
#
# Velocity S-wave (km/s) = 3.43163 4.08822 3.77423
# Velocity P-wave (km/s) = 5.39097 7.12433 6.31738
#
# Compressibility (1/GPa) = 0.02808180
#
# Stress axis : x y z
#
# Youngs Moduli (GPa) = 85.32174 57.14518 81.60439
#
# Poissons Ratio (x) = -0.03206 0.30351
# Poissons Ratio (y) = -0.04787 0.28870
# Poissons Ratio (z) = 0.31733 0.20217
#
# Static dielectric constant tensor:
#      x y z
#    x 2.163030 -0.030590 -0.049300 
#    y -0.030590 2.232130 -0.006430 
#    z -0.049300 -0.006430 2.163800 
# 
# From -- ./inp_files/343064.got.cif
#   From: 2010.05.17/outbox.cif.g08.bks.cpg/sg2_172_cif.got.tgz:343064.got - 2010.06.03 11:33:40.
