data_PCOD9026171
_publ_section_title
;
Structure prediction by ZEFSAII (Michael W. Deem and Ramdas Pophale) SiO2 
 PCOD9026171
Probable space group: P -1
;
_chemical_formula_sum "Si O2"
_cell_formula_units_Z 16
_cell_length_a 11.188575
_cell_length_b 12.008430
_cell_length_c 10.427326
_cell_angle_alpha 133.782257
_cell_angle_beta 49.224164
_cell_angle_gamma 103.953754
_cell_volume 706.764182
_symmetry_space_group_name_H-M "P -1"
_symmetry_group_IT_number 2
_symmetry_cell_setting 'triclinic'
loop_
_space_group_symop_operation_xyz
x,y,z
-x,-y,-z
loop_
_atom_site_type_symbol
_atom_site_label
_atom_site_fract_x
_atom_site_fract_y
_atom_site_fract_z
Si Si1 0.275969 0.813024 0.605782
Si Si2 0.308861 0.775827 0.132070
Si Si3 0.393819 0.985956 0.854456
Si Si4 0.634040 0.530158 0.832539
Si Si5 0.140726 0.056466 0.693195
Si Si6 0.628531 0.793567 0.204922
Si Si7 0.959338 0.339579 0.862154
Si Si8 0.730744 0.895914 0.706960
O O1 0.260675 0.638276 0.449984
O O2 0.453796 0.796056 0.392810
O O3 0.126705 0.963888 0.759142
O O4 0.308061 0.861323 0.764371
O O5 0.221622 0.645514 0.056923
O O6 0.217820 0.901772 0.415086
O O7 0.284021 0.913736 0.150783
O O8 0.505836 0.668836 0.938491
O O9 0.286095 0.118352 0.141688
O O10 0.409250 0.081688 0.790874
O O11 0.573755 0.892551 0.727063
O O12 0.500000 0.500000 0.000000
O O13 0.729201 0.614489 0.925569
O O14 0.266953 0.149023 0.719303
O O15 0.990870 0.207421 0.851578
O O16 0.098463 0.235160 0.576312
O O17 0.000000 0.500000 0.000000
#
# Coordination Sequence:
#
# PCOD9026171 Si02
#       8
#     2   2   2   2   2   2   2   2
#     4  10  18  30  54  84 111 142 185 240 279 324
#     4  11  20  37  55  82 116 151 189 230 281 340
#     4  10  19  33  59  84 115 150 183 240 285 340
#     4  10  19  29  53  88 115 138 181 247 288 316
#     4  10  18  32  54  79 107 140 186 228 278 319
#     4  10  17  31  55  86 113 136 188 241 282 319
#     4  11  25  37  58  82 113 155 192 234 272 343
#     4  10  20  38  55  81 117 155 189 223 291 342
#
# _framework density 22.638383000000001
#
# number of rings (size 3 to 8) (size 9 to 14) (size 15 to 20)
#    0.000    1.750    3.750    5.250    5.250    0.000 
#    0.000    1.875    0.000   15.000    0.000    0.000 
#    0.000    0.000    0.000    0.000    0.000    0.000 
#
# Total GULP energy -89222.175716 kJ/mol
# GULP energy per Si atom -5576.385982 kJ/mol
# Density = 2.258686 g / cm^3
# Si number density = 22.638383 Si / 1000 Ang^3
#
#
#
# Elastic Constant Matrix: (Units=GPa)
#
#
# Indices 1 2 3 4 5 6 
#
# 1 97.1105 21.5173 32.0147 9.4861 34.5708 5.9235
# 2 21.5173 45.3413 31.5613 10.5722 13.2673 -0.7065
# 3 32.0147 31.5613 64.0674 15.1768 25.1778 3.5908
# 4 9.4861 10.5722 15.1768 41.3538 6.4743 13.8697
# 5 34.5708 13.2673 25.1778 6.4743 36.1425 7.3931
# 6 5.9235 -0.7065 3.5908 13.8697 7.3931 29.8183
#
#
#
# Elastic Compliance Matrix: (Units=1/GPa)
#
#
# Indices 1 2 3 4 5 6 
#
# 1 0.016183 -0.002621 -0.001346 -0.000600 -0.013581 0.000532
# 2 -0.002621 0.034988 -0.015112 -0.004568 -0.000079 0.005313
# 3 -0.001346 -0.015112 0.030321 -0.005558 -0.013752 0.002253
# 4 -0.000600 -0.004568 -0.005558 0.032043 0.003468 -0.015084
# 5 -0.013581 -0.000079 -0.013752 0.003468 0.051708 -0.010082
# 6 0.000532 0.005313 0.002253 -0.015084 -0.010082 0.042801
#
#
# Mechanical properties :
#
#
# Convention : Reuss Voigt Hill
#
# Bulk Modulus (GPa) = 23.07613 41.85621 32.46617
# Shear Modulus (GPa) = 19.18311 29.55799 24.37055
#
# Velocity S-wave (km/s) = 2.91412 3.61731 3.28459
# Velocity P-wave (km/s) = 4.64094 5.99798 5.36256
#
# Compressibility (1/GPa) = 0.04333483
#
# Stress axis : x y z
#
# Youngs Moduli (GPa) = 61.79384 28.58098 32.98095
#
# Poissons Ratio (x) = 0.07490 0.04440
# Poissons Ratio (y) = 0.16194 0.49839
# Poissons Ratio (z) = 0.08319 0.43190
#
# Static dielectric constant tensor:
#      x y z
#    x 1.988630 -0.069900 0.001260 
#    y -0.069900 2.051030 -0.006940 
#    z 0.001260 -0.006940 1.877540 
# 
# From -- ./inp_files/431936.got.cif
#   From: 2010.05.17/outbox.cif.g08.bks.cpg/sg2_216_cif.got.tgz:431936.got - 2010.06.03 11:33:40.
