data_PCOD9026519
_publ_section_title
;
Structure prediction by ZEFSAII (Michael W. Deem and Ramdas Pophale) SiO2 
 PCOD9026519
Probable space group: P -1
;
_chemical_formula_sum "Si O2"
_cell_formula_units_Z 16
_cell_length_a 18.402957
_cell_length_b 21.695925
_cell_length_c 6.680272
_cell_angle_alpha 123.068714
_cell_angle_beta 60.405608
_cell_angle_gamma 161.481236
_cell_volume 707.146914
_symmetry_space_group_name_H-M "P -1"
_symmetry_group_IT_number 2
_symmetry_cell_setting 'triclinic'
loop_
_space_group_symop_operation_xyz
x,y,z
-x,-y,-z
loop_
_atom_site_type_symbol
_atom_site_label
_atom_site_fract_x
_atom_site_fract_y
_atom_site_fract_z
Si Si1 0.279340 0.772782 0.467041
Si Si2 0.921335 0.686637 0.838511
Si Si3 0.113262 0.737431 0.985911
Si Si4 0.478456 0.122859 0.388023
Si Si5 0.897909 0.070583 0.305583
Si Si6 0.104512 0.477228 0.704788
Si Si7 0.597435 0.688042 0.149193
Si Si8 0.603711 0.548017 0.637876
O O1 0.165115 0.717723 0.718500
O O2 0.378406 0.778801 0.432535
O O3 0.091223 0.626848 0.291565
O O4 0.500000 0.000000 0.500000
O O5 0.930266 0.627878 0.556868
O O6 0.655858 0.490479 0.888068
O O7 0.041105 0.750161 0.981022
O O8 0.051430 0.862413 0.873179
O O9 0.922833 0.560175 0.091711
O O10 0.338465 0.938920 0.168287
O O11 0.652149 0.292544 0.284740
O O12 0.289227 0.027560 0.527413
O O13 0.148516 0.283983 0.442599
O O14 0.790227 0.903039 0.199592
O O15 0.561918 0.643618 0.356299
O O16 0.649183 0.652540 0.914041
O O17 0.500000 0.500000 0.500000
#
# Coordination Sequence:
#
# PCOD9026519 Si02
#       8
#     2   2   2   2   2   2   2   2
#     4  11  23  45  66  87 133 174 213 270 321 370
#     4  10  22  41  64  94 131 171 208 269 317 373
#     4  11  24  42  64  93 131 172 218 264 319 369
#     4  12  23  40  66  95 126 170 219 266 318 378
#     4  11  22  43  67  94 133 167 211 262 322 379
#     4  11  23  42  63  91 131 170 217 267 316 374
#     4  10  22  43  67  95 131 166 210 255 323 385
#     4  10  24  43  69  96 130 166 207 262 316 381
#
# _framework density 22.626131999999998
#
# number of rings (size 3 to 8) (size 9 to 14) (size 15 to 20)
#    0.000    1.250    3.750    1.875    1.750    2.000 
#    6.750    0.000    0.000    0.000    0.000    0.000 
#    0.000    0.000    0.000    0.000    0.000    0.000 
#
# Total GULP energy -89528.298958 kJ/mol
# GULP energy per Si atom -5595.518685 kJ/mol
# Density = 2.257463 g / cm^3
# Si number density = 22.626132 Si / 1000 Ang^3
#
#
#
# Elastic Constant Matrix: (Units=GPa)
#
#
# Indices 1 2 3 4 5 6 
#
# 1 125.4812 41.5762 23.2299 -14.9990 23.8855 5.9510
# 2 41.5762 131.2558 22.3537 -37.0699 23.0062 -17.6296
# 3 23.2299 22.3537 50.6381 -13.1378 15.3644 0.3399
# 4 -14.9990 -37.0699 -13.1378 29.8256 -6.2902 1.7379
# 5 23.8855 23.0062 15.3644 -6.2902 37.6008 -3.4046
# 6 5.9510 -17.6296 0.3399 1.7379 -3.4046 52.1035
#
#
#
# Elastic Compliance Matrix: (Units=1/GPa)
#
#
# Indices 1 2 3 4 5 6 
#
# 1 0.010091 -0.002197 -0.002193 0.000605 -0.004266 -0.002181
# 2 -0.002197 0.013833 0.000033 0.014974 -0.004200 0.004157
# 3 -0.002193 0.000033 0.025251 0.008501 -0.007585 -0.000682
# 4 0.000605 0.014974 0.008501 0.055280 -0.003512 0.002869
# 5 -0.004266 -0.004200 -0.007585 -0.003512 0.034521 0.001489
# 6 -0.002181 0.004157 -0.000682 0.002869 0.001489 0.020854
#
#
# Mechanical properties :
#
#
# Convention : Reuss Voigt Hill
#
# Bulk Modulus (GPa) = 24.71596 53.52163 39.11879
# Shear Modulus (GPa) = 27.46769 38.58700 33.02735
#
# Velocity S-wave (km/s) = 3.48800 4.13415 3.82475
# Velocity P-wave (km/s) = 5.21238 6.81868 6.06891
#
# Compressibility (1/GPa) = 0.04045969
#
# Stress axis : x y z
#
# Youngs Moduli (GPa) = 99.09692 72.29282 39.60249
#
# Poissons Ratio (x) = 0.15884 0.08686
# Poissons Ratio (y) = 0.21773 -0.00131
# Poissons Ratio (z) = 0.21735 -0.00239
#
# Static dielectric constant tensor:
#      x y z
#    x 1.882200 -0.017440 -0.015280 
#    y -0.017440 1.834890 0.015560 
#    z -0.015280 0.015560 1.840680 
# 
# From -- ./inp_files/112472.got.cif
#   From: 2010.05.17/outbox.cif.g08.bks.cpg/sg2_57_cif.got.tgz:112472.got - 2010.06.03 11:33:40.
