data_PCOD9026212
_publ_section_title
;
Structure prediction by ZEFSAII (Michael W. Deem and Ramdas Pophale) SiO2 
 PCOD9026212
Probable space group: P -1
;
_chemical_formula_sum "Si O2"
_cell_formula_units_Z 14
_cell_length_a 6.785756
_cell_length_b 9.241927
_cell_length_c 14.183246
_cell_angle_alpha 90.782486
_cell_angle_beta 89.467151
_cell_angle_gamma 132.920119
_cell_volume 651.309193
_symmetry_space_group_name_H-M "P -1"
_symmetry_group_IT_number 2
_symmetry_cell_setting 'triclinic'
loop_
_space_group_symop_operation_xyz
x,y,z
-x,-y,-z
loop_
_atom_site_type_symbol
_atom_site_label
_atom_site_fract_x
_atom_site_fract_y
_atom_site_fract_z
Si Si1 0.295964 0.890440 0.370742
Si Si2 0.689523 0.507752 0.790034
Si Si3 0.310475 0.818227 0.790035
Si Si4 0.704037 0.594476 0.370743
Si Si5 0.692818 0.892740 0.107452
Si Si6 0.692815 0.800076 0.892549
Si Si7 0.515904 0.757952 0.500000
O O1 0.343396 0.766801 0.427452
O O2 0.000000 0.740877 0.326045
O O3 0.536143 0.035179 0.297652
O O4 0.315896 0.037162 0.442837
O O5 0.536143 0.500965 0.702347
O O6 0.520323 0.287662 0.824468
O O7 0.681920 0.623531 0.874046
O O8 0.999999 0.630495 0.768107
O O9 0.479672 0.767336 0.824469
O O10 0.318077 0.941610 0.874046
O O11 0.684106 0.721267 0.442837
O O12 0.656606 0.423406 0.427453
O O13 0.640346 0.820172 0.000000
O O14 0.000002 0.000378 0.130841
#
# Coordination Sequence:
#
# PCOD9026212 Si02
#       7
#     2   2   2   2   2   2   2
#     4  11  23  41  63  87 119 157 197 244 297 351
#     4  11  24  39  60  91 122 155 198 244 293 352
#     4  11  24  39  60  91 122 155 198 244 293 352
#     4  11  23  41  63  87 119 157 197 244 297 351
#     4  10  22  41  63  88 120 158 199 243 293 349
#     4  10  22  41  63  88 120 158 199 243 293 349
#     4  10  24  40  62  90 116 152 202 248 292 350
#
# _framework density 21.495169000000001
#
# number of rings (size 3 to 8) (size 9 to 14) (size 15 to 20)
#    0.000    1.429    0.000    4.286    0.000   14.286 
#    0.000    0.000    0.000    0.000    0.000    0.000 
#    0.000    0.000    0.000    0.000    0.000    0.000 
#
# Total GULP energy -78287.512164 kJ/mol
# GULP energy per Si atom -5591.965155 kJ/mol
# Density = 2.144624 g / cm^3
# Si number density = 21.495169 Si / 1000 Ang^3
#
#
#
# Elastic Constant Matrix: (Units=GPa)
#
#
# Indices 1 2 3 4 5 6 
#
# 1 126.1600 33.8592 18.8626 -9.9690 13.2302 14.5767
# 2 33.8592 123.9172 17.8117 -13.1346 8.9717 14.4265
# 3 18.8626 17.8117 36.6617 1.6176 -1.5743 13.7289
# 4 -9.9690 -13.1346 1.6176 31.3668 -2.2539 -6.4177
# 5 13.2302 8.9717 -1.5743 -2.2539 31.1793 6.0291
# 6 14.5767 14.4265 13.7289 -6.4177 6.0291 47.4600
#
#
#
# Elastic Compliance Matrix: (Units=1/GPa)
#
#
# Indices 1 2 3 4 5 6 
#
# 1 0.009571 -0.001435 -0.004300 0.002303 -0.003604 -0.000490
# 2 -0.001435 0.009616 -0.003943 0.003505 -0.001985 -0.000616
# 3 -0.004300 -0.003943 0.035453 -0.006324 0.006103 -0.009367
# 4 0.002303 0.003505 -0.006324 0.035365 -0.000702 0.004928
# 5 -0.003604 -0.001985 0.006103 -0.000702 0.035327 -0.004638
# 6 -0.000490 -0.000616 -0.009367 0.004928 -0.004638 0.025373
#
#
# Mechanical properties :
#
#
# Convention : Reuss Voigt Hill
#
# Bulk Modulus (GPa) = 28.34113 47.53397 37.93755
# Shear Modulus (GPa) = 27.49945 36.41491 31.95718
#
# Velocity S-wave (km/s) = 3.58066 4.12041 3.85998
# Velocity P-wave (km/s) = 5.50530 6.69319 6.12810
#
# Compressibility (1/GPa) = 0.03528441
#
# Stress axis : x y z
#
# Youngs Moduli (GPa) = 104.48126 103.99774 28.20623
#
# Poissons Ratio (x) = 0.14923 0.12129
# Poissons Ratio (y) = 0.14993 0.11121
# Poissons Ratio (z) = 0.44927 0.41003
#
# Static dielectric constant tensor:
#      x y z
#    x 1.753100 -0.002220 -0.023840 
#    y -0.002220 1.753290 0.024780 
#    z -0.023840 0.024780 1.773370 
# 
# From -- ./inp_files/39123.got.cif
#   From: 2010.05.17/outbox.cif.g08.bks.cpg/sg2_20_cif.got.tgz:39123.got - 2010.06.03 11:33:40.
