data_PCOD9026731
_publ_section_title
;
Structure prediction by ZEFSAII (Michael W. Deem and Ramdas Pophale) SiO2 
 PCOD9026731
Probable space group: P -1
;
_chemical_formula_sum "Si O2"
_cell_formula_units_Z 16
_cell_length_a 17.186372
_cell_length_b 20.064994
_cell_length_c 8.999228
_cell_angle_alpha 131.038306
_cell_angle_beta 119.838666
_cell_angle_gamma 21.889989
_cell_volume 800.939504
_symmetry_space_group_name_H-M "P -1"
_symmetry_group_IT_number 2
_symmetry_cell_setting 'triclinic'
loop_
_space_group_symop_operation_xyz
x,y,z
-x,-y,-z
loop_
_atom_site_type_symbol
_atom_site_label
_atom_site_fract_x
_atom_site_fract_y
_atom_site_fract_z
Si Si1 0.412904 0.670478 0.097147
Si Si2 0.834818 0.881921 0.092702
Si Si3 0.335889 0.378760 0.781693
Si Si4 0.040397 0.056442 0.540441
Si Si5 0.236734 0.306023 0.025235
Si Si6 0.439656 0.143774 0.288155
Si Si7 0.530524 0.556982 0.713922
Si Si8 0.531466 0.188358 0.002811
O O1 0.590561 0.591092 0.165059
O O2 0.188155 0.903923 0.311503
O O3 0.500000 0.500000 0.000000
O O4 0.388998 0.677369 0.908349
O O5 0.841446 0.976852 0.294503
O O6 0.645868 0.003722 0.188882
O O7 0.757168 0.948582 0.945185
O O8 0.082551 0.615680 0.951929
O O9 0.352577 0.289650 0.542329
O O10 0.505254 0.204974 0.825345
O O11 0.795021 0.318106 0.656572
O O12 0.000000 0.000000 0.500000
O O13 0.437413 0.052938 0.811266
O O14 0.249429 0.294827 0.202290
O O15 0.326045 0.319655 0.073075
O O16 0.000000 0.500000 0.000000
O O17 0.500000 0.500000 0.500000
O O18 0.478929 0.698537 0.803592
#
# Coordination Sequence:
#
# PCOD9026731 Si02
#       8
#     2   2   2   2   2   2   2   2
#     4  11  22  37  61  94 122 168 217 257 319 386
#     4  11  21  41  65  88 127 170 208 261 325 370
#     4  11  22  41  64  93 128 164 216 265 318 384
#     4  12  21  38  66  87 124 175 206 265 322 369
#     4  10  22  41  65  94 131 168 212 265 325 383
#     4  10  23  41  66  93 124 170 217 261 318 387
#     4  11  24  41  62  94 134 165 216 269 315 383
#     4  10  23  40  62  96 128 164 214 266 315 382
#
# _framework density 19.97654
#
# number of rings (size 3 to 8) (size 9 to 14) (size 15 to 20)
#    0.000    1.250    5.000    1.500    0.000    2.000 
#    0.000   13.750    0.000    0.000    0.000    0.000 
#    0.000    0.000    0.000    0.000    0.000    0.000 
#
# Total GULP energy -89301.757131 kJ/mol
# GULP energy per Si atom -5581.359821 kJ/mol
# Density = 1.993107 g / cm^3
# Si number density = 19.976540 Si / 1000 Ang^3
#
#
#
# Elastic Constant Matrix: (Units=GPa)
#
#
# Indices 1 2 3 4 5 6 
#
# 1 85.0847 21.7284 23.7484 -9.1581 8.6397 3.8920
# 2 21.7284 92.5121 34.1700 -20.8366 -5.7579 5.7221
# 3 23.7484 34.1700 144.8963 -19.0964 1.0699 -1.6795
# 4 -9.1581 -20.8366 -19.0964 29.8201 -11.8079 5.2560
# 5 8.6397 -5.7579 1.0699 -11.8079 30.9476 3.6338
# 6 3.8920 5.7221 -1.6795 5.2560 3.6338 26.3731
#
#
#
# Elastic Compliance Matrix: (Units=1/GPa)
#
#
# Indices 1 2 3 4 5 6 
#
# 1 0.013343 -0.002895 -0.001545 -0.000489 -0.004309 -0.000748
# 2 -0.002895 0.016710 -0.001606 0.015409 0.010774 -0.007856
# 3 -0.001545 -0.001606 0.008066 0.004116 0.001416 0.000075
# 4 -0.000489 0.015409 0.004116 0.061487 0.028576 -0.019200
# 5 -0.004309 0.010774 0.001416 0.028576 0.048009 -0.013921
# 6 -0.000748 -0.007856 0.000075 -0.019200 -0.013921 0.045482
#
#
# Mechanical properties :
#
#
# Convention : Reuss Voigt Hill
#
# Bulk Modulus (GPa) = 38.42303 53.53187 45.97745
# Shear Modulus (GPa) = 23.37931 33.61791 28.49861
#
# Velocity S-wave (km/s) = 3.42473 4.10673 3.78114
# Velocity P-wave (km/s) = 5.90883 7.02442 6.49064
#
# Compressibility (1/GPa) = 0.02602605
#
# Stress axis : x y z
#
# Youngs Moduli (GPa) = 74.94679 59.84556 123.97117
#
# Poissons Ratio (x) = 0.17326 0.19160
# Poissons Ratio (y) = 0.21698 0.19907
# Poissons Ratio (z) = 0.11583 0.09610
#
# Static dielectric constant tensor:
#      x y z
#    x 1.704920 -0.012200 0.032740 
#    y -0.012200 1.714050 -0.036060 
#    z 0.032740 -0.036060 1.708760 
# 
# From -- ./inp_files/337810.got.cif
#   From: 2010.05.17/outbox.cif.g08.bks.cpg/sg2_169_cif.got.tgz:337810.got - 2010.06.03 11:33:40.
