data_PCOD9026948
_publ_section_title
;
Structure prediction by ZEFSAII (Michael W. Deem and Ramdas Pophale) SiO2 
 PCOD9026948
Probable space group: P -1
;
_chemical_formula_sum "Si O2"
_cell_formula_units_Z 16
_cell_length_a 11.341376
_cell_length_b 16.045960
_cell_length_c 10.104989
_cell_angle_alpha 127.225286
_cell_angle_beta 109.609009
_cell_angle_gamma 114.428406
_cell_volume 785.504490
_symmetry_space_group_name_H-M "P -1"
_symmetry_group_IT_number 2
_symmetry_cell_setting 'triclinic'
loop_
_space_group_symop_operation_xyz
x,y,z
-x,-y,-z
loop_
_atom_site_type_symbol
_atom_site_label
_atom_site_fract_x
_atom_site_fract_y
_atom_site_fract_z
Si Si1 0.605723 0.511411 0.176539
Si Si2 0.618098 0.967108 0.338495
Si Si3 0.793891 0.874942 0.204452
Si Si4 0.192906 0.700755 0.325961
Si Si5 0.626888 0.918186 0.590347
Si Si6 0.086060 0.084756 0.259441
Si Si7 0.949805 0.566723 0.362352
Si Si8 0.170249 0.743993 0.893776
O O1 0.788860 0.718083 0.498708
O O2 0.741732 0.497834 0.183155
O O3 0.500000 0.500000 0.000000
O O4 0.405697 0.340124 0.035128
O O5 0.711107 0.933853 0.263686
O O6 0.546865 0.884890 0.379401
O O7 0.783024 0.175380 0.626741
O O8 0.422104 0.882388 0.098891
O O9 0.000000 0.000000 0.500000
O O10 0.891351 0.940399 0.156076
O O11 0.417454 0.790146 0.482671
O O12 0.133016 0.700371 0.448037
O O13 0.000000 0.500000 0.000000
O O14 0.734800 0.879783 0.601321
O O15 0.805799 0.129591 0.901079
O O16 0.000000 0.000000 0.000000
O O17 0.912540 0.415739 0.213527
O O18 0.034054 0.659355 0.627111
#
# Coordination Sequence:
#
# PCOD9026948 Si02
#       8
#     2   2   2   2   2   2   2   2
#     4  12  25  45  76 103 137 187 244 286 335 428
#     4  11  21  41  67  92 131 170 229 278 330 416
#     4  12  24  44  74 101 132 193 236 283 353 403
#     4  11  24  35  65  98 127 173 219 275 347 394
#     4  11  23  43  63  95 137 171 221 274 341 408
#     4  12  28  47  69 105 146 181 232 298 349 411
#     4  11  23  42  64  98 133 167 226 277 338 406
#     4  10  22  41  66  91 133 174 206 286 338 394
#
# _framework density 20.369073
#
# number of rings (size 3 to 8) (size 9 to 14) (size 15 to 20)
#    0.000    0.750    3.750    4.500    1.750    3.500 
#    2.250    0.000    0.000    0.000    0.000    0.000 
#    0.000    0.000    0.000    0.000    0.000    0.000 
#
# Total GULP energy -89319.116087 kJ/mol
# GULP energy per Si atom -5582.444755 kJ/mol
# Density = 2.032271 g / cm^3
# Si number density = 20.369073 Si / 1000 Ang^3
#
#
#
# Elastic Constant Matrix: (Units=GPa)
#
#
# Indices 1 2 3 4 5 6 
#
# 1 96.0448 43.6801 -0.1505 11.6106 2.8918 1.8505
# 2 43.6801 98.4234 34.7273 12.7758 7.9934 13.3205
# 3 -0.1505 34.7273 65.2174 14.7004 -7.1525 -3.3491
# 4 11.6106 12.7758 14.7004 39.2871 -4.8897 -1.9829
# 5 2.8918 7.9934 -7.1525 -4.8897 28.0571 5.4922
# 6 1.8505 13.3205 -3.3491 -1.9829 5.4922 42.5268
#
#
#
# Elastic Compliance Matrix: (Units=1/GPa)
#
#
# Indices 1 2 3 4 5 6 
#
# 1 0.014540 -0.008334 0.005479 -0.003373 0.001276 0.002087
# 2 -0.008334 0.019144 -0.011049 -0.000715 -0.006419 -0.005708
# 3 0.005479 -0.011049 0.023476 -0.005767 0.006795 0.003925
# 4 -0.003373 -0.000715 -0.005767 0.029384 0.004053 0.000763
# 5 0.001276 -0.006419 0.006795 0.004053 0.040271 -0.002522
# 6 0.002087 -0.005708 0.003925 0.000763 -0.002522 0.025882
#
#
# Mechanical properties :
#
#
# Convention : Reuss Voigt Hill
#
# Bulk Modulus (GPa) = 34.07065 46.24437 40.15751
# Shear Modulus (GPa) = 26.27585 34.06945 30.17265
#
# Velocity S-wave (km/s) = 3.59554 4.09419 3.85294
# Velocity P-wave (km/s) = 5.83096 6.71583 6.28898
#
# Compressibility (1/GPa) = 0.02935077
#
# Stress axis : x y z
#
# Youngs Moduli (GPa) = 68.77717 52.23562 42.59674
#
# Poissons Ratio (x) = 0.43534 -0.23337
# Poissons Ratio (y) = 0.57319 0.47065
# Poissons Ratio (z) = -0.37681 0.57715
#
# Static dielectric constant tensor:
#      x y z
#    x 1.699050 -0.008360 0.003780 
#    y -0.008360 1.829280 0.071510 
#    z 0.003780 0.071510 1.773410 
# 
# From -- ./inp_files/274109.got.cif
#   From: 2010.05.17/outbox.cif.g08.bks.cpg/sg2_138_cif.got.tgz:274109.got - 2010.06.03 11:33:40.
