data_PCOD9026689
_publ_section_title
;
Structure prediction by ZEFSAII (Michael W. Deem and Ramdas Pophale) SiO2 
 PCOD9026689
Probable space group: P -1
;
_chemical_formula_sum "Si O2"
_cell_formula_units_Z 16
_cell_length_a 8.247651
_cell_length_b 14.418319
_cell_length_c 28.810858
_cell_angle_alpha 21.509720
_cell_angle_beta 136.568880
_cell_angle_gamma 126.706794
_cell_volume 821.343598
_symmetry_space_group_name_H-M "P -1"
_symmetry_group_IT_number 2
_symmetry_cell_setting 'triclinic'
loop_
_space_group_symop_operation_xyz
x,y,z
-x,-y,-z
loop_
_atom_site_type_symbol
_atom_site_label
_atom_site_fract_x
_atom_site_fract_y
_atom_site_fract_z
Si Si1 0.480739 0.378999 0.286910
Si Si2 0.148440 0.020543 0.379948
Si Si3 0.112647 0.220228 0.124086
Si Si4 0.417850 0.151705 0.051809
Si Si5 0.591589 0.341422 0.141415
Si Si6 0.964670 0.810620 0.348336
Si Si7 0.969254 0.141595 0.027098
Si Si8 0.694634 0.800416 0.099166
O O1 0.315178 0.205518 0.312348
O O2 0.640269 0.520886 0.222990
O O3 0.674703 0.189923 0.450445
O O4 0.266951 0.625621 0.150611
O O5 0.883870 0.188299 0.269124
O O6 0.066287 0.878080 0.386556
O O7 0.397469 0.185746 0.185582
O O8 0.977000 0.215510 0.048527
O O9 0.086227 0.966007 0.264535
O O10 0.000000 0.500000 0.000000
O O11 0.207984 0.152628 0.044429
O O12 0.673471 0.948966 0.215721
O O13 0.448223 0.441913 0.927374
O O14 0.346456 0.108726 0.004726
O O15 0.500000 0.500000 0.000000
O O16 0.000000 0.500000 0.500000
O O17 0.941474 0.851452 0.146248
O O18 0.500000 0.000000 0.000000
#
# Coordination Sequence:
#
# PCOD9026689 Si02
#       8
#     2   2   2   2   2   2   2   2
#     4  10  22  41  65  92 127 177 217 267 331 396
#     4  11  23  43  64  93 138 173 213 275 336 395
#     4  12  23  41  74 101 127 176 233 273 325 405
#     4  12  23  43  70  97 129 173 229 274 328 398
#     4  12  21  42  70 100 127 170 233 282 320 392
#     4  12  27  41  66 102 140 171 218 280 345 395
#     4  11  22  42  69  94 132 171 221 277 328 394
#     4  10  24  40  66  94 130 173 224 268 325 403
#
# _framework density 19.480274999999999
#
# number of rings (size 3 to 8) (size 9 to 14) (size 15 to 20)
#    0.000    0.750    5.000    2.625    7.000    0.000 
#    2.250    1.875    0.000    0.000    0.000    0.000 
#    0.000    0.000    0.000    0.000    0.000    0.000 
#
# Total GULP energy -89197.172828 kJ/mol
# GULP energy per Si atom -5574.823302 kJ/mol
# Density = 1.943594 g / cm^3
# Si number density = 19.480275 Si / 1000 Ang^3
#
#
#
# Elastic Constant Matrix: (Units=GPa)
#
#
# Indices 1 2 3 4 5 6 
#
# 1 78.6334 47.6708 59.6260 0.0431 0.0757 12.1778
# 2 47.6708 144.1961 66.0689 -9.6561 -6.8694 -6.1093
# 3 59.6260 66.0689 116.3547 -6.2015 -1.8081 11.6937
# 4 0.0431 -9.6561 -6.2015 30.0053 8.6794 -5.3684
# 5 0.0757 -6.8694 -1.8081 8.6794 16.9371 -1.8909
# 6 12.1778 -6.1093 11.6937 -5.3684 -1.8909 47.3602
#
#
#
# Elastic Compliance Matrix: (Units=1/GPa)
#
#
# Indices 1 2 3 4 5 6 
#
# 1 0.022725 -0.003756 -0.009272 -0.003593 -0.001276 -0.004497
# 2 -0.003756 0.010615 -0.004312 0.002311 0.003100 0.003786
# 3 -0.009272 -0.004312 0.016077 0.001946 -0.001208 -0.001969
# 4 -0.003593 0.002311 0.001946 0.040877 -0.019272 0.004606
# 5 -0.001276 0.003100 -0.001208 -0.019272 0.070236 0.001646
# 6 -0.004497 0.003786 -0.001969 0.004606 0.001646 0.023833
#
#
# Mechanical properties :
#
#
# Convention : Reuss Voigt Hill
#
# Bulk Modulus (GPa) = 67.85601 76.21285 72.03443
# Shear Modulus (GPa) = 22.32589 29.91509 26.12049
#
# Velocity S-wave (km/s) = 3.38905 3.92300 3.66576
# Velocity P-wave (km/s) = 7.08682 7.72839 7.41454
#
# Compressibility (1/GPa) = 0.01473709
#
# Stress axis : x y z
#
# Youngs Moduli (GPa) = 44.00501 94.20376 62.20140
#
# Poissons Ratio (x) = 0.35387 0.57671
# Poissons Ratio (y) = 0.16530 0.26819
# Poissons Ratio (z) = 0.40800 0.40618
#
# Static dielectric constant tensor:
#      x y z
#    x 1.767090 0.125510 -0.011400 
#    y 0.125510 1.859120 -0.002600 
#    z -0.011400 -0.002600 1.666040 
# 
# From -- ./inp_files/622618.got.cif
#   From: 2010.05.17/outbox.cif.g08.bks.cpg/sg2_312_cif.got.tgz:622618.got - 2010.06.03 11:33:40.
