data_PCOD9026057
_publ_section_title
;
Structure prediction by ZEFSAII (Michael W. Deem and Ramdas Pophale) SiO2 
 PCOD9026057
Probable space group: P -1
;
_chemical_formula_sum "Si O2"
_cell_formula_units_Z 14
_cell_length_a 8.057403
_cell_length_b 19.194339
_cell_length_c 15.594470
_cell_angle_alpha 18.612107
_cell_angle_beta 93.851686
_cell_angle_gamma 81.425203
_cell_volume 571.424680
_symmetry_space_group_name_H-M "P -1"
_symmetry_group_IT_number 2
_symmetry_cell_setting 'triclinic'
loop_
_space_group_symop_operation_xyz
x,y,z
-x,-y,-z
loop_
_atom_site_type_symbol
_atom_site_label
_atom_site_fract_x
_atom_site_fract_y
_atom_site_fract_z
Si Si1 0.352854 0.245045 0.136803
Si Si2 0.999409 0.329626 0.124017
Si Si3 0.354960 0.646080 0.986031
Si Si4 0.402163 0.143360 0.061259
Si Si5 0.990774 0.299481 0.795978
Si Si6 0.701360 0.304617 0.666654
Si Si7 0.597127 0.691010 0.460725
O O1 0.108897 0.355881 0.014821
O O2 0.406873 0.453784 0.910509
O O3 0.443005 0.118897 0.192054
O O4 0.500000 0.000000 0.500000
O O5 0.750594 0.459780 0.947421
O O6 0.165936 0.993344 0.554763
O O7 0.000000 0.500000 0.000000
O O8 0.360929 0.552596 0.191715
O O9 0.580261 0.915342 0.260713
O O10 0.313521 0.460733 0.663250
O O11 0.219662 0.112299 0.074709
O O12 0.922705 0.143860 0.920201
O O13 0.794651 0.521572 0.597419
O O14 0.000000 0.500000 0.500000
O O15 0.500000 0.500000 0.500000
O O16 0.629816 0.160801 0.774237
#
# Coordination Sequence:
#
# PCOD9026057 Si02
#       7
#     2   2   2   2   2   2   2
#     4  10  22  42  63  93 132 167 222 272 316 396
#     4  10  23  42  65  91 128 172 217 271 333 379
#     4  10  22  41  61  95 129 163 223 268 317 395
#     4  11  22  41  63  91 130 171 212 267 333 380
#     4   9  21  40  63  91 131 161 211 274 314 393
#     4   9  20  39  62  94 125 160 214 267 316 396
#     4  11  22  39  67  91 128 172 210 262 338 386
#
# _framework density 24.500170000000001
#
# number of rings (size 3 to 8) (size 9 to 14) (size 15 to 20)
#    0.000    2.000    1.429    0.857    4.000    6.286 
#    7.714    4.286    0.000    0.000    0.000    0.000 
#    0.000    0.000    0.000    0.000    0.000    0.000 
#
# Total GULP energy -78164.848744 kJ/mol
# GULP energy per Si atom -5583.203482 kJ/mol
# Density = 2.444441 g / cm^3
# Si number density = 24.500170 Si / 1000 Ang^3
#
#
#
# Elastic Constant Matrix: (Units=GPa)
#
#
# Indices 1 2 3 4 5 6 
#
# 1 81.2438 30.2203 23.1212 11.5391 -12.3341 9.7938
# 2 30.2203 144.8611 17.2978 6.9100 -10.7703 14.2214
# 3 23.1212 17.2978 51.5381 1.7556 -16.6749 -9.2897
# 4 11.5391 6.9100 1.7556 36.1365 1.0027 -2.4589
# 5 -12.3341 -10.7703 -16.6749 1.0027 30.2191 5.9408
# 6 9.7938 14.2214 -9.2897 -2.4589 5.9408 49.2947
#
#
#
# Elastic Compliance Matrix: (Units=1/GPa)
#
#
# Indices 1 2 3 4 5 6 
#
# 1 0.016614 -0.001725 -0.006330 -0.005092 0.003767 -0.004704
# 2 -0.001725 0.007896 -0.001751 -0.001092 0.001676 -0.002522
# 3 -0.006330 -0.001751 0.027273 0.001120 0.010690 0.005670
# 4 -0.005092 -0.001092 0.001120 0.029785 -0.003515 0.003447
# 5 0.003767 0.001676 0.010690 -0.003515 0.042120 -0.004469
# 6 -0.004704 -0.002522 0.005670 0.003447 -0.004469 0.023727
#
#
# Mechanical properties :
#
#
# Convention : Reuss Voigt Hill
#
# Bulk Modulus (GPa) = 31.08468 46.54685 38.81576
# Shear Modulus (GPa) = 28.12878 36.93031 32.52955
#
# Velocity S-wave (km/s) = 3.39205 3.88667 3.64775
# Velocity P-wave (km/s) = 5.29683 6.25951 5.79818
#
# Compressibility (1/GPa) = 0.03217019
#
# Stress axis : x y z
#
# Youngs Moduli (GPa) = 60.18985 126.63860 36.66596
#
# Poissons Ratio (x) = 0.21849 0.23210
# Poissons Ratio (y) = 0.10385 0.06422
# Poissons Ratio (z) = 0.38100 0.22181
#
# Static dielectric constant tensor:
#      x y z
#    x 2.517120 -0.331760 0.183090 
#    y -0.331760 2.271500 -0.132150 
#    z 0.183090 -0.132150 2.026970 
# 
# From -- ./inp_files/506930.got.cif
#   From: 2010.05.17/outbox.cif.g08.bks.cpg/sg2_254_cif.got.tgz:506930.got - 2010.06.03 11:33:40.
