data_PCOD9026003
_publ_section_title
;
Structure prediction by ZEFSAII (Michael W. Deem and Ramdas Pophale) SiO2 
 PCOD9026003
Probable space group: P -1
;
_chemical_formula_sum "Si O2"
_cell_formula_units_Z 14
_cell_length_a 13.619552
_cell_length_b 15.587801
_cell_length_c 15.324994
_cell_angle_alpha 25.556051
_cell_angle_beta 28.613024
_cell_angle_gamma 33.932517
_cell_volume 660.846878
_symmetry_space_group_name_H-M "P -1"
_symmetry_group_IT_number 2
_symmetry_cell_setting 'triclinic'
loop_
_space_group_symop_operation_xyz
x,y,z
-x,-y,-z
loop_
_atom_site_type_symbol
_atom_site_label
_atom_site_fract_x
_atom_site_fract_y
_atom_site_fract_z
Si Si1 0.460587 0.758994 0.871718
Si Si2 0.354201 0.976326 0.216067
Si Si3 0.414970 0.880179 0.439821
Si Si4 0.849191 0.939394 0.247682
Si Si5 0.046379 0.166875 0.407453
Si Si6 0.072939 0.345882 0.403087
Si Si7 0.285991 0.425678 0.413577
O O1 0.687648 0.629204 0.795907
O O2 0.502948 0.939166 0.738109
O O3 0.342587 0.872105 0.776801
O O4 0.321911 0.621138 0.154178
O O5 0.487219 0.873600 0.288768
O O6 0.212031 0.174555 0.192228
O O7 0.176606 0.853608 0.436345
O O8 0.500000 0.000000 0.000000
O O9 0.166988 0.956361 0.551714
O O10 0.504754 0.676307 0.606173
O O11 0.934986 0.864338 0.344249
O O12 0.777128 0.741084 0.447358
O O13 0.000000 0.000000 0.000000
O O14 0.033312 0.324265 0.351368
O O15 0.901468 0.512217 0.429065
#
# Coordination Sequence:
#
# PCOD9026003 Si02
#       7
#     2   2   2   2   2   2   2
#     4  10  22  41  61  86 122 161 203 246 298 355
#     4   9  17  35  67  85 115 160 198 240 303 361
#     4   8  19  40  58  90 119 154 200 243 299 361
#     4  11  23  42  61  87 124 166 204 243 299 357
#     4   8  19  36  59  89 115 154 200 243 296 355
#     4  11  22  39  62  89 124 158 205 254 293 354
#     4  11  23  40  60  90 127 155 203 251 297 357
#
# _framework density 21.184937999999999
#
# number of rings (size 3 to 8) (size 9 to 14) (size 15 to 20)
#    0.857    1.429    1.429    0.857    2.000    0.571 
#   10.286    0.714    0.000    3.429    0.000    0.000 
#    0.000    0.000    0.000    0.000    0.000    0.000 
#
# Total GULP energy -78006.420892 kJ/mol
# GULP energy per Si atom -5571.887207 kJ/mol
# Density = 2.113672 g / cm^3
# Si number density = 21.184938 Si / 1000 Ang^3
#
#
#
# Elastic Constant Matrix: (Units=GPa)
#
#
# Indices 1 2 3 4 5 6 
#
# 1 64.2394 15.6060 3.5840 -2.0208 9.0187 10.9590
# 2 15.6060 88.4546 20.9920 17.0583 2.3691 8.6512
# 3 3.5840 20.9920 67.5652 17.3292 6.9960 8.3779
# 4 -2.0208 17.0583 17.3292 35.6035 -0.4295 11.9760
# 5 9.0187 2.3691 6.9960 -0.4295 21.7151 8.9060
# 6 10.9590 8.6512 8.3779 11.9760 8.9060 33.6909
#
#
#
# Elastic Compliance Matrix: (Units=1/GPa)
#
#
# Indices 1 2 3 4 5 6 
#
# 1 0.018119 -0.003416 0.000165 0.004300 -0.004957 -0.005276
# 2 -0.003416 0.013570 -0.002735 -0.005366 0.000702 0.000029
# 3 0.000165 -0.002735 0.018194 -0.007764 -0.005975 0.000464
# 4 0.004300 -0.005366 -0.007764 0.039570 0.007929 -0.014252
# 5 -0.004957 0.000702 -0.005975 0.007929 0.056163 -0.014747
# 6 -0.005276 0.000029 0.000464 -0.014252 -0.014747 0.040239
#
#
# Mechanical properties :
#
#
# Convention : Reuss Voigt Hill
#
# Bulk Modulus (GPa) = 26.37811 33.40259 29.89035
# Shear Modulus (GPa) = 23.75694 30.20704 26.98199
#
# Velocity S-wave (km/s) = 3.35237 3.78017 3.57268
# Velocity P-wave (km/s) = 5.24051 5.90375 5.58199
#
# Compressibility (1/GPa) = 0.03791021
#
# Stress axis : x y z
#
# Youngs Moduli (GPa) = 55.19184 73.69098 54.96315
#
# Poissons Ratio (x) = 0.25175 -0.00906
# Poissons Ratio (y) = 0.18855 0.15032
# Poissons Ratio (z) = -0.00910 0.20154
#
# Static dielectric constant tensor:
#      x y z
#    x 1.808430 -0.008840 0.020290 
#    y -0.008840 1.817220 0.036020 
#    z 0.020290 0.036020 1.783630 
# 
# From -- ./inp_files/533135.got.cif
#   From: 2010.05.17/outbox.cif.g08.bks.cpg/sg2_267_cif.got.tgz:533135.got - 2010.06.03 11:33:40.
