data_PCOD9026259
_publ_section_title
;
Structure prediction by ZEFSAII (Michael W. Deem and Ramdas Pophale) SiO2 
 PCOD9026259
Probable space group: P -1
;
_chemical_formula_sum "Si O2"
_cell_formula_units_Z 16
_cell_length_a 8.901127
_cell_length_b 15.300492
_cell_length_c 5.393914
_cell_angle_alpha 96.722794
_cell_angle_beta 102.733381
_cell_angle_gamma 86.583860
_cell_volume 711.179489
_symmetry_space_group_name_H-M "P -1"
_symmetry_group_IT_number 2
_symmetry_cell_setting 'triclinic'
loop_
_space_group_symop_operation_xyz
x,y,z
-x,-y,-z
loop_
_atom_site_type_symbol
_atom_site_label
_atom_site_fract_x
_atom_site_fract_y
_atom_site_fract_z
Si Si1 0.204118 0.328751 0.054218
Si Si2 0.467901 0.054628 0.756950
Si Si3 0.420406 0.321154 0.518786
Si Si4 0.689994 0.215735 0.818253
Si Si5 0.056851 0.593725 0.644845
Si Si6 0.876684 0.225897 0.403657
Si Si7 0.334904 0.480645 0.824632
Si Si8 0.806685 0.817225 0.356597
O O1 0.378830 0.306250 0.213378
O O2 0.072044 0.365524 0.203944
O O3 0.236416 0.410251 0.915341
O O4 0.150361 0.237272 0.893442
O O5 0.578044 0.137348 0.816865
O O6 0.294280 0.095599 0.700411
O O7 0.500000 0.000000 0.500000
O O8 0.500000 0.000000 0.000000
O O9 0.581075 0.296612 0.698229
O O10 0.372695 0.423590 0.573181
O O11 0.301081 0.253941 0.573788
O O12 0.786443 0.191204 0.596851
O O13 0.787577 0.229553 0.109410
O O14 0.081244 0.672425 0.487590
O O15 0.226982 0.567069 0.795360
O O16 0.000000 0.500000 0.500000
O O17 0.038896 0.172398 0.428815
O O18 0.500000 0.500000 0.000000
#
# Coordination Sequence:
#
# PCOD9026259 Si02
#       8
#     2   2   2   2   2   2   2   2
#     4  11  22  42  67  89 133 190 242 286 357 419
#     4  11  26  49  80 113 140 179 224 281 355 433
#     4  10  22  41  63  91 129 190 236 286 345 424
#     4  11  27  44  73 103 146 178 235 288 350 431
#     4  12  23  41  62  96 137 188 251 298 344 400
#     4  12  25  46  68 106 140 194 234 290 352 403
#     4  11  24  37  56  93 130 179 239 310 359 391
#     4  10  24  43  73  97 137 180 234 270 344 446
#
# _framework density 22.497837000000001
#
# number of rings (size 3 to 8) (size 9 to 14) (size 15 to 20)
#    0.000    1.000    2.500    3.375   10.500    2.500 
#    0.000    3.750    0.000    0.000    0.000    0.000 
#    0.000    0.000    0.000    0.000    0.000    0.000 
#
# Total GULP energy -89314.780676 kJ/mol
# GULP energy per Si atom -5582.173792 kJ/mol
# Density = 2.244663 g / cm^3
# Si number density = 22.497837 Si / 1000 Ang^3
#
#
#
# Elastic Constant Matrix: (Units=GPa)
#
#
# Indices 1 2 3 4 5 6 
#
# 1 102.2683 32.6269 43.1173 -15.4701 27.1154 -27.8634
# 2 32.6269 100.0020 44.8215 -17.9022 8.2594 -30.7634
# 3 43.1173 44.8215 126.5925 -12.1696 27.5573 -29.4968
# 4 -15.4701 -17.9022 -12.1696 39.7686 -2.2737 3.5750
# 5 27.1154 8.2594 27.5573 -2.2737 45.2837 -11.2001
# 6 -27.8634 -30.7634 -29.4968 3.5750 -11.2001 40.9742
#
#
#
# Elastic Compliance Matrix: (Units=1/GPa)
#
#
# Indices 1 2 3 4 5 6 
#
# 1 0.014550 -0.001015 -0.001523 0.003852 -0.005902 0.006087
# 2 -0.001015 0.014977 -0.002940 0.004793 0.002026 0.008574
# 3 -0.001523 -0.002940 0.011386 0.000983 -0.004534 0.003629
# 4 0.003852 0.004793 0.000983 0.028661 -0.001336 0.004060
# 5 -0.005902 0.002026 -0.004534 -0.001336 0.028469 0.002143
# 6 0.006087 0.008574 0.003629 0.004060 0.002143 0.037826
#
#
# Mechanical properties :
#
#
# Convention : Reuss Voigt Hill
#
# Bulk Modulus (GPa) = 33.38097 63.33269 48.35683
# Shear Modulus (GPa) = 31.88588 39.09177 35.48883
#
# Velocity S-wave (km/s) = 3.76877 4.17295 3.97600
# Velocity P-wave (km/s) = 5.81445 7.17145 6.52830
#
# Compressibility (1/GPa) = 0.02995719
#
# Stress axis : x y z
#
# Youngs Moduli (GPa) = 68.72873 66.77067 87.82807
#
# Poissons Ratio (x) = 0.06777 0.13377
# Poissons Ratio (y) = 0.06976 0.25818
# Poissons Ratio (z) = 0.10468 0.19628
#
# Static dielectric constant tensor:
#      x y z
#    x 1.908160 -0.020920 0.000830 
#    y -0.020920 1.801470 0.021410 
#    z 0.000830 0.021410 2.026320 
# 
# From -- ./inp_files/38968.got.cif
#   From: 2010.05.17/outbox.cif.g08.bks.cpg/sg2_20_cif.got.tgz:38968.got - 2010.06.03 11:33:40.
