data_PCOD9026789
_publ_section_title
;
Structure prediction by ZEFSAII (Michael W. Deem and Ramdas Pophale) SiO2 
 PCOD9026789
Probable space group: P -1
;
_chemical_formula_sum "Si O2"
_cell_formula_units_Z 14
_cell_length_a 8.707990
_cell_length_b 13.475513
_cell_length_c 6.658502
_cell_angle_alpha 94.358618
_cell_angle_beta 52.881104
_cell_angle_gamma 122.591284
_cell_volume 487.519965
_symmetry_space_group_name_H-M "P -1"
_symmetry_group_IT_number 2
_symmetry_cell_setting 'triclinic'
loop_
_space_group_symop_operation_xyz
x,y,z
-x,-y,-z
loop_
_atom_site_type_symbol
_atom_site_label
_atom_site_fract_x
_atom_site_fract_y
_atom_site_fract_z
Si Si1 0.296101 0.771657 0.825572
Si Si2 0.320800 0.036675 0.179686
Si Si3 0.814047 0.859754 0.026383
Si Si4 0.023344 0.301032 0.275964
Si Si5 0.133398 0.223794 0.635845
Si Si6 0.625990 0.456219 0.252467
Si Si7 0.993449 0.425189 0.681536
O O1 0.071894 0.772442 0.084468
O O2 0.239197 0.657873 0.996649
O O3 0.567120 0.891603 0.687493
O O4 0.233420 0.754071 0.639899
O O5 0.347395 0.128827 0.000543
O O6 0.042686 0.911133 0.357098
O O7 0.500000 0.000000 0.000000
O O8 0.929283 0.800419 0.813587
O O9 0.716175 0.775426 0.291356
O O10 0.000000 0.000000 0.000000
O O11 0.373409 0.332600 0.340625
O O12 0.008318 0.327627 0.524452
O O13 0.218668 0.434203 0.024394
O O14 0.500000 0.500000 0.500000
O O15 0.807021 0.479969 0.296582
O O16 0.000000 0.500000 0.500000
#
# Coordination Sequence:
#
# PCOD9026789 Si02
#       7
#     2   2   2   2   2   2   2
#     4   9  19  38  61  91 134 168 214 272 329 381
#     4   9  18  33  66  96 126 175 208 269 339 380
#     4   9  17  33  64  96 124 172 215 263 329 391
#     4  10  22  41  65  96 134 174 222 270 328 393
#     4   9  17  36  59  94 131 173 210 266 322 389
#     4  11  20  40  64  96 136 174 214 275 322 396
#     4  11  25  40  64  97 130 177 225 272 332 391
#
# _framework density 28.716771000000001
#
# number of rings (size 3 to 8) (size 9 to 14) (size 15 to 20)
#    0.000    2.286    4.286    0.857    2.000    2.857 
#    0.000    1.429    0.000   44.571    3.714    0.000 
#    0.000    0.000    0.000    0.000    0.000    0.000 
#
# Total GULP energy -78149.257600 kJ/mol
# GULP energy per Si atom -5582.089829 kJ/mol
# Density = 2.865141 g / cm^3
# Si number density = 28.716771 Si / 1000 Ang^3
#
#
#
# Elastic Constant Matrix: (Units=GPa)
#
#
# Indices 1 2 3 4 5 6 
#
# 1 182.4483 50.1625 32.1869 7.2927 15.7338 34.6365
# 2 50.1625 157.7771 24.4001 17.3379 -2.0670 48.6763
# 3 32.1869 24.4001 128.8023 26.0888 27.0698 35.7010
# 4 7.2927 17.3379 26.0888 51.1742 -3.5499 1.7301
# 5 15.7338 -2.0670 27.0698 -3.5499 36.2043 -2.4951
# 6 34.6365 48.6763 35.7010 1.7301 -2.4951 66.0896
#
#
#
# Elastic Compliance Matrix: (Units=1/GPa)
#
#
# Indices 1 2 3 4 5 6 
#
# 1 0.006637 -0.001242 0.000219 -0.000777 -0.003388 -0.002789
# 2 -0.001242 0.008904 0.001229 -0.003291 -0.000642 -0.006509
# 3 0.000219 0.001229 0.014115 -0.008175 -0.011993 -0.008884
# 4 -0.000777 -0.003291 -0.008175 0.025340 0.009225 0.006932
# 5 -0.003388 -0.000642 -0.011993 0.009225 0.039616 0.009981
# 6 -0.002789 -0.006509 -0.008884 0.006932 0.009981 0.026381
#
#
# Mechanical properties :
#
#
# Convention : Reuss Voigt Hill
#
# Bulk Modulus (GPa) = 33.25711 75.83629 54.54670
# Shear Modulus (GPa) = 38.28398 54.84551 46.56474
#
# Velocity S-wave (km/s) = 3.65520 4.37496 4.03118
# Velocity P-wave (km/s) = 5.42404 7.21013 6.37990
#
# Compressibility (1/GPa) = 0.03006876
#
# Stress axis : x y z
#
# Youngs Moduli (GPa) = 150.67981 112.30445 70.84749
#
# Poissons Ratio (x) = 0.13953 -0.01555
# Poissons Ratio (y) = 0.18720 -0.08710
# Poissons Ratio (z) = -0.03306 -0.13807
#
# Static dielectric constant tensor:
#      x y z
#    x 2.193290 0.469910 0.506910 
#    y 0.469910 1.265750 -0.767610 
#    z 0.506910 -0.767610 1.659420 
# 
# From -- ./inp_files/42237.got.cif
#   From: 2010.05.17/outbox.cif.g08.bks.cpg/sg2_22_cif.got.tgz:42237.got - 2010.06.03 11:33:40.
