data_PCOD9026350
_publ_section_title
;
Structure prediction by ZEFSAII (Michael W. Deem and Ramdas Pophale) SiO2 
 PCOD9026350
Probable space group: P -1
;
_chemical_formula_sum "Si O2"
_cell_formula_units_Z 14
_cell_length_a 9.039022
_cell_length_b 14.482928
_cell_length_c 14.356636
_cell_angle_alpha 149.830792
_cell_angle_beta 46.158538
_cell_angle_gamma 114.952880
_cell_volume 594.538717
_symmetry_space_group_name_H-M "P -1"
_symmetry_group_IT_number 2
_symmetry_cell_setting 'triclinic'
loop_
_space_group_symop_operation_xyz
x,y,z
-x,-y,-z
loop_
_atom_site_type_symbol
_atom_site_label
_atom_site_fract_x
_atom_site_fract_y
_atom_site_fract_z
Si Si1 0.065325 0.833998 0.543202
Si Si2 0.804770 0.208602 0.217500
Si Si3 0.912091 0.541471 0.470697
Si Si4 0.864459 0.477670 0.903298
Si Si5 0.397445 0.847998 0.937011
Si Si6 0.690477 0.916653 0.262466
Si Si7 0.616310 0.724262 0.412926
O O1 0.193261 0.684726 0.269588
O O2 0.180908 0.944279 0.649460
O O3 0.999656 0.685085 0.506033
O O4 0.816470 0.033507 0.795859
O O5 0.962634 0.316666 0.215435
O O6 0.702315 0.186534 0.145271
O O7 0.577809 0.302139 0.466455
O O8 0.000000 0.000000 0.000000
O O9 0.630444 0.646984 0.690351
O O10 0.000000 0.500000 0.500000
O O11 0.142538 0.349753 0.698394
O O12 0.710587 0.578747 0.151654
O O13 0.821166 0.670089 0.021271
O O14 0.500000 0.000000 0.000000
O O15 0.526233 0.028991 0.341265
O O16 0.500000 0.000000 0.500000
#
# Coordination Sequence:
#
# PCOD9026350 Si02
#       7
#     2   2   2   2   2   2   2
#     4  11  24  44  69  98 141 174 236 286 345 428
#     4  12  24  40  72 101 142 186 230 291 354 421
#     4  11  24  41  64 104 138 184 230 286 357 416
#     4  10  24  45  72  99 136 188 229 292 355 404
#     4  10  22  41  63  99 138 177 230 283 346 421
#     4  10  23  44  68  99 134 182 232 287 345 410
#     4  10  22  44  69 101 139 178 239 283 347 424
#
# _framework density 23.547667000000001
#
# number of rings (size 3 to 8) (size 9 to 14) (size 15 to 20)
#    0.000    1.429    0.000    5.571    6.000    2.286 
#    0.000    6.429    6.286    0.000    0.000    0.000 
#    0.000    0.000    0.000    0.000    0.000    0.000 
#
# Total GULP energy -78032.941097 kJ/mol
# GULP energy per Si atom -5573.781507 kJ/mol
# Density = 2.349407 g / cm^3
# Si number density = 23.547667 Si / 1000 Ang^3
#
#
#
# Elastic Constant Matrix: (Units=GPa)
#
#
# Indices 1 2 3 4 5 6 
#
# 1 101.3105 6.5244 22.1839 15.1947 -7.3542 -8.6515
# 2 6.5244 86.4458 17.2336 -5.3101 -2.6027 3.1384
# 3 22.1839 17.2336 64.4367 0.7586 -17.8731 -14.1430
# 4 15.1947 -5.3101 0.7586 46.9420 -1.7246 0.4615
# 5 -7.3542 -2.6027 -17.8731 -1.7246 51.2216 6.0898
# 6 -8.6515 3.1384 -14.1430 0.4615 6.0898 33.9118
#
#
#
# Elastic Compliance Matrix: (Units=1/GPa)
#
#
# Indices 1 2 3 4 5 6 
#
# 1 0.011329 -0.000465 -0.003356 -0.003676 0.000122 0.001562
# 2 -0.000465 0.012590 -0.003976 0.001652 -0.000415 -0.002890
# 3 -0.003356 -0.003976 0.020912 0.000440 0.005773 0.007191
# 4 -0.003676 0.001652 0.000440 0.022709 0.000632 -0.001330
# 5 0.000122 -0.000415 0.005773 0.000632 0.021726 -0.001433
# 6 0.001562 -0.002890 0.007191 -0.001330 -0.001433 0.033428
#
#
# Mechanical properties :
#
#
# Convention : Reuss Voigt Hill
#
# Bulk Modulus (GPa) = 34.20279 38.23075 36.21677
# Shear Modulus (GPa) = 33.77628 40.16515 36.97071
#
# Velocity S-wave (km/s) = 3.79143 4.13449 3.96667
# Velocity P-wave (km/s) = 5.80715 6.25002 6.03265
#
# Compressibility (1/GPa) = 0.02923738
#
# Stress axis : x y z
#
# Youngs Moduli (GPa) = 88.26857 79.43097 47.81897
#
# Poissons Ratio (x) = 0.03692 0.16048
# Poissons Ratio (y) = 0.04103 0.19012
# Poissons Ratio (z) = 0.29622 0.31581
#
# Static dielectric constant tensor:
#      x y z
#    x 1.863510 -0.004710 -0.002790 
#    y -0.004710 1.871400 -0.029190 
#    z -0.002790 -0.029190 2.439410 
# 
# From -- ./inp_files/505678.got.cif
#   From: 2010.05.17/outbox.cif.g08.bks.cpg/sg2_253_cif.got.tgz:505678.got - 2010.06.03 11:33:40.
