data_PCOD9026220
_publ_section_title
;
Structure prediction by ZEFSAII (Michael W. Deem and Ramdas Pophale) SiO2 
 PCOD9026220
Probable space group: P -1
;
_chemical_formula_sum "Si O2"
_cell_formula_units_Z 16
_cell_length_a 8.262311
_cell_length_b 18.813300
_cell_length_c 8.735138
_cell_angle_alpha 124.595979
_cell_angle_beta 144.037888
_cell_angle_gamma 60.714801
_cell_volume 655.144671
_symmetry_space_group_name_H-M "P -1"
_symmetry_group_IT_number 2
_symmetry_cell_setting 'triclinic'
loop_
_space_group_symop_operation_xyz
x,y,z
-x,-y,-z
loop_
_atom_site_type_symbol
_atom_site_label
_atom_site_fract_x
_atom_site_fract_y
_atom_site_fract_z
Si Si1 0.083065 0.779052 0.129744
Si Si2 0.610727 0.531706 0.459056
Si Si3 0.341997 0.309619 0.503178
Si Si4 0.813578 0.560947 0.179635
Si Si5 0.321349 0.992002 0.205198
Si Si6 0.371454 0.090873 0.077121
Si Si7 0.871886 0.715569 0.210994
Si Si8 0.663752 0.189622 0.177191
O O1 0.403026 0.753464 0.323567
O O2 0.991706 0.730061 0.152835
O O3 0.914435 0.742471 0.813353
O O4 0.946967 0.877397 0.165606
O O5 0.500000 0.500000 0.500000
O O6 0.569365 0.632122 0.503038
O O7 0.937748 0.507536 0.673209
O O8 0.450616 0.482025 0.143889
O O9 0.258752 0.375954 0.656804
O O10 0.921444 0.620445 0.198190
O O11 0.388691 0.070285 0.242097
O O12 0.500000 0.000000 0.500000
O O13 0.366233 0.898142 0.046622
O O14 0.000000 0.000000 0.000000
O O15 0.544553 0.164389 0.222564
O O16 0.500000 0.000000 0.000000
O O17 0.033314 0.778779 0.523983
O O18 0.545656 0.739766 0.975610
#
# Coordination Sequence:
#
# PCOD9026220 Si02
#       8
#     2   2   2   2   2   2   2   2
#     4  11  23  42  66  94 128 172 219 272 323 392
#     4  12  24  44  69  95 129 177 224 269 319 392
#     4  12  25  42  64  98 134 170 216 272 335 392
#     4  12  25  42  66  97 134 174 215 273 333 388
#     4  11  24  40  62  93 127 164 208 263 324 387
#     4   9  22  44  68  94 128 173 221 265 323 389
#     4  11  22  41  63  91 123 164 217 263 317 381
#     4  10  22  41  63  88 124 168 211 265 317 383
#
# _framework density 24.422086
#
# number of rings (size 3 to 8) (size 9 to 14) (size 15 to 20)
#    0.000    1.000    0.000    7.125    0.000    6.000 
#    0.000   10.625    0.000    0.000    0.000    0.000 
#    0.000    0.000    0.000    0.000    0.000    0.000 
#
# Total GULP energy -89603.667500 kJ/mol
# GULP energy per Si atom -5600.229219 kJ/mol
# Density = 2.436650 g / cm^3
# Si number density = 24.422086 Si / 1000 Ang^3
#
#
#
# Elastic Constant Matrix: (Units=GPa)
#
#
# Indices 1 2 3 4 5 6 
#
# 1 58.8791 15.1925 37.3913 -17.6225 -8.8266 -9.6271
# 2 15.1925 125.7602 52.2200 -28.0738 3.4968 -7.1896
# 3 37.3913 52.2200 184.7450 -14.7697 -9.5062 -11.2705
# 4 -17.6225 -28.0738 -14.7697 50.4354 -6.1330 1.3497
# 5 -8.8266 3.4968 -9.5062 -6.1330 24.4766 -2.5961
# 6 -9.6271 -7.1896 -11.2705 1.3497 -2.5961 40.8700
#
#
#
# Elastic Compliance Matrix: (Units=1/GPa)
#
#
# Indices 1 2 3 4 5 6 
#
# 1 0.024007 0.000509 -0.003479 0.008727 0.009964 0.005130
# 2 0.000509 0.010136 -0.002562 0.004932 -0.000920 0.000975
# 3 -0.003479 -0.002562 0.006948 -0.000410 0.001789 0.000773
# 4 0.008727 0.004932 -0.000410 0.026553 0.009204 0.002518
# 5 0.009964 -0.000920 0.001789 0.009204 0.048157 0.005433
# 6 0.005130 0.000975 0.000773 0.002518 0.005433 0.026323
#
#
# Mechanical properties :
#
#
# Convention : Reuss Voigt Hill
#
# Bulk Modulus (GPa) = 33.30444 64.33245 48.81845
# Shear Modulus (GPa) = 30.63801 40.79511 35.71656
#
# Velocity S-wave (km/s) = 3.54576 4.09151 3.82837
# Velocity P-wave (km/s) = 5.51633 6.97995 6.29085
#
# Compressibility (1/GPa) = 0.03002602
#
# Stress axis : x y z
#
# Youngs Moduli (GPa) = 41.65535 98.65723 143.93590
#
# Poissons Ratio (x) = -0.05021 0.50080
# Poissons Ratio (y) = -0.02120 0.36872
# Poissons Ratio (z) = 0.14493 0.25273
#
# Static dielectric constant tensor:
#      x y z
#    x 2.009710 -0.039550 -0.002400 
#    y -0.039550 2.003480 0.056080 
#    z -0.002400 0.056080 1.946960 
# 
# From -- ./inp_files/223958.got.cif
#   From: 2010.05.17/outbox.cif.g08.bks.cpg/sg2_112_cif.got.tgz:223958.got - 2010.06.03 11:33:40.
