data_PCOD9026095
_publ_section_title
;
Structure prediction by ZEFSAII (Michael W. Deem and Ramdas Pophale) SiO2 
 PCOD9026095
Probable space group: P -1
;
_chemical_formula_sum "Si O2"
_cell_formula_units_Z 12
_cell_length_a 9.747086
_cell_length_b 11.985551
_cell_length_c 9.313386
_cell_angle_alpha 73.990394
_cell_angle_beta 139.076977
_cell_angle_gamma 80.566150
_cell_volume 552.476819
_symmetry_space_group_name_H-M "P -1"
_symmetry_group_IT_number 2
_symmetry_cell_setting 'triclinic'
loop_
_space_group_symop_operation_xyz
x,y,z
-x,-y,-z
loop_
_atom_site_type_symbol
_atom_site_label
_atom_site_fract_x
_atom_site_fract_y
_atom_site_fract_z
Si Si1 0.638327 0.161544 0.891320
Si Si2 0.169174 0.734395 0.768437
Si Si3 0.184801 0.143471 0.834068
Si Si4 0.751426 0.280636 0.684022
Si Si5 0.812741 0.457535 0.911590
Si Si6 0.291177 0.359759 0.767238
O O1 0.713017 0.179210 0.787128
O O2 0.375626 0.310059 0.685735
O O3 0.839457 0.151958 0.169516
O O4 0.626436 0.028287 0.946125
O O5 0.978596 0.806895 0.459820
O O6 0.117511 0.638521 0.857902
O O7 0.472912 0.637228 0.994546
O O8 0.312529 0.228320 0.908170
O O9 0.980883 0.197265 0.782460
O O10 0.806464 0.366288 0.809539
O O11 0.478646 0.399111 0.352059
O O12 0.000000 0.500000 0.000000
O O13 0.000000 0.500000 0.500000
#
# Coordination Sequence:
#
# PCOD9026095 Si02
#       6
#     2   2   2   2   2   2
#     4   9  22  45  59  90 132 167 201 253 312 369
#     4   9  23  39  62  92 124 162 211 252 306 367
#     4  12  22  39  69  91 127 165 205 257 310 367
#     4  10  23  39  62  93 126 160 213 253 305 369
#     4  10  22  41  62  88 127 169 201 256 313 366
#     4  10  23  39  63  93 124 160 212 256 301 367
#
# _framework density 21.720369000000002
#
# number of rings (size 3 to 8) (size 9 to 14) (size 15 to 20)
#    1.000    1.000    0.000    2.500    4.667    4.000 
#    0.000    0.000    0.000    5.000    0.000    0.000 
#    0.000    0.000    0.000    0.000    0.000    0.000 
#
# Total GULP energy -67040.031921 kJ/mol
# GULP energy per Si atom -5586.669327 kJ/mol
# Density = 2.167093 g / cm^3
# Si number density = 21.720369 Si / 1000 Ang^3
#
#
#
# Elastic Constant Matrix: (Units=GPa)
#
#
# Indices 1 2 3 4 5 6 
#
# 1 119.1500 28.4109 10.4702 -4.7587 -14.8846 11.0673
# 2 28.4109 67.0647 16.3325 -15.8496 -4.1679 23.1919
# 3 10.4702 16.3325 40.2239 2.0604 -7.5947 1.3630
# 4 -4.7587 -15.8496 2.0604 19.6442 2.1914 -0.4573
# 5 -14.8846 -4.1679 -7.5947 2.1914 35.2391 -4.4341
# 6 11.0673 23.1919 1.3630 -0.4573 -4.4341 49.1070
#
#
#
# Elastic Compliance Matrix: (Units=1/GPa)
#
#
# Indices 1 2 3 4 5 6 
#
# 1 0.009822 -0.004346 -0.000011 -0.001540 0.003748 0.000163
# 2 -0.004346 0.029795 -0.012570 0.024470 -0.004164 -0.012891
# 3 -0.000011 -0.012570 0.031814 -0.014126 0.006942 0.005551
# 4 -0.001540 0.024470 -0.014126 0.072249 -0.006646 -0.010745
# 5 0.003748 -0.004164 0.006942 -0.006646 0.031849 0.003743
# 6 0.000163 -0.012891 0.005551 -0.010745 0.003743 0.026499
#
#
# Mechanical properties :
#
#
# Convention : Reuss Voigt Hill
#
# Bulk Modulus (GPa) = 26.61129 37.42954 32.02041
# Shear Modulus (GPa) = 20.12833 32.21307 26.17070
#
# Velocity S-wave (km/s) = 3.04748 3.85526 3.47492
# Velocity P-wave (km/s) = 4.96601 6.08993 5.55646
#
# Compressibility (1/GPa) = 0.03757804
#
# Stress axis : x y z
#
# Youngs Moduli (GPa) = 101.81728 33.56218 31.43292
#
# Poissons Ratio (x) = 0.14585 0.00034
# Poissons Ratio (y) = 0.44245 0.39511
# Poissons Ratio (z) = 0.00112 0.42187
#
# Static dielectric constant tensor:
#      x y z
#    x 1.804860 0.001980 0.011150 
#    y 0.001980 1.832220 0.002970 
#    z 0.011150 0.002970 1.771790 
# 
# From -- ./inp_files/176902.got.cif
#   From: 2010.05.17/outbox.cif.g08.bks.cpg/sg2_89_cif.got.tgz:176902.got - 2010.06.03 11:33:40.
