data_PCOD9026233
_publ_section_title
;
Structure prediction by ZEFSAII (Michael W. Deem and Ramdas Pophale) SiO2 
 PCOD9026233
Probable space group: P -1
;
_chemical_formula_sum "Si O2"
_cell_formula_units_Z 16
_cell_length_a 19.760607
_cell_length_b 8.786677
_cell_length_c 13.027662
_cell_angle_alpha 96.392834
_cell_angle_beta 37.694124
_cell_angle_gamma 126.952233
_cell_volume 736.512214
_symmetry_space_group_name_H-M "P -1"
_symmetry_group_IT_number 2
_symmetry_cell_setting 'triclinic'
loop_
_space_group_symop_operation_xyz
x,y,z
-x,-y,-z
loop_
_atom_site_type_symbol
_atom_site_label
_atom_site_fract_x
_atom_site_fract_y
_atom_site_fract_z
Si Si1 0.595973 0.765945 0.981946
Si Si2 0.917006 0.418514 0.208718
Si Si3 0.840182 0.266818 0.876637
Si Si4 0.508846 0.086345 0.605842
Si Si5 0.976711 0.242223 0.406402
Si Si6 0.767694 0.655781 0.757770
Si Si7 0.346298 0.433242 0.617843
Si Si8 0.029698 0.871832 0.818998
O O1 0.624763 0.623796 0.973506
O O2 0.694220 0.987550 0.966354
O O3 0.366096 0.534059 0.198915
O O4 0.761453 0.974048 0.705109
O O5 0.703796 0.254183 0.444019
O O6 0.912722 0.238113 0.236352
O O7 0.044100 0.665033 0.158284
O O8 0.000000 0.500000 0.000000
O O9 0.991783 0.544470 0.647332
O O10 0.684044 0.195471 0.118281
O O11 0.527916 0.288236 0.572646
O O12 0.500000 0.000000 0.500000
O O13 0.174815 0.425506 0.251589
O O14 0.978546 0.135828 0.295447
O O15 0.000000 0.000000 0.500000
O O16 0.500000 0.500000 0.500000
O O17 0.206975 0.180050 0.683235
O O18 0.183111 0.324261 0.884178
#
# Coordination Sequence:
#
# PCOD9026233 Si02
#       8
#     2   2   2   2   2   2   2   2
#     4  10  22  41  64  94 125 165 215 261 319 387
#     4  11  21  42  66  84 131 172 211 266 324 385
#     4  11  25  38  63  98 124 167 220 263 323 384
#     4  12  23  39  62  89 125 170 217 265 328 385
#     4  10  22  41  63  89 130 167 209 264 319 381
#     4   9  21  41  66  87 127 164 206 264 324 379
#     4  11  24  38  61  91 126 160 215 271 320 382
#     4  10  23  41  61  93 123 168 215 260 326 382
#
# _framework density 21.724012999999999
#
# number of rings (size 3 to 8) (size 9 to 14) (size 15 to 20)
#    0.000    1.500    2.500    1.875    0.000   10.500 
#    0.000    0.000    0.000    0.000    0.000    0.000 
#    0.000    0.000    0.000    0.000    0.000    0.000 
#
# Total GULP energy -89204.624983 kJ/mol
# GULP energy per Si atom -5575.289061 kJ/mol
# Density = 2.167457 g / cm^3
# Si number density = 21.724013 Si / 1000 Ang^3
#
#
#
# Elastic Constant Matrix: (Units=GPa)
#
#
# Indices 1 2 3 4 5 6 
#
# 1 96.7844 29.9842 36.9381 -8.8134 -30.7398 18.3145
# 2 29.9842 121.2455 5.5991 -12.4963 -7.0603 30.2681
# 3 36.9381 5.5991 70.1558 -13.8037 -11.2346 11.7746
# 4 -8.8134 -12.4963 -13.8037 27.5846 10.3496 -3.8717
# 5 -30.7398 -7.0603 -11.2346 10.3496 40.2080 -8.0554
# 6 18.3145 30.2681 11.7746 -3.8717 -8.0554 47.3853
#
#
#
# Elastic Compliance Matrix: (Units=1/GPa)
#
#
# Indices 1 2 3 4 5 6 
#
# 1 0.018083 -0.003614 -0.008039 -0.004489 0.011894 -0.001028
# 2 -0.003614 0.010982 0.002695 0.005300 -0.002711 -0.006316
# 3 -0.008039 0.002695 0.020200 0.009464 -0.003145 -0.003395
# 4 -0.004489 0.005300 0.009464 0.046214 -0.012214 -0.002302
# 5 0.011894 -0.002711 -0.003145 -0.012214 0.036374 0.003102
# 6 -0.001028 -0.006316 -0.003395 -0.002302 0.003102 0.026718
#
#
# Mechanical properties :
#
#
# Convention : Reuss Voigt Hill
#
# Bulk Modulus (GPa) = 31.89872 48.13651 40.01762
# Shear Modulus (GPa) = 26.74691 37.41320 32.08005
#
# Velocity S-wave (km/s) = 3.51267 4.15445 3.84697
# Velocity P-wave (km/s) = 5.58277 6.72450 6.18006
#
# Compressibility (1/GPa) = 0.03134922
#
# Stress axis : x y z
#
# Youngs Moduli (GPa) = 55.29950 91.05734 49.50534
#
# Poissons Ratio (x) = 0.32911 0.39796
# Poissons Ratio (y) = 0.19987 -0.13342
# Poissons Ratio (z) = 0.44454 -0.24541
#
# Static dielectric constant tensor:
#      x y z
#    x 1.824990 -0.013030 0.044280 
#    y -0.013030 1.830200 0.021410 
#    z 0.044280 0.021410 1.789480 
# 
# From -- ./inp_files/462199.got.cif
#   From: 2010.05.17/outbox.cif.g08.bks.cpg/sg2_232_cif.got.tgz:462199.got - 2010.06.03 11:33:40.
