data_PCOD9026335
_publ_section_title
;
Structure prediction by ZEFSAII (Michael W. Deem and Ramdas Pophale) SiO2 
 PCOD9026335
Probable space group: P -1
;
_chemical_formula_sum "Si O2"
_cell_formula_units_Z 12
_cell_length_a 10.459506
_cell_length_b 16.886600
_cell_length_c 20.322353
_cell_angle_alpha 160.485388
_cell_angle_beta 30.234902
_cell_angle_gamma 150.846295
_cell_volume 565.445396
_symmetry_space_group_name_H-M "P -1"
_symmetry_group_IT_number 2
_symmetry_cell_setting 'triclinic'
loop_
_space_group_symop_operation_xyz
x,y,z
-x,-y,-z
loop_
_atom_site_type_symbol
_atom_site_label
_atom_site_fract_x
_atom_site_fract_y
_atom_site_fract_z
Si Si1 0.917108 0.937536 0.562084
Si Si2 0.435106 0.133972 0.921655
Si Si3 0.131033 0.356007 0.883105
Si Si4 0.967780 0.209859 0.275283
Si Si5 0.381727 0.610350 0.698406
Si Si6 0.117752 0.965768 0.128158
O O1 0.832614 0.639634 0.371378
O O2 0.652001 0.010665 0.754262
O O3 0.000000 0.000000 0.500000
O O4 0.151514 0.120528 0.647350
O O5 0.604208 0.409235 0.031277
O O6 0.244578 0.193340 0.107492
O O7 0.258898 0.937619 0.792204
O O8 0.976914 0.209549 0.902061
O O9 0.000000 0.500000 0.000000
O O10 0.000000 0.500000 0.500000
O O11 0.915017 0.062133 0.252678
O O12 0.500000 0.500000 0.500000
O O13 0.632333 0.781260 0.765008
O O14 0.223253 0.797627 0.900233
#
# Coordination Sequence:
#
# PCOD9026335 Si02
#       6
#     2   2   2   2   2   2
#     4  11  22  39  71  98 129 171 211 272 340 384
#     4  10  24  44  65  96 132 171 220 269 318 394
#     4  10  22  41  63  97 132 161 211 275 331 378
#     4  11  25  45  69  90 131 181 221 261 320 392
#     4  11  21  37  61  98 131 161 212 269 329 389
#     4  11  24  39  64  98 129 170 217 272 320 385
#
# _framework density 21.22221
#
# number of rings (size 3 to 8) (size 9 to 14) (size 15 to 20)
#    0.000    1.333    1.667    4.000   11.667    2.000 
#    0.000    0.833    0.000    0.000    0.000    0.000 
#    0.000    0.000    0.000    0.000    0.000    0.000 
#
# Total GULP energy -66897.378010 kJ/mol
# GULP energy per Si atom -5574.781501 kJ/mol
# Density = 2.117391 g / cm^3
# Si number density = 21.222210 Si / 1000 Ang^3
#
#
#
# Elastic Constant Matrix: (Units=GPa)
#
#
# Indices 1 2 3 4 5 6 
#
# 1 56.5295 25.6575 54.6982 15.5792 -2.0700 -15.7201
# 2 25.6575 74.8970 50.1664 34.6519 15.4841 -11.2964
# 3 54.6982 50.1664 162.8244 32.4545 29.1409 -3.3981
# 4 15.5792 34.6519 32.4545 44.0521 3.7801 4.7524
# 5 -2.0700 15.4841 29.1409 3.7801 26.5082 3.7678
# 6 -15.7201 -11.2964 -3.3981 4.7524 3.7678 33.7534
#
#
#
# Elastic Compliance Matrix: (Units=1/GPa)
#
#
# Indices 1 2 3 4 5 6 
#
# 1 0.038903 -0.004556 -0.014445 -0.002687 0.020075 0.013277
# 2 -0.004556 0.031026 -0.000216 -0.022620 -0.016908 0.013312
# 3 -0.014445 -0.000216 0.014644 -0.003803 -0.016133 -0.002989
# 4 -0.002687 -0.022620 -0.003803 0.044948 0.013191 -0.017006
# 5 0.020075 -0.016908 -0.016133 0.013191 0.066040 -0.007162
# 6 0.013277 0.013312 -0.002989 -0.017006 -0.007162 0.043158
#
#
# Mechanical properties :
#
#
# Convention : Reuss Voigt Hill
#
# Bulk Modulus (GPa) = 21.67441 61.69947 41.68694
# Shear Modulus (GPa) = 17.09213 31.77801 24.43507
#
# Velocity S-wave (km/s) = 2.84102 3.87382 3.39690
# Velocity P-wave (km/s) = 4.58226 7.01033 5.92207
#
# Compressibility (1/GPa) = 0.04613735
#
# Stress axis : x y z
#
# Youngs Moduli (GPa) = 25.70512 32.23121 68.28877
#
# Poissons Ratio (x) = 0.14685 0.98645
# Poissons Ratio (y) = 0.11712 0.01475
# Poissons Ratio (z) = 0.37132 0.00696
#
# Static dielectric constant tensor:
#      x y z
#    x 1.803790 0.010850 -0.017310 
#    y 0.010850 1.749730 -0.063590 
#    z -0.017310 -0.063590 1.745410 
# 
# From -- ./inp_files/278303.got.cif
#   From: 2010.05.17/outbox.cif.g08.bks.cpg/sg2_140_cif.got.tgz:278303.got - 2010.06.03 11:33:40.
