data_PCOD9026134
_publ_section_title
;
Structure prediction by ZEFSAII (Michael W. Deem and Ramdas Pophale) SiO2 
 PCOD9026134
Probable space group: P -1
;
_chemical_formula_sum "Si O2"
_cell_formula_units_Z 14
_cell_length_a 16.533664
_cell_length_b 8.234578
_cell_length_c 11.796050
_cell_angle_alpha 93.466503
_cell_angle_beta 148.358186
_cell_angle_gamma 63.462950
_cell_volume 551.551706
_symmetry_space_group_name_H-M "P -1"
_symmetry_group_IT_number 2
_symmetry_cell_setting 'triclinic'
loop_
_space_group_symop_operation_xyz
x,y,z
-x,-y,-z
loop_
_atom_site_type_symbol
_atom_site_label
_atom_site_fract_x
_atom_site_fract_y
_atom_site_fract_z
Si Si1 0.199285 0.273282 0.491242
Si Si2 0.184447 0.993519 0.758948
Si Si3 0.937558 0.968841 0.132883
Si Si4 0.570794 0.242960 0.272387
Si Si5 0.281590 0.522472 0.160086
Si Si6 0.000000 0.500000 0.500000
Si Si7 0.500000 0.500000 0.000000
Si Si8 0.166783 0.501970 0.252965
O O1 0.279059 0.331104 0.489607
O O2 0.120276 0.425300 0.515556
O O3 0.386884 0.978744 0.712707
O O4 0.954937 0.381222 0.161540
O O5 0.174727 0.005775 0.884222
O O6 0.119323 0.219538 0.640152
O O7 0.420813 0.732496 0.976820
O O8 0.000000 0.000000 0.500000
O O9 0.188690 0.848635 0.463106
O O10 0.004868 0.777950 0.115494
O O11 0.788710 0.233257 0.914402
O O12 0.479717 0.331456 0.295316
O O13 0.403724 0.469384 0.996256
O O14 0.330560 0.426800 0.342087
O O15 0.000000 0.500000 0.000000
#
# Coordination Sequence:
#
# PCOD9026134 Si02
#       8
#     2   2   2   2   2   1   1   2
#     4  10  22  41  62  93 131 167 217 272 337 390
#     4  12  23  42  68  97 138 174 217 280 334 398
#     4  11  21  40  66  93 126 169 217 267 332 392
#     4  11  23  38  64  95 127 173 218 268 333 396
#     4  10  22  41  65  91 124 169 219 271 325 396
#     4  12  22  40  68  96 130 180 216 272 344 400
#     4  12  22  38  64 100 132 172 218 272 332 404
#     4  10  22  42  66  90 127 171 216 272 330 392
#
# _framework density 25.382932
#
# number of rings (size 3 to 8) (size 9 to 14) (size 15 to 20)
#    0.000    1.143    5.714    1.286    0.000    1.143 
#    0.000    7.143    0.000    0.000    0.000    0.000 
#    0.000    0.000    0.000    0.000    0.000    0.000 
#
# Total GULP energy -77973.604631 kJ/mol
# GULP energy per Si atom -5569.543188 kJ/mol
# Density = 2.532516 g / cm^3
# Si number density = 25.382932 Si / 1000 Ang^3
#
#
#
# Elastic Constant Matrix: (Units=GPa)
#
#
# Indices 1 2 3 4 5 6 
#
# 1 203.3446 56.8423 38.0949 -21.6742 -28.7610 -35.5039
# 2 56.8423 181.9056 34.6085 -39.5815 -8.4796 -18.4355
# 3 38.0949 34.6085 52.0206 3.8116 6.4037 14.1842
# 4 -21.6742 -39.5815 3.8116 49.7933 15.0706 -3.5759
# 5 -28.7610 -8.4796 6.4037 15.0706 37.9514 -6.6126
# 6 -35.5039 -18.4355 14.1842 -3.5759 -6.6126 49.4056
#
#
#
# Elastic Compliance Matrix: (Units=1/GPa)
#
#
# Indices 1 2 3 4 5 6 
#
# 1 0.014746 0.004263 -0.022044 0.008075 0.016350 0.021289
# 2 0.004263 0.011255 -0.015880 0.011054 0.006384 0.013477
# 3 -0.022044 -0.015880 0.063696 -0.021121 -0.030573 -0.045674
# 4 0.008075 0.011054 -0.021121 0.034872 0.001568 0.018725
# 5 0.016350 0.006384 -0.030573 0.001568 0.049877 0.029698
# 6 0.021289 0.013477 -0.045674 0.018725 0.029698 0.059012
#
#
# Mechanical properties :
#
#
# Convention : Reuss Voigt Hill
#
# Bulk Modulus (GPa) = 44.69300 77.37359 61.03330
# Shear Modulus (GPa) = 16.22123 47.94505 32.08314
#
# Velocity S-wave (km/s) = 2.53071 4.35083 3.55909
# Velocity P-wave (km/s) = 5.11713 7.46916 6.40208
#
# Compressibility (1/GPa) = 0.02237487
#
# Stress axis : x y z
#
# Youngs Moduli (GPa) = 67.81384 88.84797 15.69964
#
# Poissons Ratio (x) = -0.37875 0.34608
# Poissons Ratio (y) = -0.28908 0.24931
# Poissons Ratio (z) = 1.49489 1.41091
#
# Static dielectric constant tensor:
#      x y z
#    x 1.962740 -0.001370 0.128050 
#    y -0.001370 1.948180 0.097420 
#    z 0.128050 0.097420 1.350210 
# 
# From -- ./inp_files/248654.got.cif
#   From: 2010.05.17/outbox.cif.g08.bks.cpg/sg2_125_cif.got.tgz:248654.got - 2010.06.03 11:33:40.
