data_PCOD9026786
_publ_section_title
;
Structure prediction by ZEFSAII (Michael W. Deem and Ramdas Pophale) SiO2 
 PCOD9026786
Probable space group: P -1
;
_chemical_formula_sum "Si O2"
_cell_formula_units_Z 16
_cell_length_a 21.490844
_cell_length_b 10.388155
_cell_length_c 18.104595
_cell_angle_alpha 146.074537
_cell_angle_beta 161.563365
_cell_angle_gamma 34.858425
_cell_volume 700.532355
_symmetry_space_group_name_H-M "P -1"
_symmetry_group_IT_number 2
_symmetry_cell_setting 'triclinic'
loop_
_space_group_symop_operation_xyz
x,y,z
-x,-y,-z
loop_
_atom_site_type_symbol
_atom_site_label
_atom_site_fract_x
_atom_site_fract_y
_atom_site_fract_z
Si Si1 0.694764 0.799430 0.488037
Si Si2 0.906130 0.540988 0.202591
Si Si3 0.215170 0.571523 0.364976
Si Si4 0.308349 0.046870 0.753446
Si Si5 0.332495 0.359263 0.780392
Si Si6 0.764104 0.256952 0.038370
Si Si7 0.960593 0.242770 0.893535
Si Si8 0.659927 0.331793 0.712710
O O1 0.721730 0.776032 0.417564
O O2 0.863223 0.585796 0.605056
O O3 0.718928 0.053470 0.668372
O O4 0.467129 0.772341 0.234384
O O5 0.866569 0.789537 0.318110
O O6 0.801998 0.389056 0.070312
O O7 0.775895 0.513186 0.970739
O O8 0.066461 0.685839 0.187425
O O9 0.427413 0.427799 0.507781
O O10 0.252867 0.793179 0.557986
O O11 0.095897 0.372935 0.161081
O O12 0.358040 0.176114 0.793139
O O13 0.500000 0.000000 0.000000
O O14 0.194157 0.584771 0.769798
O O15 0.500000 0.500000 0.000000
O O16 0.917251 0.017102 0.094944
O O17 0.737891 0.308472 0.706027
#
# Coordination Sequence:
#
# PCOD9026786 Si02
#       8
#     2   2   2   2   2   2   2   2
#     4  11  22  40  68  99 130 179 226 288 337 395
#     4  11  25  41  65  98 136 175 229 278 347 409
#     4  11  25  45  67  96 138 181 222 282 347 415
#     4  11  23  46  71 100 142 186 224 282 355 411
#     4   9  22  42  68 101 130 175 231 284 333 401
#     4  10  22  41  65  96 134 166 230 287 330 398
#     4  11  24  42  67 100 128 181 234 273 343 410
#     4  12  23  43  63  97 137 176 227 280 342 411
#
# _framework density 22.839773999999998
#
# number of rings (size 3 to 8) (size 9 to 14) (size 15 to 20)
#    0.000    1.250    3.750    1.500    1.750    2.500 
#    4.500    1.875    0.000    0.000    0.000    0.000 
#    0.000    0.000    0.000    0.000    0.000    0.000 
#
# Total GULP energy -89156.857213 kJ/mol
# GULP energy per Si atom -5572.303576 kJ/mol
# Density = 2.278779 g / cm^3
# Si number density = 22.839774 Si / 1000 Ang^3
#
#
#
# Elastic Constant Matrix: (Units=GPa)
#
#
# Indices 1 2 3 4 5 6 
#
# 1 -8.1216 110.2145 -15.2115 -185.5098 -66.0332 -76.9943
# 2 110.2145 -30.3366 45.7968 346.0788 103.0274 85.0662
# 3 -15.2115 45.7968 85.6435 -41.1279 -11.3146 -30.5731
# 4 -185.5098 346.0788 -41.1279 -604.6188 -204.9764 -216.9217
# 5 -66.0332 103.0274 -11.3146 -204.9764 -32.2406 -70.7838
# 6 -76.9943 85.0662 -30.5731 -216.9217 -70.7838 -48.1743
#
#
#
# Elastic Compliance Matrix: (Units=1/GPa)
#
#
# Indices 1 2 3 4 5 6 
#
# 1 0.023093 0.002064 0.002232 -0.010897 0.001703 0.011883
# 2 0.002064 0.009031 -0.000087 -0.000810 0.002734 0.012333
# 3 0.002232 -0.000087 0.012796 -0.003894 -0.001312 0.007618
# 4 -0.010897 -0.000810 -0.003894 0.010997 -0.008704 -0.018272
# 5 0.001703 0.002734 -0.001312 -0.008704 0.028065 0.000896
# 6 0.011883 0.012333 0.007618 -0.018272 0.000896 0.058151
#
#
# Mechanical properties :
#
#
# Convention : Reuss Voigt Hill
#
# Bulk Modulus (GPa) = 18.74892 36.53165 27.64029
# Shear Modulus (GPa) = 33.00454 -143.24772 -55.12159
#
# Velocity S-wave (km/s) = 3.80550 -7.92810 -4.91797
# Velocity P-wave (km/s) = 5.24746 8.23267 4.48559
#
# Compressibility (1/GPa) = 0.05333640
#
# Stress axis : x y z
#
# Youngs Moduli (GPa) = 43.30332 110.73527 78.14988
#
# Poissons Ratio (x) = -0.22853 -0.17445
# Poissons Ratio (y) = -0.08937 0.00684
# Poissons Ratio (z) = -0.09666 0.00969
#
# Static dielectric constant tensor:
#      x y z
#    x 1.952140 0.092380 0.091550 
#    y 0.092380 2.321340 0.396400 
#    z 0.091550 0.396400 2.135230 
# 
# From -- ./inp_files/578055.got.cif
#   From: 2010.05.17/outbox.cif.g08.bks.cpg/sg2_290_cif.got.tgz:578055.got - 2010.06.03 11:33:40.
