data_PCOD9026587
_publ_section_title
;
Structure prediction by ZEFSAII (Michael W. Deem and Ramdas Pophale) SiO2 
 PCOD9026587
Probable space group: P -1
;
_chemical_formula_sum "Si O2"
_cell_formula_units_Z 14
_cell_length_a 12.884127
_cell_length_b 10.552998
_cell_length_c 15.926139
_cell_angle_alpha 54.730281
_cell_angle_beta 145.126318
_cell_angle_gamma 145.814236
_cell_volume 660.227562
_symmetry_space_group_name_H-M "P -1"
_symmetry_group_IT_number 2
_symmetry_cell_setting 'triclinic'
loop_
_space_group_symop_operation_xyz
x,y,z
-x,-y,-z
loop_
_atom_site_type_symbol
_atom_site_label
_atom_site_fract_x
_atom_site_fract_y
_atom_site_fract_z
Si Si1 0.662721 0.516393 0.029969
Si Si2 0.125245 0.171558 0.706259
Si Si3 0.831153 0.694420 0.646323
Si Si4 0.093594 0.176272 0.174087
Si Si5 0.376533 0.618033 0.635700
Si Si6 0.893983 0.432147 0.684004
Si Si7 0.212225 0.933693 0.150169
O O1 0.808406 0.452917 0.179958
O O2 0.923875 0.784959 0.066205
O O3 0.500000 0.500000 0.000000
O O4 0.443274 0.339611 0.878507
O O5 0.131516 0.350485 0.610398
O O6 0.988516 0.959632 0.633523
O O7 0.968129 0.030474 0.743169
O O8 0.500000 0.500000 0.500000
O O9 0.907354 0.712806 0.787740
O O10 0.913403 0.612796 0.669300
O O11 0.395072 0.347911 0.268514
O O12 0.869187 0.085559 0.992085
O O13 0.272385 0.663235 0.476317
O O14 0.534269 0.807089 0.742787
O O15 0.754830 0.224996 0.739029
#
# Coordination Sequence:
#
# PCOD9026587 Si02
#       7
#     2   2   2   2   2   2   2
#     4  10  22  41  64  98 133 170 226 270 333 401
#     4  10  24  37  70  97 126 183 222 263 340 393
#     4  10  22  44  68  95 135 175 224 273 330 400
#     4  10  22  41  69  97 132 178 221 271 332 403
#     4  12  20  42  68 100 137 172 220 278 334 395
#     4  10  23  41  67  98 136 178 221 276 333 391
#     4  10  23  39  69  96 135 178 214 281 335 390
#
# _framework density 21.204810999999999
#
# number of rings (size 3 to 8) (size 9 to 14) (size 15 to 20)
#    1.714    0.000    2.857    1.714    2.000    1.714 
#    0.000    3.571    0.000    0.000    0.000    0.000 
#    0.000    0.000    0.000    0.000    0.000    0.000 
#
# Total GULP energy -78039.330772 kJ/mol
# GULP energy per Si atom -5574.237912 kJ/mol
# Density = 2.115655 g / cm^3
# Si number density = 21.204811 Si / 1000 Ang^3
#
#
#
# Elastic Constant Matrix: (Units=GPa)
#
#
# Indices 1 2 3 4 5 6 
#
# 1 64.7597 20.4750 29.7350 8.8612 -7.8851 -3.3500
# 2 20.4750 116.6900 19.1277 9.7849 -6.1990 -0.7497
# 3 29.7350 19.1277 101.9175 -6.5573 -14.7356 -6.3500
# 4 8.8612 9.7849 -6.5573 28.0147 5.2094 -13.3451
# 5 -7.8851 -6.1990 -14.7356 5.2094 34.7660 -1.8262
# 6 -3.3500 -0.7497 -6.3500 -13.3451 -1.8262 30.4621
#
#
#
# Elastic Compliance Matrix: (Units=1/GPa)
#
#
# Indices 1 2 3 4 5 6 
#
# 1 0.020131 -0.001665 -0.005892 -0.009079 0.002982 -0.002854
# 2 -0.001665 0.009535 -0.001544 -0.004404 0.001216 -0.002127
# 3 -0.005892 -0.001544 0.013098 0.007524 0.003103 0.005527
# 4 -0.009079 -0.004404 0.007524 0.054491 -0.006563 0.023940
# 5 0.002982 0.001216 0.003103 -0.006563 0.031958 0.000045
# 6 -0.002854 -0.002127 0.005527 0.023940 0.000045 0.044104
#
#
# Mechanical properties :
#
#
# Convention : Reuss Voigt Hill
#
# Bulk Modulus (GPa) = 40.71188 46.89363 43.80275
# Shear Modulus (GPa) = 25.03679 32.91719 28.97699
#
# Velocity S-wave (km/s) = 3.43988 3.94426 3.70067
# Velocity P-wave (km/s) = 5.91761 6.55023 6.24194
#
# Compressibility (1/GPa) = 0.02456286
#
# Stress axis : x y z
#
# Youngs Moduli (GPa) = 49.67422 104.87427 76.35011
#
# Poissons Ratio (x) = 0.17463 0.44983
# Poissons Ratio (y) = 0.08272 0.11787
# Poissons Ratio (z) = 0.29266 0.16190
#
# Static dielectric constant tensor:
#      x y z
#    x 1.755950 0.023650 -0.013340 
#    y 0.023650 1.844540 -0.010700 
#    z -0.013340 -0.010700 1.775650 
# 
# From -- ./inp_files/573406.got.cif
#   From: 2010.05.17/outbox.cif.g08.bks.cpg/sg2_287_cif.got.tgz:573406.got - 2010.06.03 11:33:40.
