data_PCOD9026187
_publ_section_title
;
Structure prediction by ZEFSAII (Michael W. Deem and Ramdas Pophale) SiO2 
 PCOD9026187
Probable space group: P -1
;
_chemical_formula_sum "Si O2"
_cell_formula_units_Z 15
_cell_length_a 14.533182
_cell_length_b 6.346214
_cell_length_c 25.003509
_cell_angle_alpha 119.320829
_cell_angle_beta 161.882374
_cell_angle_gamma 63.651220
_cell_volume 623.267997
_symmetry_space_group_name_H-M "P -1"
_symmetry_group_IT_number 2
_symmetry_cell_setting 'triclinic'
loop_
_space_group_symop_operation_xyz
x,y,z
-x,-y,-z
loop_
_atom_site_type_symbol
_atom_site_label
_atom_site_fract_x
_atom_site_fract_y
_atom_site_fract_z
Si Si1 0.872326 0.087904 0.885354
Si Si2 0.577646 0.574235 0.791076
Si Si3 0.717462 0.577250 0.492232
Si Si4 0.243935 0.301765 0.312118
Si Si5 0.305008 0.382940 0.958147
Si Si6 0.753565 0.247842 0.274834
Si Si7 0.500000 0.000000 0.500000
Si Si8 0.838568 0.732234 0.248054
O O1 0.668183 0.301979 0.812681
O O2 0.149650 0.225225 0.023156
O O3 0.716163 0.868631 0.737867
O O4 0.000000 0.000000 0.000000
O O5 0.495062 0.587602 0.684700
O O6 0.320629 0.607987 0.695467
O O7 0.561104 0.796558 0.460621
O O8 0.979633 0.665176 0.606443
O O9 0.878589 0.415422 0.603909
O O10 0.500000 0.500000 0.500000
O O11 0.231133 0.109875 0.329911
O O12 0.971533 0.457786 0.164861
O O13 0.454600 0.254881 0.073930
O O14 0.560965 0.565183 0.096405
O O15 0.195377 0.212263 0.826912
O O16 0.830694 0.985027 0.304109
#
# Coordination Sequence:
#
# PCOD9026187 Si02
#       8
#     2   2   2   2   2   2   1   2
#     4  11  26  46  72 104 146 193 238 293 361 428
#     4  11  25  46  70 104 149 189 238 289 358 431
#     4  11  25  45  71 106 140 192 236 295 358 429
#     4  12  27  43  74 106 137 187 241 299 359 421
#     4  10  22  41  63 100 137 182 236 291 353 422
#     4  11  24  43  71 101 143 189 235 291 355 424
#     4  12  26  46  70 104 152 174 242 308 354 420
#     4  10  22  41  66  97 141 183 237 288 353 417
#
# _framework density 24.066693999999998
#
# number of rings (size 3 to 8) (size 9 to 14) (size 15 to 20)
#    0.000    1.067    2.667    2.400    3.733    4.800 
#    0.000    0.000    0.000    0.000    0.000    0.000 
#    0.000    0.000    0.000    0.000    0.000    0.000 
#
# Total GULP energy -83589.907447 kJ/mol
# GULP energy per Si atom -5572.660496 kJ/mol
# Density = 2.401192 g / cm^3
# Si number density = 24.066694 Si / 1000 Ang^3
#
#
#
# Elastic Constant Matrix: (Units=GPa)
#
#
# Indices 1 2 3 4 5 6 
#
# 1 107.1992 50.4131 31.2140 7.3786 -8.1308 -32.5438
# 2 50.4131 107.4922 64.2263 -11.7025 16.2629 -29.4274
# 3 31.2140 64.2263 92.3806 5.0752 -1.3580 -16.1391
# 4 7.3786 -11.7025 5.0752 44.0781 -2.9283 -2.7144
# 5 -8.1308 16.2629 -1.3580 -2.9283 37.6389 -8.8643
# 6 -32.5438 -29.4274 -16.1391 -2.7144 -8.8643 20.2431
#
#
#
# Elastic Compliance Matrix: (Units=1/GPa)
#
#
# Indices 1 2 3 4 5 6 
#
# 1 0.025539 -0.004002 0.002297 -0.001680 0.017701 0.044597
# 2 -0.004002 0.028486 -0.015589 0.010750 -0.008082 0.020450
# 3 0.002297 -0.015589 0.021463 -0.006447 0.007653 0.000629
# 4 -0.001680 0.010750 -0.006447 0.027224 -0.000478 0.011228
# 5 0.017701 -0.008082 0.007653 -0.000478 0.044019 0.042021
# 6 0.044597 0.020450 0.000629 0.011228 0.042021 0.171232
#
#
# Mechanical properties :
#
#
# Convention : Reuss Voigt Hill
#
# Bulk Modulus (GPa) = 24.44989 66.53100 45.49044
# Shear Modulus (GPa) = 13.65433 31.13994 22.39714
#
# Velocity S-wave (km/s) = 2.38450 3.60099 3.05393
# Velocity P-wave (km/s) = 4.21455 6.70775 5.60162
#
# Compressibility (1/GPa) = 0.04089998
#
# Stress axis : x y z
#
# Youngs Moduli (GPa) = 39.15636 35.10542 46.59115
#
# Poissons Ratio (x) = 0.14048 -0.10700
# Poissons Ratio (y) = 0.15669 0.72630
# Poissons Ratio (z) = -0.08993 0.54725
#
# Static dielectric constant tensor:
#      x y z
#    x 1.953930 0.040440 0.011610 
#    y 0.040440 1.899140 0.021340 
#    z 0.011610 0.021340 1.995150 
# 
# From -- ./inp_files/611352.got.cif
#   From: 2010.05.17/outbox.cif.g08.bks.cpg/sg2_306_cif.got.tgz:611352.got - 2010.06.03 11:33:40.
