data_PCOD9026975
_publ_section_title
;
Structure prediction by ZEFSAII (Michael W. Deem and Ramdas Pophale) SiO2 
 PCOD9026975
Probable space group: P -1
;
_chemical_formula_sum "Si O2"
_cell_formula_units_Z 16
_cell_length_a 13.518046
_cell_length_b 11.657463
_cell_length_c 16.642083
_cell_angle_alpha 57.141084
_cell_angle_beta 156.434266
_cell_angle_gamma 107.906199
_cell_volume 726.492348
_symmetry_space_group_name_H-M "P -1"
_symmetry_group_IT_number 2
_symmetry_cell_setting 'triclinic'
loop_
_space_group_symop_operation_xyz
x,y,z
-x,-y,-z
loop_
_atom_site_type_symbol
_atom_site_label
_atom_site_fract_x
_atom_site_fract_y
_atom_site_fract_z
Si Si1 0.237183 0.647946 0.898818
Si Si2 0.646543 0.127942 0.194186
Si Si3 0.545814 0.875174 0.253732
Si Si4 0.617120 0.547484 0.375164
Si Si5 0.605861 0.608874 0.618123
Si Si6 0.208504 0.280602 0.142010
Si Si7 0.889943 0.104295 0.959602
Si Si8 0.713601 0.667457 0.004347
O O1 0.407604 0.724993 0.958297
O O2 0.295330 0.493265 0.950179
O O3 0.873429 0.784214 0.577667
O O4 0.394499 0.573063 0.129221
O O5 0.515474 0.018673 0.121538
O O6 0.543419 0.196187 0.181557
O O7 0.000000 0.000000 0.500000
O O8 0.571215 0.723050 0.285717
O O9 0.248067 0.957337 0.055749
O O10 0.515426 0.492260 0.396589
O O11 0.969577 0.403714 0.687692
O O12 0.583205 0.727466 0.628420
O O13 0.403499 0.723017 0.352855
O O14 0.929675 0.471533 0.876177
O O15 0.295519 0.268701 0.117509
O O16 0.115166 0.152819 0.137676
O O17 0.000000 0.000000 0.000000
#
# Coordination Sequence:
#
# PCOD9026975 Si02
#       8
#     2   2   2   2   2   2   2   2
#     4  10  22  41  66  93 117 160 210 264 309 353
#     4  10  23  45  64  87 126 167 206 258 314 362
#     4  10  23  40  62  87 126 167 206 249 309 370
#     4  11  21  38  66  94 123 159 207 257 303 366
#     4  11  22  38  63  94 128 163 204 248 303 364
#     4  11  22  38  66  93 126 164 203 249 305 365
#     4  12  24  38  59  90 132 168 199 247 307 370
#     4  11  21  39  67  94 122 160 209 255 307 365
#
# _framework density 22.023631999999999
#
# number of rings (size 3 to 8) (size 9 to 14) (size 15 to 20)
#    0.000    1.250    3.750    3.000    1.750    1.500 
#    0.000    5.000    0.000    0.000    0.000    0.000 
#    0.000    0.000    0.000    0.000    0.000    0.000 
#
# Total GULP energy -89329.006644 kJ/mol
# GULP energy per Si atom -5583.062915 kJ/mol
# Density = 2.197350 g / cm^3
# Si number density = 22.023632 Si / 1000 Ang^3
#
#
#
# Elastic Constant Matrix: (Units=GPa)
#
#
# Indices 1 2 3 4 5 6 
#
# 1 48.1872 0.9196 -2.0744 -8.3808 46.6690 28.3886
# 2 0.9196 98.4602 8.6770 5.3806 25.2237 25.0051
# 3 -2.0744 8.6770 34.1430 8.9351 17.5678 -4.4397
# 4 -8.3808 5.3806 8.9351 21.0181 -5.7521 0.4555
# 5 46.6690 25.2237 17.5678 -5.7521 23.7152 -16.0707
# 6 28.3886 25.0051 -4.4397 0.4555 -16.0707 43.3965
#
#
#
# Elastic Compliance Matrix: (Units=1/GPa)
#
#
# Indices 1 2 3 4 5 6 
#
# 1 0.001849 -0.005949 -0.008672 0.010335 0.016619 0.007377
# 2 -0.005949 0.009309 -0.005303 -0.000990 0.005521 0.000040
# 3 -0.008672 -0.005303 0.036548 -0.017964 -0.000197 0.012584
# 4 0.010335 -0.000990 -0.017964 0.060805 0.003869 -0.007233
# 5 0.016619 0.005521 -0.000197 0.003869 -0.006527 -0.016531
# 6 0.007377 0.000040 0.012584 -0.007233 -0.016531 0.013436
#
#
# Mechanical properties :
#
#
# Convention : Reuss Voigt Hill
#
# Bulk Modulus (GPa) = 127.27254 21.75941 74.51598
# Shear Modulus (GPa) = 31.66783 29.17718 30.42250
#
# Velocity S-wave (km/s) = 3.79608 3.64375 3.72069
# Velocity P-wave (km/s) = 8.78227 5.25395 7.23644
#
# Compressibility (1/GPa) = 0.00785715
#
# Stress axis : x y z
#
# Youngs Moduli (GPa) = 540.89255 107.42349 27.36091
#
# Poissons Ratio (x) = 0.63903 0.23728
# Poissons Ratio (y) = 3.21761 0.14511
# Poissons Ratio (z) = 4.69081 0.56972
#
# Static dielectric constant tensor:
#      x y z
#    x 1.796470 0.024300 0.021270 
#    y 0.024300 1.818440 0.027680 
#    z 0.021270 0.027680 1.834300 
# 
# From -- ./inp_files/273099.got.cif
#   From: 2010.05.17/outbox.cif.g08.bks.cpg/sg2_137_cif.got.tgz:273099.got - 2010.06.03 11:33:40.
