data_PCOD9026917
_publ_section_title
;
Structure prediction by ZEFSAII (Michael W. Deem and Ramdas Pophale) SiO2 
 PCOD9026917
Probable space group: P -1
;
_chemical_formula_sum "Si O2"
_cell_formula_units_Z 14
_cell_length_a 9.590607
_cell_length_b 17.129101
_cell_length_c 6.488722
_cell_angle_alpha 62.978758
_cell_angle_beta 116.419345
_cell_angle_gamma 141.903733
_cell_volume 578.431353
_symmetry_space_group_name_H-M "P -1"
_symmetry_group_IT_number 2
_symmetry_cell_setting 'triclinic'
loop_
_space_group_symop_operation_xyz
x,y,z
-x,-y,-z
loop_
_atom_site_type_symbol
_atom_site_label
_atom_site_fract_x
_atom_site_fract_y
_atom_site_fract_z
Si Si1 0.269507 0.952865 0.839457
Si Si2 0.937342 0.533355 0.225013
Si Si3 0.474954 0.376972 0.235246
Si Si4 0.826246 0.318719 0.169517
Si Si5 0.407284 0.154270 0.359634
Si Si6 0.115271 0.284321 0.415714
Si Si7 0.106483 0.164515 0.946333
O O1 0.088366 0.818852 0.756784
O O2 0.324364 0.053488 0.597197
O O3 0.130660 0.925518 0.981442
O O4 0.500000 0.000000 0.000000
O O5 0.728786 0.509669 0.180734
O O6 0.830724 0.421184 0.125175
O O7 0.000000 0.500000 0.500000
O O8 0.143852 0.663024 0.080089
O O9 0.486339 0.275025 0.391252
O O10 0.357723 0.374490 0.354421
O O11 0.295704 0.304833 0.016055
O O12 0.601992 0.193455 0.292863
O O13 0.043430 0.352381 0.355376
O O14 0.213080 0.113312 0.128946
O O15 0.094540 0.199409 0.671477
#
# Coordination Sequence:
#
# PCOD9026917 Si02
#       7
#     2   2   2   2   2   2   2
#     4  11  23  40  60  92 128 161 208 251 299 358
#     4  10  22  41  66  88 120 162 203 245 314 368
#     4   8  21  39  59  88 123 156 206 245 306 360
#     4  10  23  40  60  95 121 152 212 252 301 366
#     4   9  20  42  61  83 129 163 198 252 295 361
#     4  11  23  39  63  93 123 162 202 255 309 347
#     4   9  21  39  60  86 126 159 203 248 296 366
#
# _framework density 24.203389000000001
#
# number of rings (size 3 to 8) (size 9 to 14) (size 15 to 20)
#    0.857    1.429    0.000    1.286    2.000    8.000 
#    0.000    1.429    0.000    0.000    0.000    0.000 
#    0.000    0.000    0.000    0.000    0.000    0.000 
#
# Total GULP energy -78142.447219 kJ/mol
# GULP energy per Si atom -5581.603373 kJ/mol
# Density = 2.414830 g / cm^3
# Si number density = 24.203389 Si / 1000 Ang^3
#
#
#
# Elastic Constant Matrix: (Units=GPa)
#
#
# Indices 1 2 3 4 5 6 
#
# 1 159.0791 43.7860 61.2546 -16.1608 4.2488 54.0755
# 2 43.7860 28.8945 20.9943 -4.3964 -3.0554 19.3306
# 3 61.2546 20.9943 148.8461 -17.5305 4.5168 22.5231
# 4 -16.1608 -4.3964 -17.5305 36.1354 3.6308 4.4315
# 5 4.2488 -3.0554 4.5168 3.6308 32.7234 -13.1710
# 6 54.0755 19.3306 22.5231 4.4315 -13.1710 55.3156
#
#
#
# Elastic Compliance Matrix: (Units=1/GPa)
#
#
# Indices 1 2 3 4 5 6 
#
# 1 0.016390 -0.014902 -0.001531 0.007309 -0.009354 -0.013005
# 2 -0.014902 0.062753 -0.002148 -0.000064 0.006071 -0.005036
# 3 -0.001531 -0.002148 0.008468 0.003658 -0.002409 -0.002067
# 4 0.007309 -0.000064 0.003658 0.035552 -0.011079 -0.014098
# 5 -0.009354 0.006071 -0.002409 -0.011079 0.041453 0.018761
# 6 -0.013005 -0.005036 -0.002067 -0.014098 0.018761 0.038990
#
#
# Mechanical properties :
#
#
# Convention : Reuss Voigt Hill
#
# Bulk Modulus (GPa) = 19.82173 65.43217 42.62695
# Shear Modulus (GPa) = 19.41106 38.88718 29.14912
#
# Velocity S-wave (km/s) = 2.83503 4.01269 3.47413
# Velocity P-wave (km/s) = 4.35017 6.96864 5.80887
#
# Compressibility (1/GPa) = 0.05044969
#
# Stress axis : x y z
#
# Youngs Moduli (GPa) = 61.01135 15.93540 118.09172
#
# Poissons Ratio (x) = 0.23747 0.18076
# Poissons Ratio (y) = 0.90920 0.25369
# Poissons Ratio (z) = 0.09339 0.03423
#
# Static dielectric constant tensor:
#      x y z
#    x 1.992890 -0.056310 -0.012220 
#    y -0.056310 2.012280 0.012810 
#    z -0.012220 0.012810 1.890620 
# 
# From -- ./inp_files/52604.got.cif
#   From: 2010.05.17/outbox.cif.g08.bks.cpg/sg2_27_cif.got.tgz:52604.got - 2010.06.03 11:33:40.
