data_PCOD9026810
_publ_section_title
;
Structure prediction by ZEFSAII (Michael W. Deem and Ramdas Pophale) SiO2 
 PCOD9026810
Probable space group: P -1
;
_chemical_formula_sum "Si O2"
_cell_formula_units_Z 16
_cell_length_a 10.908187
_cell_length_b 21.888236
_cell_length_c 8.637280
_cell_angle_alpha 55.418491
_cell_angle_beta 40.246814
_cell_angle_gamma 36.374367
_cell_volume 784.218186
_symmetry_space_group_name_H-M "P -1"
_symmetry_group_IT_number 2
_symmetry_cell_setting 'triclinic'
loop_
_space_group_symop_operation_xyz
x,y,z
-x,-y,-z
loop_
_atom_site_type_symbol
_atom_site_label
_atom_site_fract_x
_atom_site_fract_y
_atom_site_fract_z
Si Si1 0.608638 0.717245 0.169215
Si Si2 0.812868 0.431506 0.792383
Si Si3 0.767305 0.108637 0.486624
Si Si4 0.705432 0.523475 0.432090
Si Si5 0.370960 0.849348 0.922264
Si Si6 0.899731 0.927695 0.063335
Si Si7 0.151790 0.591821 0.866746
Si Si8 0.290882 0.185914 0.637523
O O1 0.365217 0.801616 0.391837
O O2 0.708600 0.608892 0.269620
O O3 0.511411 0.754319 0.037046
O O4 0.855107 0.704983 0.979717
O O5 0.841756 0.466299 0.548766
O O6 0.022383 0.305495 0.763547
O O7 0.500000 0.500000 0.000000
O O8 0.848328 0.452850 0.903812
O O9 0.903135 0.117057 0.206450
O O10 0.523414 0.126937 0.627173
O O11 0.000000 0.000000 0.500000
O O12 0.398753 0.580048 0.658683
O O13 0.813534 0.456084 0.266536
O O14 0.090019 0.891812 0.078131
O O15 0.566817 0.812891 0.645429
O O16 0.304141 0.947402 0.923265
O O17 0.774121 0.881035 0.246925
#
# Coordination Sequence:
#
# PCOD9026810 Si02
#       8
#     2   2   2   2   2   2   2   2
#     4  12  23  41  66  95 132 175 211 271 341 387
#     4  10  22  41  65  97 133 170 227 275 318 403
#     4  11  24  43  64  98 137 167 222 275 320 408
#     4  10  24  42  65  94 134 176 219 276 333 390
#     4  10  23  42  64  98 131 164 226 279 320 405
#     4  10  23  43  67  93 130 175 220 271 337 395
#     4  10  22  43  61  95 134 169 229 273 320 406
#     4  11  23  44  69  94 130 180 216 270 341 390
#
# _framework density 20.402484999999999
#
# number of rings (size 3 to 8) (size 9 to 14) (size 15 to 20)
#    0.000    1.500    2.500    1.500    3.500    5.000 
#    4.500    0.000    0.000    0.000    0.000    0.000 
#    0.000    0.000    0.000    0.000    0.000    0.000 
#
# Total GULP energy -89140.664806 kJ/mol
# GULP energy per Si atom -5571.291550 kJ/mol
# Density = 2.035605 g / cm^3
# Si number density = 20.402485 Si / 1000 Ang^3
#
#
#
# Elastic Constant Matrix: (Units=GPa)
#
#
# Indices 1 2 3 4 5 6 
#
# 1 93.0788 34.7701 50.5979 -22.9836 5.6318 -18.1213
# 2 34.7701 71.5420 34.3056 -1.9689 -8.7602 -17.9226
# 3 50.5979 34.3056 73.3850 2.8792 13.7642 1.5600
# 4 -22.9836 -1.9689 2.8792 40.7800 -4.9917 3.0574
# 5 5.6318 -8.7602 13.7642 -4.9917 32.1624 0.9750
# 6 -18.1213 -17.9226 1.5600 3.0574 0.9750 28.8083
#
#
#
# Elastic Compliance Matrix: (Units=1/GPa)
#
#
# Indices 1 2 3 4 5 6 
#
# 1 0.033397 0.005186 -0.028694 0.020622 0.010340 0.023250
# 2 0.005186 0.028886 -0.020807 0.006181 0.016182 0.021156
# 3 -0.028694 -0.020807 0.049133 -0.021296 -0.024048 -0.030581
# 4 0.020622 0.006181 -0.021296 0.038499 0.012754 0.013453
# 5 0.010340 0.016182 -0.024048 0.012754 0.045506 0.014980
# 6 0.023250 0.021156 -0.030581 0.013453 0.014980 0.062220
#
#
# Mechanical properties :
#
#
# Convention : Reuss Voigt Hill
#
# Bulk Modulus (GPa) = 43.88318 53.03921 48.46119
# Shear Modulus (GPa) = 14.12959 28.23893 21.18426
#
# Velocity S-wave (km/s) = 2.63448 3.72438 3.22579
# Velocity P-wave (km/s) = 5.55062 6.67439 6.13828
#
# Compressibility (1/GPa) = 0.02278778
#
# Stress axis : x y z
#
# Youngs Moduli (GPa) = 29.94261 34.61871 20.35272
#
# Poissons Ratio (x) = -0.17953 0.58400
# Poissons Ratio (y) = -0.15528 0.42347
# Poissons Ratio (z) = 0.85917 0.72030
#
# Static dielectric constant tensor:
#      x y z
#    x 1.771310 -0.010020 0.029790 
#    y -0.010020 1.709510 0.021220 
#    z 0.029790 0.021220 1.727110 
# 
# From -- ./inp_files/282858.got.cif
#   From: 2010.05.17/outbox.cif.g08.bks.cpg/sg2_142_cif.got.tgz:282858.got - 2010.06.03 11:33:40.
