data_PCOD9026826
_publ_section_title
;
Structure prediction by ZEFSAII (Michael W. Deem and Ramdas Pophale) SiO2 
 PCOD9026826
Probable space group: P -1
;
_chemical_formula_sum "Si O2"
_cell_formula_units_Z 16
_cell_length_a 8.041463
_cell_length_b 11.267686
_cell_length_c 11.387230
_cell_angle_alpha 128.728120
_cell_angle_beta 119.580116
_cell_angle_gamma 56.207711
_cell_volume 651.828527
_symmetry_space_group_name_H-M "P -1"
_symmetry_group_IT_number 2
_symmetry_cell_setting 'triclinic'
loop_
_space_group_symop_operation_xyz
x,y,z
-x,-y,-z
loop_
_atom_site_type_symbol
_atom_site_label
_atom_site_fract_x
_atom_site_fract_y
_atom_site_fract_z
Si Si1 0.777294 0.926572 0.123029
Si Si2 0.751411 0.814621 0.621938
Si Si3 0.463660 0.844790 0.137411
Si Si4 0.799977 0.642954 0.285628
Si Si5 0.072851 0.820202 0.360859
Si Si6 0.553383 0.474820 0.640178
Si Si7 0.181036 0.331878 0.209850
Si Si8 0.779729 0.234220 0.195244
O O1 0.608419 0.891559 0.122631
O O2 0.992520 0.846529 0.216367
O O3 0.723631 0.116878 0.197041
O O4 0.799526 0.833090 0.950579
O O5 0.742333 0.729117 0.444464
O O6 0.711195 0.714629 0.655401
O O7 0.984010 0.801472 0.720479
O O8 0.613504 0.003779 0.705845
O O9 0.604188 0.686628 0.160343
O O10 0.284100 0.815838 0.983634
O O11 0.944121 0.730753 0.330825
O O12 0.948488 0.454749 0.224708
O O13 0.310777 0.709573 0.391018
O O14 0.000000 0.000000 0.500000
O O15 0.500000 0.500000 0.500000
O O16 0.707369 0.574835 0.773274
O O17 0.354662 0.578135 0.708312
#
# Coordination Sequence:
#
# PCOD9026826 Si02
#       8
#     2   2   2   2   2   2   2   2
#     4  11  22  41  69  96 126 169 218 266 322 381
#     4  12  24  43  64  92 133 178 213 261 320 389
#     4  11  23  40  66  94 126 168 217 268 317 379
#     4  10  24  41  65  92 127 169 219 263 321 386
#     4  10  22  41  65  98 129 164 212 270 325 376
#     4  11  23  40  67  97 130 165 214 271 318 383
#     4  11  23  42  67  93 128 171 215 265 322 382
#     4  12  23  41  64  99 131 166 219 261 325 379
#
# _framework density 24.546333000000001
#
# number of rings (size 3 to 8) (size 9 to 14) (size 15 to 20)
#    0.000    1.000    2.500    5.250    1.750    2.500 
#    0.000    4.375    0.000    0.000    0.000    0.000 
#    0.000    0.000    0.000    0.000    0.000    0.000 
#
# Total GULP energy -89675.249761 kJ/mol
# GULP energy per Si atom -5604.703110 kJ/mol
# Density = 2.449046 g / cm^3
# Si number density = 24.546333 Si / 1000 Ang^3
#
#
#
# Elastic Constant Matrix: (Units=GPa)
#
#
# Indices 1 2 3 4 5 6 
#
# 1 55.1220 7.1659 21.6656 -0.0317 0.1014 -15.6820
# 2 7.1659 144.1330 34.3846 1.5988 -2.8282 -28.7877
# 3 21.6656 34.3846 90.9045 -5.2956 -12.1773 -4.8191
# 4 -0.0317 1.5988 -5.2956 47.8069 -4.6889 -4.6383
# 5 0.1014 -2.8282 -12.1773 -4.6889 33.3830 7.1219
# 6 -15.6820 -28.7877 -4.8191 -4.6383 7.1219 32.4204
#
#
#
# Elastic Compliance Matrix: (Units=1/GPa)
#
#
# Indices 1 2 3 4 5 6 
#
# 1 0.024853 0.003401 -0.007156 0.000034 -0.005640 0.015221
# 2 0.003401 0.009828 -0.004387 -0.000101 -0.003003 0.010365
# 3 -0.007156 -0.004387 0.015042 0.001855 0.006750 -0.006338
# 4 0.000034 -0.000101 0.001855 0.021689 0.003157 0.002612
# 5 -0.005640 -0.003003 0.006750 0.003157 0.035110 -0.011653
# 6 0.015221 0.010365 -0.006338 0.002612 -0.011653 0.049402
#
#
# Mechanical properties :
#
#
# Convention : Reuss Voigt Hill
#
# Bulk Modulus (GPa) = 29.90602 46.28796 38.09699
# Shear Modulus (GPa) = 27.26959 37.85161 32.56060
#
# Velocity S-wave (km/s) = 3.33670 3.93115 3.64606
# Velocity P-wave (km/s) = 5.20141 6.28519 5.76881
#
# Compressibility (1/GPa) = 0.03343809
#
# Stress axis : x y z
#
# Youngs Moduli (GPa) = 40.23639 101.75221 66.48211
#
# Poissons Ratio (x) = -0.34603 0.47577
# Poissons Ratio (y) = -0.13683 0.29163
# Poissons Ratio (z) = 0.28795 0.44635
#
# Static dielectric constant tensor:
#      x y z
#    x 2.027160 0.026160 0.048660 
#    y 0.026160 1.928930 -0.013700 
#    z 0.048660 -0.013700 1.913090 
# 
# From -- ./inp_files/263169.got.cif
#   From: 2010.05.17/outbox.cif.g08.bks.cpg/sg2_132_cif.got.tgz:263169.got - 2010.06.03 11:33:40.
