data_PCOD9026340
_publ_section_title
;
Structure prediction by ZEFSAII (Michael W. Deem and Ramdas Pophale) SiO2 
 PCOD9026340
Probable space group: P -1
;
_chemical_formula_sum "Si O2"
_cell_formula_units_Z 13
_cell_length_a 11.867098
_cell_length_b 5.645744
_cell_length_c 13.941253
_cell_angle_alpha 117.639425
_cell_angle_beta 130.915828
_cell_angle_gamma 51.200713
_cell_volume 547.810949
_symmetry_space_group_name_H-M "P -1"
_symmetry_group_IT_number 2
_symmetry_cell_setting 'triclinic'
loop_
_space_group_symop_operation_xyz
x,y,z
-x,-y,-z
loop_
_atom_site_type_symbol
_atom_site_label
_atom_site_fract_x
_atom_site_fract_y
_atom_site_fract_z
Si Si1 0.500000 0.500000 0.000000
Si Si2 0.378428 0.100410 0.541815
Si Si3 0.024063 0.661579 0.448506
Si Si4 0.121944 0.630808 0.817794
Si Si5 0.227977 0.746858 0.307536
Si Si6 0.388947 0.723285 0.188789
Si Si7 0.930371 0.650197 0.888432
O O1 0.297300 0.620117 0.890387
O O2 0.536256 0.502338 0.901486
O O3 0.479977 0.143537 0.693749
O O4 0.218987 0.425377 0.489973
O O5 0.500000 0.000000 0.500000
O O6 0.313663 0.849131 0.458179
O O7 0.895802 0.633859 0.297712
O O8 0.000000 0.500000 0.500000
O O9 0.000000 0.000000 0.500000
O O10 0.090359 0.589449 0.902836
O O11 0.952047 0.947964 0.756639
O O12 0.342987 0.644325 0.254464
O O13 0.173134 0.494472 0.250330
O O14 0.208524 0.002917 0.109533
O O15 0.000000 0.500000 0.000000
#
# Coordination Sequence:
#
# PCOD9026340 Si02
#       7
#     1   2   2   2   2   2   2
#     4  12  22  42  60  90 142 182 226 294 356 434
#     4   9  20  44  69 102 134 183 242 304 365 425
#     4  11  25  47  75 109 150 197 239 301 380 454
#     4  10  24  42  68  97 136 189 235 295 361 435
#     4   9  20  42  69  91 129 175 236 296 356 430
#     4  10  22  41  63  97 135 180 233 298 361 429
#     4  11  22  41  67  99 130 186 245 289 361 434
#
# _framework density 23.730815
#
# number of rings (size 3 to 8) (size 9 to 14) (size 15 to 20)
#    0.000    1.846    0.000    3.692    4.308    3.077 
#   13.846    3.846    0.000    0.000    0.000    0.000 
#    0.000    0.000    0.000    0.000    0.000    0.000 
#
# Total GULP energy -72379.312482 kJ/mol
# GULP energy per Si atom -5567.639422 kJ/mol
# Density = 2.367680 g / cm^3
# Si number density = 23.730815 Si / 1000 Ang^3
#
#
#
# Elastic Constant Matrix: (Units=GPa)
#
#
# Indices 1 2 3 4 5 6 
#
# 1 163.8276 52.2681 37.2381 -0.0107 17.5236 -27.6302
# 2 52.2681 76.2787 17.1280 21.1908 3.5263 -3.3181
# 3 37.2381 17.1280 108.6585 10.8044 11.1674 -2.2805
# 4 -0.0107 21.1908 10.8044 37.3053 7.6555 7.2772
# 5 17.5236 3.5263 11.1674 7.6555 34.1595 -3.8955
# 6 -27.6302 -3.3181 -2.2805 7.2772 -3.8955 34.1150
#
#
#
# Elastic Compliance Matrix: (Units=1/GPa)
#
#
# Indices 1 2 3 4 5 6 
#
# 1 0.010510 -0.007494 -0.002317 0.004585 -0.004184 0.006173
# 2 -0.007494 0.021647 -0.000017 -0.013082 0.004471 -0.000664
# 3 -0.002317 -0.000017 0.010409 -0.002479 -0.001754 -0.000854
# 4 0.004585 -0.013082 -0.002479 0.038281 -0.009567 -0.006983
# 5 -0.004184 0.004471 -0.001754 -0.009567 0.034002 0.002852
# 6 0.006173 -0.000664 -0.000854 -0.006983 0.002852 0.036006
#
#
# Mechanical properties :
#
#
# Convention : Reuss Voigt Hill
#
# Bulk Modulus (GPa) = 43.64680 62.44811 53.04746
# Shear Modulus (GPa) = 28.06665 37.25800 32.66232
#
# Velocity S-wave (km/s) = 3.44278 3.96665 3.71397
# Velocity P-wave (km/s) = 5.85116 6.88124 6.38700
#
# Compressibility (1/GPa) = 0.02291119
#
# Stress axis : x y z
#
# Youngs Moduli (GPa) = 95.14409 46.19580 96.07295
#
# Poissons Ratio (x) = 0.34617 0.22261
# Poissons Ratio (y) = 0.71297 0.00162
# Poissons Ratio (z) = 0.22046 0.00078
#
# Static dielectric constant tensor:
#      x y z
#    x 1.932400 0.027110 -0.007330 
#    y 0.027110 1.894710 0.046570 
#    z -0.007330 0.046570 1.993580 
# 
# From -- ./inp_files/75889.got.cif
#   From: 2010.05.17/outbox.cif.g08.bks.cpg/sg2_38_cif.got.tgz:75889.got - 2010.06.03 11:33:40.
