data_PCOD9026002
_publ_section_title
;
Structure prediction by ZEFSAII (Michael W. Deem and Ramdas Pophale) SiO2 
 PCOD9026002
Probable space group: P -1
;
_chemical_formula_sum "Si O2"
_cell_formula_units_Z 16
_cell_length_a 10.323891
_cell_length_b 7.664685
_cell_length_c 20.095325
_cell_angle_alpha 122.389242
_cell_angle_beta 35.809086
_cell_angle_gamma 102.417759
_cell_volume 703.934244
_symmetry_space_group_name_H-M "P -1"
_symmetry_group_IT_number 2
_symmetry_cell_setting 'triclinic'
loop_
_space_group_symop_operation_xyz
x,y,z
-x,-y,-z
loop_
_atom_site_type_symbol
_atom_site_label
_atom_site_fract_x
_atom_site_fract_y
_atom_site_fract_z
Si Si1 0.590981 0.913562 0.370784
Si Si2 0.993439 0.567273 0.938005
Si Si3 0.286885 0.920226 0.376766
Si Si4 0.793596 0.656111 0.838980
Si Si5 0.279111 0.708371 0.670472
Si Si6 0.353230 0.912681 0.811264
Si Si7 0.488415 0.852864 0.890566
Si Si8 0.545056 0.501792 0.093819
O O1 0.358791 0.959454 0.428797
O O2 0.500000 0.000000 0.500000
O O3 0.730103 0.059609 0.312911
O O4 0.766739 0.640305 0.234921
O O5 0.765596 0.553610 0.990793
O O6 0.897164 0.843233 0.033951
O O7 0.000000 0.500000 0.000000
O O8 0.427675 0.656628 0.239671
O O9 0.421206 0.037044 0.299138
O O10 0.000000 0.000000 0.500000
O O11 0.753039 0.715000 0.787908
O O12 0.684542 0.469349 0.851109
O O13 0.053321 0.641927 0.746583
O O14 0.601631 0.880382 0.004019
O O15 0.500000 0.500000 0.500000
O O16 0.323679 0.744684 0.736175
O O17 0.435760 0.814917 0.830058
O O18 0.336263 0.760656 0.982935
#
# Coordination Sequence:
#
# PCOD9026002 Si02
#       8
#     2   2   2   2   2   2   2   2
#     4  11  25  41  64  95 123 167 208 259 319 374
#     4  11  19  43  69  87 128 166 208 258 320 372
#     4  10  22  41  61  83 125 167 209 257 310 369
#     4   9  21  38  63  87 131 161 195 260 325 367
#     4  11  24  41  61  89 133 166 203 262 322 367
#     4  10  23  39  65  97 114 166 223 260 301 384
#     4   9  20  37  61  94 118 151 215 258 314 364
#     4   9  19  38  67  84 121 168 204 251 316 371
#
# _framework density 22.729396000000001
#
# number of rings (size 3 to 8) (size 9 to 14) (size 15 to 20)
#    0.750    1.250    3.750    0.750    3.500    3.500 
#    0.000    2.500    0.000    0.000    0.000    0.000 
#    0.000    0.000    0.000    0.000    0.000    0.000 
#
# Total GULP energy -89205.983202 kJ/mol
# GULP energy per Si atom -5575.373950 kJ/mol
# Density = 2.267766 g / cm^3
# Si number density = 22.729396 Si / 1000 Ang^3
#
#
#
# Elastic Constant Matrix: (Units=GPa)
#
#
# Indices 1 2 3 4 5 6 
#
# 1 183.7550 34.5474 54.7002 -11.5713 0.4364 21.1610
# 2 34.5474 76.6619 10.0361 4.4584 -4.9484 12.7422
# 3 54.7002 10.0361 101.6062 2.2034 -1.4121 5.8506
# 4 -11.5713 4.4584 2.2034 21.2128 4.7689 1.9603
# 5 0.4364 -4.9484 -1.4121 4.7689 40.9400 -6.0846
# 6 21.1610 12.7422 5.8506 1.9603 -6.0846 40.6362
#
#
#
# Elastic Compliance Matrix: (Units=1/GPa)
#
#
# Indices 1 2 3 4 5 6 
#
# 1 0.007932 -0.002995 -0.003947 0.006056 -0.001761 -0.003179
# 2 -0.002995 0.015222 0.000404 -0.005091 0.002075 -0.002715
# 3 -0.003947 0.000404 0.011992 -0.003763 0.001023 0.000537
# 4 0.006056 -0.005091 -0.003763 0.054108 -0.007825 -0.004797
# 5 -0.001761 0.002075 0.001023 -0.007825 0.026301 0.004435
# 6 -0.003179 -0.002715 0.000537 -0.004797 0.004435 0.027933
#
#
# Mechanical properties :
#
#
# Convention : Reuss Voigt Hill
#
# Bulk Modulus (GPa) = 45.30918 62.28783 53.79851
# Shear Modulus (GPa) = 30.50255 38.07377 34.28816
#
# Velocity S-wave (km/s) = 3.66729 4.09723 3.88820
# Velocity P-wave (km/s) = 6.15707 7.06021 6.62405
#
# Compressibility (1/GPa) = 0.02207058
#
# Stress axis : x y z
#
# Youngs Moduli (GPa) = 126.07780 65.69245 83.39075
#
# Poissons Ratio (x) = 0.19676 0.32914
# Poissons Ratio (y) = 0.37762 -0.03373
# Poissons Ratio (z) = 0.49762 -0.02657
#
# Static dielectric constant tensor:
#      x y z
#    x 1.893860 0.001650 -0.023180 
#    y 0.001650 2.031720 0.002840 
#    z -0.023180 0.002840 1.821270 
# 
# From -- ./inp_files/556357.got.cif
#   From: 2010.05.17/outbox.cif.g08.bks.cpg/sg2_279_cif.got.tgz:556357.got - 2010.06.03 11:33:40.
