data_PCOD9026509
_publ_section_title
;
Structure prediction by ZEFSAII (Michael W. Deem and Ramdas Pophale) SiO2 
 PCOD9026509
Probable space group: P -1
;
_chemical_formula_sum "Si O2"
_cell_formula_units_Z 14
_cell_length_a 12.079597
_cell_length_b 9.389458
_cell_length_c 8.386911
_cell_angle_alpha 117.588928
_cell_angle_beta 84.888155
_cell_angle_gamma 122.919791
_cell_volume 690.607110
_symmetry_space_group_name_H-M "P -1"
_symmetry_group_IT_number 2
_symmetry_cell_setting 'triclinic'
loop_
_space_group_symop_operation_xyz
x,y,z
-x,-y,-z
loop_
_atom_site_type_symbol
_atom_site_label
_atom_site_fract_x
_atom_site_fract_y
_atom_site_fract_z
Si Si1 0.435585 0.816490 0.534218
Si Si2 0.347199 0.309014 0.889686
Si Si3 0.687511 0.054176 0.127424
Si Si4 0.669979 0.863184 0.713999
Si Si5 0.757555 0.617830 0.758532
Si Si6 0.035571 0.710899 0.648502
Si Si7 0.139974 0.022976 0.522105
O O1 0.371226 0.845908 0.714607
O O2 0.548725 0.787697 0.567844
O O3 0.323313 0.615174 0.361009
O O4 0.500000 0.000000 0.500000
O O5 0.262584 0.229465 0.693646
O O6 0.356502 0.135023 0.860444
O O7 0.500000 0.500000 0.000000
O O8 0.249287 0.323645 0.030719
O O9 0.849557 0.195601 0.183559
O O10 0.648308 0.978746 0.913816
O O11 0.685847 0.701481 0.709480
O O12 0.804043 0.997078 0.661715
O O13 0.905701 0.704602 0.716738
O O14 0.000000 0.500000 0.500000
O O15 0.104942 0.853631 0.562628
O O16 0.000000 0.000000 0.500000
#
# Coordination Sequence:
#
# PCOD9026509 Si02
#       7
#     2   2   2   2   2   2   2
#     4  12  23  42  66  96 130 168 212 268 322 379
#     4  10  22  41  64  94 127 169 218 262 319 386
#     4  10  23  40  66  93 130 169 211 264 320 382
#     4  11  24  41  65  93 129 167 216 261 322 380
#     4  11  23  40  68  92 125 173 212 261 321 385
#     4  11  22  43  65  91 130 169 213 260 328 380
#     4  11  23  41  65  95 129 166 218 270 315 382
#
# _framework density 20.272019
#
# number of rings (size 3 to 8) (size 9 to 14) (size 15 to 20)
#    0.000    1.143    2.857    4.286    2.000    2.857 
#    0.000    3.571    0.000    0.000    0.000    0.000 
#    0.000    0.000    0.000    0.000    0.000    0.000 
#
# Total GULP energy -78126.188932 kJ/mol
# GULP energy per Si atom -5580.442067 kJ/mol
# Density = 2.022588 g / cm^3
# Si number density = 20.272019 Si / 1000 Ang^3
#
#
#
# Elastic Constant Matrix: (Units=GPa)
#
#
# Indices 1 2 3 4 5 6 
#
# 1 85.6422 9.5586 27.5907 -0.6958 -5.9925 6.5520
# 2 9.5586 65.5344 25.4024 5.9135 -0.1805 3.0412
# 3 27.5907 25.4024 76.0822 -5.1256 -9.3187 -4.7757
# 4 -0.6958 5.9135 -5.1256 36.6159 9.0382 -2.5800
# 5 -5.9925 -0.1805 -9.3187 9.0382 46.7269 -0.2963
# 6 6.5520 3.0412 -4.7757 -2.5800 -0.2963 12.7643
#
#
#
# Elastic Compliance Matrix: (Units=1/GPa)
#
#
# Indices 1 2 3 4 5 6 
#
# 1 0.014394 0.000924 -0.006177 -0.001678 0.000877 -0.010239
# 2 0.000924 0.018869 -0.007551 -0.004583 -0.000483 -0.008732
# 3 -0.006177 -0.007551 0.019288 0.004155 0.002305 0.013079
# 4 -0.001678 -0.004583 0.004155 0.030572 -0.005257 0.009565
# 5 0.000877 -0.000483 0.002305 -0.005257 0.022988 -0.000002
# 6 -0.010239 -0.008732 0.013079 0.009565 -0.000002 0.092506
#
#
# Mechanical properties :
#
#
# Convention : Reuss Voigt Hill
#
# Bulk Modulus (GPa) = 37.11530 39.15136 38.13333
# Shear Modulus (GPa) = 21.44022 30.20191 25.82106
#
# Velocity S-wave (km/s) = 3.25565 3.86402 3.57281
# Velocity P-wave (km/s) = 5.69918 6.26598 5.98929
#
# Compressibility (1/GPa) = 0.02694307
#
# Stress axis : x y z
#
# Youngs Moduli (GPa) = 69.47176 52.99760 51.84594
#
# Poissons Ratio (x) = -0.04895 0.32024
# Poissons Ratio (y) = -0.06417 0.39149
# Poissons Ratio (z) = 0.42910 0.40018
#
# Static dielectric constant tensor:
#      x y z
#    x 1.747370 0.023690 0.036470 
#    y 0.023690 1.716850 -0.000720 
#    z 0.036470 -0.000720 1.760840 
# 
# From -- ./inp_files/156609.got.cif
#   From: 2010.05.17/outbox.cif.g08.bks.cpg/sg2_79_cif.got.tgz:156609.got - 2010.06.03 11:33:40.
