data_PCOD9026772
_publ_section_title
;
Structure prediction by ZEFSAII (Michael W. Deem and Ramdas Pophale) SiO2 
 PCOD9026772
Probable space group: P -1
;
_chemical_formula_sum "Si O2"
_cell_formula_units_Z 16
_cell_length_a 11.442559
_cell_length_b 11.471298
_cell_length_c 8.467568
_cell_angle_alpha 114.757347
_cell_angle_beta 49.024526
_cell_angle_gamma 91.181498
_cell_volume 707.797919
_symmetry_space_group_name_H-M "P -1"
_symmetry_group_IT_number 2
_symmetry_cell_setting 'triclinic'
loop_
_space_group_symop_operation_xyz
x,y,z
-x,-y,-z
loop_
_atom_site_type_symbol
_atom_site_label
_atom_site_fract_x
_atom_site_fract_y
_atom_site_fract_z
Si Si1 0.776979 0.261482 0.723870
Si Si2 0.645373 0.803109 0.816825
Si Si3 0.765172 0.025998 0.193352
Si Si4 0.049397 0.777506 0.755092
Si Si5 0.272324 0.945325 0.125707
Si Si6 0.228438 0.476502 0.942692
Si Si7 0.486547 0.219419 0.753430
Si Si8 0.845251 0.510807 0.345803
O O1 0.926673 0.255475 0.470577
O O2 0.816662 0.124277 0.715724
O O3 0.617337 0.272442 0.762687
O O4 0.739306 0.390551 0.945968
O O5 0.745699 0.641898 0.615038
O O6 0.738875 0.901631 0.730316
O O7 0.468862 0.851084 0.911738
O O8 0.597755 0.834166 0.060421
O O9 0.864654 0.111769 0.235266
O O10 0.588418 0.098428 0.474332
O O11 0.773282 0.052922 0.015272
O O12 0.865088 0.861990 0.032689
O O13 0.144436 0.635591 0.679100
O O14 0.354904 0.344138 0.845158
O O15 0.239118 0.464137 0.737227
O O16 0.036752 0.498119 0.160118
#
# Coordination Sequence:
#
# PCOD9026772 Si02
#       8
#     2   2   2   2   2   2   2   2
#     4  10  22  42  67  98 124 167 213 264 317 374
#     4  10  23  43  64  97 129 166 213 259 318 378
#     4  10  22  41  65  96 127 170 209 262 315 373
#     4  10  23  43  64  97 129 166 213 259 318 378
#     4  10  22  41  65  96 127 170 209 262 315 373
#     4  11  24  42  66  96 128 167 213 263 319 378
#     4  10  22  42  67  98 124 167 213 264 317 374
#     4  11  25  44  63  94 133 169 209 263 320 379
#
# _framework density 22.605321
#
# number of rings (size 3 to 8) (size 9 to 14) (size 15 to 20)
#    0.000    1.750    0.000    2.625    3.500    5.000 
#   22.500    6.250    0.000    0.000    0.000    0.000 
#    0.000    0.000    0.000    0.000    0.000    0.000 
#
# Total GULP energy -89454.697106 kJ/mol
# GULP energy per Si atom -5590.918569 kJ/mol
# Density = 2.255387 g / cm^3
# Si number density = 22.605321 Si / 1000 Ang^3
#
#
#
# Elastic Constant Matrix: (Units=GPa)
#
#
# Indices 1 2 3 4 5 6 
#
# 1 83.6715 4.4688 19.0854 8.9792 0.3862 -13.5480
# 2 4.4688 95.7557 29.7646 14.1586 -5.9703 -19.2414
# 3 19.0854 29.7646 65.2687 19.2222 3.5087 -26.4205
# 4 8.9792 14.1586 19.2222 30.5521 -12.9296 -0.9575
# 5 0.3862 -5.9703 3.5087 -12.9296 23.0280 1.3374
# 6 -13.5480 -19.2414 -26.4205 -0.9575 1.3374 38.6389
#
#
#
# Elastic Compliance Matrix: (Units=1/GPa)
#
#
# Indices 1 2 3 4 5 6 
#
# 1 0.013393 0.001152 -0.001027 -0.004847 -0.002755 0.004542
# 2 0.001152 0.012967 -0.003833 -0.002946 0.002034 0.004096
# 3 -0.001027 -0.003833 0.037761 -0.031963 -0.026051 0.023661
# 4 -0.004847 -0.002946 -0.031963 0.075074 0.047781 -0.024816
# 5 -0.002755 0.002034 -0.026051 0.047781 0.075911 -0.019209
# 6 0.004542 0.004096 0.023661 -0.024816 -0.019209 0.045742
#
#
# Mechanical properties :
#
#
# Convention : Reuss Voigt Hill
#
# Bulk Modulus (GPa) = 17.63557 39.03707 28.33632
# Shear Modulus (GPa) = 17.41149 31.20228 24.30689
#
# Velocity S-wave (km/s) = 2.77833 3.71928 3.28269
# Velocity P-wave (km/s) = 4.25565 5.97917 5.18947
#
# Compressibility (1/GPa) = 0.05670359
#
# Stress axis : x y z
#
# Youngs Moduli (GPa) = 74.66779 77.12050 26.48200
#
# Poissons Ratio (x) = -0.08884 0.02720
# Poissons Ratio (y) = -0.08602 0.10152
# Poissons Ratio (z) = 0.07669 0.29564
#
# Static dielectric constant tensor:
#      x y z
#    x 1.862800 0.038100 -0.057990 
#    y 0.038100 1.816040 -0.034890 
#    z -0.057990 -0.034890 1.858820 
# 
# From -- ./inp_files/262920.got.cif
#   From: 2010.05.17/outbox.cif.g08.bks.cpg/sg2_132_cif.got.tgz:262920.got - 2010.06.03 11:33:40.
