data_PCOD9026217
_publ_section_title
;
Structure prediction by ZEFSAII (Michael W. Deem and Ramdas Pophale) SiO2 
 PCOD9026217
Probable space group: P -1
;
_chemical_formula_sum "Si O2"
_cell_formula_units_Z 12
_cell_length_a 9.281028
_cell_length_b 25.570008
_cell_length_c 28.338243
_cell_angle_alpha 9.336739
_cell_angle_beta 153.234136
_cell_angle_gamma 152.937544
_cell_volume 487.195681
_symmetry_space_group_name_H-M "P -1"
_symmetry_group_IT_number 2
_symmetry_cell_setting 'triclinic'
loop_
_space_group_symop_operation_xyz
x,y,z
-x,-y,-z
loop_
_atom_site_type_symbol
_atom_site_label
_atom_site_fract_x
_atom_site_fract_y
_atom_site_fract_z
Si Si1 0.572920 0.328191 0.758344
Si Si2 0.292879 0.496045 0.693006
Si Si3 0.024839 0.089422 0.696987
Si Si4 0.819274 0.895900 0.710080
Si Si5 0.420558 0.805364 0.353388
Si Si6 0.049073 0.383420 0.171049
O O1 0.315060 0.517796 0.540773
O O2 0.747003 0.602641 0.531066
O O3 0.500000 0.000000 0.000000
O O4 0.796529 0.214387 0.966426
O O5 0.091568 0.754451 0.428362
O O6 0.402002 0.649005 0.538716
O O7 0.584758 0.509197 0.803760
O O8 0.212271 0.103461 0.018194
O O9 0.791798 0.960577 0.700431
O O10 0.500000 0.000000 0.500000
O O11 0.843168 0.543374 0.008164
O O12 0.191188 0.070725 0.652249
O O13 0.000000 0.000000 0.500000
O O14 0.000000 0.500000 0.000000
#
# Coordination Sequence:
#
# PCOD9026217 Si02
#       6
#     2   2   2   2   2   2
#     4  11  23  44  67  92 122 160 205 257 312 368
#     4  11  22  41  60  87 126 160 200 255 305 360
#     4  11  24  41  65  94 123 162 207 254 305 367
#     4  10  22  41  63  93 127 167 210 251 300 367
#     4  10  22  41  63  88 124 165 201 251 308 360
#     4  11  22  36  56  84 119 164 205 246 296 350
#
# _framework density 24.630759000000001
#
# number of rings (size 3 to 8) (size 9 to 14) (size 15 to 20)
#    0.000    1.333    0.000    7.500    0.000    4.000 
#    0.000   20.000    0.000    0.000    0.000    0.000 
#    0.000    0.000    0.000    0.000    0.000    0.000 
#
# Total GULP energy -67030.874378 kJ/mol
# GULP energy per Si atom -5585.906198 kJ/mol
# Density = 2.457470 g / cm^3
# Si number density = 24.630759 Si / 1000 Ang^3
#
#
#
# Elastic Constant Matrix: (Units=GPa)
#
#
# Indices 1 2 3 4 5 6 
#
# 1 241.7988 -68.6787 -18.9284 81.4894 38.7217 -44.6139
# 2 -68.6787 134.7603 64.1360 -80.6508 -12.6159 -11.7836
# 3 -18.9284 64.1360 232.4318 -82.1592 16.5123 -10.7266
# 4 81.4894 -80.6508 -82.1592 142.4633 11.6581 1.5758
# 5 38.7217 -12.6159 16.5123 11.6581 67.3649 -7.8401
# 6 -44.6139 -11.7836 -10.7266 1.5758 -7.8401 40.6814
#
#
#
# Elastic Compliance Matrix: (Units=1/GPa)
#
#
# Indices 1 2 3 4 5 6 
#
# 1 0.008157 0.003207 -0.000763 -0.003209 -0.002256 0.009363
# 2 0.003207 0.013254 -0.001506 0.004640 0.001017 0.006975
# 3 -0.000763 -0.001506 0.005885 0.003131 -0.001851 -0.000199
# 4 -0.003209 0.004640 0.003131 0.013358 -0.000596 -0.001982
# 5 -0.002256 0.001017 -0.001851 -0.000596 0.016961 0.000624
# 6 0.009363 0.006975 -0.000199 -0.001982 0.000624 0.037015
#
#
# Mechanical properties :
#
#
# Convention : Reuss Voigt Hill
#
# Bulk Modulus (GPa) = 34.27893 62.44986 48.36439
# Shear Modulus (GPa) = 48.79104 92.26605 70.52854
#
# Velocity S-wave (km/s) = 4.45556 6.12707 5.35691
# Velocity P-wave (km/s) = 6.35741 8.68701 7.61186
#
# Compressibility (1/GPa) = 0.02917244
#
# Stress axis : x y z
#
# Youngs Moduli (GPa) = 122.58904 75.45022 169.92456
#
# Poissons Ratio (x) = -0.24198 0.12959
# Poissons Ratio (y) = -0.39316 0.25596
# Poissons Ratio (z) = 0.09349 0.11365
#
# Static dielectric constant tensor:
#      x y z
#    x 2.061950 0.057410 0.105900 
#    y 0.057410 2.035220 -0.048980 
#    z 0.105900 -0.048980 2.029740 
# 
# From -- ./inp_files/30881.got.cif
#   From: 2010.05.17/outbox.cif.g08.bks.cpg/sg2_16_cif.got.tgz:30881.got - 2010.06.03 11:33:40.
