data_PCOD9026518
_publ_section_title
;
Structure prediction by ZEFSAII (Michael W. Deem and Ramdas Pophale) SiO2 
 PCOD9026518
Probable space group: P -1
;
_chemical_formula_sum "Si O2"
_cell_formula_units_Z 14
_cell_length_a 10.967762
_cell_length_b 8.807718
_cell_length_c 6.646049
_cell_angle_alpha 105.868820
_cell_angle_beta 87.747389
_cell_angle_gamma 96.484827
_cell_volume 613.572636
_symmetry_space_group_name_H-M "P -1"
_symmetry_group_IT_number 2
_symmetry_cell_setting 'triclinic'
loop_
_space_group_symop_operation_xyz
x,y,z
-x,-y,-z
loop_
_atom_site_type_symbol
_atom_site_label
_atom_site_fract_x
_atom_site_fract_y
_atom_site_fract_z
Si Si1 0.204903 0.171769 0.650062
Si Si2 0.342554 0.164434 0.036424
Si Si3 0.992681 0.583894 0.312387
Si Si4 0.634912 0.592855 0.527936
Si Si5 0.209173 0.822356 0.472949
Si Si6 0.786668 0.349616 0.201547
Si Si7 0.611140 0.153409 0.847696
O O1 0.233810 0.159278 0.880132
O O2 0.097314 0.278213 0.645277
O O3 0.328462 0.262010 0.575786
O O4 0.172736 0.997346 0.499644
O O5 0.469777 0.162713 0.905400
O O6 0.342369 0.322859 0.227646
O O7 0.346941 0.010803 0.124320
O O8 0.914824 0.439125 0.146581
O O9 0.000000 0.500000 0.500000
O O10 0.124969 0.682079 0.316894
O O11 0.500000 0.500000 0.500000
O O12 0.724908 0.467252 0.401015
O O13 0.195220 0.793457 0.700909
O O14 0.346673 0.827771 0.379020
O O15 0.689005 0.291567 0.019352
#
# Coordination Sequence:
#
# PCOD9026518 Si02
#       7
#     2   2   2   2   2   2   2
#     4  11  23  41  69  96 127 173 221 264 324 388
#     4  11  24  40  64  99 136 167 219 262 321 389
#     4   9  22  44  67  93 130 169 216 277 328 373
#     4  11  23  41  62  94 134 170 208 270 321 379
#     4  11  22  41  68  93 125 179 220 260 324 382
#     4  10  22  41  64  94 131 164 216 271 322 373
#     4  11  23  39  64  98 133 172 212 264 319 391
#
# _framework density 22.817184000000001
#
# number of rings (size 3 to 8) (size 9 to 14) (size 15 to 20)
#    0.000    1.429    4.286    0.429    2.000    4.000 
#    0.000    6.429    0.000    0.000    0.000    0.000 
#    0.000    0.000    0.000    0.000    0.000    0.000 
#
# Total GULP energy -78110.612582 kJ/mol
# GULP energy per Si atom -5579.329470 kJ/mol
# Density = 2.276525 g / cm^3
# Si number density = 22.817184 Si / 1000 Ang^3
#
#
#
# Elastic Constant Matrix: (Units=GPa)
#
#
# Indices 1 2 3 4 5 6 
#
# 1 60.1208 22.6504 13.4530 -14.7061 -0.1415 4.3501
# 2 22.6504 110.7183 19.4140 -3.5833 -1.4896 9.4478
# 3 13.4530 19.4140 55.5565 5.2545 4.4732 -3.3333
# 4 -14.7061 -3.5833 5.2545 30.8755 8.9545 -0.7353
# 5 -0.1415 -1.4896 4.4732 8.9545 27.7756 -7.4374
# 6 4.3501 9.4478 -3.3333 -0.7353 -7.4374 35.4872
#
#
#
# Elastic Compliance Matrix: (Units=1/GPa)
#
#
# Indices 1 2 3 4 5 6 
#
# 1 0.022138 -0.002999 -0.005327 0.012166 -0.003911 -0.002983
# 2 -0.002999 0.010426 -0.003114 0.000166 0.000286 -0.002637
# 3 -0.005327 -0.003114 0.021218 -0.006215 -0.000754 0.003188
# 4 0.012166 0.000166 -0.006215 0.043213 -0.013971 -0.004152
# 5 -0.003911 0.000286 -0.000754 -0.013971 0.043051 0.009066
# 6 -0.002983 -0.002637 0.003188 -0.004152 0.009066 0.031360
#
#
# Mechanical properties :
#
#
# Convention : Reuss Voigt Hill
#
# Bulk Modulus (GPa) = 32.36200 37.49226 34.92713
# Shear Modulus (GPa) = 24.43951 30.21954 27.32952
#
# Velocity S-wave (km/s) = 3.27632 3.64321 3.46462
# Velocity P-wave (km/s) = 5.34100 5.84504 5.59870
#
# Compressibility (1/GPa) = 0.03090044
#
# Stress axis : x y z
#
# Youngs Moduli (GPa) = 45.17168 95.91667 47.13045
#
# Poissons Ratio (x) = 0.28766 0.25108
# Poissons Ratio (y) = 0.13547 0.14676
# Poissons Ratio (z) = 0.24065 0.29868
#
# Static dielectric constant tensor:
#      x y z
#    x 1.832740 0.023880 -0.012440 
#    y 0.023880 1.879050 -0.010010 
#    z -0.012440 -0.010010 1.884150 
# 
# From -- ./inp_files/27910.got.cif
#   From: 2010.05.17/outbox.cif.g08.bks.cpg/sg2_14_cif.got.tgz:27910.got - 2010.06.03 11:33:40.
