data_PCOD9026767
_publ_section_title
;
Structure prediction by ZEFSAII (Michael W. Deem and Ramdas Pophale) SiO2 
 PCOD9026767
Probable space group: P -1
;
_chemical_formula_sum "Si O2"
_cell_formula_units_Z 16
_cell_length_a 6.574666
_cell_length_b 11.146074
_cell_length_c 12.260776
_cell_angle_alpha 120.268389
_cell_angle_beta 70.930356
_cell_angle_gamma 99.420166
_cell_volume 733.416903
_symmetry_space_group_name_H-M "P -1"
_symmetry_group_IT_number 2
_symmetry_cell_setting 'triclinic'
loop_
_space_group_symop_operation_xyz
x,y,z
-x,-y,-z
loop_
_atom_site_type_symbol
_atom_site_label
_atom_site_fract_x
_atom_site_fract_y
_atom_site_fract_z
Si Si1 0.427819 0.579976 0.725442
Si Si2 0.350438 0.127185 0.680372
Si Si3 0.009642 0.889188 0.690138
Si Si4 0.230657 0.060666 0.452914
Si Si5 0.205160 0.591792 0.538686
Si Si6 0.245362 0.537730 0.980729
Si Si7 0.414649 0.294689 0.946436
Si Si8 0.351806 0.136856 0.094666
O O1 0.260516 0.589042 0.657465
O O2 0.604015 0.473824 0.596987
O O3 0.337611 0.531247 0.836852
O O4 0.535190 0.732371 0.801772
O O5 0.303643 0.166650 0.582251
O O6 0.351388 0.254026 0.818428
O O7 0.581594 0.053579 0.623487
O O8 0.167471 0.017913 0.699204
O O9 0.816358 0.883987 0.632592
O O10 0.878580 0.895718 0.827688
O O11 0.150827 0.750788 0.592929
O O12 0.000000 0.000000 0.500000
O O13 0.000000 0.500000 0.500000
O O14 0.319877 0.449020 0.035111
O O15 0.330442 0.691229 0.070600
O O16 0.000000 0.500000 0.000000
O O17 0.320399 0.192237 0.003286
O O18 0.500000 0.000000 0.000000
#
# Coordination Sequence:
#
# PCOD9026767 Si02
#       8
#     2   2   2   2   2   2   2   2
#     4  10  25  45  67 101 137 179 235 284 345 411
#     4  10  22  41  65  95 135 170 226 276 338 413
#     4  11  24  39  68 100 135 180 227 279 352 407
#     4   9  21  40  60  93 131 172 215 275 329 403
#     4  11  24  43  68  97 135 181 226 287 343 410
#     4  10  24  44  69  92 132 178 229 287 337 405
#     4  10  24  43  64  96 127 173 228 273 342 402
#     4  11  24  44  68  99 143 178 223 286 345 422
#
# _framework density 21.815695999999999
#
# number of rings (size 3 to 8) (size 9 to 14) (size 15 to 20)
#    0.000    1.750    1.250    0.750    5.250    9.500 
#    0.000    0.000    0.000    0.000    0.000    0.000 
#    0.000    0.000    0.000    0.000    0.000    0.000 
#
# Total GULP energy -89201.509476 kJ/mol
# GULP energy per Si atom -5575.094342 kJ/mol
# Density = 2.176604 g / cm^3
# Si number density = 21.815696 Si / 1000 Ang^3
#
#
#
# Elastic Constant Matrix: (Units=GPa)
#
#
# Indices 1 2 3 4 5 6 
#
# 1 90.3236 14.2854 4.4630 -11.2722 1.9393 5.7913
# 2 14.2854 60.7670 6.1306 -14.4297 -12.7605 5.9388
# 3 4.4630 6.1306 57.4816 -2.0525 2.9617 5.4678
# 4 -11.2722 -14.4297 -2.0525 30.4176 -0.7043 0.3322
# 5 1.9393 -12.7605 2.9617 -0.7043 37.4132 -6.0999
# 6 5.7913 5.9388 5.4678 0.3322 -6.0999 31.9020
#
#
#
# Elastic Compliance Matrix: (Units=1/GPa)
#
#
# Indices 1 2 3 4 5 6 
#
# 1 0.012014 -0.002115 -0.000306 0.003414 -0.001594 -0.002075
# 2 -0.002115 0.021074 -0.001948 0.009272 0.007316 -0.001903
# 3 -0.000306 -0.001948 0.018070 0.000156 -0.002594 -0.003176
# 4 0.003414 0.009272 0.000156 0.038651 0.003353 -0.002134
# 5 -0.001594 0.007316 -0.002594 0.003353 0.030415 0.005153
# 6 -0.002075 -0.001903 -0.003176 -0.002134 0.005153 0.033629
#
#
# Mechanical properties :
#
#
# Convention : Reuss Voigt Hill
#
# Bulk Modulus (GPa) = 23.57353 28.70337 26.13845
# Shear Modulus (GPa) = 28.29165 32.19277 30.24221
#
# Velocity S-wave (km/s) = 3.60509 3.84561 3.72729
# Velocity P-wave (km/s) = 5.30642 5.73621 5.52549
#
# Compressibility (1/GPa) = 0.04242046
#
# Stress axis : x y z
#
# Youngs Moduli (GPa) = 83.23468 47.45187 55.34089
#
# Poissons Ratio (x) = 0.10034 0.01693
# Poissons Ratio (y) = 0.17601 0.10782
# Poissons Ratio (z) = 0.02546 0.09245
#
# Static dielectric constant tensor:
#      x y z
#    x 1.918010 -0.004410 0.019870 
#    y -0.004410 1.858200 0.040530 
#    z 0.019870 0.040530 1.849530 
# 
# From -- ./inp_files/365212.got.cif
#   From: 2010.05.17/outbox.cif.g08.bks.cpg/sg2_183_cif.got.tgz:365212.got - 2010.06.03 11:33:40.
