data_PCOD9026472
_publ_section_title
;
Structure prediction by ZEFSAII (Michael W. Deem and Ramdas Pophale) SiO2 
 PCOD9026472
Probable space group: P -1
;
_chemical_formula_sum "Si O2"
_cell_formula_units_Z 15
_cell_length_a 17.354362
_cell_length_b 8.697517
_cell_length_c 5.285080
_cell_angle_alpha 54.086605
_cell_angle_beta 89.074107
_cell_angle_gamma 74.790809
_cell_volume 613.698569
_symmetry_space_group_name_H-M "P -1"
_symmetry_group_IT_number 2
_symmetry_cell_setting 'triclinic'
loop_
_space_group_symop_operation_xyz
x,y,z
-x,-y,-z
loop_
_atom_site_type_symbol
_atom_site_label
_atom_site_fract_x
_atom_site_fract_y
_atom_site_fract_z
Si Si1 0.000000 0.500000 0.500000
Si Si2 0.332841 0.818115 0.688022
Si Si3 0.449838 0.983350 0.767574
Si Si4 0.810290 0.806558 0.457530
Si Si5 0.312246 0.119577 0.980167
Si Si6 0.093713 0.762071 0.472202
Si Si7 0.745213 0.513499 0.044227
Si Si8 0.951811 0.801388 0.804981
O O1 0.949684 0.331011 0.648031
O O2 0.951370 0.612330 0.149084
O O3 0.411961 0.808170 0.859743
O O4 0.309318 0.619554 0.908164
O O5 0.251745 0.994531 0.608192
O O6 0.344684 0.905455 0.324815
O O7 0.500000 0.000000 0.500000
O O8 0.363559 0.138598 0.711511
O O9 0.500000 0.000000 0.000000
O O10 0.780824 0.834970 0.143245
O O11 0.899214 0.794102 0.557606
O O12 0.792367 0.608301 0.749077
O O13 0.313337 0.293362 0.999622
O O14 0.185921 0.628640 0.640527
O O15 0.040302 0.777952 0.714673
O O16 0.085771 0.996338 0.227623
#
# Coordination Sequence:
#
# PCOD9026472 Si02
#       8
#     1   2   2   2   2   2   2   2
#     4  12  24  42  62  88 126 176 242 300 360 410
#     4  10  22  44  70 104 140 187 233 283 360 423
#     4  11  22  46  81 109 148 191 228 286 360 431
#     4  10  22  41  64  92 140 182 237 301 355 424
#     4  10  24  42  72 104 140 186 228 294 347 436
#     4  11  25  41  63  92 133 179 240 297 359 419
#     4  11  23  43  65 102 139 183 240 296 354 425
#     4  11  24  44  61  93 130 186 241 298 359 418
#
# _framework density 24.441967000000002
#
# number of rings (size 3 to 8) (size 9 to 14) (size 15 to 20)
#    0.000    1.333    4.000    0.800    1.867    2.133 
#    4.800    1.333    0.000    0.000    0.000    0.000 
#    0.000    0.000    0.000    0.000    0.000    0.000 
#
# Total GULP energy -83514.286262 kJ/mol
# GULP energy per Si atom -5567.619084 kJ/mol
# Density = 2.438634 g / cm^3
# Si number density = 24.441967 Si / 1000 Ang^3
#
#
#
# Elastic Constant Matrix: (Units=GPa)
#
#
# Indices 1 2 3 4 5 6 
#
# 1 109.8813 37.8468 8.5820 8.5303 -12.2832 22.0199
# 2 37.8468 94.4021 42.4323 -7.1590 -21.1168 39.3010
# 3 8.5820 42.4323 85.0869 2.5825 -3.1882 9.4251
# 4 8.5303 -7.1590 2.5825 40.0667 13.4014 -2.3739
# 5 -12.2832 -21.1168 -3.1882 13.4014 32.0896 6.9854
# 6 22.0199 39.3010 9.4251 -2.3739 6.9854 54.8221
#
#
#
# Elastic Compliance Matrix: (Units=1/GPa)
#
#
# Indices 1 2 3 4 5 6 
#
# 1 0.011796 -0.002413 0.000866 -0.005297 0.006133 -0.004168
# 2 -0.002413 0.032251 -0.012213 -0.002802 0.025351 -0.023403
# 3 0.000866 -0.012213 0.016800 -0.000680 -0.007145 0.006400
# 4 -0.005297 -0.002802 -0.000680 0.032569 -0.019309 0.008124
# 5 0.006133 0.025351 -0.007145 -0.019309 0.063721 -0.028364
# 6 -0.004168 -0.023403 0.006400 0.008124 -0.028364 0.039558
#
#
# Mechanical properties :
#
#
# Convention : Reuss Voigt Hill
#
# Bulk Modulus (GPa) = 30.00576 51.89916 40.95246
# Shear Modulus (GPa) = 21.24733 38.76294 30.00514
#
# Velocity S-wave (km/s) = 2.95158 3.98668 3.50752
# Velocity P-wave (km/s) = 4.89068 6.51699 5.76151
#
# Compressibility (1/GPa) = 0.03332693
#
# Stress axis : x y z
#
# Youngs Moduli (GPa) = 84.77299 31.00671 59.52473
#
# Poissons Ratio (x) = 0.07483 -0.05154
# Poissons Ratio (y) = 0.20457 0.72696
# Poissons Ratio (z) = -0.07340 0.37868
#
# Static dielectric constant tensor:
#      x y z
#    x 2.071080 -0.086330 0.002040 
#    y -0.086330 2.133150 0.086790 
#    z 0.002040 0.086790 1.990760 
# 
# From -- ./inp_files/104422.got.cif
#   From: 2010.05.17/outbox.cif.g08.bks.cpg/sg2_53_cif.got.tgz:104422.got - 2010.06.03 11:33:40.
