data_PCOD9026855
_publ_section_title
;
Structure prediction by ZEFSAII (Michael W. Deem and Ramdas Pophale) SiO2 
 PCOD9026855
Probable space group: P -1
;
_chemical_formula_sum "Si O2"
_cell_formula_units_Z 16
_cell_length_a 17.471296
_cell_length_b 9.015668
_cell_length_c 6.455993
_cell_angle_alpha 105.803555
_cell_angle_beta 137.054669
_cell_angle_gamma 73.383633
_cell_volume 660.795060
_symmetry_space_group_name_H-M "P -1"
_symmetry_group_IT_number 2
_symmetry_cell_setting 'triclinic'
loop_
_space_group_symop_operation_xyz
x,y,z
-x,-y,-z
loop_
_atom_site_type_symbol
_atom_site_label
_atom_site_fract_x
_atom_site_fract_y
_atom_site_fract_z
Si Si1 0.071281 0.743134 0.206545
Si Si2 0.610530 0.766299 0.225400
Si Si3 0.157084 0.982260 0.724809
Si Si4 0.372930 0.478253 0.172589
Si Si5 0.992700 0.503880 0.730233
Si Si6 0.779314 0.702401 0.899120
Si Si7 0.623974 0.075634 0.142738
Si Si8 0.757269 0.212018 0.801948
O O1 0.064937 0.907954 0.374805
O O2 0.167179 0.743728 0.223251
O O3 0.084747 0.615437 0.370394
O O4 0.972541 0.677635 0.850561
O O5 0.710068 0.770639 0.588286
O O6 0.609769 0.897551 0.095772
O O7 0.622120 0.599911 0.073463
O O8 0.489362 0.817855 0.112704
O O9 0.275608 0.924615 0.820903
O O10 0.169233 0.906412 0.946015
O O11 0.156451 0.165923 0.815409
O O12 0.500000 0.500000 0.500000
O O13 0.310351 0.366261 0.156188
O O14 0.296750 0.642857 0.114948
O O15 0.000000 0.500000 0.500000
O O16 0.121180 0.431953 0.015399
O O17 0.658445 0.139016 0.458542
#
# Coordination Sequence:
#
# PCOD9026855 Si02
#       8
#     2   2   2   2   2   2   2   2
#     4  10  24  45  72 103 132 182 228 279 357 410
#     4  11  24  41  66  99 140 183 234 282 331 408
#     4  11  24  43  71 102 140 185 227 283 343 413
#     4  12  26  42  65 105 141 183 230 287 339 401
#     4  11  25  49  73 103 137 179 226 293 355 410
#     4  12  27  45  70 103 137 180 236 284 344 413
#     4  10  22  41  65  99 141 186 227 272 341 402
#     4  11  22  43  67 101 141 182 229 282 338 408
#
# _framework density 24.213255
#
# number of rings (size 3 to 8) (size 9 to 14) (size 15 to 20)
#    0.000    1.000    5.000    0.750    3.500    2.500 
#    0.000    1.250    0.000    0.000    0.000    0.000 
#    0.000    0.000    0.000    0.000    0.000    0.000 
#
# Total GULP energy -89434.366706 kJ/mol
# GULP energy per Si atom -5589.647919 kJ/mol
# Density = 2.415814 g / cm^3
# Si number density = 24.213255 Si / 1000 Ang^3
#
#
#
# Elastic Constant Matrix: (Units=GPa)
#
#
# Indices 1 2 3 4 5 6 
#
# 1 99.9452 26.7723 21.2546 -8.6956 8.9841 9.0560
# 2 26.7723 103.9788 32.3894 29.1189 3.3745 -2.8935
# 3 21.2546 32.3894 86.9073 19.2927 -5.3125 -12.9441
# 4 -8.6956 29.1189 19.2927 47.9019 -3.9868 5.2326
# 5 8.9841 3.3745 -5.3125 -3.9868 29.8605 0.9427
# 6 9.0560 -2.8935 -12.9441 5.2326 0.9427 34.5048
#
#
#
# Elastic Compliance Matrix: (Units=1/GPa)
#
#
# Indices 1 2 3 4 5 6 
#
# 1 0.013652 -0.004225 -0.004592 0.007356 -0.003254 -0.006687
# 2 -0.004225 0.013941 -0.001837 -0.008991 -0.001926 0.003005
# 3 -0.004592 -0.001837 0.016247 -0.006870 0.003307 0.008098
# 4 0.007356 -0.008991 -0.006870 0.031728 0.002137 -0.010132
# 5 -0.003254 -0.001926 0.003307 0.002137 0.035539 0.000638
# 6 -0.006687 0.003005 0.008098 -0.010132 0.000638 0.035545
#
#
# Mechanical properties :
#
#
# Convention : Reuss Voigt Hill
#
# Bulk Modulus (GPa) = 44.37910 50.18485 47.28197
# Shear Modulus (GPa) = 28.49460 36.48110 32.48785
#
# Velocity S-wave (km/s) = 3.43420 3.88578 3.66695
# Velocity P-wave (km/s) = 5.83894 6.39559 6.12359
#
# Compressibility (1/GPa) = 0.02253313
#
# Stress axis : x y z
#
# Youngs Moduli (GPa) = 73.24870 71.72932 61.54822
#
# Poissons Ratio (x) = 0.30307 0.28262
# Poissons Ratio (y) = 0.30949 0.11305
# Poissons Ratio (z) = 0.33635 0.13175
#
# Static dielectric constant tensor:
#      x y z
#    x 1.941770 0.046050 0.027330 
#    y 0.046050 1.974210 0.078210 
#    z 0.027330 0.078210 1.946940 
# 
# From -- ./inp_files/37627.got.cif
#   From: 2010.05.17/outbox.cif.g08.bks.cpg/sg2_19_cif.got.tgz:37627.got - 2010.06.03 11:33:40.
