data_PCOD9026425
_publ_section_title
;
Structure prediction by ZEFSAII (Michael W. Deem and Ramdas Pophale) SiO2 
 PCOD9026425
Probable space group: P -1
;
_chemical_formula_sum "Si O2"
_cell_formula_units_Z 15
_cell_length_a 8.724839
_cell_length_b 6.367744
_cell_length_c 12.695380
_cell_angle_alpha 84.042186
_cell_angle_beta 78.056193
_cell_angle_gamma 91.355440
_cell_volume 685.588563
_symmetry_space_group_name_H-M "P -1"
_symmetry_group_IT_number 2
_symmetry_cell_setting 'triclinic'
loop_
_space_group_symop_operation_xyz
x,y,z
-x,-y,-z
loop_
_atom_site_type_symbol
_atom_site_label
_atom_site_fract_x
_atom_site_fract_y
_atom_site_fract_z
Si Si1 0.716447 0.376295 0.362787
Si Si2 0.453694 0.597775 0.111076
Si Si3 0.823118 0.490639 0.565131
Si Si4 0.051811 0.856379 0.797196
Si Si5 0.239776 0.253281 0.828382
Si Si6 0.000000 0.500000 0.000000
Si Si7 0.400149 0.226418 0.308789
Si Si8 0.234412 0.859860 0.233632
O O1 0.720058 0.407886 0.485042
O O2 0.866954 0.254283 0.307222
O O3 0.729550 0.600974 0.287462
O O4 0.558277 0.251913 0.352759
O O5 0.601430 0.732257 0.128353
O O6 0.419860 0.403468 0.205464
O O7 0.306181 0.746743 0.127106
O O8 0.500000 0.500000 0.000000
O O9 0.748420 0.705174 0.604734
O O10 0.815979 0.327476 0.670758
O O11 0.000000 0.500000 0.500000
O O12 0.997564 0.685340 0.899906
O O13 0.182813 0.018179 0.819415
O O14 0.907038 0.994613 0.779441
O O15 0.109504 0.360783 0.912015
O O16 0.364288 0.004549 0.269443
#
# Coordination Sequence:
#
# PCOD9026425 Si02
#       8
#     2   2   2   2   2   1   2   2
#     4  10  22  41  65  92 132 174 213 271 319 383
#     4  10  24  43  66  93 131 172 216 274 325 384
#     4  11  23  41  66  97 132 170 215 273 326 380
#     4  11  23  41  65  93 132 170 222 269 323 390
#     4  10  22  41  64  91 125 172 220 262 322 392
#     4  10  24  40  62  90 128 170 216 270 326 374
#     4  10  23  43  63  96 131 168 223 265 324 391
#     4  11  25  41  66  99 129 171 220 270 325 390
#
# _framework density 21.879014000000002
#
# number of rings (size 3 to 8) (size 9 to 14) (size 15 to 20)
#    0.000    1.600    0.000    3.200    3.733    6.400 
#    2.400    0.000    0.000    0.000    0.000    0.000 
#    0.000    0.000    0.000    0.000    0.000    0.000 
#
# Total GULP energy -83685.599814 kJ/mol
# GULP energy per Si atom -5579.039988 kJ/mol
# Density = 2.182922 g / cm^3
# Si number density = 21.879014 Si / 1000 Ang^3
#
#
#
# Elastic Constant Matrix: (Units=GPa)
#
#
# Indices 1 2 3 4 5 6 
#
# 1 73.2681 24.2840 31.8203 10.2691 -2.7794 -12.1773
# 2 24.2840 55.9708 30.7458 13.2763 -6.3261 -19.8211
# 3 31.8203 30.7458 93.7179 21.2288 -15.9843 -16.1611
# 4 10.2691 13.2763 21.2288 19.8001 -5.5120 -2.3954
# 5 -2.7794 -6.3261 -15.9843 -5.5120 19.9838 1.8326
# 6 -12.1773 -19.8211 -16.1611 -2.3954 1.8326 33.1303
#
#
#
# Elastic Compliance Matrix: (Units=1/GPa)
#
#
# Indices 1 2 3 4 5 6 
#
# 1 0.017426 -0.004494 -0.004182 -0.002201 -0.003106 0.001689
# 2 -0.004494 0.029164 -0.002606 -0.012264 0.001899 0.013533
# 3 -0.004182 -0.002606 0.018063 -0.012357 0.009238 0.004310
# 4 -0.002201 -0.012264 -0.012357 0.074003 0.007185 -0.009221
# 5 -0.003106 0.001899 0.009238 0.007185 0.059421 0.001733
# 6 0.001689 0.013533 0.004310 -0.009221 0.001733 0.040241
#
#
# Mechanical properties :
#
#
# Convention : Reuss Voigt Hill
#
# Bulk Modulus (GPa) = 23.75984 44.07301 33.91642
# Shear Modulus (GPa) = 18.18754 23.65662 20.92208
#
# Velocity S-wave (km/s) = 2.88632 3.29180 3.09570
# Velocity P-wave (km/s) = 4.68945 5.88520 5.32102
#
# Compressibility (1/GPa) = 0.04208783
#
# Stress axis : x y z
#
# Youngs Moduli (GPa) = 57.38655 34.28856 55.36065
#
# Poissons Ratio (x) = 0.15410 0.23154
# Poissons Ratio (y) = 0.25790 0.14429
# Poissons Ratio (z) = 0.24001 0.08937
#
# Static dielectric constant tensor:
#      x y z
#    x 1.843990 0.011830 -0.002070 
#    y 0.011830 1.764060 0.030100 
#    z -0.002070 0.030100 1.766440 
# 
# From -- ./inp_files/34584.got.cif
#   From: 2010.05.17/outbox.cif.g08.bks.cpg/sg2_18_cif.got.tgz:34584.got - 2010.06.03 11:33:40.
