data_PCOD9026052
_publ_section_title
;
Structure prediction by ZEFSAII (Michael W. Deem and Ramdas Pophale) SiO2 
 PCOD9026052
Probable space group: P -1
;
_chemical_formula_sum "Si O2"
_cell_formula_units_Z 12
_cell_length_a 6.870421
_cell_length_b 9.749212
_cell_length_c 12.025212
_cell_angle_alpha 115.224318
_cell_angle_beta 124.003418
_cell_angle_gamma 44.729471
_cell_volume 469.348228
_symmetry_space_group_name_H-M "P -1"
_symmetry_group_IT_number 2
_symmetry_cell_setting 'triclinic'
loop_
_space_group_symop_operation_xyz
x,y,z
-x,-y,-z
loop_
_atom_site_type_symbol
_atom_site_label
_atom_site_fract_x
_atom_site_fract_y
_atom_site_fract_z
Si Si1 0.119456 0.617787 0.614549
Si Si2 0.729248 0.802138 0.937478
Si Si3 0.978965 0.187328 0.567543
Si Si4 0.321219 0.015103 0.247971
Si Si5 0.871380 0.435824 0.812629
Si Si6 0.569388 0.608128 0.142245
O O1 0.196814 0.667152 0.540860
O O2 0.874323 0.831105 0.664679
O O3 0.000000 0.500000 0.500000
O O4 0.344253 0.492243 0.744442
O O5 0.768496 0.863045 0.852030
O O6 0.629378 0.668417 0.835168
O O7 0.002886 0.669474 0.065374
O O8 0.500000 0.000000 0.000000
O O9 0.831213 0.309958 0.675635
O O10 0.328860 0.097521 0.648839
O O11 0.000000 0.000000 0.500000
O O12 0.312113 0.840135 0.158191
O O13 0.143632 0.419427 0.830911
O O14 0.500000 0.500000 0.000000
#
# Coordination Sequence:
#
# PCOD9026052 Si02
#       6
#     2   2   2   2   2   2
#     4  12  23  46  72  92 140 179 214 276 334 395
#     4  11  19  38  69  86 126 173 208 267 330 379
#     4  11  24  43  68 100 130 174 227 271 329 397
#     4  11  23  43  69  95 131 180 222 269 335 391
#     4  10  22  41  61  94 133 167 215 270 332 380
#     4  11  24  41  65  99 128 171 227 267 326 395
#
# _framework density 25.56737
#
# number of rings (size 3 to 8) (size 9 to 14) (size 15 to 20)
#    0.000    1.000    8.333    0.500    0.000    3.333 
#    6.000    3.333    0.000    0.000    0.000    0.000 
#    0.000    0.000    0.000    0.000    0.000    0.000 
#
# Total GULP energy -67239.049382 kJ/mol
# GULP energy per Si atom -5603.254115 kJ/mol
# Density = 2.550918 g / cm^3
# Si number density = 25.567370 Si / 1000 Ang^3
#
#
#
# Elastic Constant Matrix: (Units=GPa)
#
#
# Indices 1 2 3 4 5 6 
#
# 1 58.4092 21.1091 31.3194 3.9211 -15.4795 3.0391
# 2 21.1091 207.9564 100.3360 24.9504 -3.9191 17.3630
# 3 31.3194 100.3360 225.9340 16.7185 -19.5297 16.2554
# 4 3.9211 24.9504 16.7185 86.1550 2.4927 -9.6694
# 5 -15.4795 -3.9191 -19.5297 2.4927 50.1917 6.6644
# 6 3.0391 17.3630 16.2554 -9.6694 6.6644 54.8300
#
#
#
# Elastic Compliance Matrix: (Units=1/GPa)
#
#
# Indices 1 2 3 4 5 6 
#
# 1 0.019967 -0.000912 -0.001760 -0.000585 0.005574 -0.001077
# 2 -0.000912 0.006421 -0.002559 -0.001466 -0.000514 -0.001420
# 3 -0.001760 -0.002559 0.006092 -0.000550 0.001816 -0.001216
# 4 -0.000585 -0.001466 -0.000550 0.012553 -0.001539 0.003060
# 5 0.005574 -0.000514 0.001816 -0.001539 0.022882 -0.003737
# 6 -0.001077 -0.001420 -0.001216 0.003060 -0.003737 0.020102
#
#
# Mechanical properties :
#
#
# Convention : Reuss Voigt Hill
#
# Bulk Modulus (GPa) = 45.42080 88.64762 67.03421
# Shear Modulus (GPa) = 47.25165 60.87101 54.06133
#
# Velocity S-wave (km/s) = 4.30364 4.88465 4.60332
# Velocity P-wave (km/s) = 6.51911 8.15846 7.38442
#
# Compressibility (1/GPa) = 0.02201635
#
# Stress axis : x y z
#
# Youngs Moduli (GPa) = 50.08380 155.74887 164.16220
#
# Poissons Ratio (x) = 0.14211 0.28893
# Poissons Ratio (y) = 0.04570 0.42004
# Poissons Ratio (z) = 0.08815 0.39851
#
# Static dielectric constant tensor:
#      x y z
#    x 2.182090 -0.066640 0.066490 
#    y -0.066640 1.961860 0.008190 
#    z 0.066490 0.008190 1.938910 
# 
# From -- ./inp_files/303692.got.cif
#   From: 2010.05.17/outbox.cif.g08.bks.cpg/sg2_152_cif.got.tgz:303692.got - 2010.06.03 11:33:40.
