data_PCOD9026469
_publ_section_title
;
Structure prediction by ZEFSAII (Michael W. Deem and Ramdas Pophale) SiO2 
 PCOD9026469
Probable space group: P -1
;
_chemical_formula_sum "Si O2"
_cell_formula_units_Z 16
_cell_length_a 7.905305
_cell_length_b 13.188478
_cell_length_c 12.316369
_cell_angle_alpha 66.549105
_cell_angle_beta 102.030339
_cell_angle_gamma 141.161562
_cell_volume 727.172768
_symmetry_space_group_name_H-M "P -1"
_symmetry_group_IT_number 2
_symmetry_cell_setting 'triclinic'
loop_
_space_group_symop_operation_xyz
x,y,z
-x,-y,-z
loop_
_atom_site_type_symbol
_atom_site_label
_atom_site_fract_x
_atom_site_fract_y
_atom_site_fract_z
Si Si1 0.512717 0.535546 0.112516
Si Si2 0.648209 0.954322 0.548624
Si Si3 0.451708 0.042105 0.231775
Si Si4 0.689163 0.384375 0.497574
Si Si5 0.985890 0.165897 0.307182
Si Si6 0.113262 0.309868 0.720070
Si Si7 0.717150 0.849427 0.267940
Si Si8 0.327117 0.137794 0.975907
O O1 0.792165 0.634630 0.166414
O O2 0.514332 0.668744 0.066586
O O3 0.267829 0.359566 0.224173
O O4 0.500000 0.500000 0.000000
O O5 0.626083 0.924151 0.686827
O O6 0.478769 0.777317 0.538016
O O7 0.500000 0.000000 0.500000
O O8 0.930911 0.111517 0.450951
O O9 0.741017 0.127420 0.254531
O O10 0.424870 0.099901 0.094720
O O11 0.208207 0.831078 0.281773
O O12 0.707848 0.517394 0.398697
O O13 0.539767 0.303277 0.626351
O O14 0.000000 0.500000 0.500000
O O15 0.927605 0.025116 0.292523
O O16 0.171978 0.213434 0.731920
O O17 0.636219 0.877560 0.137714
O O18 0.000000 0.000000 0.000000
#
# Coordination Sequence:
#
# PCOD9026469 Si02
#       8
#     2   2   2   2   2   2   2   2
#     4  11  25  42  64  94 135 170 220 272 317 396
#     4   9  21  40  64  93 134 166 205 272 324 376
#     4  11  23  43  69  97 129 178 215 265 334 384
#     4  11  23  42  66 102 132 169 223 272 318 383
#     4  10  23  43  66  99 130 169 221 273 322 379
#     4  11  24  41  69  95 129 179 215 263 334 385
#     4  10  22  41  64  92 134 171 212 266 325 389
#     4  11  22  43  65  94 132 175 215 265 330 390
#
# _framework density 22.003025999999998
#
# number of rings (size 3 to 8) (size 9 to 14) (size 15 to 20)
#    0.000    1.500    2.500    3.375    1.750    8.000 
#    2.250    2.500    0.000    0.000    0.000    0.000 
#    0.000    0.000    0.000    0.000    0.000    0.000 
#
# Total GULP energy -89454.856370 kJ/mol
# GULP energy per Si atom -5590.928523 kJ/mol
# Density = 2.195295 g / cm^3
# Si number density = 22.003026 Si / 1000 Ang^3
#
#
#
# Elastic Constant Matrix: (Units=GPa)
#
#
# Indices 1 2 3 4 5 6 
#
# 1 54.0054 10.4577 20.0770 3.2001 4.1347 -1.7877
# 2 10.4577 83.3956 24.1012 -16.6669 -13.6306 1.2731
# 3 20.0770 24.1012 119.7139 0.1097 1.1892 -8.6864
# 4 3.2001 -16.6669 0.1097 46.5330 -7.6378 6.9256
# 5 4.1347 -13.6306 1.1892 -7.6378 30.2141 1.5345
# 6 -1.7877 1.2731 -8.6864 6.9256 1.5345 35.0262
#
#
#
# Elastic Compliance Matrix: (Units=1/GPa)
#
#
# Indices 1 2 3 4 5 6 
#
# 1 0.020860 -0.003520 -0.002622 -0.003799 -0.005377 0.001529
# 2 -0.003520 0.016852 -0.003187 0.008577 0.010568 -0.003741
# 3 -0.002622 -0.003187 0.009660 -0.001737 -0.002041 0.002811
# 4 -0.003799 0.008577 -0.001737 0.027806 0.011840 -0.006953
# 5 -0.005377 0.010568 -0.002041 0.011840 0.041945 -0.005343
# 6 0.001529 -0.003741 0.002811 -0.006953 -0.005343 0.031070
#
#
# Mechanical properties :
#
#
# Convention : Reuss Voigt Hill
#
# Bulk Modulus (GPa) = 34.82402 40.70965 37.76684
# Shear Modulus (GPa) = 28.34113 35.85325 32.09719
#
# Velocity S-wave (km/s) = 3.59284 4.04105 3.82352
# Velocity P-wave (km/s) = 5.75088 6.34944 6.05756
#
# Compressibility (1/GPa) = 0.02871581
#
# Stress axis : x y z
#
# Youngs Moduli (GPa) = 47.93762 59.34089 103.51598
#
# Poissons Ratio (x) = 0.20886 0.27142
# Poissons Ratio (y) = 0.16872 0.32987
# Poissons Ratio (z) = 0.12569 0.18910
#
# Static dielectric constant tensor:
#      x y z
#    x 1.841800 0.034900 0.039870 
#    y 0.034900 1.807040 0.032520 
#    z 0.039870 0.032520 1.839220 
# 
# From -- ./inp_files/346155.got.cif
#   From: 2010.05.17/outbox.cif.g08.bks.cpg/sg2_174_cif.got.tgz:346155.got - 2010.06.03 11:33:40.
