data_PCOD9026563
_publ_section_title
;
Structure prediction by ZEFSAII (Michael W. Deem and Ramdas Pophale) SiO2 
 PCOD9026563
Probable space group: P -1
;
_chemical_formula_sum "Si O2"
_cell_formula_units_Z 16
_cell_length_a 21.075135
_cell_length_b 7.026975
_cell_length_c 14.729450
_cell_angle_alpha 50.496897
_cell_angle_beta 157.004677
_cell_angle_gamma 130.339516
_cell_volume 643.574049
_symmetry_space_group_name_H-M "P -1"
_symmetry_group_IT_number 2
_symmetry_cell_setting 'triclinic'
loop_
_space_group_symop_operation_xyz
x,y,z
-x,-y,-z
loop_
_atom_site_type_symbol
_atom_site_label
_atom_site_fract_x
_atom_site_fract_y
_atom_site_fract_z
Si Si1 0.132323 0.374922 0.405961
Si Si2 0.253000 0.049190 0.804106
Si Si3 0.347270 0.270784 0.347073
Si Si4 0.599441 0.130689 0.179660
Si Si5 0.761527 0.699770 0.612613
Si Si6 0.861531 0.522477 0.135040
Si Si7 0.562890 0.269207 0.374375
Si Si8 0.214476 0.360673 0.816968
O O1 0.179425 0.134107 0.589179
O O2 0.094244 0.321179 0.264706
O O3 0.302785 0.583841 0.565189
O O4 0.003051 0.477078 0.266689
O O5 0.157598 0.153687 0.728357
O O6 0.241845 0.755498 0.892019
O O7 0.446499 0.181503 0.023173
O O8 0.500000 0.500000 0.500000
O O9 0.220434 0.258741 0.269545
O O10 0.414161 0.014564 0.504473
O O11 0.249590 0.321679 0.113872
O O12 0.723223 0.377948 0.233271
O O13 0.683613 0.929144 0.402570
O O14 0.500000 0.000000 0.000000
O O15 0.629285 0.438005 0.499022
O O16 0.908477 0.635222 0.262239
O O17 0.379701 0.296396 0.099834
#
# Coordination Sequence:
#
# PCOD9026563 Si02
#       8
#     2   2   2   2   2   2   2   2
#     4  10  24  46  65  94 134 172 213 268 327 392
#     4  12  23  40  69 101 130 169 217 270 330 381
#     4  12  26  42  70  97 130 167 225 271 314 384
#     4  12  17  37  70  98 131 160 211 277 326 374
#     4  10  22  41  64  97 127 173 209 265 327 373
#     4  12  27  45  61  96 139 173 213 267 325 385
#     4  10  22  44  65  97 126 165 217 266 318 378
#     4  12  23  38  70  99 127 168 217 274 326 375
#
# _framework density 24.861163999999999
#
# number of rings (size 3 to 8) (size 9 to 14) (size 15 to 20)
#    0.750    0.000    5.000    3.750    1.750    4.500 
#    2.250    0.000    0.000    0.000    0.000    0.000 
#    0.000    0.000    0.000    0.000    0.000    0.000 
#
# Total GULP energy -89589.200267 kJ/mol
# GULP energy per Si atom -5599.325017 kJ/mol
# Density = 2.480458 g / cm^3
# Si number density = 24.861164 Si / 1000 Ang^3
#
#
#
# Elastic Constant Matrix: (Units=GPa)
#
#
# Indices 1 2 3 4 5 6 
#
# 1 183.1346 22.2812 37.0644 -11.1780 -5.6598 4.6507
# 2 22.2812 105.9934 46.6941 -35.2765 -4.2668 -6.7586
# 3 37.0644 46.6941 62.0897 -19.1920 -0.3283 16.9370
# 4 -11.1780 -35.2765 -19.1920 31.7941 1.6802 3.0606
# 5 -5.6598 -4.2668 -0.3283 1.6802 48.2514 6.3977
# 6 4.6507 -6.7586 16.9370 3.0606 6.3977 32.8136
#
#
#
# Elastic Compliance Matrix: (Units=1/GPa)
#
#
# Indices 1 2 3 4 5 6 
#
# 1 0.006328 0.001080 -0.005013 0.000195 0.000560 0.001786
# 2 0.001080 0.021170 -0.015334 0.013568 -0.000018 0.010860
# 3 -0.005013 -0.015334 0.039295 0.007155 0.001208 -0.023633
# 4 0.000195 0.013568 0.007155 0.051436 0.000245 -0.005771
# 5 0.000560 -0.000018 0.001208 0.000245 0.021439 -0.004910
# 6 0.001786 0.010860 -0.023633 -0.005771 -0.004910 0.046153
#
#
# Mechanical properties :
#
#
# Convention : Reuss Voigt Hill
#
# Bulk Modulus (GPa) = 35.38895 62.58858 48.98877
# Shear Modulus (GPa) = 21.38803 38.91703 30.15253
#
# Velocity S-wave (km/s) = 2.93627 3.96077 3.48636
# Velocity P-wave (km/s) = 5.07554 6.79315 5.99616
#
# Compressibility (1/GPa) = 0.02825740
#
# Stress axis : x y z
#
# Youngs Moduli (GPa) = 158.03899 47.23596 25.44866
#
# Poissons Ratio (x) = -0.05099 0.12757
# Poissons Ratio (y) = -0.17061 0.39023
# Poissons Ratio (z) = 0.79225 0.72432
#
# Static dielectric constant tensor:
#      x y z
#    x 2.113440 -0.005550 0.031140 
#    y -0.005550 1.923960 0.021850 
#    z 0.031140 0.021850 1.903210 
# 
# From -- ./inp_files/461936.got.cif
#   From: 2010.05.17/outbox.cif.g08.bks.cpg/sg2_231_cif.got.tgz:461936.got - 2010.06.03 11:33:40.
