data_PCOD9026964
_publ_section_title
;
Structure prediction by ZEFSAII (Michael W. Deem and Ramdas Pophale) SiO2 
 PCOD9026964
Probable space group: P -1
;
_chemical_formula_sum "Si O2"
_cell_formula_units_Z 16
_cell_length_a 8.230137
_cell_length_b 24.881360
_cell_length_c 8.706316
_cell_angle_alpha 131.384876
_cell_angle_beta 33.417289
_cell_angle_gamma 127.593505
_cell_volume 729.333950
_symmetry_space_group_name_H-M "P -1"
_symmetry_group_IT_number 2
_symmetry_cell_setting 'triclinic'
loop_
_space_group_symop_operation_xyz
x,y,z
-x,-y,-z
loop_
_atom_site_type_symbol
_atom_site_label
_atom_site_fract_x
_atom_site_fract_y
_atom_site_fract_z
Si Si1 0.714424 0.072190 0.510924
Si Si2 0.157795 0.794348 0.806416
Si Si3 0.210718 0.153554 0.083926
Si Si4 0.744052 0.052160 0.810964
Si Si5 0.294074 0.679397 0.238560
Si Si6 0.353614 0.304016 0.318229
Si Si7 0.545768 0.417471 0.814865
Si Si8 0.082494 0.660654 0.839833
O O1 0.728793 0.070673 0.678978
O O2 0.016451 0.087870 0.204507
O O3 0.500000 0.000000 0.500000
O O4 0.527622 0.136754 0.745891
O O5 0.327245 0.744044 0.462207
O O6 0.062915 0.735171 0.903495
O O7 0.950120 0.824558 0.899776
O O8 0.260445 0.869869 0.955651
O O9 0.247499 0.221499 0.297945
O O10 0.000000 0.000000 0.500000
O O11 0.500000 0.000000 0.000000
O O12 0.395537 0.610855 0.114875
O O13 0.956601 0.664527 0.407979
O O14 0.511577 0.699255 0.964063
O O15 0.641119 0.332679 0.247619
O O16 0.829346 0.398527 0.461651
O O17 0.500000 0.500000 0.000000
O O18 0.244864 0.369104 0.896237
#
# Coordination Sequence:
#
# PCOD9026964 Si02
#       8
#     2   2   2   2   2   2   2   2
#     4  12  24  40  59  85 119 161 207 258 323 386
#     4  10  23  41  64  91 122 165 215 259 318 382
#     4  11  22  39  62  85 117 160 202 262 317 377
#     4  12  26  42  61  89 124 162 207 265 318 378
#     4  10  22  41  66  92 129 172 214 265 322 390
#     4  11  22  41  64  98 128 163 217 269 323 378
#     4  11  23  43  66  96 133 176 216 261 321 386
#     4  11  24  41  68  98 130 169 218 271 316 383
#
# _framework density 21.937823999999999
#
# number of rings (size 3 to 8) (size 9 to 14) (size 15 to 20)
#    0.000    1.000    0.000    8.250    0.000    6.000 
#    0.000    3.750    0.000    0.000    0.000    0.000 
#    0.000    0.000    0.000    0.000    0.000    0.000 
#
# Total GULP energy -89160.169307 kJ/mol
# GULP energy per Si atom -5572.510582 kJ/mol
# Density = 2.188789 g / cm^3
# Si number density = 21.937824 Si / 1000 Ang^3
#
#
#
# Elastic Constant Matrix: (Units=GPa)
#
#
# Indices 1 2 3 4 5 6 
#
# 1 88.9312 31.8023 15.8374 -3.7263 -1.4299 -6.8546
# 2 31.8023 103.6383 22.5218 12.4229 -2.9646 -16.2024
# 3 15.8374 22.5218 85.6683 -16.6983 -12.3182 -13.9715
# 4 -3.7263 12.4229 -16.6983 37.9537 -3.7120 -11.5987
# 5 -1.4299 -2.9646 -12.3182 -3.7120 37.0215 -0.4165
# 6 -6.8546 -16.2024 -13.9715 -11.5987 -0.4165 25.1629
#
#
#
# Elastic Compliance Matrix: (Units=1/GPa)
#
#
# Indices 1 2 3 4 5 6 
#
# 1 0.013026 -0.003936 -0.000317 0.003175 0.000427 0.002309
# 2 -0.003936 0.012598 -0.003206 -0.005103 -0.000689 0.002896
# 3 -0.000317 -0.003206 0.019122 0.014918 0.007763 0.015472
# 4 0.003175 -0.005103 0.014918 0.043821 0.009367 0.026217
# 5 0.000427 -0.000689 0.007763 0.009367 0.030594 0.008807
# 6 0.002309 0.002896 0.015472 0.026217 0.008807 0.063056
#
#
# Mechanical properties :
#
#
# Convention : Reuss Voigt Hill
#
# Bulk Modulus (GPa) = 33.52316 46.50676 40.01496
# Shear Modulus (GPa) = 24.14563 33.89938 29.02250
#
# Velocity S-wave (km/s) = 3.32119 3.93523 3.64117
# Velocity P-wave (km/s) = 5.47916 6.47251 5.99644
#
# Compressibility (1/GPa) = 0.02983012
#
# Stress axis : x y z
#
# Youngs Moduli (GPa) = 76.76710 79.37731 52.29689
#
# Poissons Ratio (x) = 0.31242 0.01655
# Poissons Ratio (y) = 0.30215 0.16764
# Poissons Ratio (z) = 0.02430 0.25445
#
# Static dielectric constant tensor:
#      x y z
#    x 1.890690 0.001140 -0.054740 
#    y 0.001140 2.038970 0.260960 
#    z -0.054740 0.260960 2.038040 
# 
# From -- ./inp_files/226430.got.cif
#   From: 2010.05.17/outbox.cif.g08.bks.cpg/sg2_114_cif.got.tgz:226430.got - 2010.06.03 11:33:40.
