data_PCOD9026087
_publ_section_title
;
Structure prediction by ZEFSAII (Michael W. Deem and Ramdas Pophale) SiO2 
 PCOD9026087
Probable space group: P -1
;
_chemical_formula_sum "Si O2"
_cell_formula_units_Z 16
_cell_length_a 22.516588
_cell_length_b 4.856608
_cell_length_c 23.751585
_cell_angle_alpha 77.938616
_cell_angle_beta 14.245621
_cell_angle_gamma 75.816119
_cell_volume 615.215745
_symmetry_space_group_name_H-M "P -1"
_symmetry_group_IT_number 2
_symmetry_cell_setting 'triclinic'
loop_
_space_group_symop_operation_xyz
x,y,z
-x,-y,-z
loop_
_atom_site_type_symbol
_atom_site_label
_atom_site_fract_x
_atom_site_fract_y
_atom_site_fract_z
Si Si1 0.866502 0.162937 0.447453
Si Si2 0.571573 0.735248 0.681898
Si Si3 0.369826 0.771759 0.663196
Si Si4 0.333775 0.683901 0.014435
Si Si5 0.736300 0.607744 0.804020
Si Si6 0.154216 0.807103 0.973669
Si Si7 0.807444 0.887497 0.622962
Si Si8 0.836036 0.357060 0.256365
O O1 0.656000 0.015079 0.617735
O O2 0.842902 0.145892 0.538337
O O3 0.811529 0.490125 0.464883
O O4 0.568030 0.784834 0.822916
O O5 0.399308 0.788344 0.784549
O O6 0.405357 0.618837 0.887422
O O7 0.209902 0.912154 0.855661
O O8 0.578577 0.525703 0.508342
O O9 0.221388 0.632327 0.758257
O O10 0.500000 0.000000 0.500000
O O11 0.290457 0.412132 0.103377
O O12 0.111445 0.949345 0.213658
O O13 0.770791 0.888382 0.724403
O O14 0.967136 0.363733 0.587817
O O15 0.500000 0.500000 0.000000
O O16 0.052517 0.517411 0.069272
O O17 0.931755 0.027976 0.196406
#
# Coordination Sequence:
#
# PCOD9026087 Si02
#       8
#     2   2   2   2   2   2   2   2
#     4  10  22  41  62  87 125 166 211 269 317 372
#     4  11  25  43  62  92 123 167 218 260 314 381
#     4  11  25  43  69 101 135 169 213 263 324 389
#     4   9  19  36  62  85 125 168 211 263 321 377
#     4   8  13  27  56  93 126 163 207 263 322 380
#     4  12  26  42  68  94 133 170 216 268 321 383
#     4   8  15  30  57  91 124 162 212 261 320 384
#     4  11  25  43  68 100 131 172 210 263 326 383
#
# _framework density 26.007135999999999
#
# number of rings (size 3 to 8) (size 9 to 14) (size 15 to 20)
#    0.000    2.000    1.250    1.500    3.500    4.000 
#    0.000    0.625    0.000   67.500    0.000    0.000 
#    0.000    0.000    0.000    0.000    0.000    0.000 
#
# Total GULP energy -89600.458565 kJ/mol
# GULP energy per Si atom -5600.028660 kJ/mol
# Density = 2.594794 g / cm^3
# Si number density = 26.007136 Si / 1000 Ang^3
#
#
#
# Elastic Constant Matrix: (Units=GPa)
#
#
# Indices 1 2 3 4 5 6 
#
# 1 107.3899 11.8405 21.6127 13.9337 -14.0911 13.8964
# 2 11.8405 77.3039 6.6913 15.0595 0.0244 23.5749
# 3 21.6127 6.6913 101.4023 16.4202 -12.0119 5.3506
# 4 13.9337 15.0595 16.4202 37.5848 -6.2374 -8.0729
# 5 -14.0911 0.0244 -12.0119 -6.2374 31.3082 2.3294
# 6 13.8964 23.5749 5.3506 -8.0729 2.3294 26.8918
#
#
#
# Elastic Compliance Matrix: (Units=1/GPa)
#
#
# Indices 1 2 3 4 5 6 
#
# 1 0.012087 0.003062 -0.000460 -0.007179 0.004679 -0.011399
# 2 0.003062 0.024738 0.002301 -0.018206 0.000792 -0.029260
# 3 -0.000460 0.002301 0.011622 -0.006634 0.003403 -0.006378
# 4 -0.007179 -0.018206 -0.006634 0.047161 0.001025 0.035059
# 5 0.004679 0.000792 0.003403 0.001025 0.036047 -0.006604
# 6 -0.011399 -0.029260 -0.006378 0.035059 -0.006604 0.081094
#
#
# Mechanical properties :
#
#
# Convention : Reuss Voigt Hill
#
# Bulk Modulus (GPa) = 17.16682 40.70945 28.93813
# Shear Modulus (GPa) = 22.48598 35.55374 29.01986
#
# Velocity S-wave (km/s) = 2.94361 3.70141 3.34405
# Velocity P-wave (km/s) = 4.26243 5.82704 5.10503
#
# Compressibility (1/GPa) = 0.05825191
#
# Stress axis : x y z
#
# Youngs Moduli (GPa) = 82.73089 40.42443 86.04502
#
# Poissons Ratio (x) = -0.12377 0.03958
# Poissons Ratio (y) = -0.25331 -0.19797
# Poissons Ratio (z) = 0.03806 -0.09301
#
# Static dielectric constant tensor:
#      x y z
#    x 2.025580 -0.027160 -0.018400 
#    y -0.027160 2.047660 -0.047460 
#    z -0.018400 -0.047460 2.041380 
# 
# From -- ./inp_files/600770.got.cif
#   From: 2010.05.17/outbox.cif.g08.bks.cpg/sg2_301_cif.got.tgz:600770.got - 2010.06.03 11:33:40.
