data_PCOD9026974
_publ_section_title
;
Structure prediction by ZEFSAII (Michael W. Deem and Ramdas Pophale) SiO2 
 PCOD9026974
Probable space group: P -1
;
_chemical_formula_sum "Si O2"
_cell_formula_units_Z 16
_cell_length_a 25.104192
_cell_length_b 5.066596
_cell_length_c 19.283936
_cell_angle_alpha 122.823412
_cell_angle_beta 20.925869
_cell_angle_gamma 113.460183
_cell_volume 686.680788
_symmetry_space_group_name_H-M "P -1"
_symmetry_group_IT_number 2
_symmetry_cell_setting 'triclinic'
loop_
_space_group_symop_operation_xyz
x,y,z
-x,-y,-z
loop_
_atom_site_type_symbol
_atom_site_label
_atom_site_fract_x
_atom_site_fract_y
_atom_site_fract_z
Si Si1 0.744607 0.334548 0.377863
Si Si2 0.489322 0.080839 0.606027
Si Si3 0.200107 0.383997 0.783042
Si Si4 0.061681 0.731888 0.648031
Si Si5 0.789889 0.515330 0.901993
Si Si6 0.812629 0.752652 0.764473
Si Si7 0.387503 0.309544 0.136332
Si Si8 0.961376 0.554371 0.226255
O O1 0.569368 0.354863 0.570949
O O2 0.829773 0.351139 0.203795
O O3 0.789571 0.590879 0.407679
O O4 0.810436 0.968049 0.281042
O O5 0.500000 0.000000 0.500000
O O6 0.614129 0.736306 0.437567
O O7 0.319581 0.228356 0.870630
O O8 0.090443 0.466871 0.995460
O O9 0.248705 0.530146 0.387924
O O10 0.005725 0.722650 0.793768
O O11 0.962568 0.545273 0.701880
O O12 0.034748 0.095204 0.700856
O O13 0.732263 0.640005 0.912202
O O14 0.803450 0.134126 0.841233
O O15 0.711705 0.751679 0.817685
O O16 0.000000 0.500000 0.500000
O O17 0.500000 0.500000 0.000000
O O18 0.500000 0.000000 0.000000
#
# Coordination Sequence:
#
# PCOD9026974 Si02
#       8
#     2   2   2   2   2   2   2   2
#     4  10  23  41  63  94 138 191 244 287 368 423
#     4  10  26  44  67 104 149 187 245 308 358 434
#     4  10  22  41  66  92 144 183 240 290 361 418
#     4  12  27  44  73 108 142 187 246 305 365 455
#     4  12  27  47  79 109 145 202 257 293 383 441
#     4  12  27  52  83 107 152 194 254 315 372 458
#     4  12  28  51  77 114 152 188 239 317 391 442
#     4  12  23  42  70 101 144 191 241 299 359 447
#
# _framework density 23.300488999999999
#
# number of rings (size 3 to 8) (size 9 to 14) (size 15 to 20)
#    0.750    0.000    1.250    5.625    5.250    3.500 
#    0.000    0.000    0.000    0.000    0.000    0.000 
#    0.000    0.000    0.000    0.000    0.000    0.000 
#
# Total GULP energy -89321.800336 kJ/mol
# GULP energy per Si atom -5582.612521 kJ/mol
# Density = 2.324746 g / cm^3
# Si number density = 23.300489 Si / 1000 Ang^3
#
#
#
# Elastic Constant Matrix: (Units=GPa)
#
#
# Indices 1 2 3 4 5 6 
#
# 1 102.4959 14.0314 22.0955 -9.4254 -7.5318 1.7090
# 2 14.0314 90.3674 21.6401 -9.0186 -11.9111 -2.0717
# 3 22.0955 21.6401 107.0561 -15.1230 -7.9600 5.9110
# 4 -9.4254 -9.0186 -15.1230 29.2448 -1.2606 2.4320
# 5 -7.5318 -11.9111 -7.9600 -1.2606 35.8751 -7.7454
# 6 1.7090 -2.0717 5.9110 2.4320 -7.7454 32.8298
#
#
#
# Elastic Compliance Matrix: (Units=1/GPa)
#
#
# Indices 1 2 3 4 5 6 
#
# 1 0.010547 -0.000809 -0.001539 0.002435 0.001666 -0.000110
# 2 -0.000809 0.012467 -0.001776 0.002682 0.004082 0.001913
# 3 -0.001539 -0.001776 0.010904 0.004819 0.001231 -0.002062
# 4 0.002435 0.002682 0.004819 0.038680 0.003196 -0.002937
# 5 0.001666 0.004082 0.001231 0.003196 0.031508 0.007146
# 6 -0.000110 0.001913 -0.002062 -0.002937 0.007146 0.032861
#
#
# Mechanical properties :
#
#
# Convention : Reuss Voigt Hill
#
# Bulk Modulus (GPa) = 38.95860 46.16149 42.56005
# Shear Modulus (GPa) = 32.51568 35.73343 34.12455
#
# Velocity S-wave (km/s) = 3.73968 3.92036 3.83109
# Velocity P-wave (km/s) = 5.95007 6.35190 6.15427
#
# Compressibility (1/GPa) = 0.02566827
#
# Stress axis : x y z
#
# Youngs Moduli (GPa) = 94.81136 80.21490 91.71137
#
# Poissons Ratio (x) = 0.06489 0.14119
# Poissons Ratio (y) = 0.07670 0.16290
# Poissons Ratio (z) = 0.14596 0.14248
#
# Static dielectric constant tensor:
#      x y z
#    x 1.938480 0.030220 -0.015830 
#    y 0.030220 1.861060 -0.000770 
#    z -0.015830 -0.000770 1.878420 
# 
# From -- ./inp_files/602211.got.cif
#   From: 2010.05.17/outbox.cif.g08.bks.cpg/sg2_302_cif.got.tgz:602211.got - 2010.06.03 11:33:40.
