data_PCOD9026075
_publ_section_title
;
Structure prediction by ZEFSAII (Michael W. Deem and Ramdas Pophale) SiO2 
 PCOD9026075
Probable space group: P -1
;
_chemical_formula_sum "Si O2"
_cell_formula_units_Z 16
_cell_length_a 16.599812
_cell_length_b 26.185059
_cell_length_c 6.343284
_cell_angle_alpha 119.315097
_cell_angle_beta 65.592617
_cell_angle_gamma 164.092149
_cell_volume 639.497775
_symmetry_space_group_name_H-M "P -1"
_symmetry_group_IT_number 2
_symmetry_cell_setting 'triclinic'
loop_
_space_group_symop_operation_xyz
x,y,z
-x,-y,-z
loop_
_atom_site_type_symbol
_atom_site_label
_atom_site_fract_x
_atom_site_fract_y
_atom_site_fract_z
Si Si1 0.791149 0.028058 0.375910
Si Si2 0.103086 0.708654 0.799343
Si Si3 0.338903 0.734646 0.648464
Si Si4 0.722439 0.497132 0.167546
Si Si5 0.573620 0.319564 0.303249
Si Si6 0.943315 0.897918 0.087532
Si Si7 0.127294 0.821889 0.699890
Si Si8 0.838914 0.728468 0.147863
O O1 0.688864 0.020807 0.342374
O O2 0.971520 0.195418 0.048194
O O3 0.544349 0.852551 0.460096
O O4 0.915034 0.054794 0.150016
O O5 0.973626 0.659498 0.043014
O O6 0.794727 0.487878 0.577837
O O7 0.251284 0.844104 0.735924
O O8 0.313484 0.788348 0.803671
O O9 0.435737 0.755177 0.779884
O O10 0.000000 0.500000 0.500000
O O11 0.387446 0.293415 0.022432
O O12 0.715713 0.428965 0.148997
O O13 0.833435 0.611401 0.462881
O O14 0.223421 0.119261 0.276025
O O15 0.900458 0.832829 0.212886
O O16 0.923386 0.773237 0.387060
O O17 0.500000 0.500000 0.000000
#
# Coordination Sequence:
#
# PCOD9026075 Si02
#       8
#     2   2   2   2   2   2   2   2
#     4  11  23  41  67  92 133 168 211 269 311 380
#     4  10  23  43  66  90 130 170 213 266 314 378
#     4  10  23  46  65  91 126 171 221 263 315 372
#     4  11  23  41  65  96 133 169 203 269 319 383
#     4  10  23  42  61  96 124 168 220 254 321 377
#     4  11  23  38  63 100 130 162 216 258 324 386
#     4  10  22  41  61  98 127 164 220 248 328 377
#     4  11  21  38  66  93 134 172 205 262 314 387
#
# _framework density 25.019634
#
# number of rings (size 3 to 8) (size 9 to 14) (size 15 to 20)
#    0.000    1.500    1.250    3.375    3.500    4.500 
#    4.500    2.500    0.000    0.000    0.000    0.000 
#    0.000    0.000    0.000    0.000    0.000    0.000 
#
# Total GULP energy -89488.701835 kJ/mol
# GULP energy per Si atom -5593.043865 kJ/mol
# Density = 2.496269 g / cm^3
# Si number density = 25.019634 Si / 1000 Ang^3
#
#
#
# Elastic Constant Matrix: (Units=GPa)
#
#
# Indices 1 2 3 4 5 6 
#
# 1 144.0765 22.3098 48.8199 -18.2990 32.5073 -14.5779
# 2 22.3098 98.0256 13.0661 5.4953 10.0670 2.6692
# 3 48.8199 13.0661 84.5808 7.3135 10.4774 7.0586
# 4 -18.2990 5.4953 7.3135 36.2436 -9.6720 4.0271
# 5 32.5073 10.0670 10.4774 -9.6720 37.4590 -8.6105
# 6 -14.5779 2.6692 7.0586 4.0271 -8.6105 40.7433
#
#
#
# Elastic Compliance Matrix: (Units=1/GPa)
#
#
# Indices 1 2 3 4 5 6 
#
# 1 0.011823 -0.001641 -0.006674 0.005645 -0.005634 0.003745
# 2 -0.001641 0.011069 -0.000035 -0.003042 -0.002688 -0.001574
# 3 -0.006674 -0.000035 0.016905 -0.006700 -0.001815 -0.005036
# 4 0.005645 -0.003042 -0.006700 0.033930 0.006894 0.001483
# 5 -0.005634 -0.002688 -0.001815 0.006894 0.035829 0.005365
# 6 0.003745 -0.001574 -0.005036 0.001483 0.005365 0.027847
#
#
# Mechanical properties :
#
#
# Convention : Reuss Voigt Hill
#
# Bulk Modulus (GPa) = 43.29573 55.00830 49.15201
# Shear Modulus (GPa) = 30.90199 39.05499 34.97849
#
# Velocity S-wave (km/s) = 3.51823 3.95520 3.74310
# Velocity P-wave (km/s) = 5.81774 6.54919 6.19428
#
# Compressibility (1/GPa) = 0.02309697
#
# Stress axis : x y z
#
# Youngs Moduli (GPa) = 84.57758 90.34171 59.15436
#
# Poissons Ratio (x) = 0.14827 0.39478
# Poissons Ratio (y) = 0.13881 0.00209
# Poissons Ratio (z) = 0.56445 0.00319
#
# Static dielectric constant tensor:
#      x y z
#    x 2.050520 0.114040 -0.230790 
#    y 0.114040 2.611700 -0.931400 
#    z -0.230790 -0.931400 3.408040 
# 
# From -- ./inp_files/101199.got.cif
#   From: 2010.05.17/outbox.cif.g08.bks.cpg/sg2_51_cif.got.tgz:101199.got - 2010.06.03 11:33:40.
