data_PCOD9026098
_publ_section_title
;
Structure prediction by ZEFSAII (Michael W. Deem and Ramdas Pophale) SiO2 
 PCOD9026098
Probable space group: P -1
;
_chemical_formula_sum "Si O2"
_cell_formula_units_Z 16
_cell_length_a 15.539389
_cell_length_b 13.485172
_cell_length_c 11.069492
_cell_angle_alpha 58.295679
_cell_angle_beta 31.551086
_cell_angle_gamma 35.775537
_cell_volume 596.248833
_symmetry_space_group_name_H-M "P -1"
_symmetry_group_IT_number 2
_symmetry_cell_setting 'triclinic'
loop_
_space_group_symop_operation_xyz
x,y,z
-x,-y,-z
loop_
_atom_site_type_symbol
_atom_site_label
_atom_site_fract_x
_atom_site_fract_y
_atom_site_fract_z
Si Si1 0.261995 0.356185 0.688375
Si Si2 0.230488 0.213619 0.442280
Si Si3 0.726571 0.268382 0.829906
Si Si4 0.651521 0.664206 0.937147
Si Si5 0.648536 0.462362 0.227470
Si Si6 0.872230 0.005141 0.264142
Si Si7 0.791593 0.874220 0.103846
Si Si8 0.857936 0.342597 0.429341
O O1 0.175954 0.502004 0.600466
O O2 0.542160 0.234057 0.503148
O O3 0.299464 0.203876 0.700470
O O4 0.000000 0.500000 0.000000
O O5 0.319107 0.215841 0.203696
O O6 0.169961 0.111087 0.592230
O O7 0.944616 0.438542 0.684271
O O8 0.491223 0.103494 0.285991
O O9 0.947491 0.211540 0.516724
O O10 0.905137 0.099772 0.827329
O O11 0.500000 0.500000 0.000000
O O12 0.583114 0.255955 0.922678
O O13 0.620798 0.617243 0.133464
O O14 0.500000 0.500000 0.500000
O O15 0.465438 0.512250 0.307319
O O16 0.973399 0.234600 0.006541
O O17 0.000000 0.000000 0.000000
O O18 0.958405 0.776503 0.836579
#
# Coordination Sequence:
#
# PCOD9026098 Si02
#       8
#     2   2   2   2   2   2   2   2
#     4   9  19  37  59  88 123 156 200 253 309 368
#     4  10  22  42  58  89 129 158 207 258 309 371
#     4  11  21  39  63  88 121 164 206 256 313 367
#     4  10  22  41  62  89 126 164 204 252 314 373
#     4   9  19  37  62  90 118 160 201 248 305 365
#     4  11  23  40  64  91 121 162 213 265 308 371
#     4   9  19  38  59  88 124 156 202 250 306 367
#     4   9  19  37  62  86 122 159 201 251 305 375
#
# _framework density 26.834434999999999
#
# number of rings (size 3 to 8) (size 9 to 14) (size 15 to 20)
#    0.000    2.250    1.250    0.750    1.750    2.500 
#    9.000   15.000    0.000    0.000    0.000    0.000 
#    0.000    0.000    0.000    0.000    0.000    0.000 
#
# Total GULP energy -89374.787235 kJ/mol
# GULP energy per Si atom -5585.924202 kJ/mol
# Density = 2.677336 g / cm^3
# Si number density = 26.834435 Si / 1000 Ang^3
#
#
#
# Elastic Constant Matrix: (Units=GPa)
#
#
# Indices 1 2 3 4 5 6 
#
# 1 66.8702 32.3237 45.1917 -15.6633 -2.1897 -25.0573
# 2 32.3237 139.2157 66.2892 -49.3676 -0.2510 -36.2510
# 3 45.1917 66.2892 145.8020 -31.9416 -11.4150 -26.9025
# 4 -15.6633 -49.3676 -31.9416 72.1021 -20.1874 -7.9179
# 5 -2.1897 -0.2510 -11.4150 -20.1874 36.6319 -2.3684
# 6 -25.0573 -36.2510 -26.9025 -7.9179 -2.3684 52.1292
#
#
#
# Elastic Compliance Matrix: (Units=1/GPa)
#
#
# Indices 1 2 3 4 5 6 
#
# 1 0.022913 0.002416 -0.003872 0.007704 0.005208 0.012103
# 2 0.002416 0.016712 -0.001479 0.015549 0.009324 0.014805
# 3 -0.003872 -0.001479 0.011120 0.005297 0.006398 0.003944
# 4 0.007704 0.015549 0.005297 0.038131 0.024794 0.024168
# 5 0.005208 0.009324 0.006398 0.024794 0.044500 0.018077
# 6 0.012103 0.014805 0.003944 0.024168 0.018077 0.041824
#
#
# Mechanical properties :
#
#
# Convention : Reuss Voigt Hill
#
# Bulk Modulus (GPa) = 22.28354 71.05521 46.66937
# Shear Modulus (GPa) = 25.50647 46.04485 35.77566
#
# Velocity S-wave (km/s) = 3.08638 4.14682 3.65526
# Velocity P-wave (km/s) = 4.58510 7.03312 5.93666
#
# Compressibility (1/GPa) = 0.04487617
#
# Stress axis : x y z
#
# Youngs Moduli (GPa) = 43.64286 59.83702 89.92528
#
# Poissons Ratio (x) = -0.14459 0.34820
# Poissons Ratio (y) = -0.10546 0.13301
# Poissons Ratio (z) = 0.16899 0.08850
#
# Static dielectric constant tensor:
#      x y z
#    x 2.189010 0.039310 0.017080 
#    y 0.039310 2.221630 0.017420 
#    z 0.017080 0.017420 2.151780 
# 
# From -- ./inp_files/466596.got.cif
#   From: 2010.05.17/outbox.cif.g08.bks.cpg/sg2_234_cif.got.tgz:466596.got - 2010.06.03 11:33:40.
