data_PCOD9026101
_publ_section_title
;
Structure prediction by ZEFSAII (Michael W. Deem and Ramdas Pophale) SiO2 
 PCOD9026101
Probable space group: P -1
;
_chemical_formula_sum "Si O2"
_cell_formula_units_Z 16
_cell_length_a 11.877124
_cell_length_b 9.013937
_cell_length_c 14.735240
_cell_angle_alpha 133.651529
_cell_angle_beta 140.118176
_cell_angle_gamma 68.352267
_cell_volume 686.535361
_symmetry_space_group_name_H-M "P -1"
_symmetry_group_IT_number 2
_symmetry_cell_setting 'triclinic'
loop_
_space_group_symop_operation_xyz
x,y,z
-x,-y,-z
loop_
_atom_site_type_symbol
_atom_site_label
_atom_site_fract_x
_atom_site_fract_y
_atom_site_fract_z
Si Si1 0.191812 0.084919 0.596875
Si Si2 0.287551 0.216366 0.238389
Si Si3 0.941072 0.554437 0.387987
Si Si4 0.065181 0.705612 0.894633
Si Si5 0.333059 0.668741 0.189773
Si Si6 0.375121 0.859999 0.490405
Si Si7 0.298956 0.934878 0.759881
Si Si8 0.355853 0.226270 0.072734
O O1 0.195480 0.304200 0.641214
O O2 0.215877 0.901361 0.468989
O O3 0.346816 0.109242 0.781308
O O4 0.000000 0.000000 0.500000
O O5 0.491309 0.253717 0.424573
O O6 0.293133 0.234608 0.140582
O O7 0.155991 0.341437 0.250454
O O8 0.172364 0.963355 0.082064
O O9 0.880334 0.356783 0.196823
O O10 0.000000 0.500000 0.500000
O O11 0.134926 0.718207 0.537211
O O12 0.154772 0.603175 0.985539
O O13 0.294512 0.735817 0.295597
O O14 0.397845 0.461822 0.153858
O O15 0.490186 0.889717 0.343405
O O16 0.465510 0.848589 0.845975
O O17 0.228370 0.041343 0.846742
#
# Coordination Sequence:
#
# PCOD9026101 Si02
#       8
#     2   2   2   2   2   2   2   2
#     4  10  22  41  62  89 131 169 208 269 317 383
#     4  10  22  41  67  89 134 165 215 274 310 385
#     4  11  24  39  66  93 126 171 213 261 322 388
#     4  10  23  43  62  97 126 170 215 262 326 378
#     4  10  24  40  66  96 130 168 217 270 320 386
#     4  10  22  43  64  96 128 173 216 265 328 376
#     4  10  23  40  59  93 131 166 215 258 318 388
#     4  11  22  39  63  94 127 169 213 266 319 372
#
# _framework density 23.305427000000002
#
# number of rings (size 3 to 8) (size 9 to 14) (size 15 to 20)
#    0.000    1.750    1.250    1.500    3.500    8.000 
#    0.000    1.875    0.000    0.000    0.000    0.000 
#    0.000    0.000    0.000    0.000    0.000    0.000 
#
# Total GULP energy -89329.939777 kJ/mol
# GULP energy per Si atom -5583.121236 kJ/mol
# Density = 2.325238 g / cm^3
# Si number density = 23.305427 Si / 1000 Ang^3
#
#
#
# Elastic Constant Matrix: (Units=GPa)
#
#
# Indices 1 2 3 4 5 6 
#
# 1 103.1584 49.7990 29.2786 -13.6231 -26.8323 -11.7489
# 2 49.7990 185.0307 27.0301 -36.7734 -14.8111 -8.4658
# 3 29.2786 27.0301 32.4516 -15.7318 -13.4512 -11.8348
# 4 -13.6231 -36.7734 -15.7318 27.4315 8.4398 -0.9998
# 5 -26.8323 -14.8111 -13.4512 8.4398 35.7117 0.9339
# 6 -11.7489 -8.4658 -11.8348 -0.9998 0.9339 31.7585
#
#
#
# Elastic Compliance Matrix: (Units=1/GPa)
#
#
# Indices 1 2 3 4 5 6 
#
# 1 0.015486 -0.002898 -0.010256 -0.004381 0.007586 0.000774
# 2 -0.002898 0.008101 0.001308 0.010505 -0.000858 0.001931
# 3 -0.010256 0.001308 0.067157 0.032988 0.009752 0.022333
# 4 -0.004381 0.010505 0.032988 0.068834 -0.003189 0.015733
# 5 0.007586 -0.000858 0.009752 -0.003189 0.037642 0.005005
# 6 0.000774 0.001931 0.022333 0.015733 0.005005 0.040959
#
#
# Mechanical properties :
#
#
# Convention : Reuss Voigt Hill
#
# Bulk Modulus (GPa) = 14.91345 59.20623 37.05984
# Shear Modulus (GPa) = 17.59193 33.28253 25.43723
#
# Velocity S-wave (km/s) = 2.75042 3.78312 3.30733
# Velocity P-wave (km/s) = 4.06195 6.67400 5.52457
#
# Compressibility (1/GPa) = 0.06705356
#
# Stress axis : x y z
#
# Youngs Moduli (GPa) = 64.57320 123.44504 14.89045
#
# Poissons Ratio (x) = 0.35773 0.15271
# Poissons Ratio (y) = 0.18713 -0.01948
# Poissons Ratio (z) = 0.66224 -0.16149
#
# Static dielectric constant tensor:
#      x y z
#    x 1.905250 0.058090 -0.001550 
#    y 0.058090 2.005400 -0.057740 
#    z -0.001550 -0.057740 1.964570 
# 
# From -- ./inp_files/516314.got.cif
#   From: 2010.05.17/outbox.cif.g08.bks.cpg/sg2_259_cif.got.tgz:516314.got - 2010.06.03 11:33:40.
