data_PCOD9026981
_publ_section_title
;
Structure prediction by ZEFSAII (Michael W. Deem and Ramdas Pophale) SiO2 
 PCOD9026981
Probable space group: P -1
;
_chemical_formula_sum "Si O2"
_cell_formula_units_Z 16
_cell_length_a 11.719606
_cell_length_b 17.200797
_cell_length_c 13.638750
_cell_angle_alpha 158.420509
_cell_angle_beta 49.825674
_cell_angle_gamma 129.675594
_cell_volume 765.343698
_symmetry_space_group_name_H-M "P -1"
_symmetry_group_IT_number 2
_symmetry_cell_setting 'triclinic'
loop_
_space_group_symop_operation_xyz
x,y,z
-x,-y,-z
loop_
_atom_site_type_symbol
_atom_site_label
_atom_site_fract_x
_atom_site_fract_y
_atom_site_fract_z
Si Si1 0.881691 0.955836 0.376289
Si Si2 0.322625 0.435063 0.020260
Si Si3 0.089870 0.687411 0.363269
Si Si4 0.415555 0.710889 0.799402
Si Si5 0.180283 0.481464 0.363676
Si Si6 0.109075 0.171728 0.204225
Si Si7 0.895720 0.297584 0.941903
Si Si8 0.668049 0.092091 0.131533
O O1 0.884122 0.138681 0.670762
O O2 0.893282 0.075718 0.408141
O O3 0.022639 0.829090 0.168460
O O4 0.732490 0.785311 0.263903
O O5 0.236204 0.409085 0.142644
O O6 0.248520 0.616727 0.217703
O O7 0.500000 0.500000 0.000000
O O8 0.989147 0.678324 0.505762
O O9 0.004067 0.520798 0.138466
O O10 0.500000 0.500000 0.500000
O O11 0.360308 0.795032 0.823808
O O12 0.267638 0.657044 0.883344
O O13 0.521480 0.918111 0.026429
O O14 0.210710 0.316222 0.238855
O O15 0.279923 0.710387 0.594138
O O16 0.000000 0.500000 0.500000
O O17 0.199502 0.054078 0.096726
O O18 0.000000 0.000000 0.000000
#
# Coordination Sequence:
#
# PCOD9026981 Si02
#       8
#     2   2   2   2   2   2   2   2
#     4  10  23  42  67  93 125 175 224 271 323 393
#     4  11  26  44  63  96 137 172 215 274 335 396
#     4  11  21  40  67  96 127 170 223 273 323 388
#     4  11  24  43  63  98 139 175 213 280 340 400
#     4  12  23  42  68  99 130 170 226 274 327 403
#     4  12  22  39  69 100 133 171 224 277 327 392
#     4  10  22  41  66  93 128 167 228 267 326 394
#     4  11  24  40  65  99 134 173 219 273 341 389
#
# _framework density 20.905639000000001
#
# number of rings (size 3 to 8) (size 9 to 14) (size 15 to 20)
#    0.000    1.000    2.500    4.125    3.500    1.500 
#    4.500    0.000    0.000    0.000    0.000    0.000 
#    0.000    0.000    0.000    0.000    0.000    0.000 
#
# Total GULP energy -89318.811383 kJ/mol
# GULP energy per Si atom -5582.425711 kJ/mol
# Density = 2.085806 g / cm^3
# Si number density = 20.905639 Si / 1000 Ang^3
#
#
#
# Elastic Constant Matrix: (Units=GPa)
#
#
# Indices 1 2 3 4 5 6 
#
# 1 112.3562 45.7849 46.5730 1.8618 -2.8642 23.0855
# 2 45.7849 68.5761 33.2538 8.3837 -19.1480 6.6350
# 3 46.5730 33.2538 107.8478 11.0123 1.4918 14.1154
# 4 1.8618 8.3837 11.0123 31.6500 -0.5606 -5.9095
# 5 -2.8642 -19.1480 1.4918 -0.5606 40.1454 5.3214
# 6 23.0855 6.6350 14.1154 -5.9095 5.3214 32.4179
#
#
#
# Elastic Compliance Matrix: (Units=1/GPa)
#
#
# Indices 1 2 3 4 5 6 
#
# 1 0.015031 -0.008563 -0.002999 0.001061 -0.001940 -0.007134
# 2 -0.008563 0.026243 -0.004006 -0.004916 0.012040 -0.000402
# 3 -0.002999 -0.004006 0.012583 -0.003708 -0.002269 -0.002827
# 4 0.001061 -0.004916 -0.003708 0.035726 -0.002804 0.008838
# 5 -0.001940 0.012040 -0.002269 -0.002804 0.031321 -0.005747
# 6 -0.007134 -0.000402 -0.002827 0.008838 -0.005747 0.039795
#
#
# Mechanical properties :
#
#
# Convention : Reuss Voigt Hill
#
# Bulk Modulus (GPa) = 44.00966 60.00038 52.00502
# Shear Modulus (GPa) = 25.07417 31.72055 28.39736
#
# Velocity S-wave (km/s) = 3.46699 3.89951 3.68959
# Velocity P-wave (km/s) = 6.09294 7.00269 6.56360
#
# Compressibility (1/GPa) = 0.02272228
#
# Stress axis : x y z
#
# Youngs Moduli (GPa) = 66.52784 38.10470 79.47476
#
# Poissons Ratio (x) = 0.32628 0.23832
# Poissons Ratio (y) = 0.56965 0.31840
# Poissons Ratio (z) = 0.19950 0.15266
#
# Static dielectric constant tensor:
#      x y z
#    x 1.788660 -0.034970 0.011030 
#    y -0.034970 1.771140 0.011770 
#    z 0.011030 0.011770 1.759230 
# 
# From -- ./inp_files/523354.got.cif
#   From: 2010.05.17/outbox.cif.g08.bks.cpg/sg2_262_cif.got.tgz:523354.got - 2010.06.03 11:33:40.
