data_PCOD9026078
_publ_section_title
;
Structure prediction by ZEFSAII (Michael W. Deem and Ramdas Pophale) SiO2 
 PCOD9026078
Probable space group: P -1
;
_chemical_formula_sum "Si O2"
_cell_formula_units_Z 14
_cell_length_a 8.462507
_cell_length_b 12.926376
_cell_length_c 10.043051
_cell_angle_alpha 52.021991
_cell_angle_beta 135.148064
_cell_angle_gamma 99.785827
_cell_volume 536.131570
_symmetry_space_group_name_H-M "P -1"
_symmetry_group_IT_number 2
_symmetry_cell_setting 'triclinic'
loop_
_space_group_symop_operation_xyz
x,y,z
-x,-y,-z
loop_
_atom_site_type_symbol
_atom_site_label
_atom_site_fract_x
_atom_site_fract_y
_atom_site_fract_z
Si Si1 0.387329 0.658666 0.028172
Si Si2 0.946597 0.902591 0.879615
Si Si3 0.121750 0.364115 0.575096
Si Si4 0.420294 0.620504 0.476292
Si Si5 0.095559 0.357868 0.262297
Si Si6 0.730602 0.955852 0.993685
Si Si7 0.264221 0.953740 0.622873
O O1 0.090801 0.709243 0.839295
O O2 0.383086 0.771578 0.819439
O O3 0.577076 0.685351 0.216626
O O4 0.521262 0.477105 0.273858
O O5 0.130510 0.733970 0.172136
O O6 0.148186 0.960823 0.918977
O O7 0.786642 0.976359 0.857647
O O8 0.762666 0.960651 0.598277
O O9 0.000000 0.500000 0.500000
O O10 0.016479 0.402011 0.333770
O O11 0.112455 0.218637 0.735267
O O12 0.500000 0.500000 0.500000
O O13 0.599609 0.700785 0.519893
O O14 0.000000 0.500000 0.000000
O O15 0.438465 0.993582 0.792942
O O16 0.000000 0.000000 0.500000
#
# Coordination Sequence:
#
# PCOD9026078 Si02
#       7
#     2   2   2   2   2   2   2
#     4  10  22  41  61  98 132 170 222 282 337 402
#     4  11  24  45  69  95 139 179 225 280 338 411
#     4  11  22  42  69  95 138 181 227 283 344 409
#     4  11  21  40  68  97 132 174 228 280 344 396
#     4  10  23  39  63  98 135 170 226 284 337 405
#     4  10  25  44  66  99 135 183 223 273 348 412
#     4  11  24  41  68  98 135 175 226 280 335 407
#
# _framework density 26.112992999999999
#
# number of rings (size 3 to 8) (size 9 to 14) (size 15 to 20)
#    0.000    1.429    1.429    3.000    4.000    1.143 
#    2.571   11.429    0.000    0.000    0.000    0.000 
#    0.000    0.000    0.000    0.000    0.000    0.000 
#
# Total GULP energy -78030.707005 kJ/mol
# GULP energy per Si atom -5573.621929 kJ/mol
# Density = 2.605356 g / cm^3
# Si number density = 26.112993 Si / 1000 Ang^3
#
#
#
# Elastic Constant Matrix: (Units=GPa)
#
#
# Indices 1 2 3 4 5 6 
#
# 1 83.9417 18.6685 34.2562 0.8853 -14.7501 4.7645
# 2 18.6685 77.5650 27.7603 -7.8325 1.1625 28.3496
# 3 34.2562 27.7603 136.0419 4.0050 -21.6751 -3.1592
# 4 0.8853 -7.8325 4.0050 41.3623 12.3929 2.8082
# 5 -14.7501 1.1625 -21.6751 12.3929 51.6074 6.6570
# 6 4.7645 28.3496 -3.1592 2.8082 6.6570 43.6365
#
#
#
# Elastic Compliance Matrix: (Units=1/GPa)
#
#
# Indices 1 2 3 4 5 6 
#
# 1 0.014142 -0.002560 -0.002444 -0.001570 0.003514 -0.000493
# 2 -0.002560 0.020724 -0.004533 0.006187 -0.002850 -0.013476
# 3 -0.002444 -0.004533 0.009662 -0.003106 0.003751 0.003539
# 4 -0.001570 0.006187 -0.003106 0.028432 -0.008119 -0.004664
# 5 0.003514 -0.002850 0.003751 -0.008119 0.024154 -0.001423
# 6 -0.000493 -0.013476 0.003539 -0.004664 -0.001423 0.032499
#
#
# Mechanical properties :
#
#
# Convention : Reuss Voigt Hill
#
# Bulk Modulus (GPa) = 39.28776 50.99097 45.13936
# Shear Modulus (GPa) = 31.81232 41.77882 36.79557
#
# Velocity S-wave (km/s) = 3.49414 4.00425 3.75786
# Velocity P-wave (km/s) = 5.59970 6.39907 6.01268
#
# Compressibility (1/GPa) = 0.02545322
#
# Stress axis : x y z
#
# Youngs Moduli (GPa) = 70.71285 48.25344 103.49363
#
# Poissons Ratio (x) = 0.12353 0.25293
# Poissons Ratio (y) = 0.18103 0.46918
# Poissons Ratio (z) = 0.17282 0.21875
#
# Static dielectric constant tensor:
#      x y z
#    x 2.061000 0.037910 0.029620 
#    y 0.037910 2.074010 -0.042020 
#    z 0.029620 -0.042020 2.151750 
# 
# From -- ./inp_files/402899.got.cif
#   From: 2010.05.17/outbox.cif.g08.bks.cpg/sg2_202_cif.got.tgz:402899.got - 2010.06.03 11:33:40.
