data_PCOD9026406
_publ_section_title
;
Structure prediction by ZEFSAII (Michael W. Deem and Ramdas Pophale) SiO2 
 PCOD9026406
Probable space group: P -1
;
_chemical_formula_sum "Si O2"
_cell_formula_units_Z 14
_cell_length_a 13.862542
_cell_length_b 7.994371
_cell_length_c 12.152462
_cell_angle_alpha 43.055720
_cell_angle_beta 140.799437
_cell_angle_gamma 116.192510
_cell_volume 556.267667
_symmetry_space_group_name_H-M "P -1"
_symmetry_group_IT_number 2
_symmetry_cell_setting 'triclinic'
loop_
_space_group_symop_operation_xyz
x,y,z
-x,-y,-z
loop_
_atom_site_type_symbol
_atom_site_label
_atom_site_fract_x
_atom_site_fract_y
_atom_site_fract_z
Si Si1 0.882419 0.970326 0.546528
Si Si2 0.477046 0.485917 0.209462
Si Si3 0.607090 0.004352 0.424894
Si Si4 0.568847 0.895424 0.992025
Si Si5 0.934936 0.633132 0.491256
Si Si6 0.216179 0.498167 0.392501
Si Si7 0.210626 0.576824 0.096793
O O1 0.752415 0.104180 0.459046
O O2 0.786701 0.800438 0.479134
O O3 0.956309 0.186775 0.461823
O O4 0.032586 0.737980 0.831609
O O5 0.500464 0.650071 0.046549
O O6 0.326923 0.637442 0.078145
O O7 0.496026 0.205701 0.312606
O O8 0.493906 0.958875 0.246837
O O9 0.713272 0.731156 0.695869
O O10 0.628793 0.464475 0.431663
O O11 0.758149 0.802231 0.217674
O O12 0.500000 0.000000 0.000000
O O13 0.922796 0.430243 0.672693
O O14 0.000000 0.500000 0.500000
O O15 0.210800 0.615846 0.210286
#
# Coordination Sequence:
#
# PCOD9026406 Si02
#       7
#     2   2   2   2   2   2   2
#     4  11  23  42  65  93 128 169 212 261 320 386
#     4  11  23  41  65  95 127 166 214 268 321 376
#     4  11  23  43  64  95 133 166 211 271 320 375
#     4  11  23  42  67  97 126 167 216 262 318 389
#     4  11  24  43  67  98 127 162 212 270 326 376
#     4  10  22  41  64  90 126 167 211 258 314 383
#     4  11  24  42  64  92 127 175 218 260 317 383
#
# _framework density 25.167739999999998
#
# number of rings (size 3 to 8) (size 9 to 14) (size 15 to 20)
#    0.000    1.143    0.000    9.429    0.000    3.429 
#    0.000    7.857    0.000    0.000    0.000    0.000 
#    0.000    0.000    0.000    0.000    0.000    0.000 
#
# Total GULP energy -78074.948969 kJ/mol
# GULP energy per Si atom -5576.782069 kJ/mol
# Density = 2.511046 g / cm^3
# Si number density = 25.167740 Si / 1000 Ang^3
#
#
#
# Elastic Constant Matrix: (Units=GPa)
#
#
# Indices 1 2 3 4 5 6 
#
# 1 119.0163 27.8360 29.9554 9.3296 28.7418 -25.8267
# 2 27.8360 104.0061 31.3104 15.7231 3.8804 -33.6690
# 3 29.9554 31.3104 102.5720 10.8980 7.8871 -15.6363
# 4 9.3296 15.7231 10.8980 33.1736 -0.1580 7.6379
# 5 28.7418 3.8804 7.8871 -0.1580 29.8901 -11.4788
# 6 -25.8267 -33.6690 -15.6363 7.6379 -11.4788 41.0882
#
#
#
# Elastic Compliance Matrix: (Units=1/GPa)
#
#
# Indices 1 2 3 4 5 6 
#
# 1 0.012681 -0.000213 -0.001650 -0.004172 -0.009748 0.005221
# 2 -0.000213 0.017132 -0.001798 -0.011281 0.004792 0.016656
# 3 -0.001650 -0.001798 0.011477 -0.002990 -0.000334 0.002320
# 4 -0.004172 -0.011281 -0.002990 0.042566 -0.001728 -0.021400
# 5 -0.009748 0.004792 -0.000334 -0.001728 0.046505 0.010986
# 6 0.005221 0.016656 0.002320 -0.021400 0.010986 0.049198
#
#
# Mechanical properties :
#
#
# Convention : Reuss Voigt Hill
#
# Bulk Modulus (GPa) = 29.43894 55.97756 42.70825
# Shear Modulus (GPa) = 25.22665 36.59655 30.91160
#
# Velocity S-wave (km/s) = 3.16941 3.81741 3.50840
# Velocity P-wave (km/s) = 5.01159 6.45912 5.78084
#
# Compressibility (1/GPa) = 0.03396861
#
# Stress axis : x y z
#
# Youngs Moduli (GPa) = 78.85561 58.37156 87.13189
#
# Poissons Ratio (x) = 0.01242 0.14375
# Poissons Ratio (y) = 0.01677 0.15668
# Poissons Ratio (z) = 0.13010 0.10496
#
# Static dielectric constant tensor:
#      x y z
#    x 2.214180 0.023080 -0.076560 
#    y 0.023080 2.114200 -0.061900 
#    z -0.076560 -0.061900 2.036120 
# 
# From -- ./inp_files/418958.got.cif
#   From: 2010.05.17/outbox.cif.g08.bks.cpg/sg2_210_cif.got.tgz:418958.got - 2010.06.03 11:33:40.
