data_PCOD9026770
_publ_section_title
;
Structure prediction by ZEFSAII (Michael W. Deem and Ramdas Pophale) SiO2 
 PCOD9026770
Probable space group: P -1
;
_chemical_formula_sum "Si O2"
_cell_formula_units_Z 16
_cell_length_a 5.149317
_cell_length_b 10.376383
_cell_length_c 25.033660
_cell_angle_alpha 29.193239
_cell_angle_beta 63.273105
_cell_angle_gamma 64.058317
_cell_volume 579.614805
_symmetry_space_group_name_H-M "P -1"
_symmetry_group_IT_number 2
_symmetry_cell_setting 'triclinic'
loop_
_space_group_symop_operation_xyz
x,y,z
-x,-y,-z
loop_
_atom_site_type_symbol
_atom_site_label
_atom_site_fract_x
_atom_site_fract_y
_atom_site_fract_z
Si Si1 0.066227 0.790486 0.413503
Si Si2 0.155970 0.502198 0.243621
Si Si3 0.179419 0.657842 0.038148
Si Si4 0.709440 0.258629 0.696540
Si Si5 0.416892 0.138916 0.868445
Si Si6 0.853478 0.393882 0.413066
Si Si7 0.770484 0.283721 0.100167
Si Si8 0.708193 0.252021 0.233599
O O1 0.271621 0.869648 0.317526
O O2 0.000000 0.500000 0.500000
O O3 0.180717 0.775506 0.468600
O O4 0.801586 0.020401 0.350854
O O5 0.358757 0.723815 0.165308
O O6 0.066767 0.327204 0.366542
O O7 0.366338 0.338832 0.241289
O O8 0.855258 0.643107 0.197631
O O9 0.145470 0.834750 0.922694
O O10 0.290308 0.865269 0.995098
O O11 0.446903 0.438463 0.079211
O O12 0.896812 0.505556 0.130102
O O13 0.596046 0.081795 0.817409
O O14 0.983775 0.376175 0.655972
O O15 0.458078 0.504206 0.620189
O O16 0.797894 0.142758 0.205867
O O17 0.000000 0.500000 0.000000
#
# Coordination Sequence:
#
# PCOD9026770 Si02
#       8
#     2   2   2   2   2   2   2   2
#     4  10  22  41  65  96 125 168 221 278 336 390
#     4  10  24  43  65  98 134 180 222 265 318 395
#     4  10  23  41  64  98 130 176 216 272 332 387
#     4   9  19  36  63  93 124 158 217 270 319 380
#     4  10  23  41  69  94 134 180 222 262 321 395
#     4   9  19  41  61  91 125 166 214 266 321 377
#     4   9  22  41  62  94 136 169 213 273 339 385
#     4  11  25  42  63  95 136 172 219 274 328 392
#
# _framework density 27.604536
#
# number of rings (size 3 to 8) (size 9 to 14) (size 15 to 20)
#    0.000    2.250    0.000    0.375   10.500    5.500 
#    4.500    0.000    0.000    9.000    0.000    0.000 
#    0.000    0.000    0.000    0.000    0.000    0.000 
#
# Total GULP energy -89444.666689 kJ/mol
# GULP energy per Si atom -5590.291668 kJ/mol
# Density = 2.754171 g / cm^3
# Si number density = 27.604536 Si / 1000 Ang^3
#
#
#
# Elastic Constant Matrix: (Units=GPa)
#
#
# Indices 1 2 3 4 5 6 
#
# 1 103.7795 16.1231 28.5613 -1.4645 -1.6552 -0.6364
# 2 16.1231 109.9341 48.6316 40.8514 -2.4018 -16.2746
# 3 28.5613 48.6316 94.1371 10.4569 15.1010 14.5895
# 4 -1.4645 40.8514 10.4569 41.4565 7.7596 2.9311
# 5 -1.6552 -2.4018 15.1010 7.7596 52.0057 -4.5277
# 6 -0.6364 -16.2746 14.5895 2.9311 -4.5277 48.8785
#
#
#
# Elastic Compliance Matrix: (Units=1/GPa)
#
#
# Indices 1 2 3 4 5 6 
#
# 1 0.010726 -0.000087 -0.003749 0.001060 0.001381 0.001294
# 2 -0.000087 0.030881 -0.017501 -0.029670 0.012538 0.018445
# 3 -0.003749 -0.017501 0.023268 0.014363 -0.011108 -0.014711
# 4 0.001060 -0.029670 0.014363 0.053945 -0.015192 -0.018795
# 5 0.001381 0.012538 -0.011108 -0.015192 0.026289 0.010854
# 6 0.001294 0.018445 -0.014711 -0.018795 0.010854 0.033141
#
#
# Mechanical properties :
#
#
# Convention : Reuss Voigt Hill
#
# Bulk Modulus (GPa) = 45.04403 54.94252 49.99328
# Shear Modulus (GPa) = 21.89867 42.77048 32.33457
#
# Velocity S-wave (km/s) = 2.81961 3.94051 3.42621
# Velocity P-wave (km/s) = 5.19166 6.37575 5.81393
#
# Compressibility (1/GPa) = 0.02220050
#
# Stress axis : x y z
#
# Youngs Moduli (GPa) = 93.23096 32.38243 42.97779
#
# Poissons Ratio (x) = 0.00281 0.16114
# Poissons Ratio (y) = 0.00809 0.75216
# Poissons Ratio (z) = 0.34955 0.56673
#
# Static dielectric constant tensor:
#      x y z
#    x 2.206980 0.013420 0.037770 
#    y 0.013420 2.171850 0.066950 
#    z 0.037770 0.066950 2.244360 
# 
# From -- ./inp_files/94773.got.cif
#   From: 2010.05.17/outbox.cif.g08.bks.cpg/sg2_48_cif.got.tgz:94773.got - 2010.06.03 11:33:40.
