data_PCOD9026063
_publ_section_title
;
Structure prediction by ZEFSAII (Michael W. Deem and Ramdas Pophale) SiO2 
 PCOD9026063
Probable space group: P -1
;
_chemical_formula_sum "Si O2"
_cell_formula_units_Z 14
_cell_length_a 4.981793
_cell_length_b 18.118802
_cell_length_c 8.525357
_cell_angle_alpha 129.835967
_cell_angle_beta 86.162717
_cell_angle_gamma 98.425947
_cell_volume 584.164762
_symmetry_space_group_name_H-M "P -1"
_symmetry_group_IT_number 2
_symmetry_cell_setting 'triclinic'
loop_
_space_group_symop_operation_xyz
x,y,z
-x,-y,-z
loop_
_atom_site_type_symbol
_atom_site_label
_atom_site_fract_x
_atom_site_fract_y
_atom_site_fract_z
Si Si1 0.445117 0.782856 0.859523
Si Si2 0.772396 0.508220 0.148753
Si Si3 0.336867 0.302997 0.719153
Si Si4 0.266537 0.012375 0.902593
Si Si5 0.808861 0.195891 0.445041
Si Si6 0.911719 0.328608 0.040850
Si Si7 0.731197 0.590326 0.580755
O O1 0.277127 0.793769 0.720091
O O2 0.251455 0.762421 0.989788
O O3 0.590451 0.687290 0.704273
O O4 0.656544 0.878944 0.013603
O O5 0.587551 0.585138 0.190652
O O6 0.711095 0.397773 0.062595
O O7 0.875160 0.567043 0.382080
O O8 0.000000 0.500000 0.000000
O O9 0.602570 0.250575 0.628997
O O10 0.116935 0.242119 0.527666
O O11 0.147324 0.305283 0.882956
O O12 0.236212 0.918180 0.665400
O O13 0.500000 0.000000 0.000000
O O14 0.000000 0.000000 0.000000
O O15 0.061621 0.392096 0.261577
O O16 0.500000 0.500000 0.500000
#
# Coordination Sequence:
#
# PCOD9026063 Si02
#       7
#     2   2   2   2   2   2   2
#     4  11  24  41  69  99 136 176 230 291 341 406
#     4  10  22  41  61  96 131 177 224 275 331 403
#     4  11  25  43  69  97 141 183 228 281 340 405
#     4  10  23  42  70 105 134 173 230 289 346 405
#     4  11  23  44  70  99 131 179 235 285 339 406
#     4  11  26  42  63 100 140 184 229 280 344 411
#     4  12  24  40  68  98 136 178 230 280 343 411
#
# _framework density 23.965838999999999
#
# number of rings (size 3 to 8) (size 9 to 14) (size 15 to 20)
#    0.000    1.143    2.857    3.000    8.000    0.000 
#    0.000    5.000    0.000    0.000    0.000    0.000 
#    0.000    0.000    0.000    0.000    0.000    0.000 
#
# Total GULP energy -78356.020858 kJ/mol
# GULP energy per Si atom -5596.858633 kJ/mol
# Density = 2.391129 g / cm^3
# Si number density = 23.965839 Si / 1000 Ang^3
#
#
#
# Elastic Constant Matrix: (Units=GPa)
#
#
# Indices 1 2 3 4 5 6 
#
# 1 104.3576 28.2049 13.3445 14.7405 -4.1395 12.4243
# 2 28.2049 152.9962 53.7419 26.5770 5.0791 25.2391
# 3 13.3445 53.7419 116.7925 17.2610 -9.2579 3.7696
# 4 14.7405 26.5770 17.2610 61.9117 1.1589 6.2054
# 5 -4.1395 5.0791 -9.2579 1.1589 34.1431 8.2502
# 6 12.4243 25.2391 3.7696 6.2054 8.2502 35.4790
#
#
#
# Elastic Compliance Matrix: (Units=1/GPa)
#
#
# Indices 1 2 3 4 5 6 
#
# 1 0.010616 -0.001174 -0.000143 -0.001716 0.002227 -0.003085
# 2 -0.001174 0.009347 -0.003782 -0.002137 -0.001235 -0.005175
# 3 -0.000143 -0.003782 0.010765 -0.001515 0.003248 0.001107
# 4 -0.001716 -0.002137 -0.001515 0.017983 -0.000745 -0.000690
# 5 0.002227 -0.001235 0.003248 -0.000745 0.032502 -0.007674
# 6 -0.003085 -0.005175 0.001107 -0.000690 -0.007674 0.034735
#
#
# Mechanical properties :
#
#
# Convention : Reuss Voigt Hill
#
# Bulk Modulus (GPa) = 48.70953 62.74763 55.72858
# Shear Modulus (GPa) = 37.59697 44.89710 41.24703
#
# Velocity S-wave (km/s) = 3.96507 4.33295 4.15309
# Velocity P-wave (km/s) = 6.42892 7.16042 6.80451
#
# Compressibility (1/GPa) = 0.02052986
#
# Stress axis : x y z
#
# Youngs Moduli (GPa) = 94.19765 106.98787 92.89792
#
# Poissons Ratio (x) = 0.12556 0.01330
# Poissons Ratio (y) = 0.11055 0.35133
# Poissons Ratio (z) = 0.01349 0.40462
#
# Static dielectric constant tensor:
#      x y z
#    x 1.934600 -0.035920 0.044830 
#    y -0.035920 1.965530 0.001990 
#    z 0.044830 0.001990 1.965150 
# 
# From -- ./inp_files/133113.got.cif
#   From: 2010.05.17/outbox.cif.g08.bks.cpg/sg2_67_cif.got.tgz:133113.got - 2010.06.03 11:33:40.
