data_PCOD9026247
_publ_section_title
;
Structure prediction by ZEFSAII (Michael W. Deem and Ramdas Pophale) SiO2 
 PCOD9026247
Probable space group: P -1
;
_chemical_formula_sum "Si O2"
_cell_formula_units_Z 14
_cell_length_a 7.677569
_cell_length_b 12.368973
_cell_length_c 7.338597
_cell_angle_alpha 86.377944
_cell_angle_beta 55.851775
_cell_angle_gamma 84.291519
_cell_volume 573.863149
_symmetry_space_group_name_H-M "P -1"
_symmetry_group_IT_number 2
_symmetry_cell_setting 'triclinic'
loop_
_space_group_symop_operation_xyz
x,y,z
-x,-y,-z
loop_
_atom_site_type_symbol
_atom_site_label
_atom_site_fract_x
_atom_site_fract_y
_atom_site_fract_z
Si Si1 0.922840 0.389841 0.980331
Si Si2 0.221088 0.190694 0.418064
Si Si3 0.629302 0.365540 0.465012
Si Si4 0.137675 0.866942 0.624972
Si Si5 0.215758 0.417427 0.524535
Si Si6 0.098544 0.151431 0.898732
Si Si7 0.513308 0.003154 0.775076
O O1 0.699513 0.383961 0.210245
O O2 0.051809 0.277550 0.975671
O O3 0.000000 0.500000 0.000000
O O4 0.976089 0.407977 0.735932
O O5 0.244539 0.319909 0.373574
O O6 0.085407 0.148429 0.337805
O O7 0.448695 0.122498 0.299021
O O8 0.093419 0.165318 0.681449
O O9 0.726483 0.247312 0.467512
O O10 0.378338 0.375161 0.596505
O O11 0.722910 0.458315 0.525651
O O12 0.274726 0.950724 0.433799
O O13 0.078406 0.898934 0.865125
O O14 0.320359 0.085252 0.814850
O O15 0.500000 0.000000 0.000000
#
# Coordination Sequence:
#
# PCOD9026247 Si02
#       7
#     2   2   2   2   2   2   2
#     4   8  15  31  56  87 117 149 193 242 299 357
#     4  11  23  41  64  93 126 162 211 256 304 377
#     4   9  18  35  64  87 125 162 196 255 311 365
#     4  11  23  42  63  92 125 163 208 260 315 361
#     4   9  18  36  59  93 122 160 205 248 306 370
#     4  10  22  41  63  91 121 165 204 257 309 363
#     4  12  25  45  63  87 129 171 205 263 311 361
#
# _framework density 24.396058
#
# number of rings (size 3 to 8) (size 9 to 14) (size 15 to 20)
#    0.000    2.000    1.429    2.571    0.000    1.143 
#   10.286    0.000    0.000    0.857    0.000    0.000 
#    0.000    0.000    0.000    0.000    0.000    0.000 
#
# Total GULP energy -78030.581148 kJ/mol
# GULP energy per Si atom -5573.612939 kJ/mol
# Density = 2.434053 g / cm^3
# Si number density = 24.396058 Si / 1000 Ang^3
#
#
#
# Elastic Constant Matrix: (Units=GPa)
#
#
# Indices 1 2 3 4 5 6 
#
# 1 63.6023 20.0255 14.7625 3.4362 -7.6811 -4.8285
# 2 20.0255 127.5674 17.4943 40.0267 -3.2052 10.0601
# 3 14.7625 17.4943 105.6951 7.9208 -8.7991 15.6204
# 4 3.4362 40.0267 7.9208 39.3709 0.0090 -10.9773
# 5 -7.6811 -3.2052 -8.7991 0.0090 27.3478 -2.1161
# 6 -4.8285 10.0601 15.6204 -10.9773 -2.1161 25.9475
#
#
#
# Elastic Compliance Matrix: (Units=1/GPa)
#
#
# Indices 1 2 3 4 5 6 
#
# 1 0.019571 -0.006180 -0.003836 0.008815 0.004498 0.012443
# 2 -0.006180 0.016985 0.002474 -0.022456 -0.000393 -0.018757
# 3 -0.003836 0.002474 0.012179 -0.008041 0.002188 -0.012228
# 4 0.008815 -0.022456 -0.008041 0.060452 0.000394 0.040794
# 5 0.004498 -0.000393 0.002188 0.000394 0.038719 0.002997
# 6 0.012443 -0.018757 -0.012228 0.040794 0.002997 0.072991
#
#
# Mechanical properties :
#
#
# Convention : Reuss Voigt Hill
#
# Bulk Modulus (GPa) = 29.71647 44.60327 37.15987
# Shear Modulus (GPa) = 20.22667 34.83876 27.53272
#
# Velocity S-wave (km/s) = 2.88253 3.78305 3.36307
# Velocity P-wave (km/s) = 4.82555 6.11594 5.50866
#
# Compressibility (1/GPa) = 0.03365137
#
# Stress axis : x y z
#
# Youngs Moduli (GPa) = 51.09725 58.87431 82.10673
#
# Poissons Ratio (x) = 0.36387 0.31493
# Poissons Ratio (y) = 0.31580 -0.20314
# Poissons Ratio (z) = 0.19599 -0.14566
#
# Static dielectric constant tensor:
#      x y z
#    x 1.907230 0.016690 0.007620 
#    y 0.016690 2.012940 0.011950 
#    z 0.007620 0.011950 2.004910 
# 
# From -- ./inp_files/186337.got.cif
#   From: 2010.05.17/outbox.cif.g08.bks.cpg/sg2_94_cif.got.tgz:186337.got - 2010.06.03 11:33:40.
