data_PCOD9026952
_publ_section_title
;
Structure prediction by ZEFSAII (Michael W. Deem and Ramdas Pophale) SiO2 
 PCOD9026952
Probable space group: P -1
;
_chemical_formula_sum "Si O2"
_cell_formula_units_Z 14
_cell_length_a 9.457213
_cell_length_b 8.381199
_cell_length_c 21.056419
_cell_angle_alpha 29.051805
_cell_angle_beta 54.219400
_cell_angle_gamma 50.991176
_cell_volume 627.140399
_symmetry_space_group_name_H-M "P -1"
_symmetry_group_IT_number 2
_symmetry_cell_setting 'triclinic'
loop_
_space_group_symop_operation_xyz
x,y,z
-x,-y,-z
loop_
_atom_site_type_symbol
_atom_site_label
_atom_site_fract_x
_atom_site_fract_y
_atom_site_fract_z
Si Si1 0.113351 0.418644 0.332106
Si Si2 0.453293 0.718059 0.502441
Si Si3 0.329640 0.450117 0.757049
Si Si4 0.344111 0.661226 0.033816
Si Si5 0.932819 0.716280 0.751991
Si Si6 0.584780 0.309551 0.854730
Si Si7 0.151215 0.524752 0.501570
O O1 0.035603 0.397174 0.290265
O O2 0.204279 0.730554 0.205145
O O3 0.953054 0.448926 0.413348
O O4 0.285646 0.070691 0.416909
O O5 0.500000 0.500000 0.500000
O O6 0.396161 0.523825 0.644630
O O7 0.652118 0.755961 0.454523
O O8 0.469594 0.476847 0.765546
O O9 0.126507 0.695099 0.737977
O O10 0.306570 0.068714 0.899941
O O11 0.500000 0.500000 0.000000
O O12 0.171193 0.536520 0.104997
O O13 0.415622 0.521809 0.134157
O O14 0.811246 0.110610 0.648172
O O15 0.500000 0.000000 0.000000
O O16 0.000000 0.500000 0.500000
#
# Coordination Sequence:
#
# PCOD9026952 Si02
#       7
#     2   2   2   2   2   2   2
#     4  11  23  44  65  91 135 171 213 266 320 385
#     4  12  24  40  69  97 130 173 218 262 324 386
#     4  11  22  40  66  94 127 172 212 265 331 375
#     4  10  22  41  66  92 123 169 222 264 314 390
#     4  11  22  42  63  91 130 168 217 266 318 385
#     4   9  22  42  66  88 127 171 207 263 331 375
#     4  12  25  39  61  98 130 168 218 266 319 381
#
# _framework density 22.323551999999999
#
# number of rings (size 3 to 8) (size 9 to 14) (size 15 to 20)
#    0.000    1.143    2.857    3.429    4.000    2.286 
#    0.000    0.714    0.000    0.000    0.000    0.000 
#    0.000    0.000    0.000    0.000    0.000    0.000 
#
# Total GULP energy -78182.057539 kJ/mol
# GULP energy per Si atom -5584.432681 kJ/mol
# Density = 2.227274 g / cm^3
# Si number density = 22.323552 Si / 1000 Ang^3
#
#
#
# Elastic Constant Matrix: (Units=GPa)
#
#
# Indices 1 2 3 4 5 6 
#
# 1 94.8800 -10.3301 10.6774 13.6704 -9.8334 -12.0182
# 2 -10.3301 56.8691 28.0112 13.9698 -1.5577 -22.9966
# 3 10.6774 28.0112 105.9314 12.2608 -8.5349 2.4137
# 4 13.6704 13.9698 12.2608 34.1679 5.3676 -5.2781
# 5 -9.8334 -1.5577 -8.5349 5.3676 40.4123 4.7134
# 6 -12.0182 -22.9966 2.4137 -5.2781 4.7134 29.0576
#
#
#
# Elastic Compliance Matrix: (Units=1/GPa)
#
#
# Indices 1 2 3 4 5 6 
#
# 1 0.015990 0.013543 -0.004358 -0.008377 0.002771 0.015722
# 2 0.013543 0.046311 -0.013076 -0.013206 -0.000715 0.041056
# 3 -0.004358 -0.013076 0.013966 -0.000555 0.003081 -0.013912
# 4 -0.008377 -0.013206 -0.000555 0.038448 -0.007103 -0.005735
# 5 0.002771 -0.000715 0.003081 -0.007103 0.027621 -0.005446
# 6 0.015722 0.041056 -0.013912 -0.005735 -0.005446 0.074407
#
#
# Mechanical properties :
#
#
# Convention : Reuss Voigt Hill
#
# Bulk Modulus (GPa) = 14.60148 34.93305 24.76726
# Shear Modulus (GPa) = 20.21391 36.01571 28.11481
#
# Velocity S-wave (km/s) = 3.01241 4.02101 3.55269
# Velocity P-wave (km/s) = 4.31909 6.10250 5.28654
#
# Compressibility (1/GPa) = 0.06848621
#
# Stress axis : x y z
#
# Youngs Moduli (GPa) = 62.53780 21.59292 71.60039
#
# Poissons Ratio (x) = -0.29243 0.31204
# Poissons Ratio (y) = -0.84694 0.93622
# Poissons Ratio (z) = 0.27255 0.28234
#
# Static dielectric constant tensor:
#      x y z
#    x 1.855340 -0.010680 0.014820 
#    y -0.010680 1.849710 -0.108480 
#    z 0.014820 -0.108480 2.000340 
# 
# From -- ./inp_files/171060.got.cif
#   From: 2010.05.17/outbox.cif.g08.bks.cpg/sg2_86_cif.got.tgz:171060.got - 2010.06.03 11:33:40.
