data_PCOD9026987
_publ_section_title
;
Structure prediction by ZEFSAII (Michael W. Deem and Ramdas Pophale) SiO2 
 PCOD9026987
Probable space group: P -1
;
_chemical_formula_sum "Si O2"
_cell_formula_units_Z 16
_cell_length_a 13.909245
_cell_length_b 14.646689
_cell_length_c 15.213851
_cell_angle_alpha 127.034994
_cell_angle_beta 31.205321
_cell_angle_gamma 148.941014
_cell_volume 723.224259
_symmetry_space_group_name_H-M "P -1"
_symmetry_group_IT_number 2
_symmetry_cell_setting 'triclinic'
loop_
_space_group_symop_operation_xyz
x,y,z
-x,-y,-z
loop_
_atom_site_type_symbol
_atom_site_label
_atom_site_fract_x
_atom_site_fract_y
_atom_site_fract_z
Si Si1 0.615078 0.925236 0.134682
Si Si2 0.602488 0.665721 0.747809
Si Si3 0.862963 0.570357 0.572206
Si Si4 0.832746 0.667722 0.393397
Si Si5 0.963620 0.316103 0.135474
Si Si6 0.854601 0.038627 0.826169
Si Si7 0.387326 0.572410 0.123924
Si Si8 0.584278 0.330501 0.479751
O O1 0.658372 0.810477 0.042115
O O2 0.243795 0.758354 0.358231
O O3 0.858714 0.130952 0.117085
O O4 0.662166 0.983626 0.030116
O O5 0.736152 0.635324 0.691531
O O6 0.760556 0.713375 0.558746
O O7 0.698570 0.841320 0.801042
O O8 0.207121 0.453346 0.941757
O O9 0.803197 0.505626 0.681353
O O10 0.657614 0.387144 0.558253
O O11 0.500000 0.500000 0.500000
O O12 0.848610 0.548527 0.351253
O O13 0.108760 0.854377 0.220521
O O14 0.645542 0.235695 0.339097
O O15 0.165059 0.463945 0.147827
O O16 0.222496 0.192574 0.661285
O O17 0.500000 0.500000 0.000000
#
# Coordination Sequence:
#
# PCOD9026987 Si02
#       8
#     2   2   2   2   2   2   2   2
#     4  12  25  42  68  95 131 168 217 261 324 378
#     4  11  21  42  64  94 135 167 213 269 319 373
#     4  11  22  44  64  93 129 170 209 271 316 377
#     4   9  20  38  65  93 127 171 215 260 317 383
#     4  12  24  43  65  96 131 172 211 267 319 379
#     4  11  21  42  64  97 128 173 214 261 324 379
#     4  12  25  45  66  94 131 166 217 263 320 384
#     4  10  22  41  66  93 133 167 214 267 318 378
#
# _framework density 22.123151
#
# number of rings (size 3 to 8) (size 9 to 14) (size 15 to 20)
#    0.000    1.000    3.750    3.750    0.000    1.000 
#    2.250   12.500    0.000    0.000    0.000    0.000 
#    0.000    0.000    0.000    0.000    0.000    0.000 
#
# Total GULP energy -89435.148071 kJ/mol
# GULP energy per Si atom -5589.696754 kJ/mol
# Density = 2.207280 g / cm^3
# Si number density = 22.123151 Si / 1000 Ang^3
#
#
#
# Elastic Constant Matrix: (Units=GPa)
#
#
# Indices 1 2 3 4 5 6 
#
# 1 46.0562 9.2130 25.8103 -1.3054 31.0964 -4.4040
# 2 9.2130 141.1517 19.8010 2.4738 13.1353 -7.2688
# 3 25.8103 19.8010 93.8231 -7.6938 28.7215 -8.5006
# 4 -1.3054 2.4738 -7.6938 32.6386 -5.2885 -4.8716
# 5 31.0964 13.1353 28.7215 -5.2885 41.7333 -6.5829
# 6 -4.4040 -7.2688 -8.5006 -4.8716 -6.5829 11.0521
#
#
#
# Elastic Compliance Matrix: (Units=1/GPa)
#
#
# Indices 1 2 3 4 5 6 
#
# 1 0.045113 0.000371 -0.003378 -0.005346 -0.033101 -0.006451
# 2 0.000371 0.007514 -0.000974 -0.000560 -0.001541 0.003175
# 3 -0.003378 -0.000974 0.014438 0.003559 -0.005492 0.007416
# 4 -0.005346 -0.000560 0.003559 0.036172 0.009764 0.021999
# 5 -0.033101 -0.001541 -0.005492 0.009764 0.057282 0.019995
# 6 -0.006451 0.003175 0.007416 0.021999 0.019995 0.117309
#
#
# Mechanical properties :
#
#
# Convention : Reuss Voigt Hill
#
# Bulk Modulus (GPa) = 16.91990 43.40884 30.16437
# Shear Modulus (GPa) = 16.36706 32.16524 24.26615
#
# Velocity S-wave (km/s) = 2.72291 3.81716 3.31549
# Velocity P-wave (km/s) = 4.18931 6.25234 5.32175
#
# Compressibility (1/GPa) = 0.05910201
#
# Stress axis : x y z
#
# Youngs Moduli (GPa) = 22.16667 133.08882 69.26001
#
# Poissons Ratio (x) = -0.04941 0.23399
# Poissons Ratio (y) = -0.00823 0.06748
# Poissons Ratio (z) = 0.07489 0.12968
#
# Static dielectric constant tensor:
#      x y z
#    x 1.832040 -0.017690 -0.014790 
#    y -0.017690 1.813060 0.014300 
#    z -0.014790 0.014300 1.848890 
# 
# From -- ./inp_files/214238.got.cif
#   From: 2010.05.17/outbox.cif.g08.bks.cpg/sg2_108_cif.got.tgz:214238.got - 2010.06.03 11:33:40.
