data_PCOD9026649
_publ_section_title
;
Structure prediction by ZEFSAII (Michael W. Deem and Ramdas Pophale) SiO2 
 PCOD9026649
Probable space group: P -1
;
_chemical_formula_sum "Si O2"
_cell_formula_units_Z 16
_cell_length_a 19.816156
_cell_length_b 22.540990
_cell_length_c 12.466884
_cell_angle_alpha 138.602889
_cell_angle_beta 30.449581
_cell_angle_gamma 162.200999
_cell_volume 767.662368
_symmetry_space_group_name_H-M "P -1"
_symmetry_group_IT_number 2
_symmetry_cell_setting 'triclinic'
loop_
_space_group_symop_operation_xyz
x,y,z
-x,-y,-z
loop_
_atom_site_type_symbol
_atom_site_label
_atom_site_fract_x
_atom_site_fract_y
_atom_site_fract_z
Si Si1 0.797288 0.965633 0.220537
Si Si2 0.716052 0.545166 0.260475
Si Si3 0.923857 0.207043 0.492790
Si Si4 0.333130 0.918649 0.781763
Si Si5 0.650364 0.238333 0.616465
Si Si6 0.745025 0.407527 0.370636
Si Si7 0.781727 0.101668 0.777127
Si Si8 0.401142 0.703432 0.828360
O O1 0.613719 0.862744 0.219626
O O2 0.517101 0.792187 0.459556
O O3 0.003295 0.181757 0.259539
O O4 0.000000 0.000000 0.000000
O O5 0.500000 0.500000 0.500000
O O6 0.525025 0.334367 0.246481
O O7 0.938751 0.679521 0.243509
O O8 0.973212 0.709985 0.035943
O O9 0.903651 0.147705 0.555704
O O10 0.150552 0.431996 0.507199
O O11 0.577399 0.034637 0.696632
O O12 0.315204 0.827945 0.596425
O O13 0.500654 0.108031 0.754924
O O14 0.000000 0.500000 0.500000
O O15 0.620137 0.335924 0.322253
O O16 0.057346 0.534581 0.106806
O O17 0.652581 0.939558 0.803157
O O18 0.500000 0.000000 0.000000
#
# Coordination Sequence:
#
# PCOD9026649 Si02
#       8
#     2   2   2   2   2   2   2   2
#     4  11  25  41  61  96 129 161 213 267 319 379
#     4  12  26  41  59  99 141 172 203 256 331 395
#     4  11  20  39  68  92 122 164 215 267 310 370
#     4  10  22  41  65  90 124 163 218 266 302 376
#     4  10  22  44  68  87 116 169 222 263 313 366
#     4  11  20  35  67  95 122 160 212 265 312 369
#     4  12  20  40  68  97 125 165 215 266 315 378
#     4  11  21  36  65  97 125 166 215 256 314 384
#
# _framework density 20.842497000000002
#
# number of rings (size 3 to 8) (size 9 to 14) (size 15 to 20)
#    0.000    1.000    5.000    3.000    0.000    3.000 
#    2.250    0.000    0.000    0.000    0.000    0.000 
#    0.000    0.000    0.000    0.000    0.000    0.000 
#
# Total GULP energy -89388.856575 kJ/mol
# GULP energy per Si atom -5586.803536 kJ/mol
# Density = 2.079506 g / cm^3
# Si number density = 20.842497 Si / 1000 Ang^3
#
#
#
# Elastic Constant Matrix: (Units=GPa)
#
#
# Indices 1 2 3 4 5 6 
#
# 1 87.2765 17.3905 28.8107 -5.2068 -2.2172 -26.8947
# 2 17.3905 90.7248 -1.6533 19.5667 -2.8852 -20.2596
# 3 28.8107 -1.6533 39.6740 8.8307 -14.5322 -10.4185
# 4 -5.2068 19.5667 8.8307 23.0382 -7.4564 4.0489
# 5 -2.2172 -2.8852 -14.5322 -7.4564 31.2861 3.0272
# 6 -26.8947 -20.2596 -10.4185 4.0489 3.0272 44.1515
#
#
#
# Elastic Compliance Matrix: (Units=1/GPa)
#
#
# Indices 1 2 3 4 5 6 
#
# 1 0.021938 -0.007630 -0.020993 0.017165 -0.005166 0.003688
# 2 -0.007630 0.021278 0.015960 -0.027522 0.001180 0.011325
# 3 -0.020993 0.015960 0.058444 -0.036950 0.017306 0.010529
# 4 0.017165 -0.027522 -0.036950 0.089796 0.004799 -0.019456
# 5 -0.005166 0.001180 0.017306 0.004799 0.041060 -0.001777
# 6 0.003688 0.011325 0.010529 -0.019456 -0.001777 0.034483
#
#
# Mechanical properties :
#
#
# Convention : Reuss Voigt Hill
#
# Bulk Modulus (GPa) = 13.10078 34.08569 23.59323
# Shear Modulus (GPa) = 15.73465 31.23699 23.48582
#
# Velocity S-wave (km/s) = 2.75058 3.87553 3.36046
# Velocity P-wave (km/s) = 4.04807 6.03454 5.13822
#
# Compressibility (1/GPa) = 0.07633136
#
# Stress axis : x y z
#
# Youngs Moduli (GPa) = 45.58380 46.99687 17.11052
#
# Poissons Ratio (x) = 0.35861 0.35920
# Poissons Ratio (y) = 0.34782 -0.27308
# Poissons Ratio (z) = 0.95695 -0.75006
#
# Static dielectric constant tensor:
#      x y z
#    x 1.758700 -0.021400 0.023830 
#    y -0.021400 1.748460 0.010480 
#    z 0.023830 0.010480 1.728230 
# 
# From -- ./inp_files/467128.got.cif
#   From: 2010.05.17/outbox.cif.g08.bks.cpg/sg2_234_cif.got.tgz:467128.got - 2010.06.03 11:33:40.
