data_PCOD9026895
_publ_section_title
;
Structure prediction by ZEFSAII (Michael W. Deem and Ramdas Pophale) SiO2 
 PCOD9026895
Probable space group: P -1
;
_chemical_formula_sum "Si O2"
_cell_formula_units_Z 16
_cell_length_a 14.665188
_cell_length_b 10.045380
_cell_length_c 7.713071
_cell_angle_alpha 48.972949
_cell_angle_beta 123.335266
_cell_angle_gamma 97.407541
_cell_volume 665.973715
_symmetry_space_group_name_H-M "P -1"
_symmetry_group_IT_number 2
_symmetry_cell_setting 'triclinic'
loop_
_space_group_symop_operation_xyz
x,y,z
-x,-y,-z
loop_
_atom_site_type_symbol
_atom_site_label
_atom_site_fract_x
_atom_site_fract_y
_atom_site_fract_z
Si Si1 0.227849 0.475911 0.043014
Si Si2 0.435573 0.089987 0.073873
Si Si3 0.773696 0.967146 0.269039
Si Si4 0.982958 0.221808 0.254932
Si Si5 0.401574 0.459143 0.544898
Si Si6 0.186144 0.781571 0.200550
Si Si7 0.343458 0.104546 0.338667
Si Si8 0.259316 0.791119 0.622393
O O1 0.101850 0.633800 0.819505
O O2 0.291736 0.572229 0.892251
O O3 0.305012 0.443610 0.323536
O O4 0.232476 0.276252 0.146414
O O5 0.365338 0.150351 0.128043
O O6 0.547665 0.913748 0.405931
O O7 0.350913 0.047001 0.884448
O O8 0.462647 0.265286 0.877158
O O9 0.885964 0.780508 0.591035
O O10 0.765425 0.106671 0.302871
O O11 0.802963 0.049261 0.049660
O O12 0.915176 0.268486 0.960863
O O13 0.000000 0.000000 0.500000
O O14 0.500000 0.500000 0.500000
O O15 0.316694 0.619813 0.448350
O O16 0.162147 0.826362 0.339283
O O17 0.336560 0.897648 0.522048
#
# Coordination Sequence:
#
# PCOD9026895 Si02
#       8
#     2   2   2   2   2   2   2   2
#     4  11  23  41  69 101 135 182 234 283 343 415
#     4  11  25  45  66  98 148 181 223 296 336 414
#     4  11  22  44  70  96 139 184 227 282 349 402
#     4   9  19  44  70  96 140 178 231 287 337 411
#     4  11  23  41  69  99 136 183 230 278 351 412
#     4  10  22  41  66 102 134 176 234 278 337 414
#     4  11  26  43  65 107 141 178 237 281 347 414
#     4  12  22  42  72 100 140 182 226 285 347 408
#
# _framework density 24.024972999999999
#
# number of rings (size 3 to 8) (size 9 to 14) (size 15 to 20)
#    0.000    1.250    5.000    2.250    1.750    1.500 
#    0.000    9.375    0.000    0.000    0.000    0.000 
#    0.000    0.000    0.000    0.000    0.000    0.000 
#
# Total GULP energy -89327.633444 kJ/mol
# GULP energy per Si atom -5582.977090 kJ/mol
# Density = 2.397029 g / cm^3
# Si number density = 24.024973 Si / 1000 Ang^3
#
#
#
# Elastic Constant Matrix: (Units=GPa)
#
#
# Indices 1 2 3 4 5 6 
#
# 1 42.8807 23.4522 35.0897 2.2554 -7.8103 -8.9661
# 2 23.4522 85.6611 54.7735 16.8967 6.5182 -9.8632
# 3 35.0897 54.7735 101.6465 9.0681 -4.9993 -16.2632
# 4 2.2554 16.8967 9.0681 38.9924 -5.8638 -2.9930
# 5 -7.8103 6.5182 -4.9993 -5.8638 54.1112 -0.8099
# 6 -8.9661 -9.8632 -16.2632 -2.9930 -0.8099 28.0940
#
#
#
# Elastic Compliance Matrix: (Units=1/GPa)
#
#
# Indices 1 2 3 4 5 6 
#
# 1 0.034750 -0.004202 -0.008969 0.003039 0.005096 0.004894
# 2 -0.004202 0.020460 -0.009227 -0.007217 -0.004712 -0.000404
# 3 -0.008969 -0.009227 0.018696 0.000798 0.001703 0.004855
# 4 0.003039 -0.007217 0.000798 0.029266 0.004585 0.002148
# 5 0.005096 -0.004712 0.001703 0.004585 0.020468 0.002037
# 6 0.004894 -0.000404 0.004855 0.002148 0.002037 0.040113
#
#
# Mechanical properties :
#
#
# Convention : Reuss Voigt Hill
#
# Bulk Modulus (GPa) = 34.35426 50.75769 42.55598
# Shear Modulus (GPa) = 22.90926 32.03104 27.47015
#
# Velocity S-wave (km/s) = 3.09133 3.65532 3.38509
# Velocity P-wave (km/s) = 5.20309 6.24404 5.74718
#
# Compressibility (1/GPa) = 0.02910847
#
# Stress axis : x y z
#
# Youngs Moduli (GPa) = 28.77704 48.87637 53.48834
#
# Poissons Ratio (x) = 0.20540 0.47974
# Poissons Ratio (y) = 0.12093 0.49353
# Poissons Ratio (z) = 0.25810 0.45098
#
# Static dielectric constant tensor:
#      x y z
#    x 2.001630 0.038010 0.010040 
#    y 0.038010 1.989170 -0.015280 
#    z 0.010040 -0.015280 1.909120 
# 
# From -- ./inp_files/304596.got.cif
#   From: 2010.05.17/outbox.cif.g08.bks.cpg/sg2_153_cif.got.tgz:304596.got - 2010.06.03 11:33:40.
