data_PCOD9026277
_publ_section_title
;
Structure prediction by ZEFSAII (Michael W. Deem and Ramdas Pophale) SiO2 
 PCOD9026277
Probable space group: P -1
;
_chemical_formula_sum "Si O2"
_cell_formula_units_Z 16
_cell_length_a 17.553920
_cell_length_b 15.671524
_cell_length_c 8.315499
_cell_angle_alpha 110.837700
_cell_angle_beta 54.946012
_cell_angle_gamma 155.488358
_cell_volume 676.674161
_symmetry_space_group_name_H-M "P -1"
_symmetry_group_IT_number 2
_symmetry_cell_setting 'triclinic'
loop_
_space_group_symop_operation_xyz
x,y,z
-x,-y,-z
loop_
_atom_site_type_symbol
_atom_site_label
_atom_site_fract_x
_atom_site_fract_y
_atom_site_fract_z
Si Si1 0.628420 0.552747 0.748344
Si Si2 0.751297 0.309122 0.599408
Si Si3 0.381810 0.014840 0.466259
Si Si4 0.936652 0.129130 0.380684
Si Si5 0.899010 0.502156 0.196377
Si Si6 0.854970 0.973683 0.038109
Si Si7 0.301315 0.998966 0.927285
Si Si8 0.739131 0.764967 0.455969
O O1 0.404908 0.296852 0.769742
O O2 0.756735 0.734754 0.588693
O O3 0.819779 0.659075 0.671350
O O4 0.500000 0.500000 0.000000
O O5 0.830933 0.418712 0.404738
O O6 0.000000 0.500000 0.500000
O O7 0.600958 0.078553 0.625104
O O8 0.562256 0.212870 0.830608
O O9 0.639687 0.290443 0.292841
O O10 0.183819 0.881199 0.501545
O O11 0.319610 0.980971 0.705702
O O12 0.976194 0.133658 0.149728
O O13 0.755550 0.889494 0.515921
O O14 0.000000 0.500000 0.000000
O O15 0.094875 0.756615 0.104209
O O16 0.784911 0.976358 0.977083
O O17 0.035497 0.062142 0.810874
O O18 0.500000 0.500000 0.500000
#
# Coordination Sequence:
#
# PCOD9026277 Si02
#       8
#     2   2   2   2   2   2   2   2
#     4  12  25  45  68  92 134 172 211 266 320 379
#     4  11  23  39  61  93 131 159 202 267 314 364
#     4  10  22  41  63  93 123 163 211 257 315 374
#     4  11  24  44  66  95 131 168 214 267 321 380
#     4  11  19  41  66  84 120 168 211 248 307 379
#     4  11  25  44  65  97 128 171 216 262 322 379
#     4  10  22  41  66  89 122 168 212 253 312 380
#     4  12  24  43  68  96 131 169 215 263 320 382
#
# _framework density 23.645056
#
# number of rings (size 3 to 8) (size 9 to 14) (size 15 to 20)
#    0.000    1.000    5.000    2.250    3.500    1.500 
#    0.000    0.000    0.000    0.000    0.000    0.000 
#    0.000    0.000    0.000    0.000    0.000    0.000 
#
# Total GULP energy -89472.469150 kJ/mol
# GULP energy per Si atom -5592.029322 kJ/mol
# Density = 2.359124 g / cm^3
# Si number density = 23.645056 Si / 1000 Ang^3
#
#
#
# Elastic Constant Matrix: (Units=GPa)
#
#
# Indices 1 2 3 4 5 6 
#
# 1 151.4125 11.4608 37.7792 -20.4886 -6.6376 9.6765
# 2 11.4608 50.4206 19.6771 -28.0281 -2.6438 16.3342
# 3 37.7792 19.6771 87.7894 -31.5531 9.9571 6.6077
# 4 -20.4886 -28.0281 -31.5531 38.9246 -2.0232 -3.0095
# 5 -6.6376 -2.6438 9.9571 -2.0232 32.5687 -12.0859
# 6 9.6765 16.3342 6.6077 -3.0095 -12.0859 44.2897
#
#
#
# Elastic Compliance Matrix: (Units=1/GPa)
#
#
# Indices 1 2 3 4 5 6 
#
# 1 0.007751 0.001311 -0.002831 0.002782 0.002385 -0.000915
# 2 0.001311 0.039650 0.002428 0.030163 -0.000322 -0.013310
# 3 -0.002831 0.002428 0.018276 0.014444 -0.006476 -0.003789
# 4 0.002782 0.030163 0.014444 0.059714 -0.001489 -0.010236
# 5 0.002385 -0.000322 -0.006476 -0.001489 0.036967 0.010550
# 6 -0.000915 -0.013310 -0.003789 -0.010236 0.010550 0.030436
#
#
# Mechanical properties :
#
#
# Convention : Reuss Voigt Hill
#
# Bulk Modulus (GPa) = 14.81638 47.49521 31.15580
# Shear Modulus (GPa) = 23.42190 37.87028 30.64609
#
# Velocity S-wave (km/s) = 3.15073 4.00636 3.60403
# Velocity P-wave (km/s) = 4.41768 6.44450 5.52483
#
# Compressibility (1/GPa) = 0.06749286
#
# Stress axis : x y z
#
# Youngs Moduli (GPa) = 129.01329 25.22087 54.71638
#
# Poissons Ratio (x) = -0.03306 0.15491
# Poissons Ratio (y) = -0.16913 -0.13286
# Poissons Ratio (z) = 0.36526 -0.06124
#
# Static dielectric constant tensor:
#      x y z
#    x 1.927290 0.054370 -0.010400 
#    y 0.054370 2.010520 -0.017930 
#    z -0.010400 -0.017930 1.849460 
# 
# From -- ./inp_files/46551.got.cif
#   From: 2010.05.17/outbox.cif.g08.bks.cpg/sg2_24_cif.got.tgz:46551.got - 2010.06.03 11:33:40.
