data_PCOD9026468
_publ_section_title
;
Structure prediction by ZEFSAII (Michael W. Deem and Ramdas Pophale) SiO2 
 PCOD9026468
Probable space group: P -1
;
_chemical_formula_sum "Si O2"
_cell_formula_units_Z 16
_cell_length_a 12.847511
_cell_length_b 9.687987
_cell_length_c 15.224886
_cell_angle_alpha 112.992068
_cell_angle_beta 25.998031
_cell_angle_gamma 120.220032
_cell_volume 708.149385
_symmetry_space_group_name_H-M "P -1"
_symmetry_group_IT_number 2
_symmetry_cell_setting 'triclinic'
loop_
_space_group_symop_operation_xyz
x,y,z
-x,-y,-z
loop_
_atom_site_type_symbol
_atom_site_label
_atom_site_fract_x
_atom_site_fract_y
_atom_site_fract_z
Si Si1 0.718463 0.266629 0.932679
Si Si2 0.873582 0.974157 0.685355
Si Si3 0.358280 0.436831 0.001538
Si Si4 0.857029 0.923324 0.178982
Si Si5 0.871452 0.286961 0.020647
Si Si6 0.437345 0.544428 0.654384
Si Si7 0.388962 0.621273 0.379372
Si Si8 0.078417 0.846058 0.665638
O O1 0.410754 0.167338 0.137090
O O2 0.810392 0.307554 0.972223
O O3 0.781064 0.438915 0.882290
O O4 0.839893 0.141775 0.775020
O O5 0.027170 0.923810 0.633835
O O6 0.000000 0.000000 0.500000
O O7 0.181840 0.252308 0.108448
O O8 0.500000 0.500000 0.000000
O O9 0.528484 0.436667 0.788265
O O10 0.613794 0.771362 0.292733
O O11 0.771895 0.022543 0.341769
O O12 0.072356 0.873731 0.051747
O O13 0.000000 0.000000 0.000000
O O14 0.625077 0.293334 0.260524
O O15 0.150341 0.420558 0.868280
O O16 0.500000 0.500000 0.500000
O O17 0.636516 0.522663 0.567226
O O18 0.186746 0.704314 0.532719
#
# Coordination Sequence:
#
# PCOD9026468 Si02
#       8
#     2   2   2   2   2   2   2   2
#     4  11  24  47  69  96 135 179 227 278 337 402
#     4  11  27  46  70  99 133 179 229 279 340 404
#     4  12  26  46  71 100 140 183 227 279 344 409
#     4  11  23  44  69  96 134 183 227 281 338 397
#     4  10  22  41  64  92 132 170 223 272 326 396
#     4  10  23  39  62  98 132 169 214 270 335 396
#     4  11  26  42  68 102 135 177 230 277 340 404
#     4  12  26  45  70 102 140 180 229 285 341 405
#
# _framework density 22.594101999999999
#
# number of rings (size 3 to 8) (size 9 to 14) (size 15 to 20)
#    0.000    1.000    5.000    0.375    5.250    3.500 
#    0.000    0.000    0.000    0.000    0.000    0.000 
#    0.000    0.000    0.000    0.000    0.000    0.000 
#
# Total GULP energy -89290.897908 kJ/mol
# GULP energy per Si atom -5580.681119 kJ/mol
# Density = 2.254268 g / cm^3
# Si number density = 22.594102 Si / 1000 Ang^3
#
#
#
# Elastic Constant Matrix: (Units=GPa)
#
#
# Indices 1 2 3 4 5 6 
#
# 1 154.6454 30.3088 44.3747 18.2523 11.2262 -18.5895
# 2 30.3088 77.5273 25.8733 18.2383 1.5658 -8.6621
# 3 44.3747 25.8733 96.9195 40.2476 12.6240 -16.6056
# 4 18.2523 18.2383 40.2476 40.8763 2.2546 -3.3698
# 5 11.2262 1.5658 12.6240 2.2546 35.6298 5.5526
# 6 -18.5895 -8.6621 -16.6056 -3.3698 5.5526 47.9519
#
#
#
# Elastic Compliance Matrix: (Units=1/GPa)
#
#
# Indices 1 2 3 4 5 6 
#
# 1 0.007965 -0.002023 -0.002582 0.000159 -0.001836 0.002052
# 2 -0.002023 0.015294 -0.000967 -0.004888 0.000422 0.001251
# 3 -0.002582 -0.000967 0.021238 -0.018513 -0.006373 0.005616
# 4 0.000159 -0.004888 -0.018513 0.044160 0.004657 -0.004668
# 5 -0.001836 0.000422 -0.006373 0.004657 0.031551 -0.006168
# 6 0.002052 0.001251 0.005616 -0.004668 -0.006168 0.024207
#
#
# Mechanical properties :
#
#
# Convention : Reuss Voigt Hill
#
# Bulk Modulus (GPa) = 29.98321 58.91177 44.44749
# Shear Modulus (GPa) = 29.99828 40.12729 35.06278
#
# Velocity S-wave (km/s) = 3.64772 4.21884 3.94363
# Velocity P-wave (km/s) = 5.57138 7.06131 6.36013
#
# Compressibility (1/GPa) = 0.03335200
#
# Stress axis : x y z
#
# Youngs Moduli (GPa) = 125.54957 65.38686 47.08520
#
# Poissons Ratio (x) = 0.13229 0.12157
# Poissons Ratio (y) = 0.25401 0.04554
# Poissons Ratio (z) = 0.32416 0.06324
#
# Static dielectric constant tensor:
#      x y z
#    x 1.783190 0.101320 -0.063170 
#    y 0.101320 2.096580 0.077390 
#    z -0.063170 0.077390 1.905680 
# 
# From -- ./inp_files/127533.got.cif
#   From: 2010.05.17/outbox.cif.g08.bks.cpg/sg2_64_cif.got.tgz:127533.got - 2010.06.03 11:33:40.
