data_PCOD9026226
_publ_section_title
;
Structure prediction by ZEFSAII (Michael W. Deem and Ramdas Pophale) SiO2 
 PCOD9026226
Probable space group: P -1
;
_chemical_formula_sum "Si O2"
_cell_formula_units_Z 14
_cell_length_a 20.990320
_cell_length_b 8.710322
_cell_length_c 8.168014
_cell_angle_alpha 71.652904
_cell_angle_beta 35.922646
_cell_angle_gamma 47.207678
_cell_volume 538.355186
_symmetry_space_group_name_H-M "P -1"
_symmetry_group_IT_number 2
_symmetry_cell_setting 'triclinic'
loop_
_space_group_symop_operation_xyz
x,y,z
-x,-y,-z
loop_
_atom_site_type_symbol
_atom_site_label
_atom_site_fract_x
_atom_site_fract_y
_atom_site_fract_z
Si Si1 0.967433 0.591016 0.303815
Si Si2 0.639402 0.601011 0.694569
Si Si3 0.243593 0.164421 0.667224
Si Si4 0.690222 0.026664 0.923415
Si Si5 0.483632 0.326789 0.570825
Si Si6 0.834731 0.303636 0.083329
Si Si7 0.113009 0.861843 0.472558
O O1 0.860102 0.741684 0.312617
O O2 0.828314 0.733736 0.688351
O O3 0.107579 0.302006 0.053368
O O4 0.065684 0.644286 0.115575
O O5 0.686782 0.732031 0.515810
O O6 0.722282 0.399445 0.444068
O O7 0.742014 0.433843 0.698667
O O8 0.441911 0.807497 0.007115
O O9 0.407153 0.870653 0.445225
O O10 0.788537 0.081556 0.729949
O O11 0.575217 0.139777 0.285143
O O12 0.500000 0.500000 0.500000
O O13 0.289407 0.525213 0.868225
O O14 0.968474 0.013585 0.861395
O O15 0.000000 0.000000 0.500000
#
# Coordination Sequence:
#
# PCOD9026226 Si02
#       7
#     2   2   2   2   2   2   2
#     4   9  21  41  63  90 123 163 206 253 310 368
#     4  10  22  41  63  89 124 167 207 249 309 371
#     4  10  23  43  65  89 124 168 210 253 307 372
#     4  10  23  40  63  94 127 163 205 256 310 366
#     4  11  24  42  64  92 125 164 210 258 308 367
#     4   9  21  39  62  87 122 167 206 247 304 372
#     4  11  22  38  62  94 127 160 206 258 305 361
#
# _framework density 26.005133000000001
#
# number of rings (size 3 to 8) (size 9 to 14) (size 15 to 20)
#    0.000    2.000    0.000    1.714    0.000   20.000 
#    0.000    4.286    0.000    0.000    0.000    0.000 
#    0.000    0.000    0.000    0.000    0.000    0.000 
#
# Total GULP energy -78310.066132 kJ/mol
# GULP energy per Si atom -5593.576152 kJ/mol
# Density = 2.594594 g / cm^3
# Si number density = 26.005133 Si / 1000 Ang^3
#
#
#
# Elastic Constant Matrix: (Units=GPa)
#
#
# Indices 1 2 3 4 5 6 
#
# 1 151.9383 37.4593 43.7264 11.9170 -39.7973 -20.6748
# 2 37.4593 103.4138 15.0674 30.5419 -21.2069 -12.2022
# 3 43.7264 15.0674 117.9998 39.5849 -14.5306 -0.9870
# 4 11.9170 30.5419 39.5849 41.1432 -10.9624 -10.4470
# 5 -39.7973 -21.2069 -14.5306 -10.9624 54.5513 8.0882
# 6 -20.6748 -12.2022 -0.9870 -10.4470 8.0882 33.3172
#
#
#
# Elastic Compliance Matrix: (Units=1/GPa)
#
#
# Indices 1 2 3 4 5 6 
#
# 1 0.010718 -0.003491 -0.005382 0.007766 0.005659 0.006274
# 2 -0.003491 0.014573 0.004269 -0.013832 0.001691 -0.001450
# 3 -0.005382 0.004269 0.016224 -0.019234 -0.000751 -0.007144
# 4 0.007766 -0.013832 -0.019234 0.055906 0.004068 0.015726
# 5 0.005659 0.001691 -0.000751 0.004068 0.023793 -0.000392
# 6 0.006274 -0.001450 -0.007144 0.015726 -0.000392 0.038191
#
#
# Mechanical properties :
#
#
# Convention : Reuss Voigt Hill
#
# Bulk Modulus (GPa) = 30.95257 62.87312 46.91284
# Shear Modulus (GPa) = 27.87343 44.27559 36.07451
#
# Velocity S-wave (km/s) = 3.27745 4.13070 3.72856
# Velocity P-wave (km/s) = 5.12353 6.85419 6.05105
#
# Compressibility (1/GPa) = 0.03230750
#
# Stress axis : x y z
#
# Youngs Moduli (GPa) = 93.30057 68.61900 61.63779
#
# Poissons Ratio (x) = 0.23955 0.33173
# Poissons Ratio (y) = 0.32572 -0.26314
# Poissons Ratio (z) = 0.50213 -0.29294
#
# Static dielectric constant tensor:
#      x y z
#    x 2.070900 -0.071950 0.106180 
#    y -0.071950 2.004030 -0.003230 
#    z 0.106180 -0.003230 2.100750 
# 
# From -- ./inp_files/343497.got.cif
#   From: 2010.05.17/outbox.cif.g08.bks.cpg/sg2_172_cif.got.tgz:343497.got - 2010.06.03 11:33:40.
