data_PCOD9026446
_publ_section_title
;
Structure prediction by ZEFSAII (Michael W. Deem and Ramdas Pophale) SiO2 
 PCOD9026446
Probable space group: P -1
;
_chemical_formula_sum "Si O2"
_cell_formula_units_Z 14
_cell_length_a 9.914065
_cell_length_b 9.149759
_cell_length_c 15.785779
_cell_angle_alpha 127.504318
_cell_angle_beta 42.824355
_cell_angle_gamma 135.005448
_cell_volume 675.996625
_symmetry_space_group_name_H-M "P -1"
_symmetry_group_IT_number 2
_symmetry_cell_setting 'triclinic'
loop_
_space_group_symop_operation_xyz
x,y,z
-x,-y,-z
loop_
_atom_site_type_symbol
_atom_site_label
_atom_site_fract_x
_atom_site_fract_y
_atom_site_fract_z
Si Si1 0.352482 0.544346 0.345457
Si Si2 0.018166 0.079097 0.149878
Si Si3 0.782869 0.842333 0.489409
Si Si4 0.493745 0.427653 0.073819
Si Si5 0.844074 0.156652 0.426220
Si Si6 0.016974 0.320305 0.066397
Si Si7 0.648110 0.445611 0.304911
O O1 0.436054 0.560413 0.215690
O O2 0.311840 0.733530 0.460594
O O3 0.527297 0.515464 0.314203
O O4 0.102648 0.338180 0.392614
O O5 0.281978 0.197320 0.098120
O O6 0.863533 0.070935 0.295791
O O7 0.998722 0.223901 0.135571
O O8 0.969427 0.855671 0.059007
O O9 0.789794 0.642385 0.372583
O O10 0.556425 0.737386 0.612760
O O11 0.766008 0.979517 0.470038
O O12 0.000000 0.000000 0.500000
O O13 0.500000 0.500000 0.000000
O O14 0.746806 0.468618 0.984220
O O15 0.809356 0.362555 0.163469
#
# Coordination Sequence:
#
# PCOD9026446 Si02
#       7
#     2   2   2   2   2   2   2
#     4  10  22  42  68 100 129 168 225 269 324 390
#     4   9  21  40  65  96 121 173 221 261 321 394
#     4  11  25  44  64  95 134 173 210 268 340 385
#     4   9  20  40  62  92 128 169 212 260 322 380
#     4  10  22  42  70  93 131 171 220 275 322 389
#     4  10  22  41  64  91 134 167 216 269 322 385
#     4  11  26  42  65  99 133 168 220 273 324 394
#
# _framework density 20.710163999999999
#
# number of rings (size 3 to 8) (size 9 to 14) (size 15 to 20)
#    0.000    2.000    1.429    0.000    6.000    8.000 
#    0.000    1.429    0.000    0.000    0.000    0.000 
#    0.000    0.000    0.000    0.000    0.000    0.000 
#
# Total GULP energy -78213.078186 kJ/mol
# GULP energy per Si atom -5586.648442 kJ/mol
# Density = 2.066303 g / cm^3
# Si number density = 20.710164 Si / 1000 Ang^3
#
#
#
# Elastic Constant Matrix: (Units=GPa)
#
#
# Indices 1 2 3 4 5 6 
#
# 1 100.8686 50.1071 74.4623 4.1729 -7.0568 3.1698
# 2 50.1071 84.9407 45.8991 -10.4718 -0.0185 -2.1195
# 3 74.4623 45.8991 126.7234 -12.2799 12.0037 -15.0410
# 4 4.1729 -10.4718 -12.2799 16.2698 1.1496 0.4608
# 5 -7.0568 -0.0185 12.0037 1.1496 36.2806 1.1002
# 6 3.1698 -2.1195 -15.0410 0.4608 1.1002 25.9250
#
#
#
# Elastic Compliance Matrix: (Units=1/GPa)
#
#
# Indices 1 2 3 4 5 6 
#
# 1 0.041541 -0.015462 -0.027328 -0.041953 0.019118 -0.022264
# 2 -0.015462 0.021106 0.004765 0.021354 -0.005439 0.006232
# 3 -0.027328 0.004765 0.029489 0.032923 -0.016749 0.020965
# 4 -0.041953 0.021354 0.032923 0.111759 -0.023341 0.024980
# 5 0.019118 -0.005439 -0.016749 -0.023341 0.037975 -0.013696
# 6 -0.022264 0.006232 0.020965 0.024980 -0.013696 0.054105
#
#
# Mechanical properties :
#
#
# Convention : Reuss Voigt Hill
#
# Bulk Modulus (GPa) = 62.16735 72.60774 67.38754
# Shear Modulus (GPa) = 13.24900 25.16603 19.20752
#
# Velocity S-wave (km/s) = 2.53204 3.48969 3.04870
# Velocity P-wave (km/s) = 6.21541 7.16745 6.70834
#
# Compressibility (1/GPa) = 0.01608562
#
# Stress axis : x y z
#
# Youngs Moduli (GPa) = 24.07241 47.37957 33.91149
#
# Poissons Ratio (x) = 0.73257 0.92674
# Poissons Ratio (y) = 0.37220 -0.16158
# Poissons Ratio (z) = 0.65786 -0.22575
#
# Static dielectric constant tensor:
#      x y z
#    x 1.753200 0.057480 0.032320 
#    y 0.057480 1.756920 -0.015590 
#    z 0.032320 -0.015590 1.717040 
# 
# From -- ./inp_files/493573.got.cif
#   From: 2010.05.17/outbox.cif.g08.bks.cpg/sg2_247_cif.got.tgz:493573.got - 2010.06.03 11:33:40.
