data_PCOD9026144
_publ_section_title
;
Structure prediction by ZEFSAII (Michael W. Deem and Ramdas Pophale) SiO2 
 PCOD9026144
Probable space group: P -1
;
_chemical_formula_sum "Si O2"
_cell_formula_units_Z 16
_cell_length_a 14.445914
_cell_length_b 11.052325
_cell_length_c 7.941006
_cell_angle_alpha 137.993106
_cell_angle_beta 112.289988
_cell_angle_gamma 83.351505
_cell_volume 756.321886
_symmetry_space_group_name_H-M "P -1"
_symmetry_group_IT_number 2
_symmetry_cell_setting 'triclinic'
loop_
_space_group_symop_operation_xyz
x,y,z
-x,-y,-z
loop_
_atom_site_type_symbol
_atom_site_label
_atom_site_fract_x
_atom_site_fract_y
_atom_site_fract_z
Si Si1 0.906491 0.700264 0.834791
Si Si2 0.173957 0.485047 0.064900
Si Si3 0.234265 0.644280 0.773175
Si Si4 0.134989 0.800761 0.165887
Si Si5 0.703107 0.722872 0.577877
Si Si6 0.356279 0.775525 0.677997
Si Si7 0.269735 0.203295 0.696165
Si Si8 0.584484 0.792757 0.899498
O O1 0.876478 0.649590 0.955953
O O2 0.874429 0.495804 0.511193
O O3 0.823449 0.800090 0.802676
O O4 0.026222 0.805085 0.012996
O O5 0.111925 0.627742 0.101944
O O6 0.280432 0.623461 0.351584
O O7 0.201186 0.352688 0.804216
O O8 0.304427 0.497615 0.685906
O O9 0.289486 0.782433 0.806883
O O10 0.211351 0.746063 0.026669
O O11 0.194856 0.001776 0.487228
O O12 0.687788 0.805963 0.472359
O O13 0.631848 0.748040 0.709132
O O14 0.460731 0.717265 0.732224
O O15 0.390222 0.980945 0.834100
O O16 0.358152 0.267332 0.964073
#
# Coordination Sequence:
#
# PCOD9026144 Si02
#       8
#     2   2   2   2   2   2   2   2
#     4   9  21  39  66  89 129 178 205 258 325 365
#     4  11  21  43  61  94 131 162 220 261 310 384
#     4   9  20  40  62  88 129 164 210 260 309 376
#     4  12  22  39  65  95 130 171 210 267 310 370
#     4  10  22  41  62  94 131 162 216 260 302 392
#     4  10  22  42  69  87 126 175 200 267 334 366
#     4  12  24  39  66  96 130 166 215 261 312 380
#     4  11  22  44  65  96 128 163 215 264 321 381
#
# _framework density 21.155016
#
# number of rings (size 3 to 8) (size 9 to 14) (size 15 to 20)
#    0.750    0.750    3.750    1.500    0.000    3.000 
#    2.250    3.125    0.000    0.000    0.000    0.000 
#    0.000    0.000    0.000    0.000    0.000    0.000 
#
# Total GULP energy -89279.286550 kJ/mol
# GULP energy per Si atom -5579.955409 kJ/mol
# Density = 2.110687 g / cm^3
# Si number density = 21.155016 Si / 1000 Ang^3
#
#
#
# Elastic Constant Matrix: (Units=GPa)
#
#
# Indices 1 2 3 4 5 6 
#
# 1 63.5720 7.5358 35.4751 2.9884 -4.6930 -5.3698
# 2 7.5358 49.6311 -0.0970 -12.8334 -7.8899 8.9660
# 3 35.4751 -0.0970 45.2535 0.3395 -9.4975 -2.2163
# 4 2.9884 -12.8334 0.3395 13.3251 3.4917 -5.8441
# 5 -4.6930 -7.8899 -9.4975 3.4917 26.7358 -7.9759
# 6 -5.3698 8.9660 -2.2163 -5.8441 -7.9759 23.8447
#
#
#
# Elastic Compliance Matrix: (Units=1/GPa)
#
#
# Indices 1 2 3 4 5 6 
#
# 1 0.031621 -0.009444 -0.025203 -0.012898 -0.003292 0.004067
# 2 -0.009444 0.030439 0.008172 0.028002 0.005328 -0.004168
# 3 -0.025203 0.008172 0.044689 0.009906 0.013244 0.002263
# 4 -0.012898 0.028002 0.009906 0.111197 -0.000674 0.014515
# 5 -0.003292 0.005328 0.013244 -0.000674 0.047422 0.014184
# 6 0.004067 -0.004168 0.002263 0.014515 0.014184 0.052933
#
#
# Mechanical properties :
#
#
# Convention : Reuss Voigt Hill
#
# Bulk Modulus (GPa) = 18.58763 27.14269 22.86516
# Shear Modulus (GPa) = 12.84746 20.48396 16.66571
#
# Velocity S-wave (km/s) = 2.46702 3.11509 2.80980
# Velocity P-wave (km/s) = 4.11344 5.07904 4.62153
#
# Compressibility (1/GPa) = 0.05379922
#
# Stress axis : x y z
#
# Youngs Moduli (GPa) = 31.62500 32.85266 22.37712
#
# Poissons Ratio (x) = 0.31025 0.56397
# Poissons Ratio (y) = 0.29865 -0.18287
# Poissons Ratio (z) = 0.79705 -0.26848
#
# Static dielectric constant tensor:
#      x y z
#    x 1.743660 -0.006930 -0.007520 
#    y -0.006930 1.837360 0.005400 
#    z -0.007520 0.005400 1.735280 
# 
# From -- ./inp_files/306046.got.cif
#   From: 2010.05.17/outbox.cif.g08.bks.cpg/sg2_154_cif.got.tgz:306046.got - 2010.06.03 11:33:40.
