data_PCOD9026242
_publ_section_title
;
Structure prediction by ZEFSAII (Michael W. Deem and Ramdas Pophale) SiO2 
 PCOD9026242
Probable space group: P -1
;
_chemical_formula_sum "Si O2"
_cell_formula_units_Z 14
_cell_length_a 6.372112
_cell_length_b 10.850089
_cell_length_c 12.584211
_cell_angle_alpha 65.865365
_cell_angle_beta 56.131533
_cell_angle_gamma 82.097950
_cell_volume 654.561174
_symmetry_space_group_name_H-M "P -1"
_symmetry_group_IT_number 2
_symmetry_cell_setting 'triclinic'
loop_
_space_group_symop_operation_xyz
x,y,z
-x,-y,-z
loop_
_atom_site_type_symbol
_atom_site_label
_atom_site_fract_x
_atom_site_fract_y
_atom_site_fract_z
Si Si1 0.333402 0.707724 0.966352
Si Si2 0.581710 0.084356 0.319715
Si Si3 0.217376 0.342539 0.781516
Si Si4 0.350018 0.813261 0.367319
Si Si5 0.538345 0.531967 0.128726
Si Si6 0.092366 0.041992 0.578809
Si Si7 0.030603 0.537934 0.602266
O O1 0.408451 0.825415 0.819464
O O2 0.328457 0.568911 0.948254
O O3 0.517678 0.674029 0.022367
O O4 0.060277 0.727763 0.083900
O O5 0.363253 0.127697 0.444307
O O6 0.490358 0.930586 0.360637
O O7 0.834333 0.074690 0.321555
O O8 0.433348 0.244889 0.740976
O O9 0.310676 0.444275 0.813863
O O10 0.182462 0.427293 0.655310
O O11 0.189559 0.685927 0.515955
O O12 0.130898 0.879348 0.341199
O O13 0.246778 0.472135 0.260304
O O14 0.000000 0.000000 0.500000
O O15 0.000000 0.500000 0.500000
#
# Coordination Sequence:
#
# PCOD9026242 Si02
#       7
#     2   2   2   2   2   2   2
#     4  10  23  42  63  90 124 168 207 252 311 372
#     4  10  22  41  63  90 130 161 207 258 308 374
#     4  11  24  39  63  94 124 166 208 256 314 370
#     4  11  23  37  62  93 125 160 205 257 318 366
#     4  10  22  42  66  90 123 163 213 262 302 373
#     4   9  21  39  60  91 121 166 206 250 305 368
#     4  11  23  39  64  93 125 160 209 262 313 367
#
# _framework density 21.388375
#
# number of rings (size 3 to 8) (size 9 to 14) (size 15 to 20)
#    0.000    1.714    1.429    1.714    2.000    6.286 
#    0.000    1.429    0.000    0.000    0.000    0.000 
#    0.000    0.000    0.000    0.000    0.000    0.000 
#
# Total GULP energy -78117.531401 kJ/mol
# GULP energy per Si atom -5579.823672 kJ/mol
# Density = 2.133969 g / cm^3
# Si number density = 21.388375 Si / 1000 Ang^3
#
#
#
# Elastic Constant Matrix: (Units=GPa)
#
#
# Indices 1 2 3 4 5 6 
#
# 1 91.8976 34.6662 40.2792 0.0125 21.4482 -20.6563
# 2 34.6662 49.2469 21.9213 -3.8924 7.4735 -19.2966
# 3 40.2792 21.9213 105.6956 -16.8410 23.9097 -14.6971
# 4 0.0125 -3.8924 -16.8410 30.7952 -3.0678 -9.7800
# 5 21.4482 7.4735 23.9097 -3.0678 30.9851 9.3563
# 6 -20.6563 -19.2966 -14.6971 -9.7800 9.3563 36.3365
#
#
#
# Elastic Compliance Matrix: (Units=1/GPa)
#
#
# Indices 1 2 3 4 5 6 
#
# 1 0.019850 -0.006925 -0.001315 0.000425 -0.014296 0.010870
# 2 -0.006925 0.035221 0.002883 0.011905 -0.011413 0.022077
# 3 -0.001315 0.002883 0.017411 0.013204 -0.016643 0.015665
# 4 0.000425 0.011905 0.013204 0.048842 -0.017439 0.029541
# 5 -0.014296 -0.011413 -0.016643 -0.017439 0.069149 -0.043419
# 6 0.010870 0.022077 0.015665 0.029541 -0.043419 0.070891
#
#
# Mechanical properties :
#
#
# Convention : Reuss Voigt Hill
#
# Bulk Modulus (GPa) = 16.18983 48.95261 32.57122
# Shear Modulus (GPa) = 17.08411 29.62157 23.35284
#
# Velocity S-wave (km/s) = 2.82929 3.72551 3.30790
# Velocity P-wave (km/s) = 4.27307 6.43763 5.46362
#
# Compressibility (1/GPa) = 0.06176719
#
# Stress axis : x y z
#
# Youngs Moduli (GPa) = 50.37690 28.39218 57.43349
#
# Poissons Ratio (x) = 0.19663 0.07554
# Poissons Ratio (y) = 0.34888 -0.16558
# Poissons Ratio (z) = 0.06626 -0.08185
#
# Static dielectric constant tensor:
#      x y z
#    x 1.823180 -0.010820 -0.003090 
#    y -0.010820 1.808490 0.006050 
#    z -0.003090 0.006050 1.790390 
# 
# From -- ./inp_files/67115.got.cif
#   From: 2010.05.17/outbox.cif.g08.bks.cpg/sg2_34_cif.got.tgz:67115.got - 2010.06.03 11:33:40.
