data_PCOD9026447
_publ_section_title
;
Structure prediction by ZEFSAII (Michael W. Deem and Ramdas Pophale) SiO2 
 PCOD9026447
Probable space group: P -1
;
_chemical_formula_sum "Si O2"
_cell_formula_units_Z 16
_cell_length_a 7.379743
_cell_length_b 13.242337
_cell_length_c 13.085150
_cell_angle_alpha 106.939381
_cell_angle_beta 144.709709
_cell_angle_gamma 69.360772
_cell_volume 691.326425
_symmetry_space_group_name_H-M "P -1"
_symmetry_group_IT_number 2
_symmetry_cell_setting 'triclinic'
loop_
_space_group_symop_operation_xyz
x,y,z
-x,-y,-z
loop_
_atom_site_type_symbol
_atom_site_label
_atom_site_fract_x
_atom_site_fract_y
_atom_site_fract_z
Si Si1 0.708345 0.432732 0.954352
Si Si2 0.693242 0.211452 0.614077
Si Si3 0.712894 0.087367 0.942360
Si Si4 0.314589 0.273309 0.672491
Si Si5 0.870386 0.647247 0.064088
Si Si6 0.238403 0.748407 0.703032
Si Si7 0.106956 0.995983 0.668524
Si Si8 0.947894 0.728848 0.767429
O O1 0.709473 0.556386 0.014746
O O2 0.937977 0.356998 0.117395
O O3 0.395757 0.382118 0.787021
O O4 0.849548 0.413275 0.898819
O O5 0.499726 0.240789 0.639732
O O6 0.432446 0.240421 0.412968
O O7 0.976485 0.278500 0.767562
O O8 0.856481 0.086452 0.640177
O O9 0.480537 0.171570 0.786501
O O10 0.458623 0.023396 0.853638
O O11 0.895475 0.166895 0.110884
O O12 0.000000 0.000000 0.000000
O O13 0.936000 0.287600 0.486229
O O14 0.613394 0.718703 0.890516
O O15 0.092283 0.691490 0.712634
O O16 0.120882 0.877018 0.682088
O O17 0.000000 0.000000 0.500000
#
# Coordination Sequence:
#
# PCOD9026447 Si02
#       8
#     2   2   2   2   2   2   2   2
#     4   9  21  42  66  88 122 159 205 253 310 354
#     4  10  23  40  62  89 127 161 201 250 297 363
#     4  11  23  37  60  87 121 164 199 243 307 359
#     4   9  21  41  60  90 125 159 202 245 302 366
#     4  10  22  41  64  92 119 162 206 255 300 359
#     4  11  24  39  60  91 124 159 208 247 301 362
#     4  12  25  39  61  92 125 162 203 249 299 362
#     4  10  23  39  61  89 123 162 201 253 302 360
#
# _framework density 23.143916999999998
#
# number of rings (size 3 to 8) (size 9 to 14) (size 15 to 20)
#    0.000    1.750    1.250    1.500    8.750    3.500 
#    0.000    0.000    0.000    0.000    0.000    0.000 
#    0.000    0.000    0.000    0.000    0.000    0.000 
#
# Total GULP energy -89361.077964 kJ/mol
# GULP energy per Si atom -5585.067373 kJ/mol
# Density = 2.309124 g / cm^3
# Si number density = 23.143917 Si / 1000 Ang^3
#
#
#
# Elastic Constant Matrix: (Units=GPa)
#
#
# Indices 1 2 3 4 5 6 
#
# 1 52.2333 3.3436 7.6512 1.8278 -3.1127 1.2469
# 2 3.3436 91.3219 52.1393 16.9843 0.1258 27.7104
# 3 7.6512 52.1393 185.9695 13.4470 15.3466 12.3066
# 4 1.8278 16.9843 13.4470 22.5088 -0.7916 1.5436
# 5 -3.1127 0.1258 15.3466 -0.7916 30.3730 -1.4848
# 6 1.2469 27.7104 12.3066 1.5436 -1.4848 30.8292
#
#
#
# Elastic Compliance Matrix: (Units=1/GPa)
#
#
# Indices 1 2 3 4 5 6 
#
# 1 0.019463 0.000108 -0.000936 -0.000993 0.002425 -0.000344
# 2 0.000108 0.020171 -0.003809 -0.011830 0.000762 -0.015985
# 3 -0.000936 -0.003809 0.006827 -0.001296 -0.003533 0.000631
# 4 -0.000993 -0.011830 -0.001296 0.053702 0.002423 0.008618
# 5 0.002425 0.000762 -0.003533 0.002423 0.035125 0.002197
# 6 -0.000344 -0.015985 0.000631 0.008618 0.002197 0.046241
#
#
# Mechanical properties :
#
#
# Convention : Reuss Voigt Hill
#
# Bulk Modulus (GPa) = 26.89285 50.64366 38.76825
# Shear Modulus (GPa) = 24.60638 34.50159 29.55399
#
# Velocity S-wave (km/s) = 3.26420 3.86520 3.57734
# Velocity P-wave (km/s) = 5.08446 6.46910 5.81812
#
# Compressibility (1/GPa) = 0.03718461
#
# Stress axis : x y z
#
# Youngs Moduli (GPa) = 51.38054 49.57677 146.47287
#
# Poissons Ratio (x) = -0.00534 0.13717
# Poissons Ratio (y) = -0.00554 0.55796
# Poissons Ratio (z) = 0.04812 0.18885
#
# Static dielectric constant tensor:
#      x y z
#    x 1.955060 -0.010720 -0.004780 
#    y -0.010720 1.830130 0.029920 
#    z -0.004780 0.029920 1.927730 
# 
# From -- ./inp_files/179957.got.cif
#   From: 2010.05.17/outbox.cif.g08.bks.cpg/sg2_90_cif.got.tgz:179957.got - 2010.06.03 11:33:40.
