data_PCOD9026822
_publ_section_title
;
Structure prediction by ZEFSAII (Michael W. Deem and Ramdas Pophale) SiO2 
 PCOD9026822
Probable space group: P -1
;
_chemical_formula_sum "Si O2"
_cell_formula_units_Z 16
_cell_length_a 12.416182
_cell_length_b 28.387506
_cell_length_c 5.611769
_cell_angle_alpha 52.505270
_cell_angle_beta 60.727220
_cell_angle_gamma 26.223427
_cell_volume 684.190774
_symmetry_space_group_name_H-M "P -1"
_symmetry_group_IT_number 2
_symmetry_cell_setting 'triclinic'
loop_
_space_group_symop_operation_xyz
x,y,z
-x,-y,-z
loop_
_atom_site_type_symbol
_atom_site_label
_atom_site_fract_x
_atom_site_fract_y
_atom_site_fract_z
Si Si1 0.674671 0.972755 0.250133
Si Si2 0.158869 0.769119 0.667106
Si Si3 0.050162 0.409841 0.751139
Si Si4 0.562638 0.421111 0.354261
Si Si5 0.590938 0.133288 0.010156
Si Si6 0.029730 0.940813 0.443432
Si Si7 0.958206 0.769701 0.259961
Si Si8 0.082696 0.593275 0.604585
O O1 0.938258 0.874545 0.397256
O O2 0.751521 0.903122 0.148808
O O3 0.500000 0.000000 0.500000
O O4 0.562339 0.085830 0.024686
O O5 0.403989 0.652899 0.611218
O O6 0.155243 0.823982 0.692505
O O7 0.079924 0.742935 0.970472
O O8 0.000000 0.500000 0.500000
O O9 0.981613 0.410952 0.563600
O O10 0.333855 0.271880 0.907768
O O11 0.920515 0.441042 0.038981
O O12 0.830387 0.319046 0.493914
O O13 0.360264 0.500033 0.535523
O O14 0.500000 0.500000 0.000000
O O15 0.778101 0.104963 0.793936
O O16 0.748550 0.047111 0.334106
O O17 0.000000 0.000000 0.500000
O O18 0.897794 0.726127 0.429110
#
# Coordination Sequence:
#
# PCOD9026822 Si02
#       8
#     2   2   2   2   2   2   2   2
#     4  10  22  41  65  97 142 179 232 298 374 438
#     4  10  23  39  65 104 134 182 238 300 366 437
#     4  12  30  52  71 108 147 199 252 296 367 444
#     4  11  23  42  67 101 144 185 243 297 362 440
#     4  10  24  45  69 102 141 188 247 301 366 436
#     4  10  22  44  73  99 138 187 246 309 364 423
#     4  11  23  40  68 103 137 180 240 296 372 434
#     4  12  27  46  76 102 149 198 238 303 370 432
#
# _framework density 23.385289
#
# number of rings (size 3 to 8) (size 9 to 14) (size 15 to 20)
#    0.000    1.250    1.250    3.000    8.750    1.500 
#    0.000    0.000    0.000    0.000    0.000    0.000 
#    0.000    0.000    0.000    0.000    0.000    0.000 
#
# Total GULP energy -89329.163709 kJ/mol
# GULP energy per Si atom -5583.072732 kJ/mol
# Density = 2.333206 g / cm^3
# Si number density = 23.385289 Si / 1000 Ang^3
#
#
#
# Elastic Constant Matrix: (Units=GPa)
#
#
# Indices 1 2 3 4 5 6 
#
# 1 106.1967 47.1416 30.6172 -14.0316 0.1781 26.4882
# 2 47.1416 152.9019 49.3034 -5.5293 -6.3558 19.8309
# 3 30.6172 49.3034 108.9508 1.0575 -14.8958 12.2718
# 4 -14.0316 -5.5293 1.0575 42.1306 4.2225 -5.2868
# 5 0.1781 -6.3558 -14.8958 4.2225 43.0026 -5.4911
# 6 26.4882 19.8309 12.2718 -5.2868 -5.4911 46.1146
#
#
#
# Elastic Compliance Matrix: (Units=1/GPa)
#
#
# Indices 1 2 3 4 5 6 
#
# 1 0.013087 -0.002542 -0.002234 0.003596 -0.002283 -0.005689
# 2 -0.002542 0.008462 -0.002956 0.000162 0.000047 -0.001368
# 3 -0.002234 -0.002956 0.011714 -0.001845 0.003769 -0.000326
# 4 0.003596 0.000162 -0.001845 0.025417 -0.003009 0.000911
# 5 -0.002283 0.000047 0.003769 -0.003009 0.025249 0.002950
# 6 -0.005689 -0.001368 -0.000326 0.000911 0.002950 0.026084
#
#
# Mechanical properties :
#
#
# Convention : Reuss Voigt Hill
#
# Bulk Modulus (GPa) = 56.18044 69.13043 62.65543
# Shear Modulus (GPa) = 38.04930 42.31536 40.18233
#
# Velocity S-wave (km/s) = 4.03806 4.25842 4.14970
# Velocity P-wave (km/s) = 6.76884 7.33516 7.05768
#
# Compressibility (1/GPa) = 0.01779979
#
# Stress axis : x y z
#
# Youngs Moduli (GPa) = 76.41351 118.17187 85.36855
#
# Poissons Ratio (x) = 0.30034 0.19069
# Poissons Ratio (y) = 0.19421 0.25237
# Poissons Ratio (z) = 0.17069 0.34935
#
# Static dielectric constant tensor:
#      x y z
#    x 1.938460 0.005870 -0.020600 
#    y 0.005870 1.888120 -0.035530 
#    z -0.020600 -0.035530 1.842480 
# 
# From -- ./inp_files/84969.got.cif
#   From: 2010.05.17/outbox.cif.g08.bks.cpg/sg2_43_cif.got.tgz:84969.got - 2010.06.03 11:33:40.
