data_PCOD9026641
_publ_section_title
;
Structure prediction by ZEFSAII (Michael W. Deem and Ramdas Pophale) SiO2 
 PCOD9026641
Probable space group: P -1
;
_chemical_formula_sum "Si O2"
_cell_formula_units_Z 16
_cell_length_a 7.410130
_cell_length_b 12.186931
_cell_length_c 11.838302
_cell_angle_alpha 97.843882
_cell_angle_beta 93.463109
_cell_angle_gamma 35.246271
_cell_volume 608.742599
_symmetry_space_group_name_H-M "P -1"
_symmetry_group_IT_number 2
_symmetry_cell_setting 'triclinic'
loop_
_space_group_symop_operation_xyz
x,y,z
-x,-y,-z
loop_
_atom_site_type_symbol
_atom_site_label
_atom_site_fract_x
_atom_site_fract_y
_atom_site_fract_z
Si Si1 0.373428 0.065053 0.248645
Si Si2 0.255135 0.788745 0.531821
Si Si3 0.958254 0.267147 0.075960
Si Si4 0.940387 0.655463 0.300385
Si Si5 0.720320 0.321820 0.826490
Si Si6 0.230659 0.914132 0.784257
Si Si7 0.899555 0.389014 0.452079
Si Si8 0.768384 0.644726 0.909481
O O1 0.617556 0.038379 0.215122
O O2 0.150317 0.108855 0.158838
O O3 0.144868 0.253157 0.343370
O O4 0.587064 0.871075 0.294550
O O5 0.327392 0.793852 0.662810
O O6 0.571531 0.613872 0.446316
O O7 0.144058 0.718430 0.530461
O O8 0.000000 0.000000 0.500000
O O9 0.650972 0.475913 0.149739
O O10 0.217366 0.231620 0.059161
O O11 0.848548 0.280096 0.953181
O O12 0.154271 0.648947 0.253772
O O13 0.980847 0.617954 0.428639
O O14 0.048115 0.496705 0.210270
O O15 0.865505 0.127961 0.785605
O O16 0.409558 0.784486 0.888423
O O17 0.000000 0.500000 0.000000
#
# Coordination Sequence:
#
# PCOD9026641 Si02
#       8
#     2   2   2   2   2   2   2   2
#     4  10  24  40  65  93 130 168 219 261 326 379
#     4  11  24  42  67  97 130 175 216 267 331 379
#     4  10  23  40  61  96 122 172 207 267 319 388
#     4  11  22  42  66  90 126 170 213 266 319 385
#     4  10  22  41  65  87 130 163 217 259 327 381
#     4  10  23  42  65  94 125 173 214 266 323 389
#     4  11  25  44  66  97 134 173 217 270 323 388
#     4  11  22  40  63  93 127 163 215 267 320 382
#
# _framework density 26.283688999999999
#
# number of rings (size 3 to 8) (size 9 to 14) (size 15 to 20)
#    0.000    1.500    2.500    1.875    7.000    3.000 
#    2.250    0.625    0.000    0.000    0.000    0.000 
#    0.000    0.000    0.000    0.000    0.000    0.000 
#
# Total GULP energy -89402.048463 kJ/mol
# GULP energy per Si atom -5587.628029 kJ/mol
# Density = 2.622387 g / cm^3
# Si number density = 26.283689 Si / 1000 Ang^3
#
#
#
# Elastic Constant Matrix: (Units=GPa)
#
#
# Indices 1 2 3 4 5 6 
#
# 1 52.6563 7.5123 12.1938 0.4235 1.4265 7.3248
# 2 7.5123 157.1324 32.5972 -3.5630 -14.1182 -0.7300
# 3 12.1938 32.5972 87.3862 -15.1722 9.1387 -8.2494
# 4 0.4235 -3.5630 -15.1722 50.3574 -3.5818 2.3106
# 5 1.4265 -14.1182 9.1387 -3.5818 29.7375 1.0241
# 6 7.3248 -0.7300 -8.2494 2.3106 1.0241 31.2709
#
#
#
# Elastic Compliance Matrix: (Units=1/GPa)
#
#
# Indices 1 2 3 4 5 6 
#
# 1 0.020638 -0.000315 -0.003469 -0.000980 0.000004 -0.005685
# 2 -0.000315 0.007474 -0.003316 -0.000105 0.004596 -0.000769
# 3 -0.003469 -0.003316 0.014822 0.003647 -0.005681 0.004562
# 4 -0.000980 -0.000105 0.003647 0.021078 0.001429 -0.000415
# 5 0.000004 0.004596 -0.005681 0.001429 0.037822 -0.002737
# 6 -0.005685 -0.000769 0.004562 -0.000415 -0.002737 0.034616
#
#
# Mechanical properties :
#
#
# Convention : Reuss Voigt Hill
#
# Bulk Modulus (GPa) = 34.80213 44.64239 39.72226
# Shear Modulus (GPa) = 31.20543 38.59792 34.90168
#
# Velocity S-wave (km/s) = 3.44939 3.83627 3.64797
# Velocity P-wave (km/s) = 5.39760 6.05346 5.73492
#
# Compressibility (1/GPa) = 0.02873387
#
# Stress axis : x y z
#
# Youngs Moduli (GPa) = 48.45429 133.79827 67.46595
#
# Poissons Ratio (x) = 0.04217 0.23407
# Poissons Ratio (y) = 0.01527 0.22369
# Poissons Ratio (z) = 0.16811 0.44361
#
# Static dielectric constant tensor:
#      x y z
#    x 2.276440 0.240140 -0.394250 
#    y 0.240140 2.485510 -0.607390 
#    z -0.394250 -0.607390 2.871120 
# 
# From -- ./inp_files/222989.got.cif
#   From: 2010.05.17/outbox.cif.g08.bks.cpg/sg2_112_cif.got.tgz:222989.got - 2010.06.03 11:33:40.
