data_PCOD9026504
_publ_section_title
;
Structure prediction by ZEFSAII (Michael W. Deem and Ramdas Pophale) SiO2 
 PCOD9026504
Probable space group: P -1
;
_chemical_formula_sum "Si O2"
_cell_formula_units_Z 14
_cell_length_a 8.782587
_cell_length_b 8.643746
_cell_length_c 9.342745
_cell_angle_alpha 124.315505
_cell_angle_beta 80.864845
_cell_angle_gamma 107.912685
_cell_volume 557.309010
_symmetry_space_group_name_H-M "P -1"
_symmetry_group_IT_number 2
_symmetry_cell_setting 'triclinic'
loop_
_space_group_symop_operation_xyz
x,y,z
-x,-y,-z
loop_
_atom_site_type_symbol
_atom_site_label
_atom_site_fract_x
_atom_site_fract_y
_atom_site_fract_z
Si Si1 0.267038 0.797718 0.518300
Si Si2 0.104104 0.301008 0.088594
Si Si3 0.926289 0.563307 0.328589
Si Si4 0.394185 0.636668 0.153051
Si Si5 0.913873 0.905090 0.297370
Si Si6 0.498033 0.956770 0.810424
Si Si7 0.222601 0.235234 0.351075
O O1 0.390645 0.719532 0.360345
O O2 0.338160 0.855088 0.693947
O O3 0.091002 0.648147 0.441530
O O4 0.225166 0.998769 0.580491
O O5 0.216705 0.494953 0.100493
O O6 0.174835 0.259287 0.207089
O O7 0.937828 0.355142 0.164663
O O8 0.105384 0.136626 0.890156
O O9 0.922012 0.710704 0.276241
O O10 0.782572 0.575334 0.459508
O O11 0.430952 0.831251 0.158752
O O12 0.500000 0.500000 0.000000
O O13 0.084024 0.065547 0.358841
O O14 0.615129 0.821697 0.697565
O O15 0.500000 0.000000 0.000000
#
# Coordination Sequence:
#
# PCOD9026504 Si02
#       7
#     2   2   2   2   2   2   2
#     4  10  22  42  66  91 126 168 208 257 314 375
#     4  11  23  40  62  95 129 161 206 267 315 363
#     4  10  22  41  64  94 124 161 210 263 314 366
#     4  11  23  41  62  91 128 167 208 258 315 370
#     4  11  21  41  68  93 122 167 214 256 309 376
#     4  12  25  43  66  94 126 169 215 257 311 382
#     4  11  22  40  64  92 124 165 211 254 309 380
#
# _framework density 25.120715000000001
#
# number of rings (size 3 to 8) (size 9 to 14) (size 15 to 20)
#    0.000    1.143    0.000    8.571    0.000    2.286 
#    0.000    9.286    0.000    0.000    0.000    0.000 
#    0.000    0.000    0.000    0.000    0.000    0.000 
#
# Total GULP energy -78273.254802 kJ/mol
# GULP energy per Si atom -5590.946772 kJ/mol
# Density = 2.506354 g / cm^3
# Si number density = 25.120715 Si / 1000 Ang^3
#
#
#
# Elastic Constant Matrix: (Units=GPa)
#
#
# Indices 1 2 3 4 5 6 
#
# 1 89.0136 32.8736 61.4359 4.1064 -23.5549 -22.6677
# 2 32.8736 100.3298 26.8772 -3.3828 2.1863 -15.9680
# 3 61.4359 26.8772 180.3296 -2.7287 -24.0815 -22.6838
# 4 4.1064 -3.3828 -2.7287 38.3172 -15.9415 -8.9788
# 5 -23.5549 2.1863 -24.0815 -15.9415 45.4203 5.9301
# 6 -22.6677 -15.9680 -22.6838 -8.9788 5.9301 40.4939
#
#
#
# Elastic Compliance Matrix: (Units=1/GPa)
#
#
# Indices 1 2 3 4 5 6 
#
# 1 0.019163 -0.004343 -0.004035 0.001983 0.007916 0.006035
# 2 -0.004343 0.012021 -0.000365 0.000863 -0.003080 0.002747
# 3 -0.004035 -0.000365 0.007611 0.002488 0.002568 0.002037
# 4 0.001983 0.000863 0.002488 0.033496 0.012969 0.008372
# 5 0.007916 -0.003080 0.002568 0.012969 0.031808 0.002872
# 6 0.006035 0.002747 0.002037 0.008372 0.002872 0.031733
#
#
# Mechanical properties :
#
#
# Convention : Reuss Voigt Hill
#
# Bulk Modulus (GPa) = 46.92721 68.00517 57.46619
# Shear Modulus (GPa) = 31.16778 41.41203 36.28990
#
# Velocity S-wave (km/s) = 3.52621 4.06460 3.80494
# Velocity P-wave (km/s) = 5.94139 7.01129 6.49839
#
# Compressibility (1/GPa) = 0.02130960
#
# Stress axis : x y z
#
# Youngs Moduli (GPa) = 52.18368 83.18529 131.38558
#
# Poissons Ratio (x) = 0.36128 0.53016
# Poissons Ratio (y) = 0.22664 0.04792
# Poissons Ratio (z) = 0.21057 0.03034
#
# Static dielectric constant tensor:
#      x y z
#    x 1.971850 0.027760 -0.032440 
#    y 0.027760 2.019320 0.043760 
#    z -0.032440 0.043760 2.133540 
# 
# From -- ./inp_files/156986.got.cif
#   From: 2010.05.17/outbox.cif.g08.bks.cpg/sg2_79_cif.got.tgz:156986.got - 2010.06.03 11:33:40.
