data_PCOD9026490
_publ_section_title
;
Structure prediction by ZEFSAII (Michael W. Deem and Ramdas Pophale) SiO2 
 PCOD9026490
Probable space group: P -1
;
_chemical_formula_sum "Si O2"
_cell_formula_units_Z 12
_cell_length_a 8.512410
_cell_length_b 11.842584
_cell_length_c 20.275928
_cell_angle_alpha 155.855041
_cell_angle_beta 41.436522
_cell_angle_gamma 124.670650
_cell_volume 500.670348
_symmetry_space_group_name_H-M "P -1"
_symmetry_group_IT_number 2
_symmetry_cell_setting 'triclinic'
loop_
_space_group_symop_operation_xyz
x,y,z
-x,-y,-z
loop_
_atom_site_type_symbol
_atom_site_label
_atom_site_fract_x
_atom_site_fract_y
_atom_site_fract_z
Si Si1 0.705709 0.856082 0.992872
Si Si2 0.838993 0.283656 0.568810
Si Si3 0.762508 0.199657 0.274073
Si Si4 0.631495 0.482514 0.602150
Si Si5 0.282978 0.818024 0.257815
Si Si6 0.735106 0.828894 0.430563
O O1 0.679469 0.557802 0.815933
O O2 0.983608 0.798741 0.840723
O O3 0.726650 0.928430 0.101899
O O4 0.484279 0.168919 0.199439
O O5 0.806497 0.414091 0.575762
O O6 0.724577 0.029757 0.476993
O O7 0.138884 0.089081 0.394492
O O8 0.500000 0.500000 0.500000
O O9 0.780261 0.241634 0.368992
O O10 0.377326 0.419517 0.668719
O O11 0.033852 0.742146 0.313760
O O12 0.403137 0.946203 0.345624
O O13 0.500000 0.500000 0.000000
#
# Coordination Sequence:
#
# PCOD9026490 Si02
#       6
#     2   2   2   2   2   2
#     4  10  22  41  64  93 130 171 211 256 320 379
#     4  10  22  42  65  95 130 165 211 269 316 372
#     4   9  22  38  63  91 128 173 212 255 309 390
#     4  11  22  42  63  99 132 162 210 266 323 374
#     4   9  21  41  63  91 124 172 214 257 309 379
#     4   9  22  39  63  92 126 167 216 253 315 386
#
# _framework density 23.967863000000001
#
# number of rings (size 3 to 8) (size 9 to 14) (size 15 to 20)
#    1.000    1.333    0.000    1.000    7.000    3.333 
#    6.000    0.833    0.000    0.000    0.000    0.000 
#    0.000    0.000    0.000    0.000    0.000    0.000 
#
# Total GULP energy -66939.863038 kJ/mol
# GULP energy per Si atom -5578.321920 kJ/mol
# Density = 2.391331 g / cm^3
# Si number density = 23.967863 Si / 1000 Ang^3
#
#
#
# Elastic Constant Matrix: (Units=GPa)
#
#
# Indices 1 2 3 4 5 6 
#
# 1 42.6581 23.8721 12.9785 -1.1436 2.7114 -12.6164
# 2 23.8721 73.8392 27.1709 5.1258 0.7097 -13.0996
# 3 12.9785 27.1709 123.2380 0.4584 5.0469 -17.2424
# 4 -1.1436 5.1258 0.4584 42.1414 -0.3126 5.5020
# 5 2.7114 0.7097 5.0469 -0.3126 25.9513 -3.9524
# 6 -12.6164 -13.0996 -17.2424 5.5020 -3.9524 55.7153
#
#
#
# Elastic Compliance Matrix: (Units=1/GPa)
#
#
# Indices 1 2 3 4 5 6 
#
# 1 0.029965 -0.008804 -0.000535 0.001317 -0.002120 0.004269
# 2 -0.008804 0.017895 -0.002823 -0.002596 0.001204 0.001682
# 3 -0.000535 -0.002823 0.009120 -0.000034 -0.001345 0.001946
# 4 0.001317 -0.002596 -0.000034 0.024439 -0.000184 -0.002749
# 5 -0.002120 0.001204 -0.001345 -0.000184 0.039316 0.002194
# 6 0.004269 0.001682 0.001946 -0.002749 0.002194 0.020340
#
#
# Mechanical properties :
#
#
# Convention : Reuss Voigt Hill
#
# Bulk Modulus (GPa) = 30.62223 40.86426 35.74325
# Shear Modulus (GPa) = 28.36330 36.47586 32.41958
#
# Velocity S-wave (km/s) = 3.44377 3.90534 3.68180
# Velocity P-wave (km/s) = 5.34947 6.11737 5.74626
#
# Compressibility (1/GPa) = 0.03265601
#
# Stress axis : x y z
#
# Youngs Moduli (GPa) = 33.37258 55.88167 109.64341
#
# Poissons Ratio (x) = 0.49199 0.05869
# Poissons Ratio (y) = 0.29382 0.30947
# Poissons Ratio (z) = 0.01787 0.15773
#
# Static dielectric constant tensor:
#      x y z
#    x 1.956150 0.034770 0.021300 
#    y 0.034770 2.061910 -0.038310 
#    z 0.021300 -0.038310 1.920160 
# 
# From -- ./inp_files/558737.got.cif
#   From: 2010.05.17/outbox.cif.g08.bks.cpg/sg2_280_cif.got.tgz:558737.got - 2010.06.03 11:33:40.
