data_PCOD9026713
_publ_section_title
;
Structure prediction by ZEFSAII (Michael W. Deem and Ramdas Pophale) SiO2 
 PCOD9026713
Probable space group: P -1
;
_chemical_formula_sum "Si O2"
_cell_formula_units_Z 14
_cell_length_a 11.072909
_cell_length_b 12.259609
_cell_length_c 7.681998
_cell_angle_alpha 138.138203
_cell_angle_beta 129.966716
_cell_angle_gamma 57.881297
_cell_volume 530.460198
_symmetry_space_group_name_H-M "P -1"
_symmetry_group_IT_number 2
_symmetry_cell_setting 'triclinic'
loop_
_space_group_symop_operation_xyz
x,y,z
-x,-y,-z
loop_
_atom_site_type_symbol
_atom_site_label
_atom_site_fract_x
_atom_site_fract_y
_atom_site_fract_z
Si Si1 0.431657 0.196247 0.008466
Si Si2 0.112124 0.760141 0.708216
Si Si3 0.122596 0.006706 0.465773
Si Si4 0.062950 0.649569 0.904748
Si Si5 0.681768 0.633792 0.238935
Si Si6 0.351301 0.010297 0.246260
Si Si7 0.718675 0.563106 0.567738
O O1 0.282411 0.089236 0.740302
O O2 0.425780 0.304537 0.952296
O O3 0.582573 0.059903 0.961596
O O4 0.403388 0.323622 0.291883
O O5 0.051930 0.662230 0.699600
O O6 0.219447 0.621828 0.532567
O O7 0.975143 0.869596 0.612435
O O8 0.224509 0.890661 0.036854
O O9 0.000000 0.000000 0.500000
O O10 0.145356 0.812773 0.217440
O O11 0.181088 0.489557 0.868164
O O12 0.888349 0.643041 0.815312
O O13 0.645206 0.545609 0.283980
O O14 0.719184 0.804067 0.569841
O O15 0.500000 0.000000 0.500000
#
# Coordination Sequence:
#
# PCOD9026713 Si02
#       7
#     2   2   2   2   2   2   2
#     4  11  24  44  68  96 143 176 221 282 329 406
#     4  11  24  42  69  96 139 175 223 280 329 408
#     4  12  24  40  65 104 133 170 225 273 336 399
#     4  11  21  40  66  98 132 174 221 277 334 388
#     4  10  22  41  65  93 130 179 219 270 330 393
#     4  10  23  46  69  96 133 184 224 270 344 398
#     4  11  23  40  67 105 134 176 223 275 348 388
#
# _framework density 26.392175999999999
#
# number of rings (size 3 to 8) (size 9 to 14) (size 15 to 20)
#    0.000    1.143    1.429    6.429    2.000    2.286 
#    0.000   17.857    0.000    0.000    0.000    0.000 
#    0.000    0.000    0.000    0.000    0.000    0.000 
#
# Total GULP energy -78266.666198 kJ/mol
# GULP energy per Si atom -5590.476157 kJ/mol
# Density = 2.633211 g / cm^3
# Si number density = 26.392176 Si / 1000 Ang^3
#
#
#
# Elastic Constant Matrix: (Units=GPa)
#
#
# Indices 1 2 3 4 5 6 
#
# 1 115.7049 25.2983 16.8929 11.6865 -24.5175 -0.2982
# 2 25.2983 116.8857 35.1823 24.9938 3.0520 -14.0445
# 3 16.8929 35.1823 82.9533 29.8876 -9.8006 -11.8775
# 4 11.6865 24.9938 29.8876 45.2443 -5.4935 -7.9209
# 5 -24.5175 3.0520 -9.8006 -5.4935 62.9438 16.0239
# 6 -0.2982 -14.0445 -11.8775 -7.9209 16.0239 29.6130
#
#
#
# Elastic Compliance Matrix: (Units=1/GPa)
#
#
# Indices 1 2 3 4 5 6 
#
# 1 0.010470 -0.002495 -0.000746 -0.000984 0.005120 -0.004411
# 2 -0.002495 0.011374 -0.002790 -0.003302 -0.003599 0.005314
# 3 -0.000746 -0.002790 0.017126 -0.009002 0.001077 0.002547
# 4 -0.000984 -0.003302 -0.009002 0.030664 0.000329 0.002837
# 5 0.005120 -0.003599 0.001077 0.000329 0.021504 -0.012771
# 6 -0.004411 0.005314 0.002547 0.002837 -0.012771 0.044936
#
#
# Mechanical properties :
#
#
# Convention : Reuss Voigt Hill
#
# Bulk Modulus (GPa) = 37.16545 52.25454 44.71000
# Shear Modulus (GPa) = 31.82595 43.43825 37.63210
#
# Velocity S-wave (km/s) = 3.47635 4.06134 3.78018
# Velocity P-wave (km/s) = 5.49781 6.46799 6.00253
#
# Compressibility (1/GPa) = 0.02690671
#
# Stress axis : x y z
#
# Youngs Moduli (GPa) = 95.51097 87.92153 58.39142
#
# Poissons Ratio (x) = 0.21934 0.04357
# Poissons Ratio (y) = 0.23828 0.16294
# Poissons Ratio (z) = 0.07127 0.24534
#
# Static dielectric constant tensor:
#      x y z
#    x 2.139190 0.044290 -0.047740 
#    y 0.044290 2.103720 0.016600 
#    z -0.047740 0.016600 2.154490 
# 
# From -- ./inp_files/261167.got.cif
#   From: 2010.05.17/outbox.cif.g08.bks.cpg/sg2_131_cif.got.tgz:261167.got - 2010.06.03 11:33:40.
