data_PCOD9026375
_publ_section_title
;
Structure prediction by ZEFSAII (Michael W. Deem and Ramdas Pophale) SiO2 
 PCOD9026375
Probable space group: P -1
;
_chemical_formula_sum "Si O2"
_cell_formula_units_Z 15
_cell_length_a 5.306843
_cell_length_b 11.301566
_cell_length_c 19.264196
_cell_angle_alpha 149.005938
_cell_angle_beta 95.917879
_cell_angle_gamma 79.622846
_cell_volume 582.221873
_symmetry_space_group_name_H-M "P -1"
_symmetry_group_IT_number 2
_symmetry_cell_setting 'triclinic'
loop_
_space_group_symop_operation_xyz
x,y,z
-x,-y,-z
loop_
_atom_site_type_symbol
_atom_site_label
_atom_site_fract_x
_atom_site_fract_y
_atom_site_fract_z
Si Si1 0.827248 0.808021 0.114104
Si Si2 0.524923 0.269514 0.130478
Si Si3 0.000000 0.500000 0.500000
Si Si4 0.443504 0.723610 0.704767
Si Si5 0.657180 0.910845 0.320548
Si Si6 0.709242 0.331211 0.875569
Si Si7 0.889763 0.352597 0.547586
Si Si8 0.041088 0.473686 0.764869
O O1 0.740586 0.856040 0.215716
O O2 0.124898 0.827192 0.140996
O O3 0.635978 0.997453 0.161305
O O4 0.845381 0.540694 0.956331
O O5 0.560140 0.342784 0.248293
O O6 0.766289 0.338079 0.131167
O O7 0.251083 0.409590 0.168589
O O8 0.500000 0.000000 0.000000
O O9 0.232689 0.631429 0.606660
O O10 0.926150 0.712660 0.544859
O O11 0.736783 0.598160 0.629507
O O12 0.389046 0.815715 0.262229
O O13 0.836739 0.748364 0.298117
O O14 0.695742 0.174642 0.465084
O O15 0.500000 0.500000 0.000000
O O16 0.020606 0.396261 0.644785
#
# Coordination Sequence:
#
# PCOD9026375 Si02
#       8
#     2   2   1   2   2   2   2   2
#     4  10  22  41  64 103 133 179 231 290 354 419
#     4  11  26  49  74 106 141 193 239 298 355 428
#     4  12  22  42  68  96 142 174 234 284 352 420
#     4  11  25  42  71 101 142 177 239 293 354 423
#     4  11  24  41  69  97 140 185 228 293 347 435
#     4   9  22  41  62  97 135 177 230 282 356 415
#     4  11  25  46  66 106 135 187 233 296 356 421
#     4  11  26  49  70 106 143 187 245 287 362 422
#
# _framework density 25.763372
#
# number of rings (size 3 to 8) (size 9 to 14) (size 15 to 20)
#    0.000    1.333    2.667    1.200    5.600    3.200 
#    0.000    2.000    0.000    0.000    0.000    0.000 
#    0.000    0.000    0.000    0.000    0.000    0.000 
#
# Total GULP energy -83583.415752 kJ/mol
# GULP energy per Si atom -5572.227717 kJ/mol
# Density = 2.570473 g / cm^3
# Si number density = 25.763372 Si / 1000 Ang^3
#
#
#
# Elastic Constant Matrix: (Units=GPa)
#
#
# Indices 1 2 3 4 5 6 
#
# 1 74.3753 36.6961 29.0692 9.9734 32.0176 -21.8449
# 2 36.6961 170.6125 42.2387 6.0395 7.5711 -32.9876
# 3 29.0692 42.2387 121.1353 15.7375 28.8610 -10.0173
# 4 9.9734 6.0395 15.7375 51.0169 -0.4464 -7.9336
# 5 32.0176 7.5711 28.8610 -0.4464 38.9175 1.6787
# 6 -21.8449 -32.9876 -10.0173 -7.9336 1.6787 27.9688
#
#
#
# Elastic Compliance Matrix: (Units=1/GPa)
#
#
# Indices 1 2 3 4 5 6 
#
# 1 0.035740 -0.001253 0.002292 -0.003440 -0.032115 0.028209
# 2 -0.001253 0.008186 -0.002214 0.001239 0.000741 0.008189
# 3 0.002292 -0.002214 0.011601 -0.003390 -0.010225 0.002986
# 4 -0.003440 0.001239 -0.003390 0.021750 0.005205 0.003418
# 5 -0.032115 0.000741 -0.010225 0.005205 0.060911 -0.030051
# 6 0.028209 0.008189 0.002986 0.003418 -0.030051 0.071288
#
#
# Mechanical properties :
#
#
# Convention : Reuss Voigt Hill
#
# Bulk Modulus (GPa) = 18.80593 64.68123 41.74358
# Shear Modulus (GPa) = 21.78167 40.78861 31.28514
#
# Velocity S-wave (km/s) = 2.91082 3.98326 3.48850
# Velocity P-wave (km/s) = 4.31422 6.80555 5.69772
#
# Compressibility (1/GPa) = 0.05317471
#
# Stress axis : x y z
#
# Youngs Moduli (GPa) = 27.98023 122.16639 86.20105
#
# Poissons Ratio (x) = 0.15312 -0.19754
# Poissons Ratio (y) = 0.03507 0.19083
# Poissons Ratio (z) = -0.06412 0.27046
#
# Static dielectric constant tensor:
#      x y z
#    x 2.189540 0.000420 0.343760 
#    y 0.000420 2.030900 0.148420 
#    z 0.343760 0.148420 1.905990 
# 
# From -- ./inp_files/583174.got.cif
#   From: 2010.05.17/outbox.cif.g08.bks.cpg/sg2_292_cif.got.tgz:583174.got - 2010.06.03 11:33:40.
