data_PCOD9026879
_publ_section_title
;
Structure prediction by ZEFSAII (Michael W. Deem and Ramdas Pophale) SiO2 
 PCOD9026879
Probable space group: P -1
;
_chemical_formula_sum "Si O2"
_cell_formula_units_Z 14
_cell_length_a 9.354409
_cell_length_b 14.344614
_cell_length_c 18.640934
_cell_angle_alpha 32.225832
_cell_angle_beta 29.692353
_cell_angle_gamma 30.285314
_cell_volume 577.059684
_symmetry_space_group_name_H-M "P -1"
_symmetry_group_IT_number 2
_symmetry_cell_setting 'triclinic'
loop_
_space_group_symop_operation_xyz
x,y,z
-x,-y,-z
loop_
_atom_site_type_symbol
_atom_site_label
_atom_site_fract_x
_atom_site_fract_y
_atom_site_fract_z
Si Si1 0.530207 0.449637 0.809703
Si Si2 0.393637 0.912919 0.897781
Si Si3 0.281004 0.524953 0.712182
Si Si4 0.331142 0.879091 0.680917
Si Si5 0.214361 0.311219 0.650366
Si Si6 0.272370 0.409258 0.188404
Si Si7 0.591639 0.079583 0.838785
O O1 0.328939 0.469715 0.811698
O O2 0.406650 0.675846 0.739850
O O3 0.928058 0.353178 0.689173
O O4 0.493647 0.316842 0.975454
O O5 0.422856 0.072895 0.727304
O O6 0.520271 0.976123 0.871815
O O7 0.000000 0.000000 0.000000
O O8 0.527166 0.611905 0.531251
O O9 0.394743 0.314282 0.761866
O O10 0.918679 0.643938 0.756174
O O11 0.462193 0.797336 0.755970
O O12 0.500000 0.000000 0.500000
O O13 0.956955 0.026878 0.731544
O O14 0.984952 0.446151 0.731230
O O15 0.500000 0.500000 0.000000
O O16 0.500000 0.000000 0.000000
#
# Coordination Sequence:
#
# PCOD9026879 Si02
#       7
#     2   2   2   2   2   2   2
#     4  10  23  45  66 101 137 179 219 283 339 401
#     4  10  22  41  66 101 135 173 228 278 330 398
#     4  12  23  43  76 102 132 175 236 278 328 401
#     4  11  27  48  68  97 142 179 219 279 348 397
#     4  10  22  41  69 102 133 178 227 280 331 396
#     4  11  24  43  65 102 140 180 220 276 339 400
#     4  12  23  42  72 101 131 182 228 268 334 409
#
# _framework density 24.260922000000001
#
# number of rings (size 3 to 8) (size 9 to 14) (size 15 to 20)
#    0.000    1.143    2.857    3.429    2.000    0.571 
#    5.143    0.714    0.000    0.000    0.000    0.000 
#    0.000    0.000    0.000    0.000    0.000    0.000 
#
# Total GULP energy -78092.251180 kJ/mol
# GULP energy per Si atom -5578.017941 kJ/mol
# Density = 2.420570 g / cm^3
# Si number density = 24.260922 Si / 1000 Ang^3
#
#
#
# Elastic Constant Matrix: (Units=GPa)
#
#
# Indices 1 2 3 4 5 6 
#
# 1 277.3263 283.2408 212.0073 -34.0334 -67.4363 -109.2052
# 2 283.2408 583.3805 418.9650 -118.0301 -92.0948 -147.5970
# 3 212.0073 418.9650 439.3457 -88.4400 -79.9224 -99.7201
# 4 -34.0334 -118.0301 -88.4400 65.7740 6.4954 18.2116
# 5 -67.4363 -92.0948 -79.9224 6.4954 52.3404 24.6776
# 6 -109.2052 -147.5970 -99.7201 18.2116 24.6776 70.2865
#
#
#
# Elastic Compliance Matrix: (Units=1/GPa)
#
#
# Indices 1 2 3 4 5 6 
#
# 1 0.011867 -0.001265 -0.000766 -0.001333 0.005954 0.012950
# 2 -0.001265 0.010963 -0.004912 0.009164 0.004194 0.010240
# 3 -0.000766 -0.004912 0.007680 0.001379 0.002854 -0.001969
# 4 -0.001333 0.009164 0.001379 0.029627 0.008911 0.008323
# 5 0.005954 0.004194 0.002854 0.008911 0.033643 0.007986
# 6 0.012950 0.010240 -0.001969 0.008323 0.007986 0.048097
#
#
# Mechanical properties :
#
#
# Convention : Reuss Voigt Hill
#
# Bulk Modulus (GPa) = 60.15683 347.60874 203.88278
# Shear Modulus (GPa) = 30.99721 63.40279 47.20000
#
# Velocity S-wave (km/s) = 3.57831 5.11766 4.41558
# Velocity P-wave (km/s) = 6.47472 13.36080 10.49840
#
# Compressibility (1/GPa) = 0.01662322
#
# Stress axis : x y z
#
# Youngs Moduli (GPa) = 84.26801 91.21782 130.20973
#
# Poissons Ratio (x) = 0.11536 0.09980
# Poissons Ratio (y) = 0.10657 0.63960
# Poissons Ratio (z) = 0.06459 0.44807
#
# Static dielectric constant tensor:
#      x y z
#    x 2.177500 0.286660 -0.125350 
#    y 0.286660 2.208060 -0.128860 
#    z -0.125350 -0.128860 2.011330 
# 
# From -- ./inp_files/590445.got.cif
#   From: 2010.05.17/outbox.cif.g08.bks.cpg/sg2_296_cif.got.tgz:590445.got - 2010.06.03 11:33:40.
