data_PCOD9026824
_publ_section_title
;
Structure prediction by ZEFSAII (Michael W. Deem and Ramdas Pophale) SiO2 
 PCOD9026824
Probable space group: P -1
;
_chemical_formula_sum "Si O2"
_cell_formula_units_Z 15
_cell_length_a 14.205997
_cell_length_b 9.332377
_cell_length_c 6.990729
_cell_angle_alpha 62.978377
_cell_angle_beta 53.465075
_cell_angle_gamma 62.213890
_cell_volume 638.108613
_symmetry_space_group_name_H-M "P -1"
_symmetry_group_IT_number 2
_symmetry_cell_setting 'triclinic'
loop_
_space_group_symop_operation_xyz
x,y,z
-x,-y,-z
loop_
_atom_site_type_symbol
_atom_site_label
_atom_site_fract_x
_atom_site_fract_y
_atom_site_fract_z
Si Si1 0.416366 0.020788 0.398187
Si Si2 0.178299 0.078708 0.233279
Si Si3 0.110764 0.584725 0.284034
Si Si4 0.135379 0.449567 0.955979
Si Si5 0.696891 0.650030 0.545709
Si Si6 0.991837 0.036676 0.766937
Si Si7 0.429066 0.822768 0.149283
Si Si8 0.500000 0.500000 0.000000
O O1 0.297132 0.160548 0.533828
O O2 0.500000 0.000000 0.500000
O O3 0.417515 0.854687 0.375184
O O4 0.458034 0.121641 0.111710
O O5 0.121613 0.011266 0.526169
O O6 0.310962 0.955528 0.120895
O O7 0.168822 0.274007 0.137544
O O8 0.087422 0.066793 0.179704
O O9 0.231204 0.473230 0.303603
O O10 0.000000 0.500000 0.500000
O O11 0.074773 0.767801 0.304178
O O12 0.135297 0.590336 0.025769
O O13 0.234211 0.418297 0.689817
O O14 0.000000 0.500000 0.000000
O O15 0.560838 0.634118 0.736576
O O16 0.000000 0.000000 0.000000
O O17 0.444174 0.640248 0.155009
#
# Coordination Sequence:
#
# PCOD9026824 Si02
#       8
#     2   2   2   2   2   2   2   1
#     4  10  22  41  65  98 126 172 233 285 343 415
#     4  11  23  41  64  95 135 181 226 284 349 414
#     4  12  23  42  67 102 140 182 228 287 353 420
#     4  12  23  39  68 101 136 181 231 282 345 421
#     4  11  24  43  68  97 141 182 234 287 352 420
#     4  11  25  40  62  98 141 179 228 282 348 423
#     4  10  22  41  66  89 129 172 226 288 347 405
#     4  10  24  46  66  94 136 184 230 292 350 414
#
# _framework density 23.506971
#
# number of rings (size 3 to 8) (size 9 to 14) (size 15 to 20)
#    0.000    1.067    2.667    3.200    0.000    6.400 
#    0.000    6.000    0.000    0.000    0.000    0.000 
#    0.000    0.000    0.000    0.000    0.000    0.000 
#
# Total GULP energy -83526.956469 kJ/mol
# GULP energy per Si atom -5568.463765 kJ/mol
# Density = 2.345347 g / cm^3
# Si number density = 23.506971 Si / 1000 Ang^3
#
#
#
# Elastic Constant Matrix: (Units=GPa)
#
#
# Indices 1 2 3 4 5 6 
#
# 1 17.6778 6.1119 17.7576 -2.6363 12.9276 -1.2229
# 2 6.1119 129.5182 -2.3216 27.8886 1.6697 9.5047
# 3 17.7576 -2.3216 108.0798 32.5191 4.6898 5.8619
# 4 -2.6363 27.8886 32.5191 42.5095 -0.5157 6.6248
# 5 12.9276 1.6697 4.6898 -0.5157 32.5122 3.8104
# 6 -1.2229 9.5047 5.8619 6.6248 3.8104 32.0587
#
#
#
# Elastic Compliance Matrix: (Units=1/GPa)
#
#
# Indices 1 2 3 4 5 6 
#
# 1 0.146033 -0.017809 -0.036680 0.045923 -0.052814 0.014345
# 2 -0.017809 0.011851 0.007292 -0.013872 0.005590 -0.003324
# 3 -0.036680 0.007292 0.022169 -0.023238 0.011128 -0.004135
# 4 0.045923 -0.013872 -0.023238 0.052967 -0.013445 0.000766
# 5 -0.052814 0.005590 0.011128 -0.013445 0.050702 -0.008955
# 6 0.014345 -0.003324 -0.004135 0.000766 -0.008955 0.034388
#
#
# Mechanical properties :
#
#
# Convention : Reuss Voigt Hill
#
# Bulk Modulus (GPa) = 11.67412 33.15238 22.41325
# Shear Modulus (GPa) = 11.33645 36.99795 24.16720
#
# Velocity S-wave (km/s) = 2.19842 3.97156 3.20986
# Velocity P-wave (km/s) = 3.37951 5.93000 4.82628
#
# Compressibility (1/GPa) = 0.08565956
#
# Stress axis : x y z
#
# Youngs Moduli (GPa) = 6.84776 84.38229 45.10849
#
# Poissons Ratio (x) = 1.50276 1.65456
# Poissons Ratio (y) = 0.12195 -0.32893
# Poissons Ratio (z) = 0.25117 -0.61532
#
# Static dielectric constant tensor:
#      x y z
#    x 1.888300 0.009910 0.035190 
#    y 0.009910 1.890600 0.042020 
#    z 0.035190 0.042020 1.836790 
# 
# From -- ./inp_files/89763.got.cif
#   From: 2010.05.17/outbox.cif.g08.bks.cpg/sg2_45_cif.got.tgz:89763.got - 2010.06.03 11:33:40.
