data_PCOD9026854
_publ_section_title
;
Structure prediction by ZEFSAII (Michael W. Deem and Ramdas Pophale) SiO2 
 PCOD9026854
Probable space group: P -1
;
_chemical_formula_sum "Si O2"
_cell_formula_units_Z 16
_cell_length_a 11.820006
_cell_length_b 4.973676
_cell_length_c 11.149480
_cell_angle_alpha 93.774620
_cell_angle_beta 83.172368
_cell_angle_gamma 82.810992
_cell_volume 643.530044
_symmetry_space_group_name_H-M "P -1"
_symmetry_group_IT_number 2
_symmetry_cell_setting 'triclinic'
loop_
_space_group_symop_operation_xyz
x,y,z
-x,-y,-z
loop_
_atom_site_type_symbol
_atom_site_label
_atom_site_fract_x
_atom_site_fract_y
_atom_site_fract_z
Si Si1 0.255977 0.724671 0.206831
Si Si2 0.253860 0.513691 0.847116
Si Si3 0.190147 0.196999 0.069565
Si Si4 0.513087 0.595729 0.253702
Si Si5 0.426177 0.899403 0.612637
Si Si6 0.916280 0.866475 0.595584
Si Si7 0.813454 0.787832 0.372929
Si Si8 0.954225 0.123691 0.201554
O O1 0.201474 0.465964 0.156595
O O2 0.381396 0.617355 0.236159
O O3 0.173304 0.907206 0.317636
O O4 0.270420 0.938305 0.104700
O O5 0.386150 0.547298 0.850613
O O6 0.152540 0.760481 0.863681
O O7 0.242320 0.423561 0.707378
O O8 0.219581 0.294790 0.937955
O O9 0.064468 0.108977 0.102543
O O10 0.531662 0.405170 0.362461
O O11 0.545655 0.898315 0.277845
O O12 0.291103 0.961904 0.600075
O O13 0.500000 0.000000 0.500000
O O14 0.848444 0.707882 0.502337
O O15 0.997474 0.716641 0.684730
O O16 0.000000 0.000000 0.500000
O O17 0.912740 0.877291 0.275409
#
# Coordination Sequence:
#
# PCOD9026854 Si02
#       8
#     2   2   2   2   2   2   2   2
#     4  11  25  48  67 103 135 183 235 283 343 404
#     4  11  25  42  69 102 136 184 230 285 347 404
#     4  11  27  43  73  99 138 183 235 286 338 406
#     4  11  24  43  69  96 141 176 231 284 338 410
#     4  11  22  40  65 101 135 184 222 276 342 409
#     4   9  21  42  65  94 133 177 220 279 337 409
#     4  10  22  41  65  99 140 174 227 280 347 411
#     4  10  22  43  64  97 135 179 227 280 339 408
#
# _framework density 24.862863999999998
#
# number of rings (size 3 to 8) (size 9 to 14) (size 15 to 20)
#    0.000    1.500    1.250    2.250    7.000    3.000 
#    9.000    0.000    0.000    0.000    0.000    0.000 
#    0.000    0.000    0.000    0.000    0.000    0.000 
#
# Total GULP energy -89341.532703 kJ/mol
# GULP energy per Si atom -5583.845794 kJ/mol
# Density = 2.480628 g / cm^3
# Si number density = 24.862864 Si / 1000 Ang^3
#
#
#
# Elastic Constant Matrix: (Units=GPa)
#
#
# Indices 1 2 3 4 5 6 
#
# 1 129.3541 26.2348 55.3772 -1.3745 -23.7559 -10.1840
# 2 26.2348 94.4017 27.2123 -12.5881 -7.5474 1.1785
# 3 55.3772 27.2123 110.2496 -10.6403 -14.7431 -0.2780
# 4 -1.3745 -12.5881 -10.6403 49.3566 10.7939 1.2514
# 5 -23.7559 -7.5474 -14.7431 10.7939 26.9128 3.9882
# 6 -10.1840 1.1785 -0.2780 1.2514 3.9882 31.0501
#
#
#
# Elastic Compliance Matrix: (Units=1/GPa)
#
#
# Indices 1 2 3 4 5 6 
#
# 1 0.011772 -0.001705 -0.004688 -0.002963 0.008094 0.002964
# 2 -0.001705 0.011963 -0.001852 0.002646 -0.000058 -0.001129
# 3 -0.004688 -0.001852 0.012260 0.001730 0.001607 -0.001634
# 4 -0.002963 0.002646 0.001730 0.023483 -0.010242 -0.000688
# 5 0.008094 -0.000058 0.001607 -0.010242 0.049763 -0.003308
# 6 0.002964 -0.001129 -0.001634 -0.000688 -0.003308 0.033659
#
#
# Mechanical properties :
#
#
# Convention : Reuss Voigt Hill
#
# Bulk Modulus (GPa) = 51.26904 61.29487 56.28196
# Shear Modulus (GPa) = 30.14027 36.47598 33.30813
#
# Velocity S-wave (km/s) = 3.48553 3.83441 3.66413
# Velocity P-wave (km/s) = 6.07158 6.65660 6.37081
#
# Compressibility (1/GPa) = 0.01950495
#
# Stress axis : x y z
#
# Youngs Moduli (GPa) = 84.94875 83.59218 81.56677
#
# Poissons Ratio (x) = 0.14253 0.38240
# Poissons Ratio (y) = 0.14484 0.15103
# Poissons Ratio (z) = 0.39825 0.15478
#
# Static dielectric constant tensor:
#      x y z
#    x 2.072330 -0.049060 -0.004030 
#    y -0.049060 2.047050 0.129220 
#    z -0.004030 0.129220 2.030990 
# 
# From -- ./inp_files/410512.got.cif
#   From: 2010.05.17/outbox.cif.g08.bks.cpg/sg2_206_cif.got.tgz:410512.got - 2010.06.03 11:33:40.
