data_PCOD9026307
_publ_section_title
;
Structure prediction by ZEFSAII (Michael W. Deem and Ramdas Pophale) SiO2 
 PCOD9026307
Probable space group: P -1
;
_chemical_formula_sum "Si O2"
_cell_formula_units_Z 16
_cell_length_a 8.901744
_cell_length_b 16.859301
_cell_length_c 6.225877
_cell_angle_alpha 76.748323
_cell_angle_beta 48.769069
_cell_angle_gamma 78.881914
_cell_volume 682.871394
_symmetry_space_group_name_H-M "P -1"
_symmetry_group_IT_number 2
_symmetry_cell_setting 'triclinic'
loop_
_space_group_symop_operation_xyz
x,y,z
-x,-y,-z
loop_
_atom_site_type_symbol
_atom_site_label
_atom_site_fract_x
_atom_site_fract_y
_atom_site_fract_z
Si Si1 0.967494 0.723852 0.368509
Si Si2 0.269429 0.159567 0.222068
Si Si3 0.194012 0.436651 0.234224
Si Si4 0.527135 0.627201 0.338156
Si Si5 0.625979 0.799959 0.329265
Si Si6 0.003617 0.036402 0.724690
Si Si7 0.672503 0.175055 0.056062
Si Si8 0.788966 0.483745 0.414577
O O1 0.897898 0.766843 0.632251
O O2 0.923423 0.630254 0.480815
O O3 0.811180 0.768580 0.323563
O O4 0.190702 0.747979 0.098873
O O5 0.483791 0.188658 0.070919
O O6 0.204127 0.086401 0.477999
O O7 0.288734 0.140810 0.965350
O O8 0.257895 0.505148 0.293503
O O9 0.029599 0.474211 0.198981
O O10 0.374363 0.387530 0.978855
O O11 0.550649 0.716676 0.349092
O O12 0.663677 0.562100 0.389174
O O13 0.305599 0.595028 0.550990
O O14 0.437183 0.840844 0.606681
O O15 0.815157 0.101787 0.877470
O O16 0.000000 0.000000 0.500000
O O17 0.000000 0.000000 0.000000
#
# Coordination Sequence:
#
# PCOD9026307 Si02
#       8
#     2   2   2   2   2   2   2   2
#     4  10  22  41  63  94 136 177 230 289 350 405
#     4  10  24  45  71 102 138 182 231 279 337 417
#     4  11  21  40  60  86 125 176 230 290 357 416
#     4  11  22  41  60  88 126 173 231 292 358 406
#     4  11  23  41  69  96 135 181 233 293 342 411
#     4  11  28  50  79 112 153 189 226 285 356 422
#     4  10  26  44  70 104 138 180 235 275 342 420
#     4  10  24  38  56  89 126 173 230 292 356 427
#
# _framework density 23.430471000000001
#
# number of rings (size 3 to 8) (size 9 to 14) (size 15 to 20)
#    0.000    1.500    2.500    0.750    8.750    3.000 
#    9.000    0.000    0.000    0.000    0.000    0.000 
#    0.000    0.000    0.000    0.000    0.000    0.000 
#
# Total GULP energy -89210.368085 kJ/mol
# GULP energy per Si atom -5575.648005 kJ/mol
# Density = 2.337714 g / cm^3
# Si number density = 23.430471 Si / 1000 Ang^3
#
#
#
# Elastic Constant Matrix: (Units=GPa)
#
#
# Indices 1 2 3 4 5 6 
#
# 1 91.2160 27.7862 39.6317 -13.1519 -4.2983 12.5883
# 2 27.7862 57.4204 29.1037 -2.1610 6.1260 9.2977
# 3 39.6317 29.1037 124.8801 -2.6500 4.8400 -5.5044
# 4 -13.1519 -2.1610 -2.6500 41.1139 -0.8185 3.7939
# 5 -4.2983 6.1260 4.8400 -0.8185 35.4145 2.3547
# 6 12.5883 9.2977 -5.5044 3.7939 2.3547 28.0593
#
#
#
# Elastic Compliance Matrix: (Units=1/GPa)
#
#
# Indices 1 2 3 4 5 6 
#
# 1 0.016386 -0.004606 -0.004511 0.005509 0.004048 -0.007795
# 2 -0.004606 0.023055 -0.004040 -0.000034 -0.003593 -0.006060
# 3 -0.004511 -0.004040 0.010671 -0.001538 -0.001729 0.005809
# 4 0.005509 -0.000034 -0.001538 0.026625 0.001934 -0.006524
# 5 0.004048 -0.003593 -0.001729 0.001934 0.029879 -0.003733
# 6 -0.007795 -0.006060 0.005809 -0.006524 -0.003733 0.043479
#
#
# Mechanical properties :
#
#
# Convention : Reuss Voigt Hill
#
# Bulk Modulus (GPa) = 42.01658 51.83997 46.92827
# Shear Modulus (GPa) = 27.12373 32.71720 29.92047
#
# Velocity S-wave (km/s) = 3.40608 3.74083 3.57738
# Velocity P-wave (km/s) = 5.78272 6.38995 6.09391
#
# Compressibility (1/GPa) = 0.02380013
#
# Stress axis : x y z
#
# Youngs Moduli (GPa) = 61.02594 43.37446 93.71143
#
# Poissons Ratio (x) = 0.19977 0.42269
# Poissons Ratio (y) = 0.28107 0.37859
# Poissons Ratio (z) = 0.27526 0.17523
#
# Static dielectric constant tensor:
#      x y z
#    x 1.915160 0.029440 0.082580 
#    y 0.029440 1.875720 -0.022410 
#    z 0.082580 -0.022410 1.985220 
# 
# From -- ./inp_files/47275.got.cif
#   From: 2010.05.17/outbox.cif.g08.bks.cpg/sg2_24_cif.got.tgz:47275.got - 2010.06.03 11:33:40.
