data_PCOD9026283
_publ_section_title
;
Structure prediction by ZEFSAII (Michael W. Deem and Ramdas Pophale) SiO2 
 PCOD9026283
Probable space group: P -1
;
_chemical_formula_sum "Si O2"
_cell_formula_units_Z 13
_cell_length_a 9.307988
_cell_length_b 14.700725
_cell_length_c 5.971732
_cell_angle_alpha 130.927257
_cell_angle_beta 71.843504
_cell_angle_gamma 85.909012
_cell_volume 541.734382
_symmetry_space_group_name_H-M "P -1"
_symmetry_group_IT_number 2
_symmetry_cell_setting 'triclinic'
loop_
_space_group_symop_operation_xyz
x,y,z
-x,-y,-z
loop_
_atom_site_type_symbol
_atom_site_label
_atom_site_fract_x
_atom_site_fract_y
_atom_site_fract_z
Si Si1 0.144374 0.174395 0.927299
Si Si2 0.386977 0.481493 0.220189
Si Si3 0.597600 0.728413 0.806034
Si Si4 0.000000 0.000000 0.000000
Si Si5 0.171464 0.501262 0.985417
Si Si6 0.742956 0.070363 0.829602
Si Si7 0.830149 0.294847 0.006954
O O1 0.061093 0.109631 0.039465
O O2 0.232470 0.062770 0.521296
O O3 0.273527 0.220630 0.060368
O O4 0.995928 0.280399 0.033117
O O5 0.464864 0.345060 0.090425
O O6 0.320912 0.605853 0.615676
O O7 0.500000 0.500000 0.000000
O O8 0.223569 0.480371 0.180993
O O9 0.695021 0.614384 0.403823
O O10 0.448443 0.839548 0.935017
O O11 0.839079 0.047827 0.978525
O O12 0.173698 0.637949 0.119116
O O13 0.000000 0.500000 0.000000
O O14 0.825017 0.151899 0.766736
#
# Coordination Sequence:
#
# PCOD9026283 Si02
#       7
#     2   2   2   1   2   2   2
#     4  11  24  42  64  93 131 172 213 265 319 377
#     4  11  23  40  66  95 127 171 212 265 329 378
#     4  11  25  42  64 100 134 164 216 271 319 386
#     4  10  24  42  64  90 120 174 224 252 312 384
#     4  11  23  40  66  95 129 172 211 263 326 381
#     4  11  24  43  65  92 130 170 214 269 319 376
#     4  10  22  41  63  93 128 166 222 265 311 390
#
# _framework density 23.997
#
# number of rings (size 3 to 8) (size 9 to 14) (size 15 to 20)
#    0.000    1.231    0.000    6.000    0.000   17.846 
#    0.000    0.000    0.000    0.000    0.000    0.000 
#    0.000    0.000    0.000    0.000    0.000    0.000 
#
# Total GULP energy -72582.473959 kJ/mol
# GULP energy per Si atom -5583.267228 kJ/mol
# Density = 2.394238 g / cm^3
# Si number density = 23.997000 Si / 1000 Ang^3
#
#
#
# Elastic Constant Matrix: (Units=GPa)
#
#
# Indices 1 2 3 4 5 6 
#
# 1 158.7710 37.7728 28.0916 6.7823 22.9925 -33.4420
# 2 37.7728 100.4712 25.6058 7.0577 4.1068 -32.6526
# 3 28.0916 25.6058 67.2810 17.6342 -0.4748 -5.2581
# 4 6.7823 7.0577 17.6342 15.8322 -2.9723 -4.0195
# 5 22.9925 4.1068 -0.4748 -2.9723 46.0048 1.1201
# 6 -33.4420 -32.6526 -5.2581 -4.0195 1.1201 49.8979
#
#
#
# Elastic Compliance Matrix: (Units=1/GPa)
#
#
# Indices 1 2 3 4 5 6 
#
# 1 0.008734 -0.000624 -0.003183 0.000584 -0.004433 0.005256
# 2 -0.000624 0.014106 -0.004780 0.001234 -0.001122 0.008433
# 3 -0.003183 -0.004780 0.024018 -0.024300 0.000810 -0.004706
# 4 0.000584 0.001234 -0.024300 0.091898 0.005140 0.005925
# 5 -0.004433 -0.001122 0.000810 0.005140 0.024484 -0.003755
# 6 0.005256 0.008433 -0.004706 0.005925 -0.003755 0.029148
#
#
# Mechanical properties :
#
#
# Convention : Reuss Voigt Hill
#
# Bulk Modulus (GPa) = 33.68767 56.60706 45.14737
# Shear Modulus (GPa) = 22.78347 38.01717 30.40032
#
# Velocity S-wave (km/s) = 3.08462 3.98458 3.56313
# Velocity P-wave (km/s) = 5.17255 6.69400 5.98184
#
# Compressibility (1/GPa) = 0.02968445
#
# Stress axis : x y z
#
# Youngs Moduli (GPa) = 114.49377 70.89189 41.63524
#
# Poissons Ratio (x) = 0.04424 0.13252
# Poissons Ratio (y) = 0.07144 0.19902
# Poissons Ratio (z) = 0.36441 0.33887
#
# Static dielectric constant tensor:
#      x y z
#    x 1.940870 0.023300 -0.044690 
#    y 0.023300 1.872700 -0.046300 
#    z -0.044690 -0.046300 1.937870 
# 
# From -- ./inp_files/23119.got.cif
#   From: 2010.05.17/outbox.cif.g08.bks.cpg/sg2_12_cif.got.tgz:23119.got - 2010.06.03 11:33:40.
