data_PCOD9026633
_publ_section_title
;
Structure prediction by ZEFSAII (Michael W. Deem and Ramdas Pophale) SiO2 
 PCOD9026633
Probable space group: P -1
;
_chemical_formula_sum "Si O2"
_cell_formula_units_Z 14
_cell_length_a 10.106226
_cell_length_b 12.129243
_cell_length_c 12.842317
_cell_angle_alpha 40.950816
_cell_angle_beta 146.851734
_cell_angle_gamma 127.423323
_cell_volume 562.838395
_symmetry_space_group_name_H-M "P -1"
_symmetry_group_IT_number 2
_symmetry_cell_setting 'triclinic'
loop_
_space_group_symop_operation_xyz
x,y,z
-x,-y,-z
loop_
_atom_site_type_symbol
_atom_site_label
_atom_site_fract_x
_atom_site_fract_y
_atom_site_fract_z
Si Si1 0.565588 0.817009 0.309315
Si Si2 0.015940 0.582857 0.776057
Si Si3 0.161172 0.569724 0.647378
Si Si4 0.331191 0.210084 0.023727
Si Si5 0.292915 0.924791 0.483788
Si Si6 0.403114 0.808696 0.976631
Si Si7 0.960066 0.195342 0.974024
O O1 0.765007 0.677710 0.579842
O O2 0.684348 0.993943 0.236914
O O3 0.458547 0.768529 0.161008
O O4 0.324364 0.824111 0.216584
O O5 0.032946 0.616274 0.639100
O O6 0.229875 0.673406 0.911024
O O7 0.011537 0.379974 0.921315
O O8 0.260610 0.739733 0.551002
O O9 0.000000 0.500000 0.500000
O O10 0.344191 0.409243 0.906738
O O11 0.579127 0.109946 0.296442
O O12 0.343202 0.194476 0.918906
O O13 0.110078 0.169900 0.982082
O O14 0.500000 0.000000 0.500000
O O15 0.063570 0.054285 0.224650
#
# Coordination Sequence:
#
# PCOD9026633 Si02
#       7
#     2   2   2   2   2   2   2
#     4  11  26  46  70 106 138 187 238 290 341 414
#     4  11  24  48  71 101 141 191 233 282 354 419
#     4  11  23  40  72 102 140 177 233 287 349 415
#     4  10  22  44  70 103 133 184 225 287 350 414
#     4  10  22  41  65 103 141 174 227 286 350 410
#     4  11  25  42  78  99 141 181 243 283 349 416
#     4  10  25  44  71 103 145 176 233 290 354 411
#
# _framework density 24.873926000000001
#
# number of rings (size 3 to 8) (size 9 to 14) (size 15 to 20)
#    0.000    1.429    1.429    2.143   10.000    2.286 
#    7.714    0.000    0.000    0.000    0.000    1.000 
#    0.000    0.000    0.000    0.000    0.000    0.000 
#
# Total GULP energy -78273.403728 kJ/mol
# GULP energy per Si atom -5590.957409 kJ/mol
# Density = 2.481731 g / cm^3
# Si number density = 24.873926 Si / 1000 Ang^3
#
#
#
# Elastic Constant Matrix: (Units=GPa)
#
#
# Indices 1 2 3 4 5 6 
#
# 1 88.5710 16.5232 27.0649 9.6547 7.8080 5.3977
# 2 16.5232 181.8296 33.5880 -1.2944 -13.9951 28.8563
# 3 27.0649 33.5880 112.2219 -18.5325 11.2518 16.3428
# 4 9.6547 -1.2944 -18.5325 41.9200 -0.7053 -12.1715
# 5 7.8080 -13.9951 11.2518 -0.7053 36.9077 -0.5606
# 6 5.3977 28.8563 16.3428 -12.1715 -0.5606 31.7885
#
#
#
# Elastic Compliance Matrix: (Units=1/GPa)
#
#
# Indices 1 2 3 4 5 6 
#
# 1 0.013304 -0.000431 -0.003426 -0.005252 -0.002066 -0.002154
# 2 -0.000431 0.007091 -0.001799 -0.002235 0.003191 -0.006238
# 3 -0.003426 -0.001799 0.011776 0.005343 -0.003474 -0.001855
# 4 -0.005252 -0.002235 0.005343 0.030821 -0.000594 0.011964
# 5 -0.002066 0.003191 -0.003474 -0.000594 0.029782 -0.000462
# 6 -0.002154 -0.006238 -0.001855 0.011964 -0.000462 0.043013
#
#
# Mechanical properties :
#
#
# Convention : Reuss Voigt Hill
#
# Bulk Modulus (GPa) = 47.93985 59.66385 53.80185
# Shear Modulus (GPa) = 32.45666 42.48633 37.47149
#
# Velocity S-wave (km/s) = 3.61618 4.13736 3.88552
# Velocity P-wave (km/s) = 6.06224 6.84560 6.46579
#
# Compressibility (1/GPa) = 0.02085947
#
# Stress axis : x y z
#
# Youngs Moduli (GPa) = 75.16786 141.02874 84.91603
#
# Poissons Ratio (x) = 0.06073 0.29093
# Poissons Ratio (y) = 0.03237 0.15276
# Poissons Ratio (z) = 0.25753 0.25370
#
# Static dielectric constant tensor:
#      x y z
#    x 2.055630 -0.022240 0.045750 
#    y -0.022240 1.989790 -0.014860 
#    z 0.045750 -0.014860 2.067840 
# 
# From -- ./inp_files/518695.got.cif
#   From: 2010.05.17/outbox.cif.g08.bks.cpg/sg2_260_cif.got.tgz:518695.got - 2010.06.03 11:33:40.
