data_PCOD9026546
_publ_section_title
;
Structure prediction by ZEFSAII (Michael W. Deem and Ramdas Pophale) SiO2 
 PCOD9026546
Probable space group: P -1
;
_chemical_formula_sum "Si O2"
_cell_formula_units_Z 14
_cell_length_a 17.598741
_cell_length_b 11.870498
_cell_length_c 6.766275
_cell_angle_alpha 124.777898
_cell_angle_beta 134.814429
_cell_angle_gamma 37.668115
_cell_volume 612.504975
_symmetry_space_group_name_H-M "P -1"
_symmetry_group_IT_number 2
_symmetry_cell_setting 'triclinic'
loop_
_space_group_symop_operation_xyz
x,y,z
-x,-y,-z
loop_
_atom_site_type_symbol
_atom_site_label
_atom_site_fract_x
_atom_site_fract_y
_atom_site_fract_z
Si Si1 0.061626 0.603025 0.460879
Si Si2 0.003000 0.352286 0.195561
Si Si3 0.302298 0.032568 0.630089
Si Si4 0.365234 0.432033 0.770119
Si Si5 0.637829 0.250230 0.825264
Si Si6 0.083943 0.069554 0.741299
Si Si7 0.488055 0.954174 0.211279
O O1 0.000542 0.501172 0.233138
O O2 0.207290 0.507272 0.510441
O O3 0.102783 0.578739 0.745201
O O4 0.947971 0.816693 0.401660
O O5 0.156341 0.214446 0.452170
O O6 0.007922 0.226195 0.925922
O O7 0.321770 0.859306 0.416224
O O8 0.428393 0.003238 0.714871
O O9 0.334183 0.053242 0.932125
O O10 0.477874 0.351569 0.714287
O O11 0.434432 0.259250 0.865999
O O12 0.349395 0.596398 0.999245
O O13 0.754375 0.095977 0.048177
O O14 0.000000 0.000000 0.500000
O O15 0.500000 0.000000 0.500000
#
# Coordination Sequence:
#
# PCOD9026546 Si02
#       7
#     2   2   2   2   2   2   2
#     4  11  23  44  65  97 132 174 219 274 324 384
#     4  10  24  43  66  99 131 171 228 264 323 399
#     4  10  22  41  64  96 127 167 219 266 318 391
#     4  11  22  42  66  95 134 169 217 272 325 385
#     4  10  23  43  65  98 132 171 224 262 326 401
#     4  11  23  45  69  94 133 179 217 269 330 384
#     4  11  22  40  66  95 129 170 209 269 330 382
#
# _framework density 22.856959
#
# number of rings (size 3 to 8) (size 9 to 14) (size 15 to 20)
#    0.000    1.429    4.286    0.429    2.000    1.143 
#    7.714    0.000    0.000    0.000    0.000    0.000 
#    0.000    0.000    0.000    0.000    0.000    0.000 
#
# Total GULP energy -78154.814399 kJ/mol
# GULP energy per Si atom -5582.486743 kJ/mol
# Density = 2.280494 g / cm^3
# Si number density = 22.856959 Si / 1000 Ang^3
#
#
#
# Elastic Constant Matrix: (Units=GPa)
#
#
# Indices 1 2 3 4 5 6 
#
# 1 63.0569 48.0133 85.2152 -14.4606 -33.9692 -16.8473
# 2 48.0133 97.4598 -14.1744 40.2715 75.2282 53.1866
# 3 85.2152 -14.1744 -44.8456 73.7255 181.9463 91.2666
# 4 -14.4606 40.2715 73.7255 16.5385 -83.5602 -21.6567
# 5 -33.9692 75.2282 181.9463 -83.5602 -190.3901 -90.9912
# 6 -16.8473 53.1866 91.2666 -21.6567 -90.9912 6.7790
#
#
#
# Elastic Compliance Matrix: (Units=1/GPa)
#
#
# Indices 1 2 3 4 5 6 
#
# 1 0.021844 -0.002577 -0.007933 -0.001571 -0.012954 0.002401
# 2 -0.002577 0.010690 -0.003663 -0.000795 0.003011 -0.003093
# 3 -0.007933 -0.003663 0.012767 0.002302 0.011528 -0.000773
# 4 -0.001571 -0.000795 0.002302 0.021895 -0.003665 -0.007906
# 5 -0.012954 0.003011 0.011528 -0.003665 0.015822 -0.010354
# 6 0.002401 -0.003093 -0.000773 -0.007906 -0.010354 0.023925
#
#
# Mechanical properties :
#
#
# Convention : Reuss Voigt Hill
#
# Bulk Modulus (GPa) = 58.97602 39.30883 49.14243
# Shear Modulus (GPa) = 35.47627 -33.64008 0.91810
#
# Velocity S-wave (km/s) = 3.94394 -3.84052 0.63446
# Velocity P-wave (km/s) = 6.82626 1.55918 4.69930
#
# Compressibility (1/GPa) = 0.01695604
#
# Stress axis : x y z
#
# Youngs Moduli (GPa) = 45.78002 93.54440 78.32828
#
# Poissons Ratio (x) = 0.24105 0.62135
# Poissons Ratio (y) = 0.11797 0.28690
# Poissons Ratio (z) = 0.36316 0.34263
#
# Static dielectric constant tensor:
#      x y z
#    x 1.917750 -0.040240 -0.063860 
#    y -0.040240 1.873900 -0.026410 
#    z -0.063860 -0.026410 1.908310 
# 
# From -- ./inp_files/70872.got.cif
#   From: 2010.05.17/outbox.cif.g08.bks.cpg/sg2_36_cif.got.tgz:70872.got - 2010.06.03 11:33:40.
