data_PCOD9026234
_publ_section_title
;
Structure prediction by ZEFSAII (Michael W. Deem and Ramdas Pophale) SiO2 
 PCOD9026234
Probable space group: P -1
;
_chemical_formula_sum "Si O2"
_cell_formula_units_Z 16
_cell_length_a 8.910492
_cell_length_b 5.378813
_cell_length_c 23.396767
_cell_angle_alpha 98.333823
_cell_angle_beta 128.681349
_cell_angle_gamma 109.141856
_cell_volume 727.975957
_symmetry_space_group_name_H-M "P -1"
_symmetry_group_IT_number 2
_symmetry_cell_setting 'triclinic'
loop_
_space_group_symop_operation_xyz
x,y,z
-x,-y,-z
loop_
_atom_site_type_symbol
_atom_site_label
_atom_site_fract_x
_atom_site_fract_y
_atom_site_fract_z
Si Si1 0.343431 0.313811 0.129283
Si Si2 0.201028 0.484045 0.717885
Si Si3 0.033406 0.468923 0.125421
Si Si4 0.313850 0.875946 0.401981
Si Si5 0.417692 0.088352 0.244499
Si Si6 0.267202 0.284509 0.318056
Si Si7 0.794869 0.108678 0.169536
Si Si8 0.636272 0.500137 0.978075
O O1 0.599258 0.577643 0.221737
O O2 0.147526 0.362144 0.104265
O O3 0.318996 0.056240 0.155493
O O4 0.333678 0.279713 0.058292
O O5 0.314253 0.724273 0.700614
O O6 0.197599 0.645116 0.780163
O O7 0.938673 0.238799 0.636626
O O8 0.879729 0.231441 0.129929
O O9 0.252529 0.756333 0.217522
O O10 0.867405 0.544636 0.056935
O O11 0.308802 0.596144 0.361395
O O12 0.500000 0.000000 0.500000
O O13 0.359307 0.134506 0.377160
O O14 0.370824 0.292472 0.280993
O O15 0.991306 0.062202 0.238608
O O16 0.540133 0.825735 0.100745
O O17 0.500000 0.500000 0.000000
#
# Coordination Sequence:
#
# PCOD9026234 Si02
#       8
#     2   2   2   2   2   2   2   2
#     4  10  23  41  59  87 123 168 225 262 337 383
#     4   9  21  40  66  90 124 165 218 263 319 399
#     4  12  23  40  62  89 130 168 229 280 335 379
#     4  11  24  44  71 106 136 169 209 269 331 399
#     4  10  22  41  63  90 123 172 222 263 324 385
#     4  11  22  42  71  94 134 175 221 261 326 404
#     4  11  21  42  62  91 119 177 221 271 324 399
#     4  12  25  38  59  87 129 173 220 290 335 383
#
# _framework density 21.978749000000001
#
# number of rings (size 3 to 8) (size 9 to 14) (size 15 to 20)
#    0.750    0.500    1.250    5.625    0.000    1.500 
#    0.000    1.250    0.000    0.000    0.000    0.000 
#    0.000    0.000    0.000    0.000    0.000    0.000 
#
# Total GULP energy -89278.941465 kJ/mol
# GULP energy per Si atom -5579.933842 kJ/mol
# Density = 2.192872 g / cm^3
# Si number density = 21.978749 Si / 1000 Ang^3
#
#
#
# Elastic Constant Matrix: (Units=GPa)
#
#
# Indices 1 2 3 4 5 6 
#
# 1 109.6963 22.4369 29.0264 -0.1069 9.7920 21.2006
# 2 22.4369 81.7614 34.1399 -14.1823 -3.1212 5.8723
# 3 29.0264 34.1399 106.6367 -8.1024 14.9341 14.4466
# 4 -0.1069 -14.1823 -8.1024 32.9168 -1.5064 1.1471
# 5 9.7920 -3.1212 14.9341 -1.5064 28.5655 2.7467
# 6 21.2006 5.8723 14.4466 1.1471 2.7467 24.7574
#
#
#
# Elastic Compliance Matrix: (Units=1/GPa)
#
#
# Indices 1 2 3 4 5 6 
#
# 1 0.011812 -0.002571 -0.000878 -0.001128 -0.003104 -0.008596
# 2 -0.002571 0.016184 -0.004830 0.006015 0.005463 0.000297
# 3 -0.000878 -0.004830 0.012794 0.000944 -0.006394 -0.004902
# 4 -0.001128 0.006015 0.000944 0.033418 0.002587 -0.002847
# 5 -0.003104 0.005463 -0.006394 0.002587 0.040097 0.000525
# 6 -0.008596 0.000297 -0.004902 -0.002847 0.000525 0.050616
#
#
# Mechanical properties :
#
#
# Convention : Reuss Voigt Hill
#
# Bulk Modulus (GPa) = 41.26980 52.14452 46.70716
# Shear Modulus (GPa) = 26.37737 31.41402 28.89569
#
# Velocity S-wave (km/s) = 3.46805 3.78470 3.62983
# Velocity P-wave (km/s) = 5.90376 6.54790 6.23416
#
# Compressibility (1/GPa) = 0.02423080
#
# Stress axis : x y z
#
# Youngs Moduli (GPa) = 84.66226 61.79086 78.15988
#
# Poissons Ratio (x) = 0.15889 0.06866
# Poissons Ratio (y) = 0.21770 0.37748
# Poissons Ratio (z) = 0.07437 0.29842
#
# Static dielectric constant tensor:
#      x y z
#    x 1.818860 0.000940 0.003300 
#    y 0.000940 1.937030 0.039710 
#    z 0.003300 0.039710 1.819150 
# 
# From -- ./inp_files/605872.got.cif
#   From: 2010.05.17/outbox.cif.g08.bks.cpg/sg2_303_cif.got.tgz:605872.got - 2010.06.03 11:33:40.
