data_PCOD9026920
_publ_section_title
;
Structure prediction by ZEFSAII (Michael W. Deem and Ramdas Pophale) SiO2 
 PCOD9026920
Probable space group: P -1
;
_chemical_formula_sum "Si O2"
_cell_formula_units_Z 16
_cell_length_a 9.428013
_cell_length_b 10.077298
_cell_length_c 15.417932
_cell_angle_alpha 122.804908
_cell_angle_beta 100.622204
_cell_angle_gamma 122.499277
_cell_volume 770.262362
_symmetry_space_group_name_H-M "P -1"
_symmetry_group_IT_number 2
_symmetry_cell_setting 'triclinic'
loop_
_space_group_symop_operation_xyz
x,y,z
-x,-y,-z
loop_
_atom_site_type_symbol
_atom_site_label
_atom_site_fract_x
_atom_site_fract_y
_atom_site_fract_z
Si Si1 0.656297 0.448825 0.757410
Si Si2 0.210063 0.563352 0.042304
Si Si3 0.851884 0.984252 0.416634
Si Si4 0.307976 0.392273 0.872593
Si Si5 0.351220 0.193587 0.075163
Si Si6 0.457534 0.900103 0.809326
Si Si7 0.864440 0.546753 0.493134
Si Si8 0.023786 0.729183 0.761297
O O1 0.727834 0.453536 0.863092
O O2 0.389784 0.181769 0.625532
O O3 0.677570 0.658948 0.831647
O O4 0.823669 0.514572 0.729139
O O5 0.415989 0.841154 0.124433
O O6 0.149150 0.368947 0.902456
O O7 0.000000 0.500000 0.000000
O O8 0.792644 0.840543 0.270723
O O9 0.000000 0.000000 0.500000
O O10 0.012079 0.259081 0.501810
O O11 0.424492 0.594645 0.882518
O O12 0.500000 0.500000 0.000000
O O13 0.389987 0.076914 0.101010
O O14 0.149872 0.982521 0.911230
O O15 0.381724 0.715649 0.659152
O O16 0.228996 0.776239 0.785778
O O17 0.000000 0.500000 0.500000
O O18 0.904640 0.661732 0.631370
#
# Coordination Sequence:
#
# PCOD9026920 Si02
#       8
#     2   2   2   2   2   2   2   2
#     4  11  24  41  66 100 130 168 223 278 319 381
#     4  12  25  43  68 101 135 167 223 276 324 385
#     4  11  23  45  69  94 134 174 222 265 328 396
#     4  11  21  41  72  96 126 178 219 267 329 389
#     4  11  21  39  67  94 129 169 220 264 325 386
#     4  11  24  44  65  94 132 174 215 263 331 392
#     4  10  22  41  66  89 126 178 211 256 326 394
#     4  11  22  39  66  95 131 168 215 270 325 383
#
# _framework density 20.772141999999999
#
# number of rings (size 3 to 8) (size 9 to 14) (size 15 to 20)
#    0.000    1.000    3.750    5.250    1.750    0.000 
#    2.250    4.375    0.000    0.000    0.000    0.000 
#    0.000    0.000    0.000    0.000    0.000    0.000 
#
# Total GULP energy -89325.604797 kJ/mol
# GULP energy per Si atom -5582.850300 kJ/mol
# Density = 2.072486 g / cm^3
# Si number density = 20.772142 Si / 1000 Ang^3
#
#
#
# Elastic Constant Matrix: (Units=GPa)
#
#
# Indices 1 2 3 4 5 6 
#
# 1 93.0500 27.0414 -6.6313 -11.7332 6.6245 14.2249
# 2 27.0414 106.2334 -0.7500 -6.0885 -3.9029 -3.1430
# 3 -6.6313 -0.7500 63.0156 -6.0237 1.9800 2.2119
# 4 -11.7332 -6.0885 -6.0237 25.1027 -4.9521 -0.7729
# 5 6.6245 -3.9029 1.9800 -4.9521 13.7770 -1.6294
# 6 14.2249 -3.1430 2.2119 -0.7729 -1.6294 36.5004
#
#
#
# Elastic Compliance Matrix: (Units=1/GPa)
#
#
# Indices 1 2 3 4 5 6 
#
# 1 0.014033 -0.003740 0.002314 0.004594 -0.007216 -0.006156
# 2 -0.003740 0.010779 -0.000353 0.002041 0.005957 0.002716
# 3 0.002314 -0.000353 0.016677 0.004500 -0.002222 -0.001947
# 4 0.004594 0.002041 0.004500 0.046384 0.014364 -0.000264
# 5 -0.007216 0.005957 -0.002222 0.014364 0.084114 0.007519
# 6 -0.006156 0.002716 -0.001947 -0.000264 0.007519 0.030478
#
#
# Mechanical properties :
#
#
# Convention : Reuss Voigt Hill
#
# Bulk Modulus (GPa) = 26.36295 33.51323 29.93809
# Shear Modulus (GPa) = 22.86616 31.25196 27.05906
#
# Velocity S-wave (km/s) = 3.32144 3.88301 3.61316
# Velocity P-wave (km/s) = 5.23721 6.02266 5.64362
#
# Compressibility (1/GPa) = 0.03793202
#
# Stress axis : x y z
#
# Youngs Moduli (GPa) = 71.26210 92.77462 59.96394
#
# Poissons Ratio (x) = 0.34694 -0.13877
# Poissons Ratio (y) = 0.26649 0.02115
# Poissons Ratio (z) = -0.16491 0.03272
#
# Static dielectric constant tensor:
#      x y z
#    x 1.748930 0.008520 -0.016790 
#    y 0.008520 1.765600 0.003260 
#    z -0.016790 0.003260 1.794260 
# 
# From -- ./inp_files/495625.got.cif
#   From: 2010.05.17/outbox.cif.g08.bks.cpg/sg2_248_cif.got.tgz:495625.got - 2010.06.03 11:33:40.
