data_PCOD9026576
_publ_section_title
;
Structure prediction by ZEFSAII (Michael W. Deem and Ramdas Pophale) SiO2 
 PCOD9026576
Probable space group: P -1
;
_chemical_formula_sum "Si O2"
_cell_formula_units_Z 16
_cell_length_a 12.928023
_cell_length_b 5.070211
_cell_length_c 10.791680
_cell_angle_alpha 79.046851
_cell_angle_beta 61.459712
_cell_angle_gamma 91.647503
_cell_volume 604.204356
_symmetry_space_group_name_H-M "P -1"
_symmetry_group_IT_number 2
_symmetry_cell_setting 'triclinic'
loop_
_space_group_symop_operation_xyz
x,y,z
-x,-y,-z
loop_
_atom_site_type_symbol
_atom_site_label
_atom_site_fract_x
_atom_site_fract_y
_atom_site_fract_z
Si Si1 0.987666 0.877956 0.812753
Si Si2 0.734768 0.789447 0.047037
Si Si3 0.372180 0.013858 0.514983
Si Si4 0.189161 0.647036 0.780375
Si Si5 0.357177 0.987165 0.240982
Si Si6 0.822568 0.624644 0.436555
Si Si7 0.394410 0.719718 0.987257
Si Si8 0.892369 0.779361 0.629907
O O1 0.936714 0.685639 0.743910
O O2 0.064577 0.737153 0.880913
O O3 0.864130 0.951631 0.925602
O O4 0.079475 0.127999 0.688054
O O5 0.767224 0.609277 0.159954
O O6 0.675555 0.552522 0.007793
O O7 0.650431 0.018608 0.076458
O O8 0.294658 0.887667 0.688369
O O9 0.500000 0.000000 0.500000
O O10 0.372139 0.898307 0.383338
O O11 0.307297 0.278338 0.502343
O O12 0.172872 0.601380 0.646421
O O13 0.227349 0.082928 0.297892
O O14 0.370155 0.773650 0.141882
O O15 0.464959 0.230474 0.127896
O O16 0.859764 0.562273 0.559447
O O17 0.000000 0.000000 0.500000
#
# Coordination Sequence:
#
# PCOD9026576 Si02
#       8
#     2   2   2   2   2   2   2   2
#     4  10  22  41  64  97 137 180 228 291 347 408
#     4  12  27  45  73 102 142 186 237 284 349 417
#     4  10  22  43  66  98 137 178 228 288 353 418
#     4  11  25  40  65 102 133 187 230 290 349 420
#     4  10  22  45  72 102 142 179 236 291 346 417
#     4   9  22  39  64  96 136 171 234 283 351 415
#     4  11  27  48  72 106 137 187 236 290 347 410
#     4   9  18  40  69  99 136 178 228 290 345 416
#
# _framework density 26.481107000000002
#
# number of rings (size 3 to 8) (size 9 to 14) (size 15 to 20)
#    0.000    1.750    1.250    1.875    7.000    4.500 
#    4.500    0.000    0.000    0.000    0.000    0.000 
#    0.000    0.000    0.000    0.000    0.000    0.000 
#
# Total GULP energy -89417.904548 kJ/mol
# GULP energy per Si atom -5588.619034 kJ/mol
# Density = 2.642084 g / cm^3
# Si number density = 26.481107 Si / 1000 Ang^3
#
#
#
# Elastic Constant Matrix: (Units=GPa)
#
#
# Indices 1 2 3 4 5 6 
#
# 1 194.9066 33.7638 59.4153 8.6451 -24.9865 -14.3886
# 2 33.7638 88.1693 12.7502 6.7144 -10.0552 4.5368
# 3 59.4153 12.7502 85.9296 -6.5594 -8.9811 5.0025
# 4 8.6451 6.7144 -6.5594 35.1385 3.4155 6.0728
# 5 -24.9865 -10.0552 -8.9811 3.4155 61.4766 8.0237
# 6 -14.3886 4.5368 5.0025 6.0728 8.0237 36.5999
#
#
#
# Elastic Compliance Matrix: (Units=1/GPa)
#
#
# Indices 1 2 3 4 5 6 
#
# 1 0.007819 -0.001968 -0.005450 -0.003467 0.001696 0.004267
# 2 -0.001968 0.012581 -0.000332 -0.001732 0.001613 -0.002354
# 3 -0.005450 -0.000332 0.016221 0.005301 0.000498 -0.005307
# 4 -0.003467 -0.001732 0.005301 0.031980 -0.001809 -0.006783
# 5 0.001696 0.001613 0.000498 -0.001809 0.017811 -0.003206
# 6 0.004267 -0.002354 -0.005307 -0.006783 -0.003206 0.031845
#
#
# Mechanical properties :
#
#
# Convention : Reuss Voigt Hill
#
# Bulk Modulus (GPa) = 47.35085 64.54047 55.94566
# Shear Modulus (GPa) = 35.51158 44.18140 39.84649
#
# Velocity S-wave (km/s) = 3.66596 4.08905 3.88327
# Velocity P-wave (km/s) = 5.98655 6.83513 6.42487
#
# Compressibility (1/GPa) = 0.02111895
#
# Stress axis : x y z
#
# Youngs Moduli (GPa) = 127.88959 79.48796 61.64822
#
# Poissons Ratio (x) = 0.15645 0.33600
# Poissons Ratio (y) = 0.25172 0.02049
# Poissons Ratio (z) = 0.69704 0.02642
#
# Static dielectric constant tensor:
#      x y z
#    x 2.156060 0.056290 -0.042580 
#    y 0.056290 2.115740 0.015310 
#    z -0.042580 0.015310 2.190250 
# 
# From -- ./inp_files/410216.got.cif
#   From: 2010.05.17/outbox.cif.g08.bks.cpg/sg2_206_cif.got.tgz:410216.got - 2010.06.03 11:33:40.
