data_PCOD9026050
_publ_section_title
;
Structure prediction by ZEFSAII (Michael W. Deem and Ramdas Pophale) SiO2 
 PCOD9026050
Probable space group: P -1
;
_chemical_formula_sum "Si O2"
_cell_formula_units_Z 15
_cell_length_a 10.610836
_cell_length_b 8.324801
_cell_length_c 11.967410
_cell_angle_alpha 130.697331
_cell_angle_beta 118.147704
_cell_angle_gamma 45.859946
_cell_volume 574.864175
_symmetry_space_group_name_H-M "P -1"
_symmetry_group_IT_number 2
_symmetry_cell_setting 'triclinic'
loop_
_space_group_symop_operation_xyz
x,y,z
-x,-y,-z
loop_
_atom_site_type_symbol
_atom_site_label
_atom_site_fract_x
_atom_site_fract_y
_atom_site_fract_z
Si Si1 0.902413 0.381426 0.946762
Si Si2 0.605880 0.895255 0.135965
Si Si3 0.859752 0.816469 0.399942
Si Si4 0.000000 0.000000 0.000000
Si Si5 0.765372 0.382527 0.556121
Si Si6 0.221497 0.922458 0.298193
Si Si7 0.532920 0.408342 0.293121
Si Si8 0.339374 0.799266 0.046808
O O1 0.701778 0.631194 0.984708
O O2 0.905237 0.170815 0.775107
O O3 0.000000 0.500000 0.000000
O O4 0.962244 0.256918 0.036209
O O5 0.722107 0.820025 0.263341
O O6 0.421289 0.950944 0.117230
O O7 0.615511 0.106510 0.166968
O O8 0.066488 0.610897 0.369642
O O9 0.821819 0.094978 0.479910
O O10 0.819581 0.853146 0.533217
O O11 0.809221 0.185521 0.080327
O O12 0.676517 0.435199 0.422263
O O13 0.605577 0.555993 0.653372
O O14 0.416879 0.662562 0.282933
O O15 0.208437 0.950831 0.170130
O O16 0.500000 0.500000 0.000000
#
# Coordination Sequence:
#
# PCOD9026050 Si02
#       8
#     2   2   2   1   2   2   2   2
#     4  11  26  42  67 104 133 178 234 273 336 416
#     4  11  23  40  65  97 128 175 222 281 337 402
#     4   9  19  35  62  90 127 171 216 280 338 391
#     4  10  24  48  70  92 142 186 210 288 348 386
#     4   8  16  34  55  88 133 167 197 267 353 388
#     4  10  22  41  61  94 129 173 218 277 339 399
#     4   9  19  33  61  94 123 165 218 268 328 394
#     4  11  23  47  64  88 136 177 217 270 351 398
#
# _framework density 26.093119999999999
#
# number of rings (size 3 to 8) (size 9 to 14) (size 15 to 20)
#    0.000    2.133    2.667    0.800    9.333    2.133 
#    2.400    0.000    0.000    4.800    0.000    0.000 
#    0.000    0.000    0.000    0.000    0.000    0.000 
#
# Total GULP energy -83537.710424 kJ/mol
# GULP energy per Si atom -5569.180695 kJ/mol
# Density = 2.603373 g / cm^3
# Si number density = 26.093120 Si / 1000 Ang^3
#
#
#
# Elastic Constant Matrix: (Units=GPa)
#
#
# Indices 1 2 3 4 5 6 
#
# 1 125.9257 6.9825 26.6999 -15.2753 21.0144 -14.6170
# 2 6.9825 76.6049 5.8625 -1.0422 10.7576 -5.2186
# 3 26.6999 5.8625 99.3224 -23.9037 -3.5288 -1.0620
# 4 -15.2753 -1.0422 -23.9037 30.1692 -2.7136 -3.8471
# 5 21.0144 10.7576 -3.5288 -2.7136 30.5824 -4.6342
# 6 -14.6170 -5.2186 -1.0620 -3.8471 -4.6342 41.3949
#
#
#
# Elastic Compliance Matrix: (Units=1/GPa)
#
#
# Indices 1 2 3 4 5 6 
#
# 1 0.010266 0.000433 -0.002201 0.003272 -0.006689 0.003178
# 2 0.000433 0.013917 -0.001255 -0.000605 -0.005204 0.001236
# 3 -0.002201 -0.001255 0.013278 0.009871 0.004487 0.000825
# 4 0.003272 -0.000605 0.009871 0.043694 0.003863 0.005826
# 5 -0.006689 -0.005204 0.004487 0.003863 0.040283 0.001966
# 6 0.003178 0.001236 0.000825 0.005826 0.001966 0.026219
#
#
# Mechanical properties :
#
#
# Convention : Reuss Voigt Hill
#
# Bulk Modulus (GPa) = 31.83240 42.32697 37.07969
# Shear Modulus (GPa) = 30.45516 37.91651 34.18584
#
# Velocity S-wave (km/s) = 3.42010 3.81612 3.62352
# Velocity P-wave (km/s) = 5.27467 5.97275 5.63453
#
# Compressibility (1/GPa) = 0.03141453
#
# Stress axis : x y z
#
# Youngs Moduli (GPa) = 97.40892 71.85245 75.31236
#
# Poissons Ratio (x) = -0.03111 0.16579
# Poissons Ratio (y) = -0.04218 0.09453
# Poissons Ratio (z) = 0.21443 0.09018
#
# Static dielectric constant tensor:
#      x y z
#    x 1.968850 0.160900 -0.332370 
#    y 0.160900 1.916560 0.239870 
#    z -0.332370 0.239870 1.812360 
# 
# From -- ./inp_files/513722.got.cif
#   From: 2010.05.17/outbox.cif.g08.bks.cpg/sg2_257_cif.got.tgz:513722.got - 2010.06.03 11:33:40.
