data_PCOD9026788
_publ_section_title
;
Structure prediction by ZEFSAII (Michael W. Deem and Ramdas Pophale) SiO2 
 PCOD9026788
Probable space group: P -1
;
_chemical_formula_sum "Si O2"
_cell_formula_units_Z 16
_cell_length_a 8.737790
_cell_length_b 5.508720
_cell_length_c 24.306723
_cell_angle_alpha 62.011683
_cell_angle_beta 47.349445
_cell_angle_gamma 55.469319
_cell_volume 701.866631
_symmetry_space_group_name_H-M "P -1"
_symmetry_group_IT_number 2
_symmetry_cell_setting 'triclinic'
loop_
_space_group_symop_operation_xyz
x,y,z
-x,-y,-z
loop_
_atom_site_type_symbol
_atom_site_label
_atom_site_fract_x
_atom_site_fract_y
_atom_site_fract_z
Si Si1 0.764628 0.538081 0.528262
Si Si2 0.249320 0.188419 0.018019
Si Si3 0.436063 0.887730 0.660128
Si Si4 0.791047 0.950581 0.639547
Si Si5 0.625167 0.297432 0.043115
Si Si6 0.203966 0.708878 0.825088
Si Si7 0.456460 0.025507 0.808862
Si Si8 0.272707 0.467011 0.579368
O O1 0.542898 0.748891 0.591157
O O2 0.779784 0.658850 0.451500
O O3 0.000000 0.500000 0.500000
O O4 0.769790 0.207998 0.573309
O O5 0.054781 0.205283 0.105797
O O6 0.250417 0.516648 0.975746
O O7 0.500000 0.000000 0.000000
O O8 0.222893 0.012187 0.989587
O O9 0.653203 0.781880 0.659001
O O10 0.251300 0.790428 0.743073
O O11 0.324491 0.241235 0.640685
O O12 0.650532 0.049832 0.719546
O O13 0.050626 0.761589 0.609567
O O14 0.471416 0.212535 0.133430
O O15 0.500000 0.500000 0.000000
O O16 0.304780 0.898976 0.820277
O O17 0.328546 0.349975 0.832552
O O18 0.500000 0.500000 0.500000
#
# Coordination Sequence:
#
# PCOD9026788 Si02
#       8
#     2   2   2   2   2   2   2   2
#     4  12  22  43  69  95 136 181 229 290 355 419
#     4  10  22  41  65  96 134 173 220 276 343 400
#     4  11  24  44  66 100 138 181 235 288 355 418
#     4  11  24  45  65  96 142 178 225 293 360 413
#     4  10  22  41  65  97 131 174 225 273 337 413
#     4  11  24  43  69 100 138 180 229 287 347 425
#     4  11  24  43  70  98 136 182 228 282 360 417
#     4  12  24  41  69 101 132 183 237 292 352 425
#
# _framework density 22.796354000000001
#
# number of rings (size 3 to 8) (size 9 to 14) (size 15 to 20)
#    0.000    1.000    3.750    3.000    0.000    5.000 
#    0.000    7.500    0.000    0.000    0.000    0.000 
#    0.000    0.000    0.000    0.000    0.000    0.000 
#
# Total GULP energy -89246.953386 kJ/mol
# GULP energy per Si atom -5577.934587 kJ/mol
# Density = 2.274447 g / cm^3
# Si number density = 22.796354 Si / 1000 Ang^3
#
#
#
# Elastic Constant Matrix: (Units=GPa)
#
#
# Indices 1 2 3 4 5 6 
#
# 1 51.3621 37.2779 7.5362 2.1931 -9.6854 -1.1892
# 2 37.2779 115.9406 35.2352 4.4148 -12.0811 2.4065
# 3 7.5362 35.2352 133.1421 2.2515 -15.9950 -11.1976
# 4 2.1931 4.4148 2.2515 46.0719 -3.1615 2.2655
# 5 -9.6854 -12.0811 -15.9950 -3.1615 30.9355 1.3819
# 6 -1.1892 2.4065 -11.1976 2.2655 1.3819 49.5792
#
#
#
# Elastic Compliance Matrix: (Units=1/GPa)
#
#
# Indices 1 2 3 4 5 6 
#
# 1 0.026449 -0.008388 0.001516 -0.000198 0.005714 0.001234
# 2 -0.008388 0.012300 -0.002803 -0.000521 0.000739 -0.001428
# 3 0.001516 -0.002803 0.008801 -0.000072 0.003831 0.002057
# 4 -0.000198 -0.000521 -0.000072 0.021956 0.001988 -0.001054
# 5 0.005714 0.000739 0.003831 0.001988 0.036593 -0.000144
# 6 0.001234 -0.001428 0.002057 -0.001054 -0.000144 0.020785
#
#
# Mechanical properties :
#
#
# Convention : Reuss Voigt Hill
#
# Bulk Modulus (GPa) = 35.45852 51.17149 43.31501
# Shear Modulus (GPa) = 32.12641 40.01035 36.06838
#
# Velocity S-wave (km/s) = 3.75811 4.19396 3.98200
# Velocity P-wave (km/s) = 5.86681 6.77852 6.33908
#
# Compressibility (1/GPa) = 0.02820196
#
# Stress axis : x y z
#
# Youngs Moduli (GPa) = 37.80834 81.29926 113.62066
#
# Poissons Ratio (x) = 0.68190 -0.17227
# Poissons Ratio (y) = 0.31712 0.31847
# Poissons Ratio (z) = -0.05732 0.22788
#
# Static dielectric constant tensor:
#      x y z
#    x 2.170090 -0.115560 0.134260 
#    y -0.115560 2.096600 -0.108000 
#    z 0.134260 -0.108000 1.902560 
# 
# From -- ./inp_files/323314.got.cif
#   From: 2010.05.17/outbox.cif.g08.bks.cpg/sg2_162_cif.got.tgz:323314.got - 2010.06.03 11:33:40.
