data_PCOD9026960
_publ_section_title
;
Structure prediction by ZEFSAII (Michael W. Deem and Ramdas Pophale) SiO2 
 PCOD9026960
Probable space group: P -1
;
_chemical_formula_sum "Si O2"
_cell_formula_units_Z 16
_cell_length_a 14.627739
_cell_length_b 8.156800
_cell_length_c 13.792000
_cell_angle_alpha 73.029996
_cell_angle_beta 138.348565
_cell_angle_gamma 76.126741
_cell_volume 725.605835
_symmetry_space_group_name_H-M "P -1"
_symmetry_group_IT_number 2
_symmetry_cell_setting 'triclinic'
loop_
_space_group_symop_operation_xyz
x,y,z
-x,-y,-z
loop_
_atom_site_type_symbol
_atom_site_label
_atom_site_fract_x
_atom_site_fract_y
_atom_site_fract_z
Si Si1 0.181921 0.154170 0.616608
Si Si2 0.115876 0.902334 0.865740
Si Si3 0.497462 0.211938 0.454252
Si Si4 0.178039 0.956494 0.108090
Si Si5 0.851137 0.411358 0.462717
Si Si6 0.442591 0.665101 0.017337
Si Si7 0.224441 0.051833 0.446388
Si Si8 0.901250 0.496647 0.830624
O O1 0.176271 0.364902 0.571419
O O2 0.217733 0.042418 0.558226
O O3 0.974437 0.289283 0.480201
O O4 0.352104 0.925562 0.860811
O O5 0.981341 0.187157 0.680422
O O6 0.268946 0.734459 0.929686
O O7 0.234759 0.835349 0.069173
O O8 0.959295 0.889615 0.753215
O O9 0.278589 0.452569 0.275866
O O10 0.500000 0.000000 0.500000
O O11 0.650061 0.163495 0.657752
O O12 0.576916 0.179351 0.414685
O O13 0.070780 0.235290 0.960338
O O14 0.000000 0.000000 0.000000
O O15 0.636607 0.522505 0.259244
O O16 0.500000 0.500000 0.000000
O O17 0.186093 0.283886 0.348501
O O18 0.000000 0.500000 0.000000
#
# Coordination Sequence:
#
# PCOD9026960 Si02
#       8
#     2   2   2   2   2   2   2   2
#     4  10  22  41  66  92 127 168 214 272 326 388
#     4  11  24  41  65  96 133 173 213 272 329 387
#     4  10  22  42  64  92 129 168 219 265 320 388
#     4  12  23  44  64  96 134 169 221 274 321 388
#     4  10  22  44  63  94 131 165 215 272 329 388
#     4  11  23  42  65  96 131 167 216 269 327 393
#     4  11  21  42  62  95 129 168 222 260 327 392
#     4  11  22  43  65  89 130 174 214 270 324 380
#
# _framework density 22.050538
#
# number of rings (size 3 to 8) (size 9 to 14) (size 15 to 20)
#    0.000    1.250    3.750    2.625    0.000    5.500 
#   11.250    0.000    0.000    0.000    0.000    0.000 
#    0.000    0.000    0.000    0.000    0.000    0.000 
#
# Total GULP energy -89458.114738 kJ/mol
# GULP energy per Si atom -5591.132171 kJ/mol
# Density = 2.200035 g / cm^3
# Si number density = 22.050538 Si / 1000 Ang^3
#
#
#
# Elastic Constant Matrix: (Units=GPa)
#
#
# Indices 1 2 3 4 5 6 
#
# 1 77.5560 30.0528 21.9661 3.6089 7.9656 -13.7908
# 2 30.0528 70.4569 13.9433 -0.2331 4.7698 -17.0420
# 3 21.9661 13.9433 88.7930 9.9918 13.6052 -4.8475
# 4 3.6089 -0.2331 9.9918 39.1788 2.9332 -5.7127
# 5 7.9656 4.7698 13.6052 2.9332 35.9697 -0.0193
# 6 -13.7908 -17.0420 -4.8475 -5.7127 -0.0193 41.3007
#
#
#
# Elastic Compliance Matrix: (Units=1/GPa)
#
#
# Indices 1 2 3 4 5 6 
#
# 1 0.016594 -0.005733 -0.002732 -0.000318 -0.001854 0.002810
# 2 -0.005733 0.018339 -0.001226 0.001854 -0.000847 0.005765
# 3 -0.002732 -0.001226 0.013036 -0.002827 -0.003933 -0.000281
# 4 -0.000318 0.001854 -0.002827 0.026974 -0.001304 0.004058
# 5 -0.001854 -0.000847 -0.003933 -0.001304 0.029917 -0.001596
# 6 0.002810 0.005765 -0.000281 0.004058 -0.001596 0.028057
#
#
# Mechanical properties :
#
#
# Convention : Reuss Voigt Hill
#
# Bulk Modulus (GPa) = 34.98017 40.97004 37.97510
# Shear Modulus (GPa) = 30.89700 34.67942 32.78821
#
# Velocity S-wave (km/s) = 3.74731 3.97006 3.86029
# Velocity P-wave (km/s) = 5.88398 6.29568 6.09331
#
# Compressibility (1/GPa) = 0.02858763
#
# Stress axis : x y z
#
# Youngs Moduli (GPa) = 60.26242 54.52855 76.71224
#
# Poissons Ratio (x) = 0.31263 0.20955
# Poissons Ratio (y) = 0.34551 0.09402
# Poissons Ratio (z) = 0.16461 0.06683
#
# Static dielectric constant tensor:
#      x y z
#    x 1.811930 0.022010 -0.020160 
#    y 0.022010 1.847690 -0.028230 
#    z -0.020160 -0.028230 1.792260 
# 
# From -- ./inp_files/483857.got.cif
#   From: 2010.05.17/outbox.cif.g08.bks.cpg/sg2_242_cif.got.tgz:483857.got - 2010.06.03 11:33:40.
