data_PCOD9026392
_publ_section_title
;
Structure prediction by ZEFSAII (Michael W. Deem and Ramdas Pophale) SiO2 
 PCOD9026392
Probable space group: P -1
;
_chemical_formula_sum "Si O2"
_cell_formula_units_Z 14
_cell_length_a 6.589658
_cell_length_b 8.140180
_cell_length_c 17.700439
_cell_angle_alpha 117.563751
_cell_angle_beta 120.921314
_cell_angle_gamma 52.408192
_cell_volume 629.658541
_symmetry_space_group_name_H-M "P -1"
_symmetry_group_IT_number 2
_symmetry_cell_setting 'triclinic'
loop_
_space_group_symop_operation_xyz
x,y,z
-x,-y,-z
loop_
_atom_site_type_symbol
_atom_site_label
_atom_site_fract_x
_atom_site_fract_y
_atom_site_fract_z
Si Si1 0.877482 0.851403 0.969686
Si Si2 0.674619 0.442925 0.098116
Si Si3 0.286554 0.942788 0.878646
Si Si4 0.686696 0.950980 0.597184
Si Si5 0.741298 0.133635 0.310505
Si Si6 0.309565 0.441696 0.398776
Si Si7 0.303250 0.251318 0.708425
O O1 0.908917 0.846898 0.065718
O O2 0.559942 0.951298 0.917500
O O3 0.026682 0.650315 0.901675
O O4 0.000000 0.000000 0.000000
O O5 0.649223 0.258377 0.098731
O O6 0.634431 0.616427 0.189104
O O7 0.500000 0.500000 0.000000
O O8 0.196167 0.895743 0.772595
O O9 0.534724 0.152191 0.667326
O O10 0.500000 0.000000 0.500000
O O11 0.708222 0.749114 0.602985
O O12 0.979034 0.896741 0.610036
O O13 0.483221 0.348299 0.334969
O O14 0.692768 0.945334 0.289490
O O15 0.500000 0.500000 0.500000
O O16 0.999370 0.614981 0.357045
#
# Coordination Sequence:
#
# PCOD9026392 Si02
#       7
#     2   2   2   2   2   2   2
#     4   9  21  39  62  86 123 164 220 266 322 377
#     4  11  25  40  62  94 133 171 221 274 324 385
#     4  10  22  41  64  89 123 175 216 267 331 382
#     4  11  25  44  69 101 132 173 219 268 337 403
#     4  11  25  42  69  96 135 174 221 268 335 397
#     4  11  24  45  70  98 136 170 214 280 335 395
#     4  11  26  43  65 100 138 171 222 279 327 392
#
# _framework density 22.234271
#
# number of rings (size 3 to 8) (size 9 to 14) (size 15 to 20)
#    0.000    1.429    0.000    3.429    8.000   12.000 
#    0.000    0.000    0.000    0.000    0.000    0.000 
#    0.000    0.000    0.000    0.000    0.000    0.000 
#
# Total GULP energy -78165.414417 kJ/mol
# GULP energy per Si atom -5583.243887 kJ/mol
# Density = 2.218366 g / cm^3
# Si number density = 22.234271 Si / 1000 Ang^3
#
#
#
# Elastic Constant Matrix: (Units=GPa)
#
#
# Indices 1 2 3 4 5 6 
#
# 1 84.9446 14.1374 -1.3481 7.8897 0.3908 -15.4598
# 2 14.1374 59.3491 15.2816 4.5277 -8.0479 -6.6895
# 3 -1.3481 15.2816 79.7676 7.8594 -7.2565 3.2519
# 4 7.8897 4.5277 7.8594 39.9159 0.6253 -5.8326
# 5 0.3908 -8.0479 -7.2565 0.6253 44.6678 2.6136
# 6 -15.4598 -6.6895 3.2519 -5.8326 2.6136 31.4121
#
#
#
# Elastic Compliance Matrix: (Units=1/GPa)
#
#
# Indices 1 2 3 4 5 6 
#
# 1 0.013429 -0.002692 0.000593 -0.001614 -0.000820 0.005743
# 2 -0.002692 0.019125 -0.003516 -0.000582 0.002744 0.002775
# 3 0.000593 -0.003516 0.013766 -0.002830 0.001787 -0.002556
# 4 -0.001614 -0.000582 -0.002830 0.026660 -0.001183 0.004423
# 5 -0.000820 0.002744 0.001787 -0.001183 0.023323 -0.002164
# 6 0.005743 0.002775 -0.002556 0.004423 -0.002164 0.036518
#
#
# Mechanical properties :
#
#
# Convention : Reuss Voigt Hill
#
# Bulk Modulus (GPa) = 28.49813 31.13367 29.81590
# Shear Modulus (GPa) = 32.10341 36.26520 34.18430
#
# Velocity S-wave (km/s) = 3.80395 4.04301 3.92530
# Velocity P-wave (km/s) = 5.66908 5.98561 5.82949
#
# Compressibility (1/GPa) = 0.03509002
#
# Stress axis : x y z
#
# Youngs Moduli (GPa) = 74.46729 52.28664 72.64504
#
# Poissons Ratio (x) = 0.14077 -0.04308
# Poissons Ratio (y) = 0.20048 0.25539
# Poissons Ratio (z) = -0.04416 0.18382
#
# Static dielectric constant tensor:
#      x y z
#    x 1.843720 -0.060650 0.023570 
#    y -0.060650 1.883350 -0.008100 
#    z 0.023570 -0.008100 1.941200 
# 
# From -- ./inp_files/324271.got.cif
#   From: 2010.05.17/outbox.cif.g08.bks.cpg/sg2_163_cif.got.tgz:324271.got - 2010.06.03 11:33:40.
