data_PCOD9026771
_publ_section_title
;
Structure prediction by ZEFSAII (Michael W. Deem and Ramdas Pophale) SiO2 
 PCOD9026771
Probable space group: P -1
;
_chemical_formula_sum "Si O2"
_cell_formula_units_Z 14
_cell_length_a 25.625635
_cell_length_b 9.374967
_cell_length_c 9.793007
_cell_angle_alpha 135.538797
_cell_angle_beta 25.036997
_cell_angle_gamma 140.761032
_cell_volume 629.176975
_symmetry_space_group_name_H-M "P -1"
_symmetry_group_IT_number 2
_symmetry_cell_setting 'triclinic'
loop_
_space_group_symop_operation_xyz
x,y,z
-x,-y,-z
loop_
_atom_site_type_symbol
_atom_site_label
_atom_site_fract_x
_atom_site_fract_y
_atom_site_fract_z
Si Si1 0.815046 0.050733 0.835319
Si Si2 0.501308 0.810637 0.763532
Si Si3 0.723959 0.166694 0.877561
Si Si4 0.793465 0.159040 0.262638
Si Si5 0.279600 0.444771 0.189415
Si Si6 0.112385 0.350585 0.245813
Si Si7 0.136943 0.035162 0.779223
O O1 0.715718 0.116407 0.022374
O O2 0.958895 0.161235 0.491271
O O3 0.751493 0.780829 0.808875
O O4 0.847663 0.161860 0.984206
O O5 0.657032 0.920758 0.424634
O O6 0.401200 0.801321 0.870856
O O7 0.430779 0.578299 0.856093
O O8 0.500000 0.000000 0.000000
O O9 0.859688 0.396211 0.681552
O O10 0.752147 0.982730 0.597707
O O11 0.755315 0.367758 0.522495
O O12 0.880351 0.137743 0.171084
O O13 0.179311 0.363150 0.242063
O O14 0.185370 0.273854 0.902413
O O15 0.000000 0.000000 0.000000
#
# Coordination Sequence:
#
# PCOD9026771 Si02
#       7
#     2   2   2   2   2   2   2
#     4  12  25  38  64 100 134 159 214 269 319 372
#     4   9  19  44  70  85 127 175 217 250 317 383
#     4  11  24  44  65  95 132 169 211 271 305 379
#     4  11  24  43  67  94 128 173 210 264 320 376
#     4  10  22  41  65  96 125 173 212 262 316 374
#     4  11  23  41  63  94 131 172 213 252 326 385
#     4  12  23  39  68  96 122 170 217 251 322 382
#
# _framework density 22.251291999999999
#
# number of rings (size 3 to 8) (size 9 to 14) (size 15 to 20)
#    0.000    1.143    7.143    0.857    0.000    4.000 
#    0.000    2.857    0.000    0.000    0.000    0.000 
#    0.000    0.000    0.000    0.000    0.000    0.000 
#
# Total GULP energy -78188.889269 kJ/mol
# GULP energy per Si atom -5584.920662 kJ/mol
# Density = 2.220065 g / cm^3
# Si number density = 22.251292 Si / 1000 Ang^3
#
#
#
# Elastic Constant Matrix: (Units=GPa)
#
#
# Indices 1 2 3 4 5 6 
#
# 1 134.4508 35.4389 17.9324 -5.5697 3.0650 -18.2504
# 2 35.4389 112.4424 22.4516 -14.6302 -2.7135 -6.3096
# 3 17.9324 22.4516 59.2950 5.7199 2.1002 0.4050
# 4 -5.5697 -14.6302 5.7199 31.4802 11.8014 7.3966
# 5 3.0650 -2.7135 2.1002 11.8014 29.9664 3.3277
# 6 -18.2504 -6.3096 0.4050 7.3966 3.3277 35.0470
#
#
#
# Elastic Compliance Matrix: (Units=1/GPa)
#
#
# Indices 1 2 3 4 5 6 
#
# 1 0.008905 -0.002157 -0.001898 0.000526 -0.001660 0.004317
# 2 -0.002157 0.011124 -0.004098 0.005879 -0.000774 -0.000241
# 3 -0.001898 -0.004098 0.019537 -0.005935 0.000878 -0.000782
# 4 0.000526 0.005879 -0.005935 0.042859 -0.015297 -0.006192
# 5 -0.001660 -0.000774 0.000878 -0.015297 0.039605 -0.001546
# 6 0.004317 -0.000241 -0.000782 -0.006192 -0.001546 0.032201
#
#
# Mechanical properties :
#
#
# Convention : Reuss Voigt Hill
#
# Bulk Modulus (GPa) = 42.99027 50.87043 46.93035
# Shear Modulus (GPa) = 28.04413 34.65639 31.35026
#
# Velocity S-wave (km/s) = 3.55397 3.95080 3.75763
# Velocity P-wave (km/s) = 6.01692 6.61235 6.32165
#
# Compressibility (1/GPa) = 0.02326107
#
# Stress axis : x y z
#
# Youngs Moduli (GPa) = 112.29642 89.89283 51.18437
#
# Poissons Ratio (x) = 0.19391 0.09714
# Poissons Ratio (y) = 0.24223 0.20975
# Poissons Ratio (z) = 0.21311 0.36837
#
# Static dielectric constant tensor:
#      x y z
#    x 1.835720 -0.010150 0.002070 
#    y -0.010150 1.830440 -0.003940 
#    z 0.002070 -0.003940 1.914440 
# 
# From -- ./inp_files/241368.got.cif
#   From: 2010.05.17/outbox.cif.g08.bks.cpg/sg2_121_cif.got.tgz:241368.got - 2010.06.03 11:33:40.
