data_PCOD9026709
_publ_section_title
;
Structure prediction by ZEFSAII (Michael W. Deem and Ramdas Pophale) SiO2 
 PCOD9026709
Probable space group: P -1
;
_chemical_formula_sum "Si O2"
_cell_formula_units_Z 14
_cell_length_a 14.066216
_cell_length_b 8.636597
_cell_length_c 8.749902
_cell_angle_alpha 129.183616
_cell_angle_beta 51.378596
_cell_angle_gamma 108.732603
_cell_volume 639.012581
_symmetry_space_group_name_H-M "P -1"
_symmetry_group_IT_number 2
_symmetry_cell_setting 'triclinic'
loop_
_space_group_symop_operation_xyz
x,y,z
-x,-y,-z
loop_
_atom_site_type_symbol
_atom_site_label
_atom_site_fract_x
_atom_site_fract_y
_atom_site_fract_z
Si Si1 0.705868 0.303557 0.042986
Si Si2 0.056107 0.772545 0.757709
Si Si3 0.097562 0.391792 0.954459
Si Si4 0.461219 0.224099 0.111042
Si Si5 0.688002 0.395286 0.452742
Si Si6 0.551308 0.150420 0.660341
Si Si7 0.806583 0.049742 0.520943
O O1 0.780574 0.116831 0.762900
O O2 0.787472 0.484890 0.070456
O O3 0.577889 0.339376 0.106228
O O4 0.672459 0.280826 0.238698
O O5 0.176683 0.684483 0.676262
O O6 0.107929 0.798587 0.551563
O O7 0.956242 0.638883 0.840586
O O8 0.000000 0.000000 0.000000
O O9 0.132452 0.173380 0.709296
O O10 0.000000 0.500000 0.000000
O O11 0.344339 0.363761 0.382561
O O12 0.452886 0.206901 0.926778
O O13 0.500000 0.000000 0.000000
O O14 0.594785 0.330977 0.632365
O O15 0.676126 0.064799 0.571733
O O16 0.500000 0.000000 0.500000
#
# Coordination Sequence:
#
# PCOD9026709 Si02
#       7
#     2   2   2   2   2   2   2
#     4  11  24  39  69  98 126 175 216 270 339 379
#     4   9  20  43  64  90 129 173 216 272 322 383
#     4  11  22  41  67  93 130 173 221 274 323 390
#     4  11  25  42  66  99 134 171 221 272 330 400
#     4  11  22  41  66  94 132 171 218 267 329 400
#     4  10  22  41  65  93 129 172 211 266 332 391
#     4   9  23  42  64  95 134 164 222 270 324 397
#
# _framework density 21.908799999999999
#
# number of rings (size 3 to 8) (size 9 to 14) (size 15 to 20)
#    0.000    1.714    1.429    1.714    6.000    1.143 
#    0.000    0.000    0.000    0.000    0.000    0.000 
#    0.000    0.000    0.000    0.000    0.000    0.000 
#
# Total GULP energy -78128.083839 kJ/mol
# GULP energy per Si atom -5580.577417 kJ/mol
# Density = 2.185893 g / cm^3
# Si number density = 21.908800 Si / 1000 Ang^3
#
#
#
# Elastic Constant Matrix: (Units=GPa)
#
#
# Indices 1 2 3 4 5 6 
#
# 1 54.6412 45.8291 47.2519 12.4581 2.4708 -3.7457
# 2 45.8291 84.1445 33.7721 8.7072 -2.8507 4.4841
# 3 47.2519 33.7721 147.7567 9.9616 10.2599 -19.5077
# 4 12.4581 8.7072 9.9616 37.8179 -8.8953 -8.5123
# 5 2.4708 -2.8507 10.2599 -8.8953 38.0588 2.2190
# 6 -3.7457 4.4841 -19.5077 -8.5123 2.2190 24.6136
#
#
#
# Elastic Compliance Matrix: (Units=1/GPa)
#
#
# Indices 1 2 3 4 5 6 
#
# 1 0.045277 -0.020429 -0.008802 -0.008646 -0.004177 0.001022
# 2 -0.020429 0.023558 -0.000156 0.000485 0.003695 -0.007690
# 3 -0.008802 -0.000156 0.010744 0.001292 -0.002494 0.007876
# 4 -0.008646 0.000485 0.001292 0.032890 0.007334 0.010333
# 5 -0.004177 0.003695 -0.002494 0.007334 0.029408 -0.003400
# 6 0.001022 -0.007690 0.007876 0.010333 -0.003400 0.052307
#
#
# Mechanical properties :
#
#
# Convention : Reuss Voigt Hill
#
# Bulk Modulus (GPa) = 48.06336 60.02763 54.04549
# Shear Modulus (GPa) = 19.23868 30.74403 24.99136
#
# Velocity S-wave (km/s) = 2.96653 3.75009 3.38109
# Velocity P-wave (km/s) = 5.80683 6.79774 6.32173
#
# Compressibility (1/GPa) = 0.02080587
#
# Stress axis : x y z
#
# Youngs Moduli (GPa) = 22.08612 42.44826 93.07142
#
# Poissons Ratio (x) = 0.86716 0.81924
# Poissons Ratio (y) = 0.45119 0.01453
# Poissons Ratio (z) = 0.19441 0.00663
#
# Static dielectric constant tensor:
#      x y z
#    x 1.764640 -0.000790 -0.015980 
#    y -0.000790 1.874170 -0.034580 
#    z -0.015980 -0.034580 1.845640 
# 
# From -- ./inp_files/117240.got.cif
#   From: 2010.05.17/outbox.cif.g08.bks.cpg/sg2_59_cif.got.tgz:117240.got - 2010.06.03 11:33:40.
