data_PCOD9026815
_publ_section_title
;
Structure prediction by ZEFSAII (Michael W. Deem and Ramdas Pophale) SiO2 
 PCOD9026815
Probable space group: P -1
;
_chemical_formula_sum "Si O2"
_cell_formula_units_Z 16
_cell_length_a 12.587082
_cell_length_b 22.837729
_cell_length_c 5.140244
_cell_angle_alpha 61.225616
_cell_angle_beta 73.965038
_cell_angle_gamma 31.939366
_cell_volume 656.705373
_symmetry_space_group_name_H-M "P -1"
_symmetry_group_IT_number 2
_symmetry_cell_setting 'triclinic'
loop_
_space_group_symop_operation_xyz
x,y,z
-x,-y,-z
loop_
_atom_site_type_symbol
_atom_site_label
_atom_site_fract_x
_atom_site_fract_y
_atom_site_fract_z
Si Si1 0.521286 0.058576 0.521124
Si Si2 0.045183 0.295727 0.385723
Si Si3 0.191407 0.780823 0.031778
Si Si4 0.615327 0.207296 0.381264
Si Si5 0.729944 0.009237 0.986911
Si Si6 0.183285 0.456845 0.903132
Si Si7 0.575207 0.586527 0.555746
Si Si8 0.872584 0.318176 0.980251
O O1 0.282166 0.199037 0.457445
O O2 0.650864 0.998490 0.833645
O O3 0.500000 0.000000 0.500000
O O4 0.620232 0.054853 0.240369
O O5 0.968348 0.298464 0.690808
O O6 0.890980 0.437043 0.131341
O O7 0.026909 0.254571 0.247062
O O8 0.206901 0.850440 0.792285
O O9 0.411958 0.652921 0.294829
O O10 0.171168 0.736762 0.911101
O O11 0.979909 0.878399 0.126862
O O12 0.672990 0.110739 0.692983
O O13 0.399228 0.311038 0.148306
O O14 0.555889 0.298868 0.414336
O O15 0.237754 0.460732 0.576261
O O16 0.000000 0.500000 0.000000
O O17 0.668726 0.468926 0.840778
#
# Coordination Sequence:
#
# PCOD9026815 Si02
#       8
#     2   2   2   2   2   2   2   2
#     4  12  26  48  72 103 137 179 233 283 337 407
#     4  11  23  42  68 102 135 175 224 288 341 406
#     4  11  26  44  69  94 138 185 230 286 333 403
#     4  11  25  44  66 101 139 176 233 276 339 411
#     4  12  28  45  72 102 137 186 228 281 341 400
#     4  10  22  41  65  97 137 176 221 275 349 409
#     4  10  24  42  66 102 134 179 229 284 334 409
#     4  11  23  44  69 103 135 179 230 282 348 397
#
# _framework density 24.364045000000001
#
# number of rings (size 3 to 8) (size 9 to 14) (size 15 to 20)
#    0.000    1.000    1.250    4.125    8.750    2.500 
#    0.000    0.000    0.000    0.000    0.000    0.000 
#    0.000    0.000    0.000    0.000    0.000    0.000 
#
# Total GULP energy -89503.011366 kJ/mol
# GULP energy per Si atom -5593.938210 kJ/mol
# Density = 2.430859 g / cm^3
# Si number density = 24.364045 Si / 1000 Ang^3
#
#
#
# Elastic Constant Matrix: (Units=GPa)
#
#
# Indices 1 2 3 4 5 6 
#
# 1 81.7857 28.3516 28.0152 13.0003 -12.1143 -24.2826
# 2 28.3516 67.3817 13.8014 -5.3861 -11.5207 -15.6586
# 3 28.0152 13.8014 71.5759 3.5414 -7.1829 -14.2263
# 4 13.0003 -5.3861 3.5414 36.9636 11.1098 -4.9182
# 5 -12.1143 -11.5207 -7.1829 11.1098 45.2148 1.5653
# 6 -24.2826 -15.6586 -14.2263 -4.9182 1.5653 37.2975
#
#
#
# Elastic Compliance Matrix: (Units=1/GPa)
#
#
# Indices 1 2 3 4 5 6 
#
# 1 0.019866 -0.005460 -0.004301 -0.007809 0.004898 0.007765
# 2 -0.005460 0.019096 -0.000639 0.004812 0.001954 0.004771
# 3 -0.004301 -0.000639 0.016538 -0.000112 0.001230 0.003173
# 4 -0.007809 0.004812 -0.000112 0.033495 -0.009173 0.001695
# 5 0.004898 0.001954 0.001230 -0.009173 0.026301 0.002165
# 6 0.007765 0.004771 0.003173 0.001695 0.002165 0.035213
#
#
# Mechanical properties :
#
#
# Convention : Reuss Voigt Hill
#
# Bulk Modulus (GPa) = 28.81887 40.11996 34.46941
# Shear Modulus (GPa) = 27.34109 33.93353 30.63731
#
# Velocity S-wave (km/s) = 3.35355 3.73603 3.54994
# Velocity P-wave (km/s) = 5.18162 5.92564 5.56607
#
# Compressibility (1/GPa) = 0.03469949
#
# Stress axis : x y z
#
# Youngs Moduli (GPa) = 50.33835 52.36564 60.46856
#
# Poissons Ratio (x) = 0.28591 0.26010
# Poissons Ratio (y) = 0.27484 0.03863
# Poissons Ratio (z) = 0.21652 0.03345
#
# Static dielectric constant tensor:
#      x y z
#    x 1.943330 0.016760 0.033110 
#    y 0.016760 1.966170 0.017580 
#    z 0.033110 0.017580 1.950700 
# 
# From -- ./inp_files/71188.got.cif
#   From: 2010.05.17/outbox.cif.g08.bks.cpg/sg2_36_cif.got.tgz:71188.got - 2010.06.03 11:33:40.
