data_PCOD9026628
_publ_section_title
;
Structure prediction by ZEFSAII (Michael W. Deem and Ramdas Pophale) SiO2 
 PCOD9026628
Probable space group: P -1
;
_chemical_formula_sum "Si O2"
_cell_formula_units_Z 16
_cell_length_a 5.419690
_cell_length_b 16.221393
_cell_length_c 9.626891
_cell_angle_alpha 126.637762
_cell_angle_beta 83.393911
_cell_angle_gamma 103.845875
_cell_volume 658.977341
_symmetry_space_group_name_H-M "P -1"
_symmetry_group_IT_number 2
_symmetry_cell_setting 'triclinic'
loop_
_space_group_symop_operation_xyz
x,y,z
-x,-y,-z
loop_
_atom_site_type_symbol
_atom_site_label
_atom_site_fract_x
_atom_site_fract_y
_atom_site_fract_z
Si Si1 0.333524 0.884609 0.413221
Si Si2 0.977434 0.286481 0.055455
Si Si3 0.217171 0.915289 0.762877
Si Si4 0.359628 0.714213 0.686621
Si Si5 0.211669 0.139752 0.056879
Si Si6 0.253968 0.576339 0.998845
Si Si7 0.450699 0.388121 0.695040
Si Si8 0.794465 0.766713 0.252965
O O1 0.226879 0.884546 0.574142
O O2 0.556073 0.820571 0.320729
O O3 0.072750 0.845585 0.304834
O O4 0.500000 0.000000 0.500000
O O5 0.892552 0.331726 0.252338
O O6 0.798263 0.329779 0.999377
O O7 0.007324 0.171223 0.995155
O O8 0.220566 0.307391 0.957307
O O9 0.342872 0.829273 0.744193
O O10 0.936239 0.896188 0.827005
O O11 0.323710 0.040869 0.899691
O O12 0.588567 0.751778 0.818543
O O13 0.424035 0.644114 0.485356
O O14 0.374865 0.499686 0.814882
O O15 0.387631 0.610005 0.171769
O O16 0.000000 0.500000 0.000000
O O17 0.211257 0.297139 0.666604
#
# Coordination Sequence:
#
# PCOD9026628 Si02
#       8
#     2   2   2   2   2   2   2   2
#     4  12  26  42  70 109 149 198 255 309 365 440
#     4  11  26  42  71 104 138 192 239 314 368 445
#     4  10  22  41  65 102 138 199 246 300 361 440
#     4  11  24  44  72 100 142 190 243 302 367 450
#     4  10  23  42  67  98 148 190 246 299 374 435
#     4  11  25  47  76 105 145 185 247 313 387 447
#     4  11  25  46  77 105 139 198 244 310 379 452
#     4  12  25  45  73 103 151 194 249 304 377 444
#
# _framework density 24.280042999999999
#
# number of rings (size 3 to 8) (size 9 to 14) (size 15 to 20)
#    0.000    1.000    2.500    3.000    5.250    2.500 
#    0.000    1.250    0.000    0.000    0.000    0.000 
#    0.000    0.000    0.000    0.000    0.000    0.000 
#
# Total GULP energy -89098.159670 kJ/mol
# GULP energy per Si atom -5568.634979 kJ/mol
# Density = 2.422478 g / cm^3
# Si number density = 24.280043 Si / 1000 Ang^3
#
#
#
# Elastic Constant Matrix: (Units=GPa)
#
#
# Indices 1 2 3 4 5 6 
#
# 1 70.3868 27.5287 79.2711 16.7257 -11.9836 -2.0687
# 2 27.5287 69.7057 44.3979 -5.2626 -4.0562 -13.1498
# 3 79.2711 44.3979 206.0572 -16.7064 -46.7656 -6.7486
# 4 16.7257 -5.2626 -16.7064 50.4446 1.6046 -8.5593
# 5 -11.9836 -4.0562 -46.7656 1.6046 43.9857 4.0822
# 6 -2.0687 -13.1498 -6.7486 -8.5593 4.0822 44.7211
#
#
#
# Elastic Compliance Matrix: (Units=1/GPa)
#
#
# Indices 1 2 3 4 5 6 
#
# 1 0.040397 -0.008195 -0.017190 -0.020836 -0.006661 -0.006515
# 2 -0.008195 0.019705 -0.000922 0.005651 -0.002211 0.006559
# 3 -0.017190 -0.000922 0.015002 0.010619 0.010584 0.002264
# 4 -0.020836 0.005651 0.010619 0.032071 0.004217 0.008053
# 5 -0.006661 -0.002211 0.010584 0.004217 0.031952 -0.001470
# 6 -0.006515 0.006559 0.002264 0.008053 -0.001470 0.026005
#
#
# Mechanical properties :
#
#
# Convention : Reuss Voigt Hill
#
# Bulk Modulus (GPa) = 44.46191 72.06056 58.26123
# Shear Modulus (GPa) = 22.19838 40.82706 31.51272
#
# Velocity S-wave (km/s) = 3.02696 4.10507 3.60653
# Velocity P-wave (km/s) = 5.52888 7.22580 6.43353
#
# Compressibility (1/GPa) = 0.02249116
#
# Stress axis : x y z
#
# Youngs Moduli (GPa) = 24.75422 50.74878 66.65858
#
# Poissons Ratio (x) = 0.41588 1.14584
# Poissons Ratio (y) = 0.20286 0.06145
# Poissons Ratio (z) = 0.42552 0.04678
#
# Static dielectric constant tensor:
#      x y z
#    x 2.095720 0.121330 0.003590 
#    y 0.121330 1.598800 0.651700 
#    z 0.003590 0.651700 1.165480 
# 
# From -- ./inp_files/139522.got.cif
#   From: 2010.05.17/outbox.cif.g08.bks.cpg/sg2_70_cif.got.tgz:139522.got - 2010.06.03 11:33:40.
