data_PCOD9026798
_publ_section_title
;
Structure prediction by ZEFSAII (Michael W. Deem and Ramdas Pophale) SiO2 
 PCOD9026798
Probable space group: P -1
;
_chemical_formula_sum "Si O2"
_cell_formula_units_Z 15
_cell_length_a 4.886976
_cell_length_b 11.996091
_cell_length_c 17.386185
_cell_angle_alpha 135.311810
_cell_angle_beta 67.958643
_cell_angle_gamma 92.019880
_cell_volume 621.071494
_symmetry_space_group_name_H-M "P -1"
_symmetry_group_IT_number 2
_symmetry_cell_setting 'triclinic'
loop_
_space_group_symop_operation_xyz
x,y,z
-x,-y,-z
loop_
_atom_site_type_symbol
_atom_site_label
_atom_site_fract_x
_atom_site_fract_y
_atom_site_fract_z
Si Si1 0.891692 0.162175 0.146604
Si Si2 0.672263 0.638699 0.792355
Si Si3 0.504627 0.296863 0.980989
Si Si4 0.141116 0.269683 0.525016
Si Si5 0.460019 0.052180 0.251714
Si Si6 0.130185 0.204217 0.792360
Si Si7 0.275934 0.925082 0.532623
Si Si8 0.000000 0.500000 0.000000
O O1 0.650812 0.316047 0.198488
O O2 0.694656 0.122430 0.216549
O O3 0.184174 0.213617 0.166482
O O4 0.000000 0.000000 0.000000
O O5 0.934484 0.464275 0.652814
O O6 0.594738 0.647206 0.895073
O O7 0.238936 0.390921 0.994693
O O8 0.820758 0.329269 0.934149
O O9 0.609331 0.090579 0.862788
O O10 0.193749 0.204659 0.398416
O O11 0.478879 0.212738 0.503936
O O12 0.936372 0.163676 0.529610
O O13 0.645979 0.936043 0.245386
O O14 0.247210 0.355636 0.837200
O O15 0.046693 0.094201 0.683224
O O16 0.500000 0.000000 0.500000
#
# Coordination Sequence:
#
# PCOD9026798 Si02
#       8
#     2   2   2   2   2   2   2   1
#     4  12  25  45  70 106 134 181 229 282 348 407
#     4  12  28  42  72 104 140 174 229 290 345 389
#     4  11  22  43  66  96 133 182 218 287 335 409
#     4  11  25  47  65 101 137 179 225 285 335 406
#     4  10  23  42  72  89 139 178 230 274 339 413
#     4  10  22  41  65  97 127 181 230 274 341 400
#     4  11  24  43  70  94 136 183 230 270 342 404
#     4  10  24  38  64 100 132 172 232 278 338 408
#
# _framework density 24.151807000000002
#
# number of rings (size 3 to 8) (size 9 to 14) (size 15 to 20)
#    0.000    1.067    2.667    2.800    5.600    2.133 
#    0.000    0.000    0.000    0.000    0.000    0.000 
#    0.000    0.000    0.000    0.000    0.000    0.000 
#
# Total GULP energy -83706.604315 kJ/mol
# GULP energy per Si atom -5580.440288 kJ/mol
# Density = 2.409684 g / cm^3
# Si number density = 24.151807 Si / 1000 Ang^3
#
#
#
# Elastic Constant Matrix: (Units=GPa)
#
#
# Indices 1 2 3 4 5 6 
#
# 1 95.5882 11.0226 4.6438 -0.3201 -7.8801 -1.2722
# 2 11.0226 47.2677 37.7721 6.9995 -4.7105 20.3824
# 3 4.6438 37.7721 163.0077 19.4640 -7.2652 0.5607
# 4 -0.3201 6.9995 19.4640 31.8551 9.9488 -12.5389
# 5 -7.8801 -4.7105 -7.2652 9.9488 32.0466 8.4662
# 6 -1.2722 20.3824 0.5607 -12.5389 8.4662 42.1501
#
#
#
# Elastic Compliance Matrix: (Units=1/GPa)
#
#
# Indices 1 2 3 4 5 6 
#
# 1 0.011049 -0.004163 0.000535 0.001323 0.001155 0.002501
# 2 -0.004163 0.051118 -0.006954 -0.029775 0.024327 -0.038496
# 3 0.000535 -0.006954 0.008147 -0.003040 0.001346 0.002096
# 4 0.001323 -0.029775 -0.003040 0.067918 -0.036949 0.042105
# 5 0.001155 0.024327 0.001346 -0.036949 0.055809 -0.033948
# 6 0.002501 -0.038496 0.002096 0.042105 -0.033948 0.061732
#
#
# Mechanical properties :
#
#
# Convention : Reuss Voigt Hill
#
# Bulk Modulus (GPa) = 20.34700 45.86007 33.10353
# Shear Modulus (GPa) = 17.04622 38.03871 27.54246
#
# Velocity S-wave (km/s) = 2.65956 3.97291 3.38063
# Velocity P-wave (km/s) = 4.22776 6.33047 5.38279
#
# Compressibility (1/GPa) = 0.04914729
#
# Stress axis : x y z
#
# Youngs Moduli (GPa) = 90.50968 19.56268 122.74986
#
# Poissons Ratio (x) = 0.08144 -0.06565
# Poissons Ratio (y) = 0.37682 0.85365
# Poissons Ratio (z) = -0.04841 0.13605
#
# Static dielectric constant tensor:
#      x y z
#    x 2.015580 0.067370 0.081320 
#    y 0.067370 1.970960 -0.051110 
#    z 0.081320 -0.051110 2.076070 
# 
# From -- ./inp_files/543583.got.cif
#   From: 2010.05.17/outbox.cif.g08.bks.cpg/sg2_272_cif.got.tgz:543583.got - 2010.06.03 11:33:40.
