data_PCOD9026542
_publ_section_title
;
Structure prediction by ZEFSAII (Michael W. Deem and Ramdas Pophale) SiO2 
 PCOD9026542
Probable space group: P -1
;
_chemical_formula_sum "Si O2"
_cell_formula_units_Z 14
_cell_length_a 18.375962
_cell_length_b 8.256727
_cell_length_c 6.485428
_cell_angle_alpha 56.268092
_cell_angle_beta 92.359834
_cell_angle_gamma 56.139863
_cell_volume 585.480608
_symmetry_space_group_name_H-M "P -1"
_symmetry_group_IT_number 2
_symmetry_cell_setting 'triclinic'
loop_
_space_group_symop_operation_xyz
x,y,z
-x,-y,-z
loop_
_atom_site_type_symbol
_atom_site_label
_atom_site_fract_x
_atom_site_fract_y
_atom_site_fract_z
Si Si1 0.476605 0.933043 0.832507
Si Si2 0.964699 0.856627 0.177940
Si Si3 0.434673 0.583552 0.633866
Si Si4 0.075532 0.326836 0.324299
Si Si5 0.743782 0.152008 0.838042
Si Si6 0.670869 0.599302 0.799159
Si Si7 0.740406 0.841144 0.773934
O O1 0.574106 0.783211 0.804833
O O2 0.371099 0.212845 0.541055
O O3 0.486687 0.683601 0.036915
O O4 0.500000 0.000000 0.000000
O O5 0.942408 0.838200 0.428922
O O6 0.048014 0.547673 0.326786
O O7 0.857602 0.016858 0.936917
O O8 0.000000 0.000000 0.000000
O O9 0.500000 0.500000 0.500000
O O10 0.336032 0.644548 0.497605
O O11 0.377065 0.884297 0.485217
O O12 0.185654 0.169475 0.353604
O O13 0.000000 0.500000 0.000000
O O14 0.701783 0.326881 0.919311
O O15 0.751013 0.906572 0.962284
O O16 0.754423 0.586298 0.918356
#
# Coordination Sequence:
#
# PCOD9026542 Si02
#       7
#     2   2   2   2   2   2   2
#     4  11  22  42  63  96 140 178 239 285 324 420
#     4  11  25  46  75 103 140 187 235 295 373 429
#     4  10  22  41  64  95 140 183 220 280 342 398
#     4  11  23  48  71 105 141 179 235 302 356 432
#     4  10  23  43  67 104 140 171 240 286 339 434
#     4  11  24  41  68  97 133 187 228 281 354 400
#     4  10  23  43  67 100 136 182 230 287 351 416
#
# _framework density 23.911978999999999
#
# number of rings (size 3 to 8) (size 9 to 14) (size 15 to 20)
#    0.857    0.571    2.857    1.714    4.000    2.286 
#    2.571    0.000    0.000    0.000    0.000    0.000 
#    0.000    0.000    0.000    0.000    0.000    0.000 
#
# Total GULP energy -77982.538735 kJ/mol
# GULP energy per Si atom -5570.181338 kJ/mol
# Density = 2.385755 g / cm^3
# Si number density = 23.911979 Si / 1000 Ang^3
#
#
#
# Elastic Constant Matrix: (Units=GPa)
#
#
# Indices 1 2 3 4 5 6 
#
# 1 94.2966 35.8361 33.9166 9.4054 -10.5612 9.8593
# 2 35.8361 141.1399 0.6558 9.8713 -1.8812 5.5672
# 3 33.9166 0.6558 74.6286 2.4319 -9.6853 -0.6051
# 4 9.4054 9.8713 2.4319 22.3402 -0.7283 8.7303
# 5 -10.5612 -1.8812 -9.6853 -0.7283 39.1422 0.9279
# 6 9.8593 5.5672 -0.6051 8.7303 0.9279 51.2591
#
#
#
# Elastic Compliance Matrix: (Units=1/GPa)
#
#
# Indices 1 2 3 4 5 6 
#
# 1 0.015013 -0.003445 -0.006408 -0.003212 0.002289 -0.002084
# 2 -0.003445 0.008109 0.001547 -0.002390 -0.000206 0.000211
# 3 -0.006408 0.001547 0.016630 -0.000206 0.002427 0.001252
# 4 -0.003212 -0.002390 -0.000206 0.050195 0.000083 -0.007676
# 5 0.002289 -0.000206 0.002427 0.000083 0.026779 -0.000888
# 6 -0.002084 0.000211 0.001252 -0.007676 -0.000888 0.021225
#
#
# Mechanical properties :
#
#
# Convention : Reuss Voigt Hill
#
# Bulk Modulus (GPa) = 43.21350 50.09800 46.65575
# Shear Modulus (GPa) = 30.81161 38.52542 34.66852
#
# Velocity S-wave (km/s) = 3.59352 4.01825 3.81181
# Velocity P-wave (km/s) = 5.94382 6.52111 6.23915
#
# Compressibility (1/GPa) = 0.02314092
#
# Stress axis : x y z
#
# Youngs Moduli (GPa) = 66.60672 123.32366 60.13165
#
# Poissons Ratio (x) = 0.42483 0.38533
# Poissons Ratio (y) = 0.22945 -0.09303
# Poissons Ratio (z) = 0.42682 -0.19080
#
# Static dielectric constant tensor:
#      x y z
#    x 1.917580 0.053360 -0.057800 
#    y 0.053360 2.028010 0.061700 
#    z -0.057800 0.061700 1.955160 
# 
# From -- ./inp_files/115356.got.cif
#   From: 2010.05.17/outbox.cif.g08.bks.cpg/sg2_58_cif.got.tgz:115356.got - 2010.06.03 11:33:40.
