data_PCOD9026353
_publ_section_title
;
Structure prediction by ZEFSAII (Michael W. Deem and Ramdas Pophale) SiO2 
 PCOD9026353
Probable space group: P -1
;
_chemical_formula_sum "Si O2"
_cell_formula_units_Z 13
_cell_length_a 5.005009
_cell_length_b 13.567250
_cell_length_c 10.677763
_cell_angle_alpha 44.479824
_cell_angle_beta 106.725841
_cell_angle_gamma 108.205891
_cell_volume 480.293262
_symmetry_space_group_name_H-M "P -1"
_symmetry_group_IT_number 2
_symmetry_cell_setting 'triclinic'
loop_
_space_group_symop_operation_xyz
x,y,z
-x,-y,-z
loop_
_atom_site_type_symbol
_atom_site_label
_atom_site_fract_x
_atom_site_fract_y
_atom_site_fract_z
Si Si1 0.713718 0.465711 0.913215
Si Si2 0.200592 0.718814 0.152413
Si Si3 0.755688 0.905727 0.974635
Si Si4 0.372645 0.022907 0.634358
Si Si5 0.500000 0.500000 0.500000
Si Si6 0.186653 0.288606 0.464631
Si Si7 0.366485 0.766906 0.716082
O O1 0.774415 0.373627 0.884683
O O2 0.628920 0.605194 0.709816
O O3 0.522509 0.358369 0.078882
O O4 0.000000 0.500000 0.000000
O O5 0.460732 0.849374 0.055795
O O6 0.278477 0.615647 0.364129
O O7 0.903217 0.771202 0.077236
O O8 0.659810 0.991070 0.766171
O O9 0.000000 0.000000 0.000000
O O10 0.246122 0.127476 0.616842
O O11 0.408101 0.120193 0.427101
O O12 0.234076 0.866223 0.711281
O O13 0.255913 0.372480 0.525287
O O14 0.875361 0.284161 0.371012
#
# Coordination Sequence:
#
# PCOD9026353 Si02
#       7
#     2   2   2   2   1   2   2
#     4   9  20  44  65  98 135 183 229 286 347 410
#     4  11  25  48  70 106 137 186 233 287 349 418
#     4  12  27  45  73 103 143 183 233 290 353 417
#     4  11  24  39  67 104 131 183 224 293 349 417
#     4  10  24  48  70  98 140 184 238 286 344 422
#     4  10  22  42  67  96 136 180 233 288 348 411
#     4  10  22  41  64 100 135 178 231 289 348 416
#
# _framework density 27.066799
#
# number of rings (size 3 to 8) (size 9 to 14) (size 15 to 20)
#    0.000    1.538    1.538    1.846    4.308    6.154 
#   16.615    0.000    0.000    0.000    0.000    0.000 
#    0.000    0.000    0.000    0.000    0.000    0.000 
#
# Total GULP energy -72467.833261 kJ/mol
# GULP energy per Si atom -5574.448712 kJ/mol
# Density = 2.700519 g / cm^3
# Si number density = 27.066799 Si / 1000 Ang^3
#
#
#
# Elastic Constant Matrix: (Units=GPa)
#
#
# Indices 1 2 3 4 5 6 
#
# 1 99.5725 20.1898 45.8559 -4.0680 28.3506 0.1009
# 2 20.1898 157.7224 -19.5457 6.4247 23.0178 20.0498
# 3 45.8559 -19.5457 134.8249 -18.9936 25.9736 -1.3733
# 4 -4.0680 6.4247 -18.9936 43.3877 -0.1857 15.2462
# 5 28.3506 23.0178 25.9736 -0.1857 45.3092 -2.5536
# 6 0.1009 20.0498 -1.3733 15.2462 -2.5536 26.9410
#
#
#
# Elastic Compliance Matrix: (Units=1/GPa)
#
#
# Indices 1 2 3 4 5 6 
#
# 1 0.013682 -0.001464 -0.003839 -0.000393 -0.005588 0.000535
# 2 -0.001464 0.008750 0.003223 0.002966 -0.005848 -0.008575
# 3 -0.003839 0.003223 0.011121 0.006043 -0.005913 -0.005798
# 4 -0.000393 0.002966 0.006043 0.032518 -0.005767 -0.020847
# 5 -0.005588 -0.005848 -0.005913 -0.005767 0.032491 0.010415
# 6 0.000535 -0.008575 -0.005798 -0.020847 0.010415 0.055987
#
#
# Mechanical properties :
#
#
# Convention : Reuss Voigt Hill
#
# Bulk Modulus (GPa) = 34.01951 53.90223 43.96087
# Shear Modulus (GPa) = 29.67239 46.16888 37.92064
#
# Velocity S-wave (km/s) = 3.31458 4.13454 3.74706
# Velocity P-wave (km/s) = 5.21964 6.53837 5.91587
#
# Compressibility (1/GPa) = 0.02939490
#
# Stress axis : x y z
#
# Youngs Moduli (GPa) = 73.08757 114.28881 89.91634
#
# Poissons Ratio (x) = 0.16728 0.34519
# Poissons Ratio (y) = 0.10698 -0.28984
# Poissons Ratio (z) = 0.28059 -0.36840
#
# Static dielectric constant tensor:
#      x y z
#    x 2.407540 -0.132560 -0.090630 
#    y -0.132560 2.205320 -0.037570 
#    z -0.090630 -0.037570 2.173930 
# 
# From -- ./inp_files/78903.got.cif
#   From: 2010.05.17/outbox.cif.g08.bks.cpg/sg2_40_cif.got.tgz:78903.got - 2010.06.03 11:33:40.
