data_PCOD9026717
_publ_section_title
;
Structure prediction by ZEFSAII (Michael W. Deem and Ramdas Pophale) SiO2 
 PCOD9026717
Probable space group: P -1
;
_chemical_formula_sum "Si O2"
_cell_formula_units_Z 16
_cell_length_a 15.291567
_cell_length_b 14.366553
_cell_length_c 15.252846
_cell_angle_alpha 31.188335
_cell_angle_beta 148.881988
_cell_angle_gamma 150.339238
_cell_volume 771.171605
_symmetry_space_group_name_H-M "P -1"
_symmetry_group_IT_number 2
_symmetry_cell_setting 'triclinic'
loop_
_space_group_symop_operation_xyz
x,y,z
-x,-y,-z
loop_
_atom_site_type_symbol
_atom_site_label
_atom_site_fract_x
_atom_site_fract_y
_atom_site_fract_z
Si Si1 0.164709 0.437546 0.199088
Si Si2 0.974932 0.409249 0.399107
Si Si3 0.317051 0.213973 0.404918
Si Si4 0.254192 0.383334 0.518021
Si Si5 0.801380 0.089337 0.813663
Si Si6 0.470694 0.166738 0.892755
Si Si7 0.112758 0.972637 0.249826
Si Si8 0.430356 0.884805 0.787229
O O1 0.156633 0.246777 0.292150
O O2 0.207688 0.423186 0.348582
O O3 0.353072 0.624625 0.164370
O O4 0.000000 0.500000 0.000000
O O5 0.964169 0.261124 0.589686
O O6 0.751141 0.319436 0.247274
O O7 0.090836 0.365368 0.458162
O O8 0.085093 0.658890 0.302325
O O9 0.535133 0.419631 0.429296
O O10 0.241984 0.132623 0.308257
O O11 0.345624 0.035179 0.617208
O O12 0.278184 0.181355 0.699351
O O13 0.766482 0.999379 0.757797
O O14 0.605281 0.003864 0.771628
O O15 0.939289 0.016268 0.039144
O O16 0.493569 0.157690 0.023493
O O17 0.500000 0.000000 0.000000
#
# Coordination Sequence:
#
# PCOD9026717 Si02
#       8
#     2   2   2   2   2   2   2   2
#     4  11  24  39  64  95 132 180 219 270 342 399
#     4  11  24  42  70  99 134 178 231 277 339 411
#     4  10  22  41  65  93 134 171 224 275 333 405
#     4  11  22  41  63  97 134 178 220 279 337 398
#     4  11  24  47  70  94 145 174 226 295 336 395
#     4  11  23  38  63  94 135 172 225 279 332 409
#     4  10  25  45  67 103 129 182 230 276 349 407
#     4  11  23  42  67 101 129 182 225 273 346 401
#
# _framework density 20.747651999999999
#
# number of rings (size 3 to 8) (size 9 to 14) (size 15 to 20)
#    0.000    1.250    1.250    4.875    5.250    4.000 
#    2.250    5.625    0.000    0.000    0.000    0.000 
#    0.000    0.000    0.000    0.000    0.000    0.000 
#
# Total GULP energy -89365.975028 kJ/mol
# GULP energy per Si atom -5585.373439 kJ/mol
# Density = 2.070043 g / cm^3
# Si number density = 20.747652 Si / 1000 Ang^3
#
#
#
# Elastic Constant Matrix: (Units=GPa)
#
#
# Indices 1 2 3 4 5 6 
#
# 1 139.3267 54.1315 69.6118 7.0319 -11.8483 1.1787
# 2 54.1315 110.5360 21.7958 9.9709 -0.5404 5.1336
# 3 69.6118 21.7958 147.1191 9.0029 -13.8372 -8.3297
# 4 7.0319 9.9709 9.0029 16.0042 -1.7842 -0.0137
# 5 -11.8483 -0.5404 -13.8372 -1.7842 40.5473 -1.8007
# 6 1.1787 5.1336 -8.3297 -0.0137 -1.8007 24.6859
#
#
#
# Elastic Compliance Matrix: (Units=1/GPa)
#
#
# Indices 1 2 3 4 5 6 
#
# 1 0.011447 -0.004694 -0.004664 0.000705 0.001676 -0.001022
# 2 -0.004694 0.011849 0.000570 -0.005795 -0.001370 -0.002151
# 3 -0.004664 0.000570 0.009503 -0.003438 0.001889 0.003447
# 4 0.000705 -0.005795 -0.003438 0.067936 0.001953 0.000192
# 5 0.001676 -0.001370 0.001889 0.001953 0.025986 0.002739
# 6 -0.001022 -0.002151 0.003447 0.000192 0.002739 0.042368
#
#
# Mechanical properties :
#
#
# Convention : Reuss Voigt Hill
#
# Bulk Modulus (GPa) = 65.69496 76.45111 71.07304
# Shear Modulus (GPa) = 26.07678 33.01034 29.54356
#
# Velocity S-wave (km/s) = 3.54906 3.99311 3.77762
# Velocity P-wave (km/s) = 6.96613 7.62811 7.30462
#
# Compressibility (1/GPa) = 0.01522187
#
# Stress axis : x y z
#
# Youngs Moduli (GPa) = 87.35771 84.39383 105.22949
#
# Poissons Ratio (x) = 0.39615 0.49082
# Poissons Ratio (y) = 0.41007 -0.05994
# Poissons Ratio (z) = 0.40746 -0.04807
#
# Static dielectric constant tensor:
#      x y z
#    x 1.734820 -0.050880 0.059190 
#    y -0.050880 1.789720 -0.040460 
#    z 0.059190 -0.040460 1.801100 
# 
# From -- ./inp_files/534208.got.cif
#   From: 2010.05.17/outbox.cif.g08.bks.cpg/sg2_268_cif.got.tgz:534208.got - 2010.06.03 11:33:40.
