data_PCOD9026803
_publ_section_title
;
Structure prediction by ZEFSAII (Michael W. Deem and Ramdas Pophale) SiO2 
 PCOD9026803
Probable space group: P -1
;
_chemical_formula_sum "Si O2"
_cell_formula_units_Z 15
_cell_length_a 14.127025
_cell_length_b 16.024358
_cell_length_c 7.048283
_cell_angle_alpha 117.090917
_cell_angle_beta 73.717162
_cell_angle_gamma 154.498550
_cell_volume 574.948862
_symmetry_space_group_name_H-M "P -1"
_symmetry_group_IT_number 2
_symmetry_cell_setting 'triclinic'
loop_
_space_group_symop_operation_xyz
x,y,z
-x,-y,-z
loop_
_atom_site_type_symbol
_atom_site_label
_atom_site_fract_x
_atom_site_fract_y
_atom_site_fract_z
Si Si1 0.628817 0.276728 0.401067
Si Si2 0.898438 0.512296 0.127617
Si Si3 0.972093 0.117360 0.111656
Si Si4 0.530391 0.333460 0.042486
Si Si5 0.479383 0.614136 0.466581
Si Si6 0.183372 0.834903 0.990924
Si Si7 0.253304 0.294597 0.820149
Si Si8 0.000000 0.500000 0.500000
O O1 0.869339 0.490473 0.352933
O O2 0.546721 0.307957 0.544069
O O3 0.734429 0.302227 0.525114
O O4 0.450789 0.078506 0.150530
O O5 0.657443 0.343226 0.995891
O O6 0.000000 0.500000 0.000000
O O7 0.076098 0.737478 0.163478
O O8 0.906396 0.156477 0.077500
O O9 0.219892 0.344569 0.315634
O O10 0.045281 0.107771 0.893699
O O11 0.732887 0.889850 0.124158
O O12 0.484217 0.324650 0.275976
O O13 0.717799 0.572450 0.119984
O O14 0.694847 0.736699 0.402675
O O15 0.121743 0.689359 0.759697
O O16 0.500000 0.500000 0.000000
#
# Coordination Sequence:
#
# PCOD9026803 Si02
#       8
#     2   2   2   2   2   2   2   1
#     4  11  24  44  64  97 131 173 212 275 323 388
#     4  11  23  40  66  95 131 167 217 266 322 387
#     4  11  22  42  69  93 133 173 214 272 324 384
#     4  11  23  43  67  94 133 175 211 276 325 380
#     4  10  22  41  65  97 131 165 223 265 325 387
#     4  12  23  44  67  94 132 171 214 268 330 384
#     4  10  23  42  68  98 131 173 220 271 323 389
#     4  12  24  40  74  90 128 174 218 262 328 392
#
# _framework density 26.089278
#
# number of rings (size 3 to 8) (size 9 to 14) (size 15 to 20)
#    0.000    1.067    6.667    0.800    0.000    2.667 
#    0.000   13.333    0.000    0.000    0.000    0.000 
#    0.000    0.000    0.000    0.000    0.000    0.000 
#
# Total GULP energy -83514.119048 kJ/mol
# GULP energy per Si atom -5567.607937 kJ/mol
# Density = 2.602990 g / cm^3
# Si number density = 26.089278 Si / 1000 Ang^3
#
#
#
# Elastic Constant Matrix: (Units=GPa)
#
#
# Indices 1 2 3 4 5 6 
#
# 1 110.1931 16.8021 16.7387 -0.0790 -23.4747 31.7262
# 2 16.8021 89.3996 33.1416 -15.4385 -2.7694 24.6889
# 3 16.7387 33.1416 120.8903 12.4198 -12.9778 23.5902
# 4 -0.0790 -15.4385 12.4198 36.9894 10.4469 4.7469
# 5 -23.4747 -2.7694 -12.9778 10.4469 30.5782 -4.1740
# 6 31.7262 24.6889 23.5902 4.7469 -4.1740 35.5804
#
#
#
# Elastic Compliance Matrix: (Units=1/GPa)
#
#
# Indices 1 2 3 4 5 6 
#
# 1 0.014895 0.000099 0.001853 -0.002030 0.011149 -0.013000
# 2 0.000099 0.018113 -0.004559 0.012346 -0.006074 -0.011993
# 3 0.001853 -0.004559 0.011741 -0.007538 0.007977 -0.004331
# 4 -0.002030 0.012346 -0.007538 0.041315 -0.019052 -0.009506
# 5 0.011149 -0.006074 0.007977 -0.019052 0.050255 -0.002578
# 6 -0.013000 -0.011993 -0.004331 -0.009506 -0.002578 0.051856
#
#
# Mechanical properties :
#
#
# Convention : Reuss Voigt Hill
#
# Bulk Modulus (GPa) = 25.29502 50.42755 37.86129
# Shear Modulus (GPa) = 24.20485 37.54963 30.87724
#
# Velocity S-wave (km/s) = 3.04924 3.79789 3.44397
# Velocity P-wave (km/s) = 4.70252 6.21311 5.50983
#
# Compressibility (1/GPa) = 0.03953347
#
# Stress axis : x y z
#
# Youngs Moduli (GPa) = 67.13704 55.20768 85.16876
#
# Poissons Ratio (x) = -0.00545 -0.15779
# Poissons Ratio (y) = -0.00662 0.38832
# Poissons Ratio (z) = -0.12438 0.25172
#
# Static dielectric constant tensor:
#      x y z
#    x 1.703490 -0.107910 -0.337710 
#    y -0.107910 2.154860 0.039840 
#    z -0.337710 0.039840 2.126330 
# 
# From -- ./inp_files/337323.got.cif
#   From: 2010.05.17/outbox.cif.g08.bks.cpg/sg2_169_cif.got.tgz:337323.got - 2010.06.03 11:33:40.
