data_PCOD9026736
_publ_section_title
;
Structure prediction by ZEFSAII (Michael W. Deem and Ramdas Pophale) SiO2 
 PCOD9026736
Probable space group: P -1
;
_chemical_formula_sum "Si O2"
_cell_formula_units_Z 16
_cell_length_a 15.422630
_cell_length_b 5.064876
_cell_length_c 16.717811
_cell_angle_alpha 66.970217
_cell_angle_beta 143.524981
_cell_angle_gamma 119.238100
_cell_volume 677.407901
_symmetry_space_group_name_H-M "P -1"
_symmetry_group_IT_number 2
_symmetry_cell_setting 'triclinic'
loop_
_space_group_symop_operation_xyz
x,y,z
-x,-y,-z
loop_
_atom_site_type_symbol
_atom_site_label
_atom_site_fract_x
_atom_site_fract_y
_atom_site_fract_z
Si Si1 0.903998 0.328541 0.372081
Si Si2 0.805149 0.494323 0.052706
Si Si3 0.244017 0.352292 0.179281
Si Si4 0.188619 0.701907 0.246117
Si Si5 0.843376 0.857539 0.512867
Si Si6 0.602870 0.339945 0.051024
Si Si7 0.432399 0.555109 0.532698
Si Si8 0.037571 0.955515 0.787497
O O1 0.763993 0.393645 0.213134
O O2 0.000000 0.500000 0.500000
O O3 0.037389 0.310109 0.411674
O O4 0.815152 0.014603 0.391977
O O5 0.648924 0.485043 0.980892
O O6 0.820860 0.160705 0.118180
O O7 0.925006 0.780584 0.151705
O O8 0.802008 0.556045 0.950414
O O9 0.232578 0.604758 0.203500
O O10 0.417520 0.340864 0.314026
O O11 0.147746 0.008062 0.170616
O O12 0.329513 0.763731 0.406327
O O13 0.071839 0.378037 0.225764
O O14 0.691459 0.692804 0.472901
O O15 0.955067 0.058242 0.640399
O O16 0.500000 0.500000 0.000000
O O17 0.500000 0.000000 0.000000
O O18 0.500000 0.500000 0.500000
#
# Coordination Sequence:
#
# PCOD9026736 Si02
#       8
#     2   2   2   2   2   2   2   2
#     4  11  25  46  78 109 142 192 262 311 370 446
#     4  12  25  42  67  97 137 181 230 289 356 442
#     4  11  23  40  62  96 138 177 234 274 354 431
#     4  10  22  41  65  94 132 182 225 297 341 415
#     4  10  23  44  75 101 142 185 249 309 364 433
#     4  12  29  49  73 104 153 192 237 309 389 445
#     4   9  21  43  66  99 141 183 235 297 367 428
#     4  11  23  43  68  99 137 180 235 288 360 417
#
# _framework density 23.619444999999999
#
# number of rings (size 3 to 8) (size 9 to 14) (size 15 to 20)
#    0.000    1.250    1.250    3.375    5.250    3.000 
#   11.250    0.000    0.000    0.000    0.000    0.000 
#    0.000    0.000    0.000    0.000    0.000    0.000 
#
# Total GULP energy -89149.211480 kJ/mol
# GULP energy per Si atom -5571.825717 kJ/mol
# Density = 2.356569 g / cm^3
# Si number density = 23.619445 Si / 1000 Ang^3
#
#
#
# Elastic Constant Matrix: (Units=GPa)
#
#
# Indices 1 2 3 4 5 6 
#
# 1 120.6142 28.4928 26.1810 8.6942 0.9245 15.0777
# 2 28.4928 84.1749 24.9441 6.6649 -2.6148 -5.8219
# 3 26.1810 24.9441 107.1297 7.8801 -8.6700 -1.5080
# 4 8.6942 6.6649 7.8801 42.6159 -0.1284 -2.2650
# 5 0.9245 -2.6148 -8.6700 -0.1284 31.4455 8.3799
# 6 15.0777 -5.8219 -1.5080 -2.2650 8.3799 35.8955
#
#
#
# Elastic Compliance Matrix: (Units=1/GPa)
#
#
# Indices 1 2 3 4 5 6 
#
# 1 0.010132 -0.003148 -0.001676 -0.001530 0.000306 -0.005005
# 2 -0.003148 0.013959 -0.002392 -0.000913 -0.000345 0.003509
# 3 -0.001676 -0.002392 0.010616 -0.001237 0.002762 0.000039
# 4 -0.001530 -0.000913 -0.001237 0.024262 -0.000852 0.002172
# 5 0.000306 -0.000345 0.002762 -0.000852 0.034714 -0.008226
# 6 -0.005005 0.003509 0.000039 0.002172 -0.008226 0.032589
#
#
# Mechanical properties :
#
#
# Convention : Reuss Voigt Hill
#
# Bulk Modulus (GPa) = 49.32557 52.35051 50.83804
# Shear Modulus (GPa) = 33.90675 37.47810 35.69242
#
# Velocity S-wave (km/s) = 3.79297 3.98772 3.89156
# Velocity P-wave (km/s) = 6.33332 6.58899 6.46242
#
# Compressibility (1/GPa) = 0.02027346
#
# Stress axis : x y z
#
# Youngs Moduli (GPa) = 98.69637 71.63884 94.19621
#
# Poissons Ratio (x) = 0.22555 0.15789
# Poissons Ratio (y) = 0.31074 0.22533
# Poissons Ratio (z) = 0.16544 0.17137
#
# Static dielectric constant tensor:
#      x y z
#    x 2.050040 0.076910 0.074020 
#    y 0.076910 2.029910 0.023590 
#    z 0.074020 0.023590 1.915640 
# 
# From -- ./inp_files/525632.got.cif
#   From: 2010.05.17/outbox.cif.g08.bks.cpg/sg2_263_cif.got.tgz:525632.got - 2010.06.03 11:33:40.
