data_PCOD9026456
_publ_section_title
;
Structure prediction by ZEFSAII (Michael W. Deem and Ramdas Pophale) SiO2 
 PCOD9026456
Probable space group: P -1
;
_chemical_formula_sum "Si O2"
_cell_formula_units_Z 16
_cell_length_a 8.630840
_cell_length_b 13.673365
_cell_length_c 17.140971
_cell_angle_alpha 128.901572
_cell_angle_beta 127.541465
_cell_angle_gamma 30.281085
_cell_volume 782.129438
_symmetry_space_group_name_H-M "P -1"
_symmetry_group_IT_number 2
_symmetry_cell_setting 'triclinic'
loop_
_space_group_symop_operation_xyz
x,y,z
-x,-y,-z
loop_
_atom_site_type_symbol
_atom_site_label
_atom_site_fract_x
_atom_site_fract_y
_atom_site_fract_z
Si Si1 0.635566 0.948468 0.102221
Si Si2 0.610179 0.676886 0.704643
Si Si3 0.607730 0.439947 0.854959
Si Si4 0.632227 0.183792 0.471050
Si Si5 0.701059 0.659215 0.045916
Si Si6 0.370124 0.557674 0.663421
Si Si7 0.630922 0.939777 0.599053
Si Si8 0.301013 0.345047 0.774846
O O1 0.536850 0.871653 0.079440
O O2 0.014084 0.763762 0.130356
O O3 0.500400 0.143061 0.194366
O O4 0.500000 0.000000 0.000000
O O5 0.434583 0.756625 0.609564
O O6 0.544177 0.586918 0.690416
O O7 0.973377 0.506486 0.711193
O O8 0.463669 0.511828 0.760070
O O9 0.469766 0.391928 0.835111
O O10 0.526883 0.615559 0.955581
O O11 0.486209 0.368155 0.569356
O O12 0.495766 0.119371 0.424778
O O13 0.000000 0.000000 0.500000
O O14 0.781893 0.626298 0.144987
O O15 0.000000 0.500000 0.000000
O O16 0.004727 0.753479 0.629003
O O17 0.500000 0.000000 0.500000
O O18 0.503910 0.128462 0.696670
#
# Coordination Sequence:
#
# PCOD9026456 Si02
#       8
#     2   2   2   2   2   2   2   2
#     4  11  22  41  65  92 126 169 210 258 319 383
#     4  12  23  40  64  94 126 167 215 265 318 380
#     4  11  23  42  64  94 128 166 210 262 318 383
#     4  12  24  41  64  95 128 168 216 267 318 381
#     4  10  22  41  64  92 127 165 207 260 317 376
#     4  12  24  43  66  93 129 172 212 263 323 380
#     4  12  25  44  65  94 131 172 215 266 320 379
#     4  12  24  42  66  96 128 167 215 267 318 380
#
# _framework density 20.456970999999999
#
# number of rings (size 3 to 8) (size 9 to 14) (size 15 to 20)
#    0.000    0.500    0.000   10.875    0.000    0.000 
#    0.000    1.875    0.000    0.000    0.000    0.000 
#    0.000    0.000    0.000    0.000    0.000    0.000 
#
# Total GULP energy -89532.071833 kJ/mol
# GULP energy per Si atom -5595.754490 kJ/mol
# Density = 2.041041 g / cm^3
# Si number density = 20.456971 Si / 1000 Ang^3
#
#
#
# Elastic Constant Matrix: (Units=GPa)
#
#
# Indices 1 2 3 4 5 6 
#
# 1 85.1852 46.6541 34.4019 23.1549 20.6887 10.8379
# 2 46.6541 59.0443 -11.6134 -64.9444 26.0229 -7.7331
# 3 34.4019 -11.6134 62.4954 -61.4733 13.2258 7.5769
# 4 23.1549 -64.9444 -61.4733 -4.8543 33.1331 9.5304
# 5 20.6887 26.0229 13.2258 33.1331 44.3910 -3.8263
# 6 10.8379 -7.7331 7.5769 9.5304 -3.8263 50.6314
#
#
#
# Elastic Compliance Matrix: (Units=1/GPa)
#
#
# Indices 1 2 3 4 5 6 
#
# 1 0.014139 -0.001374 0.000044 0.005391 -0.010255 -0.005033
# 2 -0.001374 0.008024 -0.005980 -0.007139 0.003393 0.004015
# 3 0.000044 -0.005980 0.009019 -0.005093 0.004515 -0.000973
# 4 0.005391 -0.007139 -0.005093 -0.000253 0.003277 -0.001187
# 5 -0.010255 0.003393 0.004515 0.003277 0.021791 0.003068
# 6 -0.005033 0.004015 -0.000973 -0.001187 0.003068 0.022042
#
#
# Mechanical properties :
#
#
# Convention : Reuss Voigt Hill
#
# Bulk Modulus (GPa) = 60.37453 38.40114 49.38783
# Shear Modulus (GPa) = 52.68611 27.18577 39.93594
#
# Velocity S-wave (km/s) = 5.08040 3.64940 4.42316
# Velocity P-wave (km/s) = 7.99944 6.04730 7.09087
#
# Compressibility (1/GPa) = 0.01656328
#
# Stress axis : x y z
#
# Youngs Moduli (GPa) = 70.72475 124.62757 110.87900
#
# Poissons Ratio (x) = 0.17122 -0.00490
# Poissons Ratio (y) = 0.09716 0.66302
# Poissons Ratio (z) = -0.00312 0.74524
#
# Static dielectric constant tensor:
#      x y z
#    x 1.704270 -0.017890 0.029490 
#    y -0.017890 1.719430 0.011280 
#    z 0.029490 0.011280 1.708210 
# 
# From -- ./inp_files/559963.got.cif
#   From: 2010.05.17/outbox.cif.g08.bks.cpg/sg2_280_cif.got.tgz:559963.got - 2010.06.03 11:33:40.
