data_PCOD9026231
_publ_section_title
;
Structure prediction by ZEFSAII (Michael W. Deem and Ramdas Pophale) SiO2 
 PCOD9026231
Probable space group: P -1
;
_chemical_formula_sum "Si O2"
_cell_formula_units_Z 16
_cell_length_a 24.133403
_cell_length_b 13.542345
_cell_length_c 17.197430
_cell_angle_alpha 24.313575
_cell_angle_beta 156.982882
_cell_angle_gamma 158.258788
_cell_volume 749.815432
_symmetry_space_group_name_H-M "P -1"
_symmetry_group_IT_number 2
_symmetry_cell_setting 'triclinic'
loop_
_space_group_symop_operation_xyz
x,y,z
-x,-y,-z
loop_
_atom_site_type_symbol
_atom_site_label
_atom_site_fract_x
_atom_site_fract_y
_atom_site_fract_z
Si Si1 0.907864 0.808882 0.897414
Si Si2 0.397104 0.751566 0.713664
Si Si3 0.158602 0.966136 0.494387
Si Si4 0.625235 0.423554 0.491246
Si Si5 0.483903 0.707527 0.215407
Si Si6 0.357065 0.323181 0.834635
Si Si7 0.044740 0.673013 0.309525
Si Si8 0.019110 0.095091 0.366422
O O1 0.712847 0.529169 0.848725
O O2 0.930656 0.925437 0.755620
O O3 0.936134 0.072491 0.797015
O O4 0.024478 0.728346 0.152459
O O5 0.378363 0.533807 0.779702
O O6 0.210924 0.677242 0.539237
O O7 0.516039 0.082177 0.602921
O O8 0.489100 0.718257 0.929778
O O9 0.111659 0.649331 0.640117
O O10 0.363904 0.185652 0.601801
O O11 0.083713 0.946624 0.497964
O O12 0.535655 0.557519 0.325703
O O13 0.637252 0.524938 0.346200
O O14 0.819417 0.573940 0.665163
O O15 0.500000 0.000000 0.000000
O O16 0.172857 0.020429 0.822388
O O17 0.000000 0.000000 0.500000
#
# Coordination Sequence:
#
# PCOD9026231 Si02
#       8
#     2   2   2   2   2   2   2   2
#     4  11  24  42  64  94 126 168 218 257 318 383
#     4  11  22  40  64  91 127 162 211 261 312 381
#     4  11  22  41  66  92 125 166 211 263 315 377
#     4  10  22  41  63  89 125 165 206 262 315 372
#     4  11  22  42  65  93 129 168 211 263 320 374
#     4  10  22  41  64  91 121 165 210 258 320 374
#     4  11  23  42  63  92 130 168 209 266 317 372
#     4   9  20  42  64  88 125 160 205 259 312 370
#
# _framework density 21.338584000000001
#
# number of rings (size 3 to 8) (size 9 to 14) (size 15 to 20)
#    0.000    1.500    3.750    1.125    0.000    2.500 
#    6.750    0.000    0.000    0.000    0.000    0.000 
#    0.000    0.000    0.000    0.000    0.000    0.000 
#
# Total GULP energy -89267.523047 kJ/mol
# GULP energy per Si atom -5579.220190 kJ/mol
# Density = 2.129002 g / cm^3
# Si number density = 21.338584 Si / 1000 Ang^3
#
#
#
# Elastic Constant Matrix: (Units=GPa)
#
#
# Indices 1 2 3 4 5 6 
#
# 1 91.4518 -84.5460 -12.9880 155.3630 -63.9779 81.4579
# 2 -84.5460 312.1893 63.5326 -274.6293 97.1377 -167.0997
# 3 -12.9880 63.5326 140.3711 -33.3237 16.2735 -23.1582
# 4 155.3630 -274.6293 -33.3237 463.2889 -148.3499 237.2697
# 5 -63.9779 97.1377 16.2735 -148.3499 76.1956 -81.2044
# 6 81.4579 -167.0997 -23.1582 237.2697 -81.2044 154.2729
#
#
#
# Elastic Compliance Matrix: (Units=1/GPa)
#
#
# Indices 1 2 3 4 5 6 
#
# 1 0.032079 -0.003118 0.000670 -0.006454 0.016483 -0.001613
# 2 -0.003118 0.008886 -0.002464 0.001951 -0.002737 0.006460
# 3 0.000670 -0.002464 0.008034 -0.000967 -0.000560 -0.000624
# 4 -0.006454 0.001951 -0.000967 0.013739 0.005146 -0.013045
# 5 0.016483 -0.002737 -0.000560 0.005146 0.044719 0.003872
# 6 -0.001613 0.006460 -0.000624 -0.013045 0.003872 0.036339
#
#
# Mechanical properties :
#
#
# Convention : Reuss Voigt Hill
#
# Bulk Modulus (GPa) = 25.52685 52.88994 39.20839
# Shear Modulus (GPa) = 29.99816 177.28573 103.64194
#
# Velocity S-wave (km/s) = 3.75349 9.12483 6.97679
# Velocity P-wave (km/s) = 5.54740 11.65576 9.12771
#
# Compressibility (1/GPa) = 0.03917444
#
# Stress axis : x y z
#
# Youngs Moduli (GPa) = 31.17287 112.54182 124.47772
#
# Poissons Ratio (x) = 0.35094 -0.08344
# Poissons Ratio (y) = 0.09721 0.30671
# Poissons Ratio (z) = -0.02090 0.27730
#
# Static dielectric constant tensor:
#      x y z
#    x 1.763410 -0.005040 -0.020600 
#    y -0.005040 1.806950 0.030750 
#    z -0.020600 0.030750 1.787730 
# 
# From -- ./inp_files/454677.got.cif
#   From: 2010.05.17/outbox.cif.g08.bks.cpg/sg2_228_cif.got.tgz:454677.got - 2010.06.03 11:33:40.
