data_PCOD9026295
_publ_section_title
;
Structure prediction by ZEFSAII (Michael W. Deem and Ramdas Pophale) SiO2 
 PCOD9026295
Probable space group: P -1
;
_chemical_formula_sum "Si O2"
_cell_formula_units_Z 14
_cell_length_a 10.447039
_cell_length_b 14.179635
_cell_length_c 8.461653
_cell_angle_alpha 150.606804
_cell_angle_beta 77.438741
_cell_angle_gamma 99.241939
_cell_volume 599.384883
_symmetry_space_group_name_H-M "P -1"
_symmetry_group_IT_number 2
_symmetry_cell_setting 'triclinic'
loop_
_space_group_symop_operation_xyz
x,y,z
-x,-y,-z
loop_
_atom_site_type_symbol
_atom_site_label
_atom_site_fract_x
_atom_site_fract_y
_atom_site_fract_z
Si Si1 0.302753 0.967874 0.778983
Si Si2 0.172876 0.276785 0.842575
Si Si3 0.038522 0.058901 0.835031
Si Si4 0.746437 0.061602 0.909781
Si Si5 0.398190 0.294205 0.060265
Si Si6 0.670510 0.416394 0.222711
Si Si7 0.153487 0.647169 0.204751
O O1 0.159587 0.085210 0.959980
O O2 0.270650 0.756840 0.419974
O O3 0.401120 0.070669 0.787055
O O4 0.335761 0.966551 0.951535
O O5 0.075995 0.166234 0.821703
O O6 0.230968 0.129401 0.479451
O O7 0.293919 0.324839 0.993963
O O8 0.113303 0.473290 0.069083
O O9 0.049468 0.827482 0.470968
O O10 0.891801 0.119180 0.012146
O O11 0.692881 0.230674 0.057713
O O12 0.536532 0.379843 0.113017
O O13 0.349533 0.404553 0.394136
O O14 0.788507 0.427803 0.085896
#
# Coordination Sequence:
#
# PCOD9026295 Si02
#       7
#     2   2   2   2   2   2   2
#     4   9  21  41  61  91 127 161 201 257 296 373
#     4  11  22  40  65  92 125 167 199 257 304 370
#     4   9  22  42  60  95 131 156 206 257 293 379
#     4  12  21  39  66  91 130 163 205 246 321 354
#     4  10  23  44  60  91 127 154 221 252 311 357
#     4  11  23  40  66  89 122 169 200 269 298 373
#     4  10  22  41  63  94 124 163 205 247 316 353
#
# _framework density 23.357278999999998
#
# number of rings (size 3 to 8) (size 9 to 14) (size 15 to 20)
#    0.857    0.857    1.429    2.571    0.000    4.000 
#    2.571    2.143    0.000    0.000    0.000    0.000 
#    0.000    0.000    0.000    0.000    0.000    0.000 
#
# Total GULP energy -78261.003881 kJ/mol
# GULP energy per Si atom -5590.071706 kJ/mol
# Density = 2.330412 g / cm^3
# Si number density = 23.357279 Si / 1000 Ang^3
#
#
#
# Elastic Constant Matrix: (Units=GPa)
#
#
# Indices 1 2 3 4 5 6 
#
# 1 54.2867 37.4041 7.1786 2.6780 19.6222 12.3821
# 2 37.4041 90.1698 17.0883 13.5231 -11.6133 -42.4306
# 3 7.1786 17.0883 57.4122 15.5234 7.7767 3.4906
# 4 2.6780 13.5231 15.5234 46.6078 0.3339 -3.9533
# 5 19.6222 -11.6133 7.7767 0.3339 27.9130 -2.2215
# 6 12.3821 -42.4306 3.4906 -3.9533 -2.2215 3.7399
#
#
#
# Elastic Compliance Matrix: (Units=1/GPa)
#
#
# Indices 1 2 3 4 5 6 
#
# 1 0.011904 0.005071 -0.004067 0.000997 -0.003474 0.020900
# 2 0.005071 0.000625 0.001497 -0.002338 -0.005010 -0.016541
# 3 -0.004067 0.001497 0.018937 -0.006019 -0.001272 0.005651
# 4 0.000997 -0.002338 -0.006019 0.024189 -0.000187 0.001246
# 5 -0.003474 -0.005010 -0.001272 -0.000187 0.034649 -0.023765
# 6 0.020900 -0.016541 0.005651 0.001246 -0.023765 -0.007550
#
#
# Mechanical properties :
#
#
# Convention : Reuss Voigt Hill
#
# Bulk Modulus (GPa) = 27.42278 36.13450 31.77864
# Shear Modulus (GPa) = 55.61094 24.99866 40.30480
#
# Velocity S-wave (km/s) = 4.88472 3.27505 4.15851
# Velocity P-wave (km/s) = 6.60152 5.45941 6.05745
#
# Compressibility (1/GPa) = 0.03646603
#
# Stress axis : x y z
#
# Youngs Moduli (GPa) = 84.00212 1600.08855 52.80561
#
# Poissons Ratio (x) = -8.11330 0.21478
# Poissons Ratio (y) = -0.42594 -0.07902
# Poissons Ratio (z) = 0.34167 -2.39454
#
# Static dielectric constant tensor:
#      x y z
#    x 1.892350 -0.009330 0.036930 
#    y -0.009330 1.860470 0.016690 
#    z 0.036930 0.016690 1.865620 
# 
# From -- ./inp_files/177206.got.cif
#   From: 2010.05.17/outbox.cif.g08.bks.cpg/sg2_89_cif.got.tgz:177206.got - 2010.06.03 11:33:40.
