data_PCOD9026945
_publ_section_title
;
Structure prediction by ZEFSAII (Michael W. Deem and Ramdas Pophale) SiO2 
 PCOD9026945
Probable space group: P -1
;
_chemical_formula_sum "Si O2"
_cell_formula_units_Z 16
_cell_length_a 5.220117
_cell_length_b 7.092055
_cell_length_c 24.353904
_cell_angle_alpha 85.947998
_cell_angle_beta 94.875384
_cell_angle_gamma 132.488926
_cell_volume 662.344357
_symmetry_space_group_name_H-M "P -1"
_symmetry_group_IT_number 2
_symmetry_cell_setting 'triclinic'
loop_
_space_group_symop_operation_xyz
x,y,z
-x,-y,-z
loop_
_atom_site_type_symbol
_atom_site_label
_atom_site_fract_x
_atom_site_fract_y
_atom_site_fract_z
Si Si1 0.292804 0.330058 0.946759
Si Si2 0.233016 0.593556 0.850987
Si Si3 0.515672 0.929975 0.639176
Si Si4 0.416370 0.884154 0.097321
Si Si5 0.183518 0.265776 0.571118
Si Si6 0.704268 0.442987 0.273489
Si Si7 0.551825 0.338398 0.675912
Si Si8 0.154166 0.823810 0.534488
O O1 0.408463 0.522217 0.894398
O O2 0.374369 0.158741 0.934442
O O3 0.878581 0.160479 0.944518
O O4 0.500000 0.500000 0.000000
O O5 0.335968 0.617811 0.789741
O O6 0.824354 0.347963 0.858290
O O7 0.346551 0.849209 0.872573
O O8 0.571670 0.799336 0.687852
O O9 0.250052 0.741260 0.589677
O O10 0.386864 0.052439 0.665926
O O11 0.866783 0.155197 0.608677
O O12 0.515880 0.427849 0.613980
O O13 0.145900 0.364606 0.511765
O O14 0.120782 0.018232 0.554955
O O15 0.651013 0.634820 0.284333
O O16 0.067879 0.529446 0.298040
O O17 0.500000 0.000000 0.500000
#
# Coordination Sequence:
#
# PCOD9026945 Si02
#       8
#     2   2   2   2   2   2   2   2
#     4  10  24  45  74 109 146 189 237 291 349 413
#     4  10  28  45  71 103 144 189 238 291 348 413
#     4  10  22  41  66  91 128 171 212 276 343 408
#     4  10  25  44  72 105 147 187 238 285 355 406
#     4   9  17  38  65  87 127 166 211 270 343 405
#     4  12  28  41  67  94 131 170 231 272 340 405
#     4  11  25  43  62  94 125 169 217 278 331 403
#     4   8  16  32  63  92 120 168 205 265 347 409
#
# _framework density 24.156614999999999
#
# number of rings (size 3 to 8) (size 9 to 14) (size 15 to 20)
#    0.750    1.250    1.250    0.375    8.750    1.000 
#    0.000    1.250    0.000    0.000    0.000    0.000 
#    0.000    0.000    0.000    0.000    0.000    0.000 
#
# Total GULP energy -89415.821886 kJ/mol
# GULP energy per Si atom -5588.488868 kJ/mol
# Density = 2.410163 g / cm^3
# Si number density = 24.156615 Si / 1000 Ang^3
#
#
#
# Elastic Constant Matrix: (Units=GPa)
#
#
# Indices 1 2 3 4 5 6 
#
# 1 98.2699 72.2385 62.5792 33.9573 15.4758 -42.8245
# 2 72.2385 72.2026 37.3813 4.3344 -25.3417 10.6969
# 3 62.5792 37.3813 173.7494 18.6403 1.8728 -13.1007
# 4 33.9573 4.3344 18.6403 32.5037 -12.3285 -1.8562
# 5 15.4758 -25.3417 1.8728 -12.3285 5.3261 34.3594
# 6 -42.8245 10.6969 -13.1007 -1.8562 34.3594 17.2373
#
#
#
# Elastic Compliance Matrix: (Units=1/GPa)
#
#
# Indices 1 2 3 4 5 6 
#
# 1 0.008552 -0.000983 -0.003312 -0.002302 0.013226 -0.007273
# 2 -0.000983 0.010811 -0.000877 -0.003021 -0.009533 0.008858
# 3 -0.003312 -0.000877 0.007285 -0.001066 -0.001267 0.000262
# 4 -0.002302 -0.003021 -0.001066 0.032434 -0.006346 0.011488
# 5 0.013226 -0.009533 -0.001267 -0.006346 0.012631 0.011950
# 6 -0.007273 0.008858 0.000262 0.011488 0.011950 0.012064
#
#
# Mechanical properties :
#
#
# Convention : Reuss Voigt Hill
#
# Bulk Modulus (GPa) = 61.34185 76.51331 68.92758
# Shear Modulus (GPa) = 50.22292 22.48161 36.35227
#
# Velocity S-wave (km/s) = 4.56461 3.05398 3.88346
# Velocity P-wave (km/s) = 7.29585 6.64668 6.97882
#
# Compressibility (1/GPa) = 0.01630208
#
# Stress axis : x y z
#
# Youngs Moduli (GPa) = 116.93643 92.49832 137.27058
#
# Poissons Ratio (x) = 0.09095 0.45470
# Poissons Ratio (y) = 0.11498 0.12039
# Poissons Ratio (z) = 0.38734 0.08112
#
# Static dielectric constant tensor:
#      x y z
#    x 1.995020 0.009560 0.064440 
#    y 0.009560 2.000390 -0.053580 
#    z 0.064440 -0.053580 1.905990 
# 
# From -- ./inp_files/582427.got.cif
#   From: 2010.05.17/outbox.cif.g08.bks.cpg/sg2_292_cif.got.tgz:582427.got - 2010.06.03 11:33:40.
