data_PCOD9026979
_publ_section_title
;
Structure prediction by ZEFSAII (Michael W. Deem and Ramdas Pophale) SiO2 
 PCOD9026979
Probable space group: P -1
;
_chemical_formula_sum "Si O2"
_cell_formula_units_Z 14
_cell_length_a 16.676784
_cell_length_b 7.564940
_cell_length_c 4.922490
_cell_angle_alpha 73.051264
_cell_angle_beta 64.243855
_cell_angle_gamma 89.076852
_cell_volume 530.601226
_symmetry_space_group_name_H-M "P -1"
_symmetry_group_IT_number 2
_symmetry_cell_setting 'triclinic'
loop_
_space_group_symop_operation_xyz
x,y,z
-x,-y,-z
loop_
_atom_site_type_symbol
_atom_site_label
_atom_site_fract_x
_atom_site_fract_y
_atom_site_fract_z
Si Si1 0.951321 0.886282 0.372859
Si Si2 0.183942 0.084270 0.022478
Si Si3 0.167889 0.485085 0.698235
Si Si4 0.606629 0.819411 0.288750
Si Si5 0.901590 0.332672 0.791601
Si Si6 0.555493 0.202898 0.061706
Si Si7 0.361205 0.580578 0.660247
O O1 0.849380 0.891269 0.626325
O O2 0.994891 0.693875 0.409028
O O3 0.000000 0.000000 0.500000
O O4 0.000000 0.000000 0.000000
O O5 0.149676 0.879114 0.057998
O O6 0.148332 0.260854 0.844728
O O7 0.290262 0.115748 0.818920
O O8 0.154477 0.557963 0.385541
O O9 0.264552 0.545139 0.670414
O O10 0.103097 0.587226 0.937538
O O11 0.540348 0.789437 0.658016
O O12 0.610213 0.621447 0.230415
O O13 0.573555 0.989830 0.098720
O O14 0.626596 0.297464 0.141025
O O15 0.574190 0.313912 0.708303
#
# Coordination Sequence:
#
# PCOD9026979 Si02
#       7
#     2   2   2   2   2   2   2
#     4  10  22  41  66  93 126 169 207 254 321 372
#     4  10  23  43  65  94 130 164 212 267 311 376
#     4  11  24  39  66  97 123 171 215 252 319 374
#     4  10  23  41  66  95 125 168 214 260 318 375
#     4  11  23  43  65  92 131 166 209 264 313 374
#     4  11  24  42  65  93 127 169 212 259 318 377
#     4  11  23  42  63  92 132 166 209 264 313 373
#
# _framework density 26.385164
#
# number of rings (size 3 to 8) (size 9 to 14) (size 15 to 20)
#    0.000    1.429    0.000    5.143    0.000    8.000 
#    0.000   11.429    0.000    0.000    0.000    0.000 
#    0.000    0.000    0.000    0.000    0.000    0.000 
#
# Total GULP energy -78461.660138 kJ/mol
# GULP energy per Si atom -5604.404296 kJ/mol
# Density = 2.632511 g / cm^3
# Si number density = 26.385164 Si / 1000 Ang^3
#
#
#
# Elastic Constant Matrix: (Units=GPa)
#
#
# Indices 1 2 3 4 5 6 
#
# 1 101.7386 31.4185 22.1765 -20.5927 -11.7420 -2.7913
# 2 31.4185 153.8864 20.9450 -23.4475 -1.7672 1.6842
# 3 22.1765 20.9450 73.1948 -19.2659 12.5100 6.7632
# 4 -20.5927 -23.4475 -19.2659 43.9138 -1.8997 -3.9245
# 5 -11.7420 -1.7672 12.5100 -1.8997 54.2547 3.6680
# 6 -2.7913 1.6842 6.7632 -3.9245 3.6680 42.9185
#
#
#
# Elastic Compliance Matrix: (Units=1/GPa)
#
#
# Indices 1 2 3 4 5 6 
#
# 1 0.012122 -0.001462 -0.002921 0.003888 0.003292 0.001380
# 2 -0.001462 0.007362 -0.000960 0.002835 0.000243 0.000006
# 3 -0.002921 -0.000960 0.017127 0.005267 -0.004293 -0.002003
# 4 0.003888 0.002835 0.005267 0.028613 0.000594 0.001877
# 5 0.003292 0.000243 -0.004293 0.000594 0.020216 -0.000792
# 6 0.001380 0.000006 -0.002003 0.001877 -0.000792 0.023945
#
#
# Mechanical properties :
#
#
# Convention : Reuss Voigt Hill
#
# Bulk Modulus (GPa) = 38.57226 53.09998 45.83612
# Shear Modulus (GPa) = 38.84605 45.16937 42.00771
#
# Velocity S-wave (km/s) = 3.84118 4.14203 3.99444
# Velocity P-wave (km/s) = 5.85863 6.56078 6.21962
#
# Compressibility (1/GPa) = 0.02592537
#
# Stress axis : x y z
#
# Youngs Moduli (GPa) = 82.49300 135.82901 58.38755
#
# Poissons Ratio (x) = 0.19862 0.17056
# Poissons Ratio (y) = 0.12063 0.05602
# Poissons Ratio (z) = 0.24098 0.13033
#
# Static dielectric constant tensor:
#      x y z
#    x 1.991530 -0.023690 -0.049410 
#    y -0.023690 2.045880 -0.025300 
#    z -0.049410 -0.025300 2.073180 
# 
# From -- ./inp_files/114986.got.cif
#   From: 2010.05.17/outbox.cif.g08.bks.cpg/sg2_58_cif.got.tgz:114986.got - 2010.06.03 11:33:40.
