data_PCOD9026712
_publ_section_title
;
Structure prediction by ZEFSAII (Michael W. Deem and Ramdas Pophale) SiO2 
 PCOD9026712
Probable space group: P -1
;
_chemical_formula_sum "Si O2"
_cell_formula_units_Z 16
_cell_length_a 14.218975
_cell_length_b 8.675931
_cell_length_c 14.872379
_cell_angle_alpha 52.832024
_cell_angle_beta 28.983697
_cell_angle_gamma 50.519525
_cell_volume 680.517287
_symmetry_space_group_name_H-M "P -1"
_symmetry_group_IT_number 2
_symmetry_cell_setting 'triclinic'
loop_
_space_group_symop_operation_xyz
x,y,z
-x,-y,-z
loop_
_atom_site_type_symbol
_atom_site_label
_atom_site_fract_x
_atom_site_fract_y
_atom_site_fract_z
Si Si1 0.934660 0.862115 0.457110
Si Si2 0.517197 0.022704 0.828192
Si Si3 0.728613 0.332101 0.618283
Si Si4 0.916621 0.319127 0.790874
Si Si5 0.945225 0.768998 0.863642
Si Si6 0.806334 0.612637 0.314260
Si Si7 0.469157 0.395367 0.970959
Si Si8 0.118930 0.059037 0.964395
O O1 0.053080 0.760145 0.483984
O O2 0.021196 0.715660 0.352028
O O3 0.691521 0.915151 0.648488
O O4 0.993359 0.068138 0.310042
O O5 0.640577 0.146528 0.736665
O O6 0.297065 0.172466 0.940325
O O7 0.466595 0.841598 0.987051
O O8 0.696193 0.467237 0.507950
O O9 0.590508 0.458040 0.767599
O O10 0.106198 0.301443 0.701750
O O11 0.768693 0.530306 0.869144
O O12 0.802611 0.152269 0.974270
O O13 0.035184 0.549763 0.823472
O O14 0.019805 0.804979 0.889394
O O15 0.736547 0.812061 0.240552
O O16 0.500000 0.500000 0.000000
O O17 0.000000 0.000000 0.000000
#
# Coordination Sequence:
#
# PCOD9026712 Si02
#       8
#     2   2   2   2   2   2   2   2
#     4  11  23  41  64  98 137 175 214 269 324 394
#     4  12  25  39  67  97 140 172 211 270 332 390
#     4  12  24  40  61 102 138 171 223 265 327 395
#     4  10  22  41  65  93 130 175 223 265 332 381
#     4  11  22  44  69  98 129 171 219 270 331 395
#     4  11  23  40  69  95 129 173 222 274 326 388
#     4  12  23  39  63  94 133 177 214 263 326 394
#     4   9  21  45  72  93 124 176 221 272 332 385
#
# _framework density 23.511524999999999
#
# number of rings (size 3 to 8) (size 9 to 14) (size 15 to 20)
#    0.000    1.000    3.750    3.375    3.500    1.000 
#    0.000    1.250   11.000    0.000    0.000    0.000 
#    0.000    0.000    0.000    0.000    0.000    0.000 
#
# Total GULP energy -89209.748208 kJ/mol
# GULP energy per Si atom -5575.609263 kJ/mol
# Density = 2.345801 g / cm^3
# Si number density = 23.511525 Si / 1000 Ang^3
#
#
#
# Elastic Constant Matrix: (Units=GPa)
#
#
# Indices 1 2 3 4 5 6 
#
# 1 61.5563 15.4948 29.8405 -2.3443 19.2859 13.4874
# 2 15.4948 69.0149 33.2920 -4.6824 9.2889 15.7545
# 3 29.8405 33.2920 113.7715 2.5204 14.3497 -5.5713
# 4 -2.3443 -4.6824 2.5204 45.5842 0.1535 1.8858
# 5 19.2859 9.2889 14.3497 0.1535 30.7247 0.8563
# 6 13.4874 15.7545 -5.5713 1.8858 0.8563 23.9698
#
#
#
# Elastic Compliance Matrix: (Units=1/GPa)
#
#
# Indices 1 2 3 4 5 6 
#
# 1 0.028126 0.004267 -0.007825 0.003202 -0.014744 -0.020175
# 2 0.004267 0.022898 -0.008196 0.003848 -0.005250 -0.019471
# 3 -0.007825 -0.008196 0.013873 -0.002559 0.000555 0.013196
# 4 0.003202 0.003848 -0.002559 0.022921 -0.001907 -0.006661
# 5 -0.014744 -0.005250 0.000555 -0.001907 0.042847 0.010495
# 6 -0.020175 -0.019471 0.013196 -0.006661 0.010495 0.069085
#
#
# Mechanical properties :
#
#
# Convention : Reuss Voigt Hill
#
# Bulk Modulus (GPa) = 24.16105 44.62191 34.39148
# Shear Modulus (GPa) = 21.09223 31.10344 26.09783
#
# Velocity S-wave (km/s) = 2.99841 3.64112 3.33528
# Velocity P-wave (km/s) = 4.72079 6.05780 5.43060
#
# Compressibility (1/GPa) = 0.04138894
#
# Stress axis : x y z
#
# Youngs Moduli (GPa) = 35.55407 43.67233 72.08188
#
# Poissons Ratio (x) = -0.18635 0.56403
# Poissons Ratio (y) = -0.15171 0.59079
# Poissons Ratio (z) = 0.27821 0.35794
#
# Static dielectric constant tensor:
#      x y z
#    x 1.997270 -0.056700 -0.004960 
#    y -0.056700 1.979890 -0.004830 
#    z -0.004960 -0.004830 1.984520 
# 
# From -- ./inp_files/515233.got.cif
#   From: 2010.05.17/outbox.cif.g08.bks.cpg/sg2_258_cif.got.tgz:515233.got - 2010.06.03 11:33:40.
