data_PCOD9026613
_publ_section_title
;
Structure prediction by ZEFSAII (Michael W. Deem and Ramdas Pophale) SiO2 
 PCOD9026613
Probable space group: P -1
;
_chemical_formula_sum "Si O2"
_cell_formula_units_Z 16
_cell_length_a 10.618843
_cell_length_b 7.784906
_cell_length_c 12.788493
_cell_angle_alpha 114.471818
_cell_angle_beta 132.183603
_cell_angle_gamma 81.086744
_cell_volume 700.991944
_symmetry_space_group_name_H-M "P -1"
_symmetry_group_IT_number 2
_symmetry_cell_setting 'triclinic'
loop_
_space_group_symop_operation_xyz
x,y,z
-x,-y,-z
loop_
_atom_site_type_symbol
_atom_site_label
_atom_site_fract_x
_atom_site_fract_y
_atom_site_fract_z
Si Si1 0.228867 0.573450 0.343041
Si Si2 0.100735 0.603823 0.983977
Si Si3 0.437730 0.313354 0.308350
Si Si4 0.852882 0.981819 0.824387
Si Si5 0.935037 0.044515 0.653867
Si Si6 0.690392 0.450594 0.086407
Si Si7 0.769234 0.824006 0.315144
Si Si8 0.558583 0.034007 0.923240
O O1 0.349572 0.501408 0.302986
O O2 0.364888 0.616509 0.526312
O O3 0.152177 0.766637 0.339324
O O4 0.053377 0.411412 0.193835
O O5 0.235989 0.497324 0.974951
O O6 0.000000 0.500000 0.000000
O O7 0.196169 0.808881 0.129872
O O8 0.317110 0.180108 0.293856
O O9 0.413278 0.166159 0.160980
O O10 0.938425 0.976383 0.757296
O O11 0.000000 0.000000 0.000000
O O12 0.108548 0.087717 0.691671
O O13 0.818791 0.894780 0.475964
O O14 0.784041 0.600840 0.259866
O O15 0.500000 0.500000 0.000000
O O16 0.701777 0.228859 0.052203
O O17 0.590260 0.892723 0.208446
O O18 0.500000 0.000000 0.000000
#
# Coordination Sequence:
#
# PCOD9026613 Si02
#       8
#     2   2   2   2   2   2   2   2
#     4  11  23  43  66  95 140 181 228 279 346 414
#     4  12  22  41  71 100 135 185 231 286 348 416
#     4  11  25  44  65  99 141 181 227 289 346 415
#     4  12  25  42  69 102 136 172 231 293 348 415
#     4  11  23  43  70  97 132 185 224 287 347 414
#     4  10  22  41  65 100 137 177 234 289 339 421
#     4  10  22  44  68  95 136 178 234 274 346 424
#     4  11  24  42  67  99 138 182 224 289 348 410
#
# _framework density 22.8248
#
# number of rings (size 3 to 8) (size 9 to 14) (size 15 to 20)
#    0.000    1.000    6.250    0.000    1.750    2.500 
#    9.000    0.000    0.000    4.500    0.000    0.000 
#    0.000    0.000    0.000    0.000    0.000    0.000 
#
# Total GULP energy -89146.776053 kJ/mol
# GULP energy per Si atom -5571.673503 kJ/mol
# Density = 2.277285 g / cm^3
# Si number density = 22.824800 Si / 1000 Ang^3
#
#
#
# Elastic Constant Matrix: (Units=GPa)
#
#
# Indices 1 2 3 4 5 6 
#
# 1 104.5726 22.1619 40.6837 -1.9574 -22.0838 -10.1672
# 2 22.1619 55.6421 31.8418 20.4075 -17.2083 -9.9648
# 3 40.6837 31.8418 123.1608 28.9454 -23.6117 11.8285
# 4 -1.9574 20.4075 28.9454 38.7315 -14.1677 -6.3730
# 5 -22.0838 -17.2083 -23.6117 -14.1677 49.3017 6.2432
# 6 -10.1672 -9.9648 11.8285 -6.3730 6.2432 30.9620
#
#
#
# Elastic Compliance Matrix: (Units=1/GPa)
#
#
# Indices 1 2 3 4 5 6 
#
# 1 0.014384 -0.003208 -0.006061 0.009695 0.004303 0.007134
# 2 -0.003208 0.026867 -0.003805 -0.009452 0.002569 0.006584
# 3 -0.006061 -0.003805 0.015060 -0.010905 0.001494 -0.011514
# 4 0.009695 -0.009452 -0.010905 0.043942 0.006935 0.011954
# 5 0.004303 0.002569 0.001494 0.006935 0.026090 -0.002164
# 6 0.007134 0.006584 -0.011514 0.011954 -0.002164 0.044055
#
#
# Mechanical properties :
#
#
# Convention : Reuss Voigt Hill
#
# Bulk Modulus (GPa) = 33.15156 52.52778 42.83967
# Shear Modulus (GPa) = 24.20117 36.37826 30.28972
#
# Velocity S-wave (km/s) = 3.25976 3.99658 3.64683
# Velocity P-wave (km/s) = 5.35947 6.66035 6.04501
#
# Compressibility (1/GPa) = 0.03016449
#
# Stress axis : x y z
#
# Youngs Moduli (GPa) = 69.51942 37.22007 66.39920
#
# Poissons Ratio (x) = 0.11940 0.40244
# Poissons Ratio (y) = 0.22302 0.25265
# Poissons Ratio (z) = 0.42135 0.14162
#
# Static dielectric constant tensor:
#      x y z
#    x 1.853200 0.005770 0.052580 
#    y 0.005770 1.956430 0.029720 
#    z 0.052580 0.029720 1.902700 
# 
# From -- ./inp_files/383379.got.cif
#   From: 2010.05.17/outbox.cif.g08.bks.cpg/sg2_192_cif.got.tgz:383379.got - 2010.06.03 11:33:40.
