data_PCOD9026863
_publ_section_title
;
Structure prediction by ZEFSAII (Michael W. Deem and Ramdas Pophale) SiO2 
 PCOD9026863
Probable space group: P -1
;
_chemical_formula_sum "Si O2"
_cell_formula_units_Z 16
_cell_length_a 9.826831
_cell_length_b 15.853221
_cell_length_c 7.916398
_cell_angle_alpha 106.130420
_cell_angle_beta 74.492295
_cell_angle_gamma 143.422730
_cell_volume 703.868618
_symmetry_space_group_name_H-M "P -1"
_symmetry_group_IT_number 2
_symmetry_cell_setting 'triclinic'
loop_
_space_group_symop_operation_xyz
x,y,z
-x,-y,-z
loop_
_atom_site_type_symbol
_atom_site_label
_atom_site_fract_x
_atom_site_fract_y
_atom_site_fract_z
Si Si1 0.641185 0.380596 0.514018
Si Si2 0.191810 0.898027 0.645922
Si Si3 0.857949 0.320732 0.588744
Si Si4 0.365210 0.161045 0.187066
Si Si5 0.710326 0.702357 0.871987
Si Si6 0.137799 0.903295 0.293679
Si Si7 0.610446 0.144415 0.889850
Si Si8 0.349146 0.386113 0.778673
O O1 0.718364 0.332680 0.563719
O O2 0.462097 0.265133 0.366425
O O3 0.527256 0.397482 0.678930
O O4 0.874193 0.532273 0.442918
O O5 0.209777 0.803187 0.549195
O O6 0.232562 0.962148 0.484533
O O7 0.939228 0.793618 0.742557
O O8 0.379973 0.019860 0.786190
O O9 0.793233 0.279810 0.782222
O O10 0.317234 0.206067 0.078321
O O11 0.152309 0.999584 0.235833
O O12 0.552942 0.180759 0.081438
O O13 0.481572 0.541725 0.790271
O O14 0.727120 0.667845 0.032669
O O15 0.282181 0.899371 0.143779
O O16 0.884090 0.741817 0.316071
#
# Coordination Sequence:
#
# PCOD9026863 Si02
#       8
#     2   2   2   2   2   2   2   2
#     4  11  23  41  68  95 137 168 226 266 328 393
#     4  11  22  44  72  95 135 174 222 267 332 393
#     4  10  22  41  66 100 127 178 216 274 325 389
#     4  12  26  42  66 102 133 176 218 277 324 392
#     4  11  26  43  69  98 132 179 216 276 334 384
#     4  11  25  43  70  99 131 178 221 270 329 393
#     4  11  24  43  66  98 137 172 221 269 333 386
#     4  11  25  47  66  96 136 174 224 269 331 398
#
# _framework density 22.731515000000002
#
# number of rings (size 3 to 8) (size 9 to 14) (size 15 to 20)
#    0.000    1.000    1.250    5.625    3.500    7.500 
#    2.250    0.000    0.000    0.000    0.000    0.000 
#    0.000    0.000    0.000    0.000    0.000    0.000 
#
# Total GULP energy -89565.630929 kJ/mol
# GULP energy per Si atom -5597.851933 kJ/mol
# Density = 2.267978 g / cm^3
# Si number density = 22.731515 Si / 1000 Ang^3
#
#
#
# Elastic Constant Matrix: (Units=GPa)
#
#
# Indices 1 2 3 4 5 6 
#
# 1 70.0460 30.8067 5.0728 -15.3973 -6.6716 -9.1754
# 2 30.8067 91.3018 15.5630 -16.8218 -10.3118 -2.7495
# 3 5.0728 15.5630 42.6424 -8.1855 -17.3260 -17.3409
# 4 -15.3973 -16.8218 -8.1855 27.9863 9.8312 7.7632
# 5 -6.6716 -10.3118 -17.3260 9.8312 23.5083 0.7074
# 6 -9.1754 -2.7495 -17.3409 7.7632 0.7074 35.5778
#
#
#
# Elastic Compliance Matrix: (Units=1/GPa)
#
#
# Indices 1 2 3 4 5 6 
#
# 1 0.018607 -0.005452 0.004517 0.005487 0.003764 0.005307
# 2 -0.005452 0.014577 -0.006250 0.005945 -0.002108 -0.004581
# 3 0.004517 -0.006250 0.049230 -0.006912 0.036948 0.025451
# 4 0.005487 0.005945 -0.006912 0.051468 -0.022083 -0.012286
# 5 0.003764 -0.002108 0.036948 -0.022083 0.078484 0.022075
# 6 0.005307 -0.004581 0.025451 -0.012286 0.022075 0.043769
#
#
# Mechanical properties :
#
#
# Convention : Reuss Voigt Hill
#
# Bulk Modulus (GPa) = 14.69642 34.09723 24.39682
# Shear Modulus (GPa) = 17.05399 27.58432 22.31915
#
# Velocity S-wave (km/s) = 2.74201 3.48729 3.13686
# Velocity P-wave (km/s) = 4.06252 5.58994 4.88628
#
# Compressibility (1/GPa) = 0.06804380
#
# Stress axis : x y z
#
# Youngs Moduli (GPa) = 53.74337 68.60067 20.31286
#
# Poissons Ratio (x) = 0.37404 -0.09175
# Poissons Ratio (y) = 0.29303 0.12695
# Poissons Ratio (z) = -0.24276 0.42873
#
# Static dielectric constant tensor:
#      x y z
#    x 1.845720 0.002330 0.031320 
#    y 0.002330 1.826320 0.008050 
#    z 0.031320 0.008050 1.846590 
# 
# From -- ./inp_files/208238.got.cif
#   From: 2010.05.17/outbox.cif.g08.bks.cpg/sg2_105_cif.got.tgz:208238.got - 2010.06.03 11:33:40.
