data_PCOD9026715
_publ_section_title
;
Structure prediction by ZEFSAII (Michael W. Deem and Ramdas Pophale) SiO2 
 PCOD9026715
Probable space group: P -1
;
_chemical_formula_sum "Si O2"
_cell_formula_units_Z 16
_cell_length_a 8.754550
_cell_length_b 15.037880
_cell_length_c 14.939690
_cell_angle_alpha 151.257430
_cell_angle_beta 95.985418
_cell_angle_gamma 101.011613
_cell_volume 759.087847
_symmetry_space_group_name_H-M "P -1"
_symmetry_group_IT_number 2
_symmetry_cell_setting 'triclinic'
loop_
_space_group_symop_operation_xyz
x,y,z
-x,-y,-z
loop_
_atom_site_type_symbol
_atom_site_label
_atom_site_fract_x
_atom_site_fract_y
_atom_site_fract_z
Si Si1 0.106263 0.239319 0.165149
Si Si2 0.677783 0.948889 0.036600
Si Si3 0.896334 0.389058 0.173003
Si Si4 0.400415 0.443681 0.041583
Si Si5 0.430192 0.062852 0.462743
Si Si6 0.999236 0.631592 0.030352
Si Si7 0.458363 0.089315 0.821371
Si Si8 0.760495 0.382490 0.340507
O O1 0.196590 0.446781 0.425314
O O2 0.981097 0.260032 0.104072
O O3 0.253640 0.213251 0.098589
O O4 0.000000 0.000000 0.000000
O O5 0.672058 0.030079 0.206695
O O6 0.787639 0.184691 0.194665
O O7 0.463682 0.775256 0.833197
O O8 0.882618 0.506132 0.366217
O O9 0.674744 0.226697 0.990179
O O10 0.000337 0.480936 0.163779
O O11 0.524546 0.691005 0.312560
O O12 0.500000 0.500000 0.000000
O O13 0.182650 0.363176 0.963118
O O14 0.421406 0.262825 0.930460
O O15 0.500000 0.000000 0.500000
O O16 0.555818 0.069000 0.396436
O O17 0.206722 0.875401 0.264460
O O18 0.000000 0.500000 0.000000
#
# Coordination Sequence:
#
# PCOD9026715 Si02
#       8
#     2   2   2   2   2   2   2   2
#     4  12  23  40  64  96 131 169 224 274 331 401
#     4  10  22  41  65  93 132 169 222 273 337 404
#     4  10  22  43  64  94 136 171 219 279 335 394
#     4  12  23  43  70  95 136 177 226 280 334 405
#     4  11  22  45  67  97 137 179 220 283 340 392
#     4  11  23  43  71 100 136 175 225 279 335 403
#     4  10  23  43  63  98 132 172 225 274 334 401
#     4  10  22  43  65  92 132 176 215 279 337 400
#
# _framework density 21.077931
#
# number of rings (size 3 to 8) (size 9 to 14) (size 15 to 20)
#    0.000    1.250    3.750    2.250    0.000    2.500 
#    9.000    1.250    0.000    0.000    0.000    0.000 
#    0.000    0.000    0.000    0.000    0.000    0.000 
#
# Total GULP energy -89201.032673 kJ/mol
# GULP energy per Si atom -5575.064542 kJ/mol
# Density = 2.102996 g / cm^3
# Si number density = 21.077931 Si / 1000 Ang^3
#
#
#
# Elastic Constant Matrix: (Units=GPa)
#
#
# Indices 1 2 3 4 5 6 
#
# 1 114.3435 32.3312 33.0429 -13.4654 -8.5365 11.8640
# 2 32.3312 119.2695 22.8875 -19.5422 -8.3939 19.0170
# 3 33.0429 22.8875 91.5378 -1.7270 -10.7083 17.0295
# 4 -13.4654 -19.5422 -1.7270 29.1223 5.1512 -6.2315
# 5 -8.5365 -8.3939 -10.7083 5.1512 41.3583 -1.0348
# 6 11.8640 19.0170 17.0295 -6.2315 -1.0348 38.2503
#
#
#
# Elastic Compliance Matrix: (Units=1/GPa)
#
#
# Indices 1 2 3 4 5 6 
#
# 1 0.010622 -0.001575 -0.003212 0.003450 0.000599 -0.000503
# 2 -0.001575 0.010516 -0.001265 0.005425 0.000724 -0.003273
# 3 -0.003212 -0.001265 0.013577 -0.003070 0.002857 -0.004843
# 4 0.003450 0.005425 -0.003070 0.040988 -0.003983 0.004170
# 5 0.000599 0.000724 0.002857 -0.003983 0.025641 -0.001773
# 6 -0.000503 -0.003273 -0.004843 0.004170 -0.001773 0.030714
#
#
# Mechanical properties :
#
#
# Convention : Reuss Voigt Hill
#
# Bulk Modulus (GPa) = 44.22470 55.74156 49.98313
# Shear Modulus (GPa) = 32.95989 37.53878 35.24934
#
# Velocity S-wave (km/s) = 3.95867 4.22471 4.09385
# Velocity P-wave (km/s) = 6.47471 7.09228 6.79052
#
# Compressibility (1/GPa) = 0.02261180
#
# Stress axis : x y z
#
# Youngs Moduli (GPa) = 94.14060 95.09515 73.65272
#
# Poissons Ratio (x) = 0.14982 0.23655
# Poissons Ratio (y) = 0.14831 0.09314
# Poissons Ratio (z) = 0.30235 0.12026
#
# Static dielectric constant tensor:
#      x y z
#    x 1.856620 0.073560 -0.007200 
#    y 0.073560 1.819000 0.012850 
#    z -0.007200 0.012850 1.820570 
# 
# From -- ./inp_files/505873.got.cif
#   From: 2010.05.17/outbox.cif.g08.bks.cpg/sg2_253_cif.got.tgz:505873.got - 2010.06.03 11:33:40.
