data_PCOD9026775
_publ_section_title
;
Structure prediction by ZEFSAII (Michael W. Deem and Ramdas Pophale) SiO2 
 PCOD9026775
Probable space group: P -1
;
_chemical_formula_sum "Si O2"
_cell_formula_units_Z 16
_cell_length_a 8.486981
_cell_length_b 13.295413
_cell_length_c 9.388676
_cell_angle_alpha 73.096033
_cell_angle_beta 38.323510
_cell_angle_gamma 81.135150
_cell_volume 623.640896
_symmetry_space_group_name_H-M "P -1"
_symmetry_group_IT_number 2
_symmetry_cell_setting 'triclinic'
loop_
_space_group_symop_operation_xyz
x,y,z
-x,-y,-z
loop_
_atom_site_type_symbol
_atom_site_label
_atom_site_fract_x
_atom_site_fract_y
_atom_site_fract_z
Si Si1 0.707361 0.428997 0.020775
Si Si2 0.769775 0.462566 0.373580
Si Si3 0.579957 0.372649 0.832148
Si Si4 0.220768 0.904513 0.740978
Si Si5 0.462379 0.713010 0.562877
Si Si6 0.680119 0.067031 0.020111
Si Si7 0.853531 0.932007 0.504817
Si Si8 0.677611 0.818818 0.089876
O O1 0.708842 0.368325 0.895621
O O2 0.998245 0.448600 0.860578
O O3 0.631696 0.547891 0.017491
O O4 0.504969 0.365384 0.297471
O O5 0.500000 0.500000 0.500000
O O6 0.762088 0.431969 0.557374
O O7 0.770408 0.354182 0.330475
O O8 0.461669 0.264149 0.887730
O O9 0.412683 0.819229 0.629554
O O10 0.268880 0.005131 0.563199
O O11 0.185050 0.926525 0.922910
O O12 0.977868 0.845286 0.852666
O O13 0.647710 0.756066 0.287223
O O14 0.412586 0.116608 0.209161
O O15 0.598847 0.939311 0.099560
O O16 0.905106 0.111877 0.730245
O O17 0.000000 0.000000 0.500000
#
# Coordination Sequence:
#
# PCOD9026775 Si02
#       8
#     2   2   2   2   2   2   2   2
#     4  11  23  41  63  96 127 172 216 276 336 396
#     4  11  22  39  67  91 129 176 217 268 330 404
#     4  10  23  42  64  91 134 169 215 276 338 396
#     4  11  24  42  69  95 134 177 221 279 328 407
#     4  11  23  37  65  96 126 168 224 268 326 399
#     4  11  24  46  73  96 139 180 230 279 341 400
#     4  11  23  44  69 100 130 178 226 280 342 403
#     4  10  22  41  65  96 128 171 221 270 336 394
#
# _framework density 25.655791000000001
#
# number of rings (size 3 to 8) (size 9 to 14) (size 15 to 20)
#    0.000    1.250    2.500    3.750    5.250    0.000 
#    6.750    0.000    0.000    0.000    0.000    0.000 
#    0.000    0.000    0.000    0.000    0.000    0.000 
#
# Total GULP energy -89272.614965 kJ/mol
# GULP energy per Si atom -5579.538435 kJ/mol
# Density = 2.559740 g / cm^3
# Si number density = 25.655791 Si / 1000 Ang^3
#
#
#
# Elastic Constant Matrix: (Units=GPa)
#
#
# Indices 1 2 3 4 5 6 
#
# 1 55.1799 33.3127 15.8290 7.2725 11.7990 7.4718
# 2 33.3127 123.9441 40.3159 1.9626 -0.7537 25.2155
# 3 15.8290 40.3159 127.8460 5.9197 12.2232 -6.3642
# 4 7.2725 1.9626 5.9197 39.7856 5.9132 15.2395
# 5 11.7990 -0.7537 12.2232 5.9132 52.2557 8.1702
# 6 7.4718 25.2155 -6.3642 15.2395 8.1702 31.3363
#
#
#
# Elastic Compliance Matrix: (Units=1/GPa)
#
#
# Indices 1 2 3 4 5 6 
#
# 1 0.023685 -0.007236 0.000303 -0.004712 -0.005614 0.003992
# 2 -0.007236 0.014926 -0.005379 0.006771 0.004832 -0.015930
# 3 0.000303 -0.005379 0.010502 -0.004455 -0.003582 0.009490
# 4 -0.004712 0.006771 -0.004455 0.034705 0.001807 -0.022578
# 5 -0.005614 0.004832 -0.003582 0.001807 0.022682 -0.010069
# 6 0.003992 -0.015930 0.009490 -0.022578 -0.010069 0.059311
#
#
# Mechanical properties :
#
#
# Convention : Reuss Voigt Hill
#
# Bulk Modulus (GPa) = 40.83648 53.98724 47.41186
# Shear Modulus (GPa) = 25.17645 39.17635 32.17640
#
# Velocity S-wave (km/s) = 3.13600 3.91192 3.54525
# Velocity P-wave (km/s) = 5.39113 6.44149 5.93957
#
# Compressibility (1/GPa) = 0.02448791
#
# Stress axis : x y z
#
# Youngs Moduli (GPa) = 42.22062 66.99792 95.22066
#
# Poissons Ratio (x) = 0.48481 -0.02886
# Poissons Ratio (y) = 0.30552 0.51223
# Poissons Ratio (z) = -0.01280 0.36041
#
# Static dielectric constant tensor:
#      x y z
#    x 2.109230 -0.065110 -0.004710 
#    y -0.065110 2.053640 0.011150 
#    z -0.004710 0.011150 2.073550 
# 
# From -- ./inp_files/207265.got.cif
#   From: 2010.05.17/outbox.cif.g08.bks.cpg/sg2_104_cif.got.tgz:207265.got - 2010.06.03 11:33:40.
