data_PCOD9026058
_publ_section_title
;
Structure prediction by ZEFSAII (Michael W. Deem and Ramdas Pophale) SiO2 
 PCOD9026058
Probable space group: P -1
;
_chemical_formula_sum "Si O2"
_cell_formula_units_Z 14
_cell_length_a 7.783845
_cell_length_b 14.930308
_cell_length_c 16.119190
_cell_angle_alpha 156.219532
_cell_angle_beta 81.413587
_cell_angle_gamma 112.758816
_cell_volume 581.502425
_symmetry_space_group_name_H-M "P -1"
_symmetry_group_IT_number 2
_symmetry_cell_setting 'triclinic'
loop_
_space_group_symop_operation_xyz
x,y,z
-x,-y,-z
loop_
_atom_site_type_symbol
_atom_site_label
_atom_site_fract_x
_atom_site_fract_y
_atom_site_fract_z
Si Si1 0.927446 0.388990 0.176546
Si Si2 0.174161 0.159352 0.198926
Si Si3 0.150843 0.832719 0.673039
Si Si4 0.834266 0.849864 0.308572
Si Si5 0.486978 0.187332 0.094830
Si Si6 0.467396 0.188084 0.819450
Si Si7 0.893842 0.281149 0.900002
O O1 0.722563 0.395148 0.209457
O O2 0.107162 0.602098 0.414361
O O3 0.849079 0.079536 0.945616
O O4 0.970336 0.426490 0.107573
O O5 0.403686 0.332255 0.277042
O O6 0.084725 0.283149 0.368571
O O7 0.000000 0.000000 0.000000
O O8 0.300978 0.115542 0.844850
O O9 0.309107 0.948469 0.839240
O O10 0.695074 0.943600 0.360480
O O11 0.998020 0.874098 0.248655
O O12 0.643314 0.524399 0.074956
O O13 0.000000 0.000000 0.500000
O O14 0.500000 0.000000 0.000000
O O15 0.626985 0.107070 0.761453
O O16 0.000000 0.500000 0.000000
#
# Coordination Sequence:
#
# PCOD9026058 Si02
#       7
#     2   2   2   2   2   2   2
#     4  11  22  41  64  91 132 170 217 275 328 394
#     4   9  21  40  63  94 127 163 214 274 323 398
#     4  11  22  39  66  92 129 171 212 263 339 388
#     4  10  23  42  65  92 131 171 223 275 326 390
#     4   9  20  39  62  91 129 158 210 270 315 396
#     4  10  22  41  61  95 130 165 224 269 320 395
#     4  10  22  42  63  93 133 172 222 273 326 393
#
# _framework density 24.075568000000001
#
# number of rings (size 3 to 8) (size 9 to 14) (size 15 to 20)
#    0.000    2.000    1.429    0.857    4.000    6.286 
#    7.714    4.286    0.000    0.000    0.000    0.000 
#    0.000    0.000    0.000    0.000    0.000    0.000 
#
# Total GULP energy -78025.867730 kJ/mol
# GULP energy per Si atom -5573.276266 kJ/mol
# Density = 2.402077 g / cm^3
# Si number density = 24.075568 Si / 1000 Ang^3
#
#
#
# Elastic Constant Matrix: (Units=GPa)
#
#
# Indices 1 2 3 4 5 6 
#
# 1 75.8308 39.1249 31.5336 -9.8631 27.3020 -7.3622
# 2 39.1249 135.1436 42.0651 -39.0295 7.9465 8.6906
# 3 31.5336 42.0651 94.0152 -31.9329 27.1994 -2.5393
# 4 -9.8631 -39.0295 -31.9329 38.1534 -6.4449 2.2778
# 5 27.3020 7.9465 27.1994 -6.4449 27.2980 -7.6489
# 6 -7.3622 8.6906 -2.5393 2.2778 -7.6489 39.3105
#
#
#
# Elastic Compliance Matrix: (Units=1/GPa)
#
#
# Indices 1 2 3 4 5 6 
#
# 1 0.025072 -0.007556 0.000047 -0.005319 -0.023594 0.002086
# 2 -0.007556 0.013297 -0.001521 0.011770 0.006920 -0.003789
# 3 0.000047 -0.001521 0.020885 0.013039 -0.018057 -0.002575
# 4 -0.005319 0.011770 0.013039 0.047896 -0.001418 -0.005807
# 5 -0.023594 0.006920 -0.018057 -0.001418 0.078163 0.008176
# 6 0.002086 -0.003789 -0.002575 -0.005807 0.008176 0.028428
#
#
# Mechanical properties :
#
#
# Convention : Reuss Voigt Hill
#
# Bulk Modulus (GPa) = 24.27603 58.93741 41.60672
# Shear Modulus (GPa) = 20.36405 33.77013 27.06709
#
# Velocity S-wave (km/s) = 2.91149 3.74929 3.35663
# Velocity P-wave (km/s) = 4.62682 6.57847 5.68699
#
# Compressibility (1/GPa) = 0.04119289
#
# Stress axis : x y z
#
# Youngs Moduli (GPa) = 39.88578 75.20721 47.88218
#
# Poissons Ratio (x) = 0.56826 -0.00226
# Poissons Ratio (y) = 0.30138 0.07284
# Poissons Ratio (z) = -0.00188 0.11441
#
# Static dielectric constant tensor:
#      x y z
#    x 2.041780 0.010450 -0.025920 
#    y 0.010450 1.942420 0.018680 
#    z -0.025920 0.018680 2.035520 
# 
# From -- ./inp_files/504639.got.cif
#   From: 2010.05.17/outbox.cif.g08.bks.cpg/sg2_253_cif.got.tgz:504639.got - 2010.06.03 11:33:40.
