data_PCOD9026659
_publ_section_title
;
Structure prediction by ZEFSAII (Michael W. Deem and Ramdas Pophale) SiO2 
 PCOD9026659
Probable space group: P -1
;
_chemical_formula_sum "Si O2"
_cell_formula_units_Z 14
_cell_length_a 17.053863
_cell_length_b 23.695565
_cell_length_c 5.382415
_cell_angle_alpha 86.599986
_cell_angle_beta 93.082934
_cell_angle_gamma 163.373578
_cell_volume 621.213688
_symmetry_space_group_name_H-M "P -1"
_symmetry_group_IT_number 2
_symmetry_cell_setting 'triclinic'
loop_
_space_group_symop_operation_xyz
x,y,z
-x,-y,-z
loop_
_atom_site_type_symbol
_atom_site_label
_atom_site_fract_x
_atom_site_fract_y
_atom_site_fract_z
Si Si1 0.758813 0.319002 0.815650
Si Si2 0.477399 0.928910 0.855742
Si Si3 0.797247 0.687788 0.607250
Si Si4 0.432286 0.547392 0.015606
Si Si5 0.199037 0.190652 0.491874
Si Si6 0.954583 0.680721 0.357855
Si Si7 0.932786 0.545638 0.560313
O O1 0.895697 0.365545 0.655168
O O2 0.715587 0.347811 0.654504
O O3 0.503796 0.115225 0.964958
O O4 0.000000 0.500000 0.000000
O O5 0.172231 0.717912 0.755829
O O6 0.718224 0.097775 0.654200
O O7 0.500000 0.000000 0.000000
O O8 0.500000 0.500000 0.500000
O O9 0.726802 0.620595 0.894293
O O10 0.956217 0.855376 0.533825
O O11 0.895391 0.698742 0.483574
O O12 0.622625 0.683218 0.767260
O O13 0.173988 0.406772 0.919003
O O14 0.615558 0.686491 0.255680
O O15 0.000000 0.000000 0.500000
O O16 0.831801 0.538735 0.489024
#
# Coordination Sequence:
#
# PCOD9026659 Si02
#       7
#     2   2   2   2   2   2   2
#     4   9  20  41  63  89 126 180 227 277 344 400
#     4  11  23  38  67  99 135 180 230 283 340 406
#     4  10  23  44  72  95 137 178 230 275 349 411
#     4  11  23  44  71 102 135 181 230 280 347 412
#     4  11  24  46  74 100 138 182 225 288 351 409
#     4  12  24  39  70 102 133 180 236 283 334 410
#     4  10  22  41  65  90 139 179 226 278 345 400
#
# _framework density 22.536528000000001
#
# number of rings (size 3 to 8) (size 9 to 14) (size 15 to 20)
#    0.000    1.429    4.286    1.286    4.000    0.000 
#    0.000    7.143    0.000    0.000    0.000    0.000 
#    0.000    0.000    0.000    0.000    0.000    0.000 
#
# Total GULP energy -78003.376982 kJ/mol
# GULP energy per Si atom -5571.669784 kJ/mol
# Density = 2.248523 g / cm^3
# Si number density = 22.536528 Si / 1000 Ang^3
#
#
#
# Elastic Constant Matrix: (Units=GPa)
#
#
# Indices 1 2 3 4 5 6 
#
# 1 166.6530 39.4940 39.3627 -9.4435 11.6878 -35.8032
# 2 39.4940 55.3796 25.9460 -3.0903 4.8357 -31.3142
# 3 39.3627 25.9460 106.4691 3.9387 12.6962 -19.9709
# 4 -9.4435 -3.0903 3.9387 33.3846 -7.2749 5.3259
# 5 11.6878 4.8357 12.6962 -7.2749 44.6348 -4.6498
# 6 -35.8032 -31.3142 -19.9709 5.3259 -4.6498 44.1270
#
#
#
# Elastic Compliance Matrix: (Units=1/GPa)
#
#
# Indices 1 2 3 4 5 6 
#
# 1 0.007912 -0.002805 -0.001557 0.001450 -0.000727 0.003473
# 2 -0.002805 0.032507 -0.003239 -0.000479 0.000076 0.019392
# 3 -0.001557 -0.003239 0.011528 -0.002991 -0.002829 0.001718
# 4 0.001450 -0.000479 -0.002991 0.032469 0.005412 -0.003866
# 5 -0.000727 0.000076 -0.002829 0.005412 0.024282 0.000089
# 6 0.003473 0.019392 0.001718 -0.003866 0.000089 0.040495
#
#
# Mechanical properties :
#
#
# Convention : Reuss Voigt Hill
#
# Bulk Modulus (GPa) = 27.21426 59.78968 43.50197
# Shear Modulus (GPa) = 28.30575 39.34255 33.82415
#
# Velocity S-wave (km/s) = 3.54785 4.18272 3.87829
# Velocity P-wave (km/s) = 5.37446 7.06502 6.27692
#
# Compressibility (1/GPa) = 0.03674544
#
# Stress axis : x y z
#
# Youngs Moduli (GPa) = 126.38593 30.76271 86.74817
#
# Poissons Ratio (x) = 0.08629 0.13508
# Poissons Ratio (y) = 0.35451 0.28094
# Poissons Ratio (z) = 0.19681 0.09963
#
# Static dielectric constant tensor:
#      x y z
#    x 1.933780 -0.009790 0.065460 
#    y -0.009790 1.854340 -0.021460 
#    z 0.065460 -0.021460 1.938310 
# 
# From -- ./inp_files/100612.got.cif
#   From: 2010.05.17/outbox.cif.g08.bks.cpg/sg2_51_cif.got.tgz:100612.got - 2010.06.03 11:33:40.
