data_PCOD9026769
_publ_section_title
;
Structure prediction by ZEFSAII (Michael W. Deem and Ramdas Pophale) SiO2 
 PCOD9026769
Probable space group: P -1
;
_chemical_formula_sum "Si O2"
_cell_formula_units_Z 16
_cell_length_a 11.743044
_cell_length_b 10.145480
_cell_length_c 14.851113
_cell_angle_alpha 106.095796
_cell_angle_beta 151.915070
_cell_angle_gamma 69.817935
_cell_volume 780.352274
_symmetry_space_group_name_H-M "P -1"
_symmetry_group_IT_number 2
_symmetry_cell_setting 'triclinic'
loop_
_space_group_symop_operation_xyz
x,y,z
-x,-y,-z
loop_
_atom_site_type_symbol
_atom_site_label
_atom_site_fract_x
_atom_site_fract_y
_atom_site_fract_z
Si Si1 0.775817 0.410474 0.157205
Si Si2 0.668456 0.133252 0.988042
Si Si3 0.182723 0.572029 0.526179
Si Si4 0.885330 0.874975 0.356680
Si Si5 0.333338 0.647943 0.116009
Si Si6 0.072703 0.333240 0.025756
Si Si7 0.443491 0.646572 0.540743
Si Si8 0.979043 0.845898 0.202096
O O1 0.980176 0.476642 0.359388
O O2 0.500000 0.500000 0.000000
O O3 0.756599 0.250774 0.133601
O O4 0.823427 0.410959 0.082482
O O5 0.408630 0.100041 0.828266
O O6 0.616283 0.214473 0.872074
O O7 0.882543 0.994313 0.114827
O O8 0.420977 0.474458 0.722188
O O9 0.296981 0.608887 0.518404
O O10 0.028927 0.727900 0.475690
O O11 0.912260 0.862765 0.264273
O O12 0.000000 0.000000 0.500000
O O13 0.167054 0.696557 0.096293
O O14 0.315690 0.301692 0.250230
O O15 0.132811 0.262697 0.957120
O O16 0.000000 0.500000 0.000000
O O17 0.500000 0.500000 0.500000
O O18 0.267999 0.772022 0.388389
#
# Coordination Sequence:
#
# PCOD9026769 Si02
#       8
#     2   2   2   2   2   2   2   2
#     4  10  22  41  65  95 135 179 223 276 329 405
#     4  10  25  45  63 100 137 183 223 279 346 404
#     4  11  21  40  68  98 126 179 222 279 340 392
#     4  11  26  44  70 101 136 177 230 287 345 410
#     4  10  24  41  67 100 136 173 227 276 333 410
#     4  12  23  42  72 102 136 180 225 292 338 405
#     4  11  22  40  67 100 134 171 234 281 337 400
#     4  11  26  43  68  98 136 179 228 283 345 404
#
# _framework density 20.50356
#
# number of rings (size 3 to 8) (size 9 to 14) (size 15 to 20)
#    0.750    0.500    3.750    1.125    5.250    4.500 
#    0.000    0.625    0.000    0.000    0.000    0.000 
#    0.000    0.000    0.000    0.000    0.000    0.000 
#
# Total GULP energy -89174.613244 kJ/mol
# GULP energy per Si atom -5573.413328 kJ/mol
# Density = 2.045689 g / cm^3
# Si number density = 20.503560 Si / 1000 Ang^3
#
#
#
# Elastic Constant Matrix: (Units=GPa)
#
#
# Indices 1 2 3 4 5 6 
#
# 1 63.1676 15.3234 18.6292 8.3458 -8.4334 -8.0737
# 2 15.3234 159.9531 67.1131 -12.2578 -2.8065 -9.2138
# 3 18.6292 67.1131 129.7366 -1.5092 3.5931 -8.1524
# 4 8.3458 -12.2578 -1.5092 44.9219 -3.0630 -0.0282
# 5 -8.4334 -2.8065 3.5931 -3.0630 28.7963 1.2883
# 6 -8.0737 -9.2138 -8.1524 -0.0282 1.2883 23.3637
#
#
#
# Elastic Compliance Matrix: (Units=1/GPa)
#
#
# Indices 1 2 3 4 5 6 
#
# 1 0.018390 -0.000755 -0.002111 -0.003350 0.004994 0.005041
# 2 -0.000755 0.008345 -0.004121 0.002368 0.001290 0.001524
# 3 -0.002111 -0.004121 0.010290 -0.000551 -0.002424 0.001369
# 4 -0.003350 0.002368 -0.000551 0.023637 0.001855 -0.000490
# 5 0.004994 0.001290 -0.002424 0.001855 0.036843 -0.000641
# 6 0.005041 0.001524 0.001369 -0.000490 -0.000641 0.045657
#
#
# Mechanical properties :
#
#
# Convention : Reuss Voigt Hill
#
# Bulk Modulus (GPa) = 43.38066 61.66540 52.52303
# Shear Modulus (GPa) = 30.33636 36.20249 33.26943
#
# Velocity S-wave (km/s) = 3.85068 4.20654 4.03254
# Velocity P-wave (km/s) = 6.40109 7.33036 6.88143
#
# Compressibility (1/GPa) = 0.02305175
#
# Stress axis : x y z
#
# Youngs Moduli (GPa) = 54.37697 119.83084 97.18627
#
# Poissons Ratio (x) = 0.09045 0.20513
# Poissons Ratio (y) = 0.04105 0.40050
# Poissons Ratio (z) = 0.11477 0.49382
#
# Static dielectric constant tensor:
#      x y z
#    x 1.810650 -0.002970 -0.027600 
#    y -0.002970 1.728490 -0.009670 
#    z -0.027600 -0.009670 1.743090 
# 
# From -- ./inp_files/516023.got.cif
#   From: 2010.05.17/outbox.cif.g08.bks.cpg/sg2_259_cif.got.tgz:516023.got - 2010.06.03 11:33:40.
