data_PCOD9026922
_publ_section_title
;
Structure prediction by ZEFSAII (Michael W. Deem and Ramdas Pophale) SiO2 
 PCOD9026922
Probable space group: P -1
;
_chemical_formula_sum "Si O2"
_cell_formula_units_Z 16
_cell_length_a 10.033727
_cell_length_b 16.027866
_cell_length_c 16.757181
_cell_angle_alpha 143.382739
_cell_angle_beta 147.977877
_cell_angle_gamma 37.086212
_cell_volume 791.622216
_symmetry_space_group_name_H-M "P -1"
_symmetry_group_IT_number 2
_symmetry_cell_setting 'triclinic'
loop_
_space_group_symop_operation_xyz
x,y,z
-x,-y,-z
loop_
_atom_site_type_symbol
_atom_site_label
_atom_site_fract_x
_atom_site_fract_y
_atom_site_fract_z
Si Si1 0.991815 0.142356 0.494272
Si Si2 0.848839 0.342075 0.990528
Si Si3 0.810614 0.477731 0.625475
Si Si4 0.403843 0.649097 0.960950
Si Si5 0.889423 0.599801 0.595394
Si Si6 0.195468 0.005934 0.863905
Si Si7 0.415739 0.885309 0.603087
Si Si8 0.259326 0.940784 0.027843
O O1 0.995768 0.307314 0.610678
O O2 0.794094 0.153047 0.477097
O O3 0.883650 0.085289 0.316559
O O4 0.269450 0.014721 0.564962
O O5 0.676041 0.321083 0.963100
O O6 0.080371 0.403958 0.185540
O O7 0.636027 0.484146 0.944555
O O8 0.991882 0.181634 0.897682
O O9 0.500000 0.500000 0.500000
O O10 0.836872 0.503423 0.565674
O O11 0.125223 0.653600 0.784834
O O12 0.455299 0.781401 0.041368
O O13 0.616273 0.739796 0.549391
O O14 0.000000 0.500000 0.500000
O O15 0.500000 0.000000 0.000000
O O16 0.186119 0.939101 0.896522
O O17 0.591170 0.942669 0.796690
O O18 0.000000 0.000000 0.000000
#
# Coordination Sequence:
#
# PCOD9026922 Si02
#       8
#     2   2   2   2   2   2   2   2
#     4  11  25  41  68  96 132 169 216 272 319 382
#     4  10  22  42  65  95 129 165 216 262 318 379
#     4  11  21  42  67  91 126 172 210 252 326 393
#     4  10  22  41  66  89 127 174 207 258 319 387
#     4  11  24  40  63  91 128 167 211 261 318 381
#     4  12  24  42  66 100 130 166 220 271 313 379
#     4  11  23  45  64  93 133 174 209 264 335 382
#     4  12  21  41  69  94 127 171 217 256 323 392
#
# _framework density 20.211660999999999
#
# number of rings (size 3 to 8) (size 9 to 14) (size 15 to 20)
#    0.000    1.000    5.000    2.250    3.500    0.000 
#    0.000    1.875    0.000    0.000    0.000    0.000 
#    0.000    0.000    0.000    0.000    0.000    0.000 
#
# Total GULP energy -89392.837710 kJ/mol
# GULP energy per Si atom -5587.052357 kJ/mol
# Density = 2.016566 g / cm^3
# Si number density = 20.211661 Si / 1000 Ang^3
#
#
#
# Elastic Constant Matrix: (Units=GPa)
#
#
# Indices 1 2 3 4 5 6 
#
# 1 60.2091 25.6877 12.2152 4.5229 -1.0532 -6.0760
# 2 25.6877 148.2038 5.8248 9.8464 -6.8278 -6.5742
# 3 12.2152 5.8248 37.9251 3.3536 -11.0627 4.9636
# 4 4.5229 9.8464 3.3536 32.1180 0.1431 2.2679
# 5 -1.0532 -6.8278 -11.0627 0.1431 27.2363 4.8498
# 6 -6.0760 -6.5742 4.9636 2.2679 4.8498 29.7474
#
#
#
# Elastic Compliance Matrix: (Units=1/GPa)
#
#
# Indices 1 2 3 4 5 6 
#
# 1 0.020074 -0.003021 -0.007797 -0.001458 -0.004123 0.005517
# 2 -0.003021 0.007506 0.000410 -0.001985 0.001794 0.000832
# 3 -0.007797 0.000410 0.034848 -0.002050 0.015697 -0.009720
# 4 -0.001458 -0.001985 -0.002050 0.032358 -0.001079 -0.002685
# 5 -0.004123 0.001794 0.015697 -0.001079 0.045232 -0.010357
# 6 0.005517 0.000832 -0.009720 -0.002685 -0.010357 0.038442
#
#
# Mechanical properties :
#
#
# Convention : Reuss Voigt Hill
#
# Bulk Modulus (GPa) = 24.03164 37.08815 30.55990
# Shear Modulus (GPa) = 23.45793 31.32769 27.39281
#
# Velocity S-wave (km/s) = 3.41047 3.94125 3.68543
# Velocity P-wave (km/s) = 5.23682 6.25308 5.76738
#
# Compressibility (1/GPa) = 0.04161181
#
# Stress axis : x y z
#
# Youngs Moduli (GPa) = 49.81623 133.21824 28.69571
#
# Poissons Ratio (x) = 0.40249 0.22375
# Poissons Ratio (y) = 0.15051 -0.01177
# Poissons Ratio (z) = 0.38843 -0.05463
#
# Static dielectric constant tensor:
#      x y z
#    x 1.328700 -0.006390 0.197920 
#    y -0.006390 1.753770 0.015630 
#    z 0.197920 0.015630 1.645450 
# 
# From -- ./inp_files/223819.got.cif
#   From: 2010.05.17/outbox.cif.g08.bks.cpg/sg2_112_cif.got.tgz:223819.got - 2010.06.03 11:33:40.
