data_PCOD9026669
_publ_section_title
;
Structure prediction by ZEFSAII (Michael W. Deem and Ramdas Pophale) SiO2 
 PCOD9026669
Probable space group: P -1
;
_chemical_formula_sum "Si O2"
_cell_formula_units_Z 16
_cell_length_a 8.879259
_cell_length_b 12.655628
_cell_length_c 27.081030
_cell_angle_alpha 24.128873
_cell_angle_beta 50.582145
_cell_angle_gamma 41.871192
_cell_volume 819.153997
_symmetry_space_group_name_H-M "P -1"
_symmetry_group_IT_number 2
_symmetry_cell_setting 'triclinic'
loop_
_space_group_symop_operation_xyz
x,y,z
-x,-y,-z
loop_
_atom_site_type_symbol
_atom_site_label
_atom_site_fract_x
_atom_site_fract_y
_atom_site_fract_z
Si Si1 0.589481 0.950322 0.191045
Si Si2 0.678799 0.611548 0.418699
Si Si3 0.462618 0.460725 0.694677
Si Si4 0.137779 0.985877 0.610796
Si Si5 0.928301 0.633258 0.856184
Si Si6 0.706912 0.998734 0.929329
Si Si7 0.725955 0.710241 0.473719
Si Si8 0.056543 0.877362 0.985437
O O1 0.650566 0.809726 0.292765
O O2 0.651194 0.684882 0.252164
O O3 0.316643 0.170781 0.151747
O O4 0.723471 0.117378 0.080008
O O5 0.500000 0.500000 0.500000
O O6 0.634334 0.792331 0.402162
O O7 0.932187 0.311891 0.496267
O O8 0.276200 0.764039 0.631920
O O9 0.618795 0.529905 0.597561
O O10 0.613533 0.220600 0.808144
O O11 0.024679 0.837108 0.730401
O O12 0.305229 0.032817 0.591548
O O13 0.906716 0.453994 0.889958
O O14 0.110535 0.353060 0.971320
O O15 0.844917 0.077501 0.906651
O O16 0.500000 0.000000 0.000000
O O17 0.000000 0.500000 0.500000
O O18 0.000000 0.000000 0.000000
#
# Coordination Sequence:
#
# PCOD9026669 Si02
#       8
#     2   2   2   2   2   2   2   2
#     4  12  23  43  68  93 132 170 212 265 318 384
#     4  11  22  44  64  92 128 168 212 259 320 378
#     4  12  23  42  65  94 131 169 211 270 318 376
#     4  11  22  41  65  91 132 165 214 263 322 376
#     4  10  22  41  65  94 129 169 211 261 321 376
#     4  10  22  41  65  91 129 161 214 259 324 369
#     4  10  23  41  64  92 128 170 213 264 311 381
#     4  10  23  43  66  94 131 168 214 267 317 379
#
# _framework density 19.532347000000001
#
# number of rings (size 3 to 8) (size 9 to 14) (size 15 to 20)
#    0.750    0.500    3.750    3.000    3.500    1.000 
#    2.250    0.000    0.000    0.000    0.000    0.000 
#    0.000    0.000    0.000    0.000    0.000    0.000 
#
# Total GULP energy -89307.215610 kJ/mol
# GULP energy per Si atom -5581.700976 kJ/mol
# Density = 1.948789 g / cm^3
# Si number density = 19.532347 Si / 1000 Ang^3
#
#
#
# Elastic Constant Matrix: (Units=GPa)
#
#
# Indices 1 2 3 4 5 6 
#
# 1 84.7073 8.7146 11.8713 2.9723 2.6995 10.9413
# 2 8.7146 69.3403 8.5436 -8.3344 18.6325 -0.1405
# 3 11.8713 8.5436 73.7744 5.0384 13.6633 -7.5837
# 4 2.9723 -8.3344 5.0384 28.5905 2.1094 -3.7255
# 5 2.6995 18.6325 13.6633 2.1094 36.4309 3.3321
# 6 10.9413 -0.1405 -7.5837 -3.7255 3.3321 37.5685
#
#
#
# Elastic Compliance Matrix: (Units=1/GPa)
#
#
# Indices 1 2 3 4 5 6 
#
# 1 0.012988 -0.002022 -0.002469 -0.002225 0.001551 -0.004647
# 2 -0.002022 0.018060 -0.000220 0.006494 -0.009573 0.002105
# 3 -0.002469 -0.000220 0.015604 -0.001574 -0.005852 0.004231
# 4 -0.002225 0.006494 -0.001574 0.038365 -0.005210 0.004621
# 5 0.001551 -0.009573 -0.005852 -0.005210 0.035213 -0.005309
# 6 -0.004647 0.002105 0.004231 0.004621 -0.005309 0.029762
#
#
# Mechanical properties :
#
#
# Convention : Reuss Voigt Hill
#
# Bulk Modulus (GPa) = 26.86000 31.78679 29.32339
# Shear Modulus (GPa) = 29.09944 33.76413 31.43179
#
# Velocity S-wave (km/s) = 3.86399 4.16219 4.01586
# Velocity P-wave (km/s) = 5.80419 6.27755 6.04551
#
# Compressibility (1/GPa) = 0.03723008
#
# Stress axis : x y z
#
# Youngs Moduli (GPa) = 76.99295 55.37070 64.08617
#
# Poissons Ratio (x) = 0.11195 0.15822
# Poissons Ratio (y) = 0.15567 0.01412
# Poissons Ratio (z) = 0.19009 0.01220
#
# Static dielectric constant tensor:
#      x y z
#    x 1.694740 0.013960 -0.000060 
#    y 0.013960 1.693490 -0.026130 
#    z -0.000060 -0.026130 1.654270 
# 
# From -- ./inp_files/607447.got.cif
#   From: 2010.05.17/outbox.cif.g08.bks.cpg/sg2_304_cif.got.tgz:607447.got - 2010.06.03 11:33:40.
