data_PCOD9026946
_publ_section_title
;
Structure prediction by ZEFSAII (Michael W. Deem and Ramdas Pophale) SiO2 
 PCOD9026946
Probable space group: P -1
;
_chemical_formula_sum "Si O2"
_cell_formula_units_Z 16
_cell_length_a 11.231637
_cell_length_b 14.790683
_cell_length_c 9.952133
_cell_angle_alpha 147.794506
_cell_angle_beta 69.067822
_cell_angle_gamma 124.152744
_cell_volume 702.700688
_symmetry_space_group_name_H-M "P -1"
_symmetry_group_IT_number 2
_symmetry_cell_setting 'triclinic'
loop_
_space_group_symop_operation_xyz
x,y,z
-x,-y,-z
loop_
_atom_site_type_symbol
_atom_site_label
_atom_site_fract_x
_atom_site_fract_y
_atom_site_fract_z
Si Si1 0.939156 0.313881 0.693445
Si Si2 0.583457 0.792230 0.466901
Si Si3 0.906665 0.839640 0.956119
Si Si4 0.342973 0.094506 0.726082
Si Si5 0.482762 0.871677 0.041158
Si Si6 0.403952 0.332582 0.436586
Si Si7 0.079447 0.054392 0.394671
Si Si8 0.812314 0.536883 0.405679
O O1 0.022496 0.200534 0.559350
O O2 0.023303 0.407025 0.636653
O O3 0.763201 0.147355 0.558185
O O4 0.000000 0.500000 0.000000
O O5 0.520567 0.614599 0.379309
O O6 0.753094 0.886530 0.568619
O O7 0.594714 0.794683 0.303220
O O8 0.514193 0.924049 0.700670
O O9 0.834288 0.621620 0.651863
O O10 0.774403 0.863537 0.099316
O O11 0.000000 0.000000 0.000000
O O12 0.015532 0.886605 0.095796
O O13 0.469760 0.148441 0.852455
O O14 0.590546 0.851603 0.864397
O O15 0.314928 0.690756 0.851045
O O16 0.500000 0.500000 0.500000
O O17 0.253654 0.339690 0.491342
O O18 0.000000 0.000000 0.500000
#
# Coordination Sequence:
#
# PCOD9026946 Si02
#       8
#     2   2   2   2   2   2   2   2
#     4  11  22  39  69  97 132 170 229 280 336 394
#     4  12  22  42  66  97 138 178 227 281 340 406
#     4  11  19  38  68  99 131 178 230 270 337 403
#     4  11  23  40  68 101 136 186 225 270 345 408
#     4  11  25  41  69  96 139 184 226 274 342 408
#     4  10  22  41  66  91 129 177 228 274 338 401
#     4  11  22  39  67 101 131 172 221 282 347 398
#     4  11  21  40  68  97 129 178 232 280 330 404
#
# _framework density 22.769297000000002
#
# number of rings (size 3 to 8) (size 9 to 14) (size 15 to 20)
#    0.000    1.000    7.500    1.500    0.000    0.000 
#    0.000    3.125   19.250    0.000    0.000    0.000 
#    0.000    0.000    0.000    0.000    0.000    0.000 
#
# Total GULP energy -89123.615296 kJ/mol
# GULP energy per Si atom -5570.225956 kJ/mol
# Density = 2.271747 g / cm^3
# Si number density = 22.769297 Si / 1000 Ang^3
#
#
#
# Elastic Constant Matrix: (Units=GPa)
#
#
# Indices 1 2 3 4 5 6 
#
# 1 30.9048 5.8185 -2.8915 -1.9321 8.2910 -3.7382
# 2 5.8185 95.1598 28.8098 -22.9746 14.6762 1.1697
# 3 -2.8915 28.8098 111.6340 -16.3486 17.9402 -2.8444
# 4 -1.9321 -22.9746 -16.3486 28.8762 -2.2106 7.2602
# 5 8.2910 14.6762 17.9402 -2.2106 38.4789 -11.9781
# 6 -3.7382 1.1697 -2.8444 7.2602 -11.9781 29.0841
#
#
#
# Elastic Compliance Matrix: (Units=1/GPa)
#
#
# Indices 1 2 3 4 5 6 
#
# 1 0.035272 -0.001307 0.002864 0.002063 -0.007988 0.001061
# 2 -0.001307 0.014961 -0.001279 0.012251 -0.006143 -0.006483
# 3 0.002864 -0.001279 0.011023 0.005538 -0.005637 -0.002207
# 4 0.002063 0.012251 0.005538 0.051044 -0.009905 -0.016507
# 5 -0.007988 -0.006143 -0.005637 -0.009905 0.037241 0.016479
# 6 0.001061 -0.006483 -0.002207 -0.016507 0.016479 0.045472
#
#
# Mechanical properties :
#
#
# Convention : Reuss Voigt Hill
#
# Bulk Modulus (GPa) = 16.17809 33.46357 24.82083
# Shear Modulus (GPa) = 23.24947 33.01863 28.13405
#
# Velocity S-wave (km/s) = 3.19891 3.81220 3.51894
# Velocity P-wave (km/s) = 4.55683 5.84002 5.23787
#
# Compressibility (1/GPa) = 0.06181200
#
# Stress axis : x y z
#
# Youngs Moduli (GPa) = 28.35134 66.84268 90.72115
#
# Poissons Ratio (x) = 0.08734 -0.25980
# Poissons Ratio (y) = 0.03704 0.11600
# Poissons Ratio (z) = -0.08119 0.08547
#
# Static dielectric constant tensor:
#      x y z
#    x 1.862490 0.053950 -0.020710 
#    y 0.053950 2.063260 0.040350 
#    z -0.020710 0.040350 1.882730 
# 
# From -- ./inp_files/274648.got.cif
#   From: 2010.05.17/outbox.cif.g08.bks.cpg/sg2_138_cif.got.tgz:274648.got - 2010.06.03 11:33:40.
