data_PCOD9026662
_publ_section_title
;
Structure prediction by ZEFSAII (Michael W. Deem and Ramdas Pophale) SiO2 
 PCOD9026662
Probable space group: P -1
;
_chemical_formula_sum "Si O2"
_cell_formula_units_Z 16
_cell_length_a 9.689596
_cell_length_b 12.744864
_cell_length_c 17.102025
_cell_angle_alpha 43.027508
_cell_angle_beta 139.140696
_cell_angle_gamma 142.960259
_cell_volume 787.634335
_symmetry_space_group_name_H-M "P -1"
_symmetry_group_IT_number 2
_symmetry_cell_setting 'triclinic'
loop_
_space_group_symop_operation_xyz
x,y,z
-x,-y,-z
loop_
_atom_site_type_symbol
_atom_site_label
_atom_site_fract_x
_atom_site_fract_y
_atom_site_fract_z
Si Si1 0.457017 0.076262 0.791014
Si Si2 0.725375 0.663678 0.790943
Si Si3 0.415373 0.322023 0.510804
Si Si4 0.798616 0.938129 0.015725
Si Si5 0.229248 0.482967 0.587610
Si Si6 0.988867 0.317949 0.241020
Si Si7 0.350313 0.543188 0.975413
Si Si8 0.894838 0.915531 0.247316
O O1 0.443493 0.190866 0.652023
O O2 0.361094 0.116320 0.807688
O O3 0.246232 0.868133 0.791881
O O4 0.710053 0.080122 0.904624
O O5 0.428564 0.557304 0.703909
O O6 0.763977 0.608734 0.922629
O O7 0.830246 0.593271 0.805712
O O8 0.875035 0.886749 0.729186
O O9 0.500000 0.500000 0.500000
O O10 0.602245 0.384798 0.483261
O O11 0.140881 0.264824 0.392713
O O12 0.563615 0.735084 0.002913
O O13 0.897256 0.929812 0.147352
O O14 0.000000 0.000000 0.000000
O O15 0.119813 0.270101 0.636895
O O16 0.000000 0.500000 0.500000
O O17 0.872907 0.430052 0.163542
O O18 0.500000 0.500000 0.000000
#
# Coordination Sequence:
#
# PCOD9026662 Si02
#       8
#     2   2   2   2   2   2   2   2
#     4  10  22  41  65  91 124 167 215 261 316 378
#     4  10  22  42  66  91 124 169 213 259 316 375
#     4  11  22  39  63  91 122 165 214 254 316 378
#     4  11  24  40  64  95 130 164 209 271 318 376
#     4  11  25  43  64  94 133 168 212 264 310 383
#     4   9  22  40  63  89 124 165 210 266 307 382
#     4  11  22  40  61  94 129 162 209 264 323 372
#     4  11  22  44  66  93 128 166 216 261 319 372
#
# _framework density 20.313995999999999
#
# number of rings (size 3 to 8) (size 9 to 14) (size 15 to 20)
#    0.000    1.500    2.500    1.875    1.750    3.500 
#    0.000    0.000    0.000    0.000    0.000    0.000 
#    0.000    0.000    0.000    0.000    0.000    0.000 
#
# Total GULP energy -89299.913601 kJ/mol
# GULP energy per Si atom -5581.244600 kJ/mol
# Density = 2.026776 g / cm^3
# Si number density = 20.313996 Si / 1000 Ang^3
#
#
#
# Elastic Constant Matrix: (Units=GPa)
#
#
# Indices 1 2 3 4 5 6 
#
# 1 91.5393 1.4049 27.6556 -10.3285 16.1162 1.3307
# 2 1.4049 64.6393 -0.2080 -7.3874 18.4761 -0.0870
# 3 27.6556 -0.2080 39.2100 -15.9156 11.8308 15.1407
# 4 -10.3285 -7.3874 -15.9156 27.5291 -3.3874 0.5128
# 5 16.1162 18.4761 11.8308 -3.3874 43.5006 -1.0453
# 6 1.3307 -0.0870 15.1407 0.5128 -1.0453 28.6615
#
#
#
# Elastic Compliance Matrix: (Units=1/GPa)
#
#
# Indices 1 2 3 4 5 6 
#
# 1 0.014951 -0.000124 -0.013516 -0.002586 -0.001857 0.006424
# 2 -0.000124 0.019421 0.008974 0.009213 -0.010051 -0.005207
# 3 -0.013516 0.008974 0.068405 0.035659 -0.015513 -0.036685
# 4 -0.002586 0.009213 0.035659 0.057754 -0.008638 -0.020038
# 5 -0.001857 -0.010051 -0.015513 -0.008638 0.031722 0.009562
# 6 0.006424 -0.005207 -0.036685 -0.020038 0.009562 0.054662
#
#
# Mechanical properties :
#
#
# Convention : Reuss Voigt Hill
#
# Bulk Modulus (GPa) = 10.70156 28.12151 19.41153
# Shear Modulus (GPa) = 17.39757 31.04063 24.21910
#
# Velocity S-wave (km/s) = 2.92966 3.91326 3.45662
# Velocity P-wave (km/s) = 4.08942 5.85590 5.05049
#
# Compressibility (1/GPa) = 0.09344435
#
# Stress axis : x y z
#
# Youngs Moduli (GPa) = 66.88297 51.49086 14.61876
#
# Poissons Ratio (x) = 0.00641 0.19759
# Poissons Ratio (y) = 0.00833 -0.13119
# Poissons Ratio (z) = 0.90401 -0.46208
#
# Static dielectric constant tensor:
#      x y z
#    x 1.741860 0.035470 0.015430 
#    y 0.035470 1.771310 -0.007750 
#    z 0.015430 -0.007750 1.723980 
# 
# From -- ./inp_files/186784.got.cif
#   From: 2010.05.17/outbox.cif.g08.bks.cpg/sg2_94_cif.got.tgz:186784.got - 2010.06.03 11:33:40.
