data_PCOD9026164
_publ_section_title
;
Structure prediction by ZEFSAII (Michael W. Deem and Ramdas Pophale) SiO2 
 PCOD9026164
Probable space group: P -1
;
_chemical_formula_sum "Si O2"
_cell_formula_units_Z 14
_cell_length_a 10.667066
_cell_length_b 12.646346
_cell_length_c 11.492946
_cell_angle_alpha 138.120229
_cell_angle_beta 34.916959
_cell_angle_gamma 130.500717
_cell_volume 589.334531
_symmetry_space_group_name_H-M "P -1"
_symmetry_group_IT_number 2
_symmetry_cell_setting 'triclinic'
loop_
_space_group_symop_operation_xyz
x,y,z
-x,-y,-z
loop_
_atom_site_type_symbol
_atom_site_label
_atom_site_fract_x
_atom_site_fract_y
_atom_site_fract_z
Si Si1 0.786020 0.943916 0.453168
Si Si2 0.968602 0.415212 0.797521
Si Si3 0.327858 0.177474 0.328755
Si Si4 0.832866 0.234053 0.067852
Si Si5 0.472962 0.337404 0.135955
Si Si6 0.621514 0.307288 0.508232
Si Si7 0.694873 0.283141 0.704152
O O1 0.751953 0.960799 0.632325
O O2 0.607819 0.800930 0.429770
O O3 0.739982 0.104713 0.556681
O O4 0.024712 0.897101 0.199265
O O5 0.162128 0.308672 0.591918
O O6 0.040497 0.595697 0.919692
O O7 0.897503 0.394979 0.698626
O O8 0.733971 0.351627 0.978523
O O9 0.581145 0.220255 0.206735
O O10 0.345962 0.194887 0.189222
O O11 0.803480 0.234460 0.230687
O O12 0.397502 0.509768 0.364772
O O13 0.482572 0.315667 0.971307
O O14 0.667878 0.305321 0.607697
#
# Coordination Sequence:
#
# PCOD9026164 Si02
#       7
#     2   2   2   2   2   2   2
#     4  11  24  43  63  92 131 165 200 259 307 378
#     4  10  22  41  62  96 125 158 206 265 302 359
#     4  11  23  41  67  93 125 160 215 253 313 366
#     4  11  23  40  67  96 120 165 210 259 306 364
#     4  10  22  41  65  96 119 163 209 260 308 354
#     4  11  22  44  67  92 121 166 215 253 303 367
#     4  10  25  44  61  93 131 165 204 251 317 370
#
# _framework density 23.755609
#
# number of rings (size 3 to 8) (size 9 to 14) (size 15 to 20)
#    0.857    0.571    2.857    2.143    2.000    3.429 
#    7.714    0.000    0.000    0.000    0.000    0.000 
#    0.000    0.000    0.000    0.000    0.000    0.000 
#
# Total GULP energy -78225.586228 kJ/mol
# GULP energy per Si atom -5587.541873 kJ/mol
# Density = 2.370154 g / cm^3
# Si number density = 23.755609 Si / 1000 Ang^3
#
#
#
# Elastic Constant Matrix: (Units=GPa)
#
#
# Indices 1 2 3 4 5 6 
#
# 1 102.7417 34.7022 9.1863 -14.1393 19.0956 -11.6099
# 2 34.7022 90.9119 44.4975 -12.0154 -10.1717 -6.4747
# 3 9.1863 44.4975 106.4090 -20.5990 5.4305 -3.5741
# 4 -14.1393 -12.0154 -20.5990 31.7250 -6.7439 5.3580
# 5 19.0956 -10.1717 5.4305 -6.7439 30.6577 -12.1884
# 6 -11.6099 -6.4747 -3.5741 5.3580 -12.1884 34.3841
#
#
#
# Elastic Compliance Matrix: (Units=1/GPa)
#
#
# Indices 1 2 3 4 5 6 
#
# 1 0.014894 -0.008415 0.003457 0.003245 -0.012404 -0.001099
# 2 -0.008415 0.020634 -0.008314 0.001120 0.016073 0.005703
# 3 0.003457 -0.008314 0.014104 0.006480 -0.006939 -0.002402
# 4 0.003245 0.001120 0.006480 0.039030 0.004840 -0.002387
# 5 -0.012404 0.016073 -0.006939 0.004840 0.054620 0.016724
# 6 -0.001099 0.005703 -0.002402 -0.002387 0.016724 0.035837
#
#
# Mechanical properties :
#
#
# Convention : Reuss Voigt Hill
#
# Bulk Modulus (GPa) = 43.31146 52.98162 48.14654
# Shear Modulus (GPa) = 23.43482 33.46512 28.44997
#
# Velocity S-wave (km/s) = 3.14426 3.75737 3.46441
# Velocity P-wave (km/s) = 5.60834 6.41677 6.02613
#
# Compressibility (1/GPa) = 0.02308858
#
# Stress axis : x y z
#
# Youngs Moduli (GPa) = 67.14117 48.46486 70.90275
#
# Poissons Ratio (x) = 0.40782 -0.24513
# Poissons Ratio (y) = 0.56497 0.58948
# Poissons Ratio (z) = -0.23212 0.40293
#
# Static dielectric constant tensor:
#      x y z
#    x 1.943960 -0.008180 0.052990 
#    y -0.008180 1.878270 -0.036790 
#    z 0.052990 -0.036790 1.897630 
# 
# From -- ./inp_files/399501.got.cif
#   From: 2010.05.17/outbox.cif.g08.bks.cpg/sg2_200_cif.got.tgz:399501.got - 2010.06.03 11:33:40.
