data_PCOD9026007
_publ_section_title
;
Structure prediction by ZEFSAII (Michael W. Deem and Ramdas Pophale) SiO2 
 PCOD9026007
Probable space group: P -1
;
_chemical_formula_sum "Si O2"
_cell_formula_units_Z 12
_cell_length_a 7.807388
_cell_length_b 18.114555
_cell_length_c 5.560923
_cell_angle_alpha 50.352636
_cell_angle_beta 121.728351
_cell_angle_gamma 119.819023
_cell_volume 499.118233
_symmetry_space_group_name_H-M "P -1"
_symmetry_group_IT_number 2
_symmetry_cell_setting 'triclinic'
loop_
_space_group_symop_operation_xyz
x,y,z
-x,-y,-z
loop_
_atom_site_type_symbol
_atom_site_label
_atom_site_fract_x
_atom_site_fract_y
_atom_site_fract_z
Si Si1 0.629926 0.668752 0.169027
Si Si2 0.423647 0.598472 0.675030
Si Si3 0.044024 0.800209 0.332210
Si Si4 0.252514 0.987378 0.343503
Si Si5 0.252894 0.986328 0.846670
Si Si6 0.014656 0.587551 0.642740
O O1 0.495708 0.634257 0.383740
O O2 0.797786 0.768913 0.164097
O O3 0.782695 0.594707 0.393209
O O4 0.522172 0.670172 0.827052
O O5 0.176624 0.581799 0.564823
O O6 0.500000 0.500000 0.000000
O O7 0.140782 0.871255 0.474715
O O8 0.155950 0.869279 0.053198
O O9 0.098585 0.695064 0.606865
O O10 0.200928 0.032899 0.960486
O O11 0.500000 0.000000 0.500000
O O12 0.194694 0.026453 0.470528
O O13 0.500000 0.000000 0.000000
O O14 0.000000 0.500000 0.000000
#
# Coordination Sequence:
#
# PCOD9026007 Si02
#       6
#     2   2   2   2   2   2
#     4  10  25  38  60  86 117 152 199 239 295 342
#     4  12  23  42  59  84 116 157 201 244 287 345
#     4   8  19  33  53  85 115 146 195 234 285 347
#     4   8  14  26  48  78 109 138 186 234 276 340
#     4   8  14  26  48  78 110 138 186 235 274 341
#     4  10  22  41  61  87 119 159 195 243 292 343
#
# _framework density 24.042399
#
# number of rings (size 3 to 8) (size 9 to 14) (size 15 to 20)
#    2.000    0.667    1.667    0.500    2.333    2.000 
#    3.000    0.000    0.000    0.000    0.000    7.000 
#    0.000    0.000    0.000    0.000    0.000    0.000 
#
# Total GULP energy -66829.971449 kJ/mol
# GULP energy per Si atom -5569.164287 kJ/mol
# Density = 2.398768 g / cm^3
# Si number density = 24.042399 Si / 1000 Ang^3
#
#
#
# Elastic Constant Matrix: (Units=GPa)
#
#
# Indices 1 2 3 4 5 6 
#
# 1 143.3357 41.3920 56.0055 -1.0307 -30.1523 20.6688
# 2 41.3920 146.0482 43.5683 -2.8218 -8.5228 10.7881
# 3 56.0055 43.5683 126.8639 17.0388 -35.9986 -2.1372
# 4 -1.0307 -2.8218 17.0388 51.9015 -9.3935 -2.7650
# 5 -30.1523 -8.5228 -35.9986 -9.3935 53.6819 -5.9645
# 6 20.6688 10.7881 -2.1372 -2.7650 -5.9645 38.5934
#
#
#
# Elastic Compliance Matrix: (Units=1/GPa)
#
#
# Indices 1 2 3 4 5 6 
#
# 1 0.009960 -0.001259 -0.003442 0.001527 0.002840 -0.004625
# 2 -0.001259 0.008110 -0.002765 0.000987 -0.001310 -0.001878
# 3 -0.003442 -0.002765 0.012510 -0.003039 0.005930 0.004008
# 4 0.001527 0.000987 -0.003039 0.020872 0.002701 0.000651
# 5 0.002840 -0.001310 0.005930 0.002701 0.024821 0.003203
# 6 -0.004625 -0.001878 0.004008 0.000651 0.003203 0.029676
#
#
# Mechanical properties :
#
#
# Convention : Reuss Voigt Hill
#
# Bulk Modulus (GPa) = 63.90593 77.57550 70.74071
# Shear Modulus (GPa) = 39.65158 47.18748 43.41953
#
# Velocity S-wave (km/s) = 4.06548 4.43502 4.25427
# Velocity P-wave (km/s) = 6.97680 7.65258 7.32249
#
# Compressibility (1/GPa) = 0.01564800
#
# Stress axis : x y z
#
# Youngs Moduli (GPa) = 100.39825 123.30230 79.93660
#
# Poissons Ratio (x) = 0.15528 0.27512
# Poissons Ratio (y) = 0.12644 0.22104
# Poissons Ratio (z) = 0.34554 0.34095
#
# Static dielectric constant tensor:
#      x y z
#    x 2.041520 0.122250 0.099030 
#    y 0.122250 2.078680 0.171670 
#    z 0.099030 0.171670 2.031370 
# 
# From -- ./inp_files/56110.got.cif
#   From: 2010.05.17/outbox.cif.g08.bks.cpg/sg2_29_cif.got.tgz:56110.got - 2010.06.03 11:33:40.
