data_PCOD9026558
_publ_section_title
;
Structure prediction by ZEFSAII (Michael W. Deem and Ramdas Pophale) SiO2 
 PCOD9026558
Probable space group: P -1
;
_chemical_formula_sum "Si O2"
_cell_formula_units_Z 16
_cell_length_a 14.894909
_cell_length_b 5.320133
_cell_length_c 24.255933
_cell_angle_alpha 97.671271
_cell_angle_beta 160.472221
_cell_angle_gamma 85.915246
_cell_volume 628.040456
_symmetry_space_group_name_H-M "P -1"
_symmetry_group_IT_number 2
_symmetry_cell_setting 'triclinic'
loop_
_space_group_symop_operation_xyz
x,y,z
-x,-y,-z
loop_
_atom_site_type_symbol
_atom_site_label
_atom_site_fract_x
_atom_site_fract_y
_atom_site_fract_z
Si Si1 0.149236 0.373781 0.497773
Si Si2 0.196004 0.445213 0.401761
Si Si3 0.164448 0.151564 0.665170
Si Si4 0.927682 0.991619 0.161889
Si Si5 0.746185 0.274408 0.840248
Si Si6 0.729699 0.748554 0.146460
Si Si7 0.792269 0.363438 0.749689
Si Si8 0.276048 0.838709 0.061033
O O1 0.109609 0.310061 0.407180
O O2 0.471072 0.394980 0.692406
O O3 0.030367 0.634661 0.446473
O O4 0.995862 0.138072 0.437927
O O5 0.520597 0.487776 0.589223
O O6 0.037277 0.683329 0.319052
O O7 0.078453 0.266544 0.277775
O O8 0.290076 0.168077 0.800006
O O9 0.419934 0.210373 0.774742
O O10 0.721625 0.906822 0.090330
O O11 0.150595 0.810322 0.273372
O O12 0.780111 0.983675 0.017175
O O13 0.746108 0.190526 0.774067
O O14 0.749175 0.079894 0.887524
O O15 0.000000 0.500000 0.000000
O O16 0.500000 0.500000 0.000000
O O17 0.052646 0.583572 0.915609
#
# Coordination Sequence:
#
# PCOD9026558 Si02
#       8
#     2   2   2   2   2   2   2   2
#     4  10  23  46  73 106 138 187 230 292 350 417
#     4  10  22  41  64  96 138 177 230 280 349 419
#     4  11  24  44  72 104 146 178 238 286 353 418
#     4  12  23  38  65 100 132 178 230 282 353 412
#     4   9  22  51  70  97 136 182 236 292 351 413
#     4  11  24  40  65  97 142 188 221 284 349 428
#     4  10  23  44  65  94 132 178 235 286 352 410
#     4  11  26  42  66  99 133 182 229 289 347 416
#
# _framework density 25.476064999999998
#
# number of rings (size 3 to 8) (size 9 to 14) (size 15 to 20)
#    0.000    1.500    1.250    2.625    5.250    5.500 
#   15.750    0.000    0.000    0.000    0.000    0.000 
#    0.000    0.000    0.000    0.000    0.000    0.000 
#
# Total GULP energy -89554.280466 kJ/mol
# GULP energy per Si atom -5597.142529 kJ/mol
# Density = 2.541808 g / cm^3
# Si number density = 25.476065 Si / 1000 Ang^3
#
#
#
# Elastic Constant Matrix: (Units=GPa)
#
#
# Indices 1 2 3 4 5 6 
#
# 1 178.1029 21.2000 42.6489 -1.9695 2.5956 15.2333
# 2 21.2000 73.7167 18.4264 -5.6529 4.6052 9.7183
# 3 42.6489 18.4264 112.9336 -8.3634 3.8566 9.0408
# 4 -1.9695 -5.6529 -8.3634 24.0100 1.3524 5.5804
# 5 2.5956 4.6052 3.8566 1.3524 45.0265 -6.4840
# 6 15.2333 9.7183 9.0408 5.5804 -6.4840 34.9922
#
#
#
# Elastic Compliance Matrix: (Units=1/GPa)
#
#
# Indices 1 2 3 4 5 6 
#
# 1 0.006415 -0.001027 -0.002073 0.000061 -0.000385 -0.002053
# 2 -0.001027 0.015251 -0.001354 0.004205 -0.002160 -0.004509
# 3 -0.002073 -0.001354 0.010341 0.003678 -0.001051 -0.002174
# 4 0.000061 0.004205 0.003678 0.046507 -0.003619 -0.010232
# 5 -0.000385 -0.002160 -0.001051 -0.003619 0.023511 0.005973
# 6 -0.002053 -0.004509 -0.002174 -0.010232 0.005973 0.034024
#
#
# Mechanical properties :
#
#
# Convention : Reuss Voigt Hill
#
# Bulk Modulus (GPa) = 43.29384 58.81153 51.05269
# Shear Modulus (GPa) = 32.75276 39.63759 36.19518
#
# Velocity S-wave (km/s) = 3.58946 3.94874 3.77338
# Velocity P-wave (km/s) = 5.84891 6.62761 6.25040
#
# Compressibility (1/GPa) = 0.02309797
#
# Stress axis : x y z
#
# Youngs Moduli (GPa) = 155.87687 65.56810 96.70292
#
# Poissons Ratio (x) = 0.06737 0.20047
# Poissons Ratio (y) = 0.16015 0.13096
# Poissons Ratio (z) = 0.32315 0.08880
#
# Static dielectric constant tensor:
#      x y z
#    x 2.015780 0.063740 -0.051320 
#    y 0.063740 2.018220 -0.090340 
#    z -0.051320 -0.090340 2.005240 
# 
# From -- ./inp_files/611282.got.cif
#   From: 2010.05.17/outbox.cif.g08.bks.cpg/sg2_306_cif.got.tgz:611282.got - 2010.06.03 11:33:40.
