data_PCOD9026852
_publ_section_title
;
Structure prediction by ZEFSAII (Michael W. Deem and Ramdas Pophale) SiO2 
 PCOD9026852
Probable space group: P -1
;
_chemical_formula_sum "Si O2"
_cell_formula_units_Z 16
_cell_length_a 14.264879
_cell_length_b 12.381152
_cell_length_c 14.357957
_cell_angle_alpha 115.624894
_cell_angle_beta 148.104354
_cell_angle_gamma 41.090396
_cell_volume 706.329270
_symmetry_space_group_name_H-M "P -1"
_symmetry_group_IT_number 2
_symmetry_cell_setting 'triclinic'
loop_
_space_group_symop_operation_xyz
x,y,z
-x,-y,-z
loop_
_atom_site_type_symbol
_atom_site_label
_atom_site_fract_x
_atom_site_fract_y
_atom_site_fract_z
Si Si1 0.066615 0.792747 0.044875
Si Si2 0.104735 0.307707 0.612052
Si Si3 0.854939 0.205503 0.431708
Si Si4 0.523710 0.284743 0.009044
Si Si5 0.633571 0.759847 0.391734
Si Si6 0.816601 0.081148 0.660206
Si Si7 0.457866 0.430931 0.355709
Si Si8 0.025975 0.725236 0.782222
O O1 0.230186 0.810904 0.246876
O O2 0.138353 0.636309 0.111930
O O3 0.142430 0.718793 0.974545
O O4 0.720994 0.025985 0.832266
O O5 0.233328 0.257027 0.598189
O O6 0.074282 0.188179 0.572369
O O7 0.771336 0.551158 0.429887
O O8 0.330805 0.268689 0.847801
O O9 0.619887 0.292938 0.188466
O O10 0.692060 0.336019 0.436495
O O11 0.000000 0.000000 0.500000
O O12 0.288545 0.517078 0.863793
O O13 0.835553 0.085879 0.144223
O O14 0.787180 0.747632 0.601961
O O15 0.576208 0.245113 0.437075
O O16 0.840864 0.930094 0.650892
O O17 0.500000 0.500000 0.500000
#
# Coordination Sequence:
#
# PCOD9026852 Si02
#       8
#     2   2   2   2   2   2   2   2
#     4  11  22  41  65  94 140 174 224 274 341 403
#     4  10  24  43  67 103 138 168 227 286 336 393
#     4  12  24  43  74  97 133 180 230 276 328 406
#     4  11  22  42  68 101 131 175 226 280 334 394
#     4  10  22  41  65  99 138 173 217 288 340 390
#     4  11  22  40  66  94 135 181 223 276 337 398
#     4  10  24  44  63  94 137 178 221 271 337 408
#     4  11  23  37  66 102 131 172 232 276 335 404
#
# _framework density 22.652324
#
# number of rings (size 3 to 8) (size 9 to 14) (size 15 to 20)
#    0.000    1.250    3.750    1.875    1.750    2.500 
#    0.000    0.625    0.000    0.000    0.000    0.000 
#    0.000    0.000    0.000    0.000    0.000    0.000 
#
# Total GULP energy -89219.434675 kJ/mol
# GULP energy per Si atom -5576.214667 kJ/mol
# Density = 2.260077 g / cm^3
# Si number density = 22.652324 Si / 1000 Ang^3
#
#
#
# Elastic Constant Matrix: (Units=GPa)
#
#
# Indices 1 2 3 4 5 6 
#
# 1 85.1697 61.5097 105.8691 -21.5733 -64.9575 23.3317
# 2 61.5097 154.3410 119.7818 -40.3818 -53.4010 36.1985
# 3 105.8691 119.7818 362.3486 -108.7403 -179.0998 62.9670
# 4 -21.5733 -40.3818 -108.7403 84.9491 64.7559 -27.2063
# 5 -64.9575 -53.4010 -179.0998 64.7559 126.1170 -38.6337
# 6 23.3317 36.1985 62.9670 -27.2063 -38.6337 52.7978
#
#
#
# Elastic Compliance Matrix: (Units=1/GPa)
#
#
# Indices 1 2 3 4 5 6 
#
# 1 0.026318 -0.007036 -0.001754 -0.008322 0.012375 0.000052
# 2 -0.007036 0.011245 -0.002952 0.002931 -0.005706 -0.003746
# 3 -0.001754 -0.002952 0.011195 0.003286 0.012043 -0.000047
# 4 -0.008322 0.002931 0.003286 0.023446 -0.009545 0.002846
# 5 0.012375 -0.005706 0.012043 -0.009545 0.035455 0.005105
# 6 0.000052 -0.003746 -0.000047 0.002846 0.005105 0.026743
#
#
# Mechanical properties :
#
#
# Convention : Reuss Voigt Hill
#
# Bulk Modulus (GPa) = 39.56285 130.68673 85.12479
# Shear Modulus (GPa) = 30.06459 73.75268 51.90863
#
# Velocity S-wave (km/s) = 3.64705 5.71220 4.79219
# Velocity P-wave (km/s) = 5.93615 10.06595 8.26321
#
# Compressibility (1/GPa) = 0.02527624
#
# Stress axis : x y z
#
# Youngs Moduli (GPa) = 37.99642 88.93086 89.32695
#
# Poissons Ratio (x) = 0.62568 0.15664
# Poissons Ratio (y) = 0.26733 0.26366
# Poissons Ratio (z) = 0.06663 0.26249
#
# Static dielectric constant tensor:
#      x y z
#    x 1.779200 -0.075380 0.103430 
#    y -0.075380 1.839300 0.076330 
#    z 0.103430 0.076330 1.727050 
# 
# From -- ./inp_files/184153.got.cif
#   From: 2010.05.17/outbox.cif.g08.bks.cpg/sg2_93_cif.got.tgz:184153.got - 2010.06.03 11:33:40.
