data_PCOD9026581
_publ_section_title
;
Structure prediction by ZEFSAII (Michael W. Deem and Ramdas Pophale) SiO2 
 PCOD9026581
Probable space group: P -1
;
_chemical_formula_sum "Si O2"
_cell_formula_units_Z 16
_cell_length_a 5.718406
_cell_length_b 25.003850
_cell_length_c 5.210921
_cell_angle_alpha 59.021875
_cell_angle_beta 83.729753
_cell_angle_gamma 81.974568
_cell_volume 631.926107
_symmetry_space_group_name_H-M "P -1"
_symmetry_group_IT_number 2
_symmetry_cell_setting 'triclinic'
loop_
_space_group_symop_operation_xyz
x,y,z
-x,-y,-z
loop_
_atom_site_type_symbol
_atom_site_label
_atom_site_fract_x
_atom_site_fract_y
_atom_site_fract_z
Si Si1 0.348648 0.284501 0.787911
Si Si2 0.045141 0.750467 0.702957
Si Si3 0.038031 0.072135 0.341658
Si Si4 0.032195 0.365862 0.236724
Si Si5 0.375077 0.827024 0.817220
Si Si6 0.717964 0.480665 0.837054
Si Si7 0.779342 0.871156 0.299851
Si Si8 0.424109 0.402733 0.715560
O O1 0.143830 0.321303 0.555428
O O2 0.506067 0.340961 0.697012
O O3 0.493196 0.218348 0.867874
O O4 0.199781 0.262840 0.099022
O O5 0.219269 0.779212 0.806519
O O6 0.135028 0.681955 0.759432
O O7 0.951595 0.807040 0.386963
O O8 0.104503 0.090710 0.577825
O O9 0.795309 0.114989 0.203250
O O10 0.227165 0.091511 0.058924
O O11 0.000000 0.000000 0.500000
O O12 0.264716 0.379698 0.016673
O O13 0.896758 0.434766 0.094008
O O14 0.543390 0.853695 0.514752
O O15 0.631657 0.439169 0.714962
O O16 0.756615 0.547309 0.542391
O O17 0.500000 0.500000 0.000000
#
# Coordination Sequence:
#
# PCOD9026581 Si02
#       8
#     2   2   2   2   2   2   2   2
#     4  10  22  41  64  98 126 171 231 281 351 413
#     4   9  22  41  63  96 130 176 224 285 345 412
#     4  11  25  47  73 109 150 192 240 293 351 424
#     4  11  23  40  67  90 127 168 219 287 332 419
#     4  10  23  45  71 101 144 187 229 298 352 421
#     4  11  24  40  61  91 124 172 219 271 346 413
#     4  10  24  44  71 109 145 187 246 290 356 423
#     4  10  23  42  60  89 128 166 220 277 341 414
#
# _framework density 25.319417999999999
#
# number of rings (size 3 to 8) (size 9 to 14) (size 15 to 20)
#    0.000    1.750    0.000    2.250    5.250   11.000 
#    9.000    0.000    0.000    0.000    0.000    0.000 
#    0.000    0.000    0.000    0.000    0.000    0.000 
#
# Total GULP energy -89410.152555 kJ/mol
# GULP energy per Si atom -5588.134535 kJ/mol
# Density = 2.526179 g / cm^3
# Si number density = 25.319418 Si / 1000 Ang^3
#
#
#
# Elastic Constant Matrix: (Units=GPa)
#
#
# Indices 1 2 3 4 5 6 
#
# 1 55.4230 33.9391 7.6825 -16.5776 9.0390 -2.9339
# 2 33.9391 114.5907 46.2139 -41.2353 1.6181 -9.7252
# 3 7.6825 46.2139 118.2784 -27.1713 0.6979 -1.4104
# 4 -16.5776 -41.2353 -27.1713 45.7499 -1.1492 -2.2929
# 5 9.0390 1.6181 0.6979 -1.1492 38.6116 -0.2996
# 6 -2.9339 -9.7252 -1.4104 -2.2929 -0.2996 32.4592
#
#
#
# Elastic Compliance Matrix: (Units=1/GPa)
#
#
# Indices 1 2 3 4 5 6 
#
# 1 0.023645 -0.006186 0.001833 0.003981 -0.005186 0.000597
# 2 -0.006186 0.016130 -0.003429 0.010534 0.001186 0.004880
# 3 0.001833 -0.003429 0.010555 0.003826 -0.000363 -0.000136
# 4 0.003981 0.010534 0.003826 0.035369 -0.000342 0.006178
# 5 -0.005186 0.001186 -0.000363 -0.000342 0.027060 0.000096
# 6 0.000597 0.004880 -0.000136 0.006178 0.000096 0.032755
#
#
# Mechanical properties :
#
#
# Convention : Reuss Voigt Hill
#
# Bulk Modulus (GPa) = 28.76380 51.55147 40.15764
# Shear Modulus (GPa) = 28.95732 36.72792 32.84262
#
# Velocity S-wave (km/s) = 3.38550 3.81278 3.60548
# Velocity P-wave (km/s) = 5.16403 6.30775 5.76433
#
# Compressibility (1/GPa) = 0.03476592
#
# Stress axis : x y z
#
# Youngs Moduli (GPa) = 42.29183 61.99538 94.74227
#
# Poissons Ratio (x) = 0.38352 -0.17371
# Poissons Ratio (y) = 0.26163 0.32491
# Poissons Ratio (z) = -0.07754 0.21261
#
# Static dielectric constant tensor:
#      x y z
#    x 2.092930 0.017410 0.092500 
#    y 0.017410 2.048090 0.067930 
#    z 0.092500 0.067930 2.120530 
# 
# From -- ./inp_files/13418.got.cif
#   From: 2010.05.17/outbox.cif.g08.bks.cpg/sg2_7_cif.got.tgz:13418.got - 2010.06.03 11:33:40.
