data_PCOD9026249
_publ_section_title
;
Structure prediction by ZEFSAII (Michael W. Deem and Ramdas Pophale) SiO2 
 PCOD9026249
Probable space group: P -1
;
_chemical_formula_sum "Si O2"
_cell_formula_units_Z 11
_cell_length_a 17.294555
_cell_length_b 9.658968
_cell_length_c 14.234184
_cell_angle_alpha 148.932025
_cell_angle_beta 157.374954
_cell_angle_gamma 40.280242
_cell_volume 467.418494
_symmetry_space_group_name_H-M "P -1"
_symmetry_group_IT_number 2
_symmetry_cell_setting 'triclinic'
loop_
_space_group_symop_operation_xyz
x,y,z
-x,-y,-z
loop_
_atom_site_type_symbol
_atom_site_label
_atom_site_fract_x
_atom_site_fract_y
_atom_site_fract_z
Si Si1 0.708651 0.608328 0.095657
Si Si2 0.371387 0.186438 0.404774
Si Si3 0.887177 0.209457 0.589404
Si Si4 0.703427 0.648058 0.767944
Si Si5 0.118524 0.457980 0.404384
Si Si6 0.500000 0.500000 0.000000
O O1 0.638692 0.582268 0.109052
O O2 0.897777 0.445940 0.194173
O O3 0.776083 0.916926 0.321990
O O4 0.520583 0.471820 0.742771
O O5 0.340784 0.120515 0.222282
O O6 0.165154 0.218032 0.246560
O O7 0.500000 0.000000 0.500000
O O8 0.798312 0.430427 0.683537
O O9 0.863301 0.289858 0.501534
O O10 0.125418 0.241975 0.902012
O O11 0.500000 0.500000 0.500000
O O12 0.293309 0.478864 0.689344
#
# Coordination Sequence:
#
# PCOD9026249 Si02
#       6
#     2   2   2   2   2   1
#     4  11  23  42  66  92 126 166 211 262 311 371
#     4  10  24  41  60  91 128 167 209 254 312 372
#     4  10  23  41  66  96 123 162 213 258 311 374
#     4  10  22  41  65  94 127 162 203 259 317 371
#     4  10  22  41  63  91 124 163 209 261 315 368
#     4  10  24  38  58  94 126 162 206 256 312 364
#
# _framework density 23.533515000000001
#
# number of rings (size 3 to 8) (size 9 to 14) (size 15 to 20)
#    0.000    1.818    0.000    2.182    0.000   17.455 
#    0.000    0.000    0.000    0.000    0.000    0.000 
#    0.000    0.000    0.000    0.000    0.000    0.000 
#
# Total GULP energy -61297.183175 kJ/mol
# GULP energy per Si atom -5572.471198 kJ/mol
# Density = 2.347995 g / cm^3
# Si number density = 23.533515 Si / 1000 Ang^3
#
#
#
# Elastic Constant Matrix: (Units=GPa)
#
#
# Indices 1 2 3 4 5 6 
#
# 1 97.6390 14.0290 8.9882 -13.5454 25.9990 18.4481
# 2 14.0290 70.3501 12.6033 -10.9687 -0.5751 20.9258
# 3 8.9882 12.6033 88.5020 -15.8036 9.1786 10.2281
# 4 -13.5454 -10.9687 -15.8036 45.9073 2.5933 -13.4460
# 5 25.9990 -0.5751 9.1786 2.5933 50.2230 -9.5731
# 6 18.4481 20.9258 10.2281 -13.4460 -9.5731 38.7708
#
#
#
# Elastic Compliance Matrix: (Units=1/GPa)
#
#
# Indices 1 2 3 4 5 6 
#
# 1 0.014727 -0.000223 0.000998 0.002660 -0.009584 -0.008595
# 2 -0.000223 0.017247 -0.001078 0.001171 -0.001231 -0.008816
# 3 0.000998 -0.001078 0.012727 0.003795 -0.003589 -0.002821
# 4 0.002660 0.001171 0.003795 0.025899 -0.002345 0.005504
# 5 -0.009584 -0.001231 -0.003589 -0.002345 0.027973 0.012265
# 6 -0.008595 -0.008816 -0.002821 0.005504 0.012265 0.040322
#
#
# Mechanical properties :
#
#
# Convention : Reuss Voigt Hill
#
# Bulk Modulus (GPa) = 22.67750 36.41469 29.54609
# Shear Modulus (GPa) = 32.42575 41.70492 37.06533
#
# Velocity S-wave (km/s) = 3.71597 4.21426 3.97293
# Velocity P-wave (km/s) = 5.29797 6.25996 5.79895
#
# Compressibility (1/GPa) = 0.04409657
#
# Stress axis : x y z
#
# Youngs Moduli (GPa) = 67.90317 57.98073 78.57242
#
# Poissons Ratio (x) = 0.01292 -0.07844
# Poissons Ratio (y) = 0.01513 0.08468
# Poissons Ratio (z) = -0.06779 0.06249
#
# Static dielectric constant tensor:
#      x y z
#    x 1.878450 -0.065620 -0.014000 
#    y -0.065620 2.022880 0.014320 
#    z -0.014000 0.014320 1.827350 
# 
# From -- ./inp_files/317370.got.cif
#   From: 2010.05.17/outbox.cif.g08.bks.cpg/sg2_159_cif.got.tgz:317370.got - 2010.06.03 11:33:40.
