data_PCOD9026891
_publ_section_title
;
Structure prediction by ZEFSAII (Michael W. Deem and Ramdas Pophale) SiO2 
 PCOD9026891
Probable space group: P -1
;
_chemical_formula_sum "Si O2"
_cell_formula_units_Z 14
_cell_length_a 6.367517
_cell_length_b 12.677404
_cell_length_c 23.178743
_cell_angle_alpha 30.814357
_cell_angle_beta 89.429773
_cell_angle_gamma 112.310098
_cell_volume 625.366639
_symmetry_space_group_name_H-M "P -1"
_symmetry_group_IT_number 2
_symmetry_cell_setting 'triclinic'
loop_
_space_group_symop_operation_xyz
x,y,z
-x,-y,-z
loop_
_atom_site_type_symbol
_atom_site_label
_atom_site_fract_x
_atom_site_fract_y
_atom_site_fract_z
Si Si1 0.877753 0.823401 0.202041
Si Si2 0.299293 0.158965 0.682487
Si Si3 0.378449 0.761346 0.890232
Si Si4 0.312406 0.324914 0.161535
Si Si5 0.835613 0.290858 0.829527
Si Si6 0.285185 0.438081 0.844246
Si Si7 0.285337 0.355428 0.355539
O O1 0.886444 0.893540 0.235753
O O2 0.512889 0.475430 0.352817
O O3 0.093970 0.817758 0.170598
O O4 0.994445 0.116779 0.030890
O O5 0.500000 0.500000 0.500000
O O6 0.477833 0.076532 0.738808
O O7 0.054189 0.936470 0.735010
O O8 0.526860 0.722177 0.859778
O O9 0.419554 0.644254 0.001280
O O10 0.000000 0.500000 0.000000
O O11 0.424825 0.325596 0.222463
O O12 0.850802 0.522033 0.691637
O O13 0.117306 0.492536 0.782638
O O14 0.500000 0.000000 0.000000
O O15 0.448687 0.427099 0.798424
O O16 0.000000 0.000000 0.500000
#
# Coordination Sequence:
#
# PCOD9026891 Si02
#       7
#     2   2   2   2   2   2   2
#     4  11  23  42  69 101 129 177 231 267 331 411
#     4  11  26  44  65  99 142 178 223 273 342 397
#     4   9  19  41  66  91 132 172 222 273 321 392
#     4  10  22  41  66 102 131 169 233 271 324 403
#     4  11  21  45  72  98 129 174 225 278 335 397
#     4  11  22  40  72 105 127 172 233 269 326 417
#     4  11  25  42  66 101 137 167 217 283 347 390
#
# _framework density 22.386868
#
# number of rings (size 3 to 8) (size 9 to 14) (size 15 to 20)
#    0.000    1.429    2.857    3.429    2.000    8.571 
#    5.143    0.000    0.000    0.000    0.000    0.000 
#    0.000    0.000    0.000    0.000    0.000    0.000 
#
# Total GULP energy -77975.815603 kJ/mol
# GULP energy per Si atom -5569.701115 kJ/mol
# Density = 2.233591 g / cm^3
# Si number density = 22.386868 Si / 1000 Ang^3
#
#
#
# Elastic Constant Matrix: (Units=GPa)
#
#
# Indices 1 2 3 4 5 6 
#
# 1 108.9487 20.8616 27.4062 -3.6106 20.7383 1.4338
# 2 20.8616 106.8332 10.2558 -9.4074 -2.2566 17.5228
# 3 27.4062 10.2558 88.4001 -10.1195 14.7433 0.1203
# 4 -3.6106 -9.4074 -10.1195 31.7998 -2.0786 -10.4027
# 5 20.7383 -2.2566 14.7433 -2.0786 23.8252 -12.6747
# 6 1.4338 17.5228 0.1203 -10.4027 -12.6747 24.0560
#
#
#
# Elastic Compliance Matrix: (Units=1/GPa)
#
#
# Indices 1 2 3 4 5 6 
#
# 1 0.012862 -0.001439 -0.001595 -0.003641 -0.015764 -0.009591
# 2 -0.001439 0.011160 -0.000456 -0.000258 -0.002457 -0.009447
# 3 -0.001595 -0.000456 0.013552 0.002457 -0.008434 -0.003022
# 4 -0.003641 -0.000258 0.002457 0.043083 0.021541 0.030373
# 5 -0.015764 -0.002457 -0.008434 0.021541 0.095859 0.062593
# 6 -0.009591 -0.009447 -0.003022 0.030373 0.062593 0.095151
#
#
# Mechanical properties :
#
#
# Convention : Reuss Voigt Hill
#
# Bulk Modulus (GPa) = 32.68593 46.80324 39.74458
# Shear Modulus (GPa) = 17.31046 32.31342 24.81194
#
# Velocity S-wave (km/s) = 2.78374 3.80334 3.33276
# Velocity P-wave (km/s) = 4.99645 6.34344 5.70980
#
# Compressibility (1/GPa) = 0.03059420
#
# Stress axis : x y z
#
# Youngs Moduli (GPa) = 77.75026 89.60572 73.79237
#
# Poissons Ratio (x) = 0.12893 0.11770
# Poissons Ratio (y) = 0.11188 0.03362
# Poissons Ratio (z) = 0.12402 0.04082
#
# Static dielectric constant tensor:
#      x y z
#    x 1.876730 0.059080 -0.014890 
#    y 0.059080 1.863030 -0.027380 
#    z -0.014890 -0.027380 1.901530 
# 
# From -- ./inp_files/26886.got.cif
#   From: 2010.05.17/outbox.cif.g08.bks.cpg/sg2_14_cif.got.tgz:26886.got - 2010.06.03 11:33:40.
