data_PCOD9026246
_publ_section_title
;
Structure prediction by ZEFSAII (Michael W. Deem and Ramdas Pophale) SiO2 
 PCOD9026246
Probable space group: P -1
;
_chemical_formula_sum "Si O2"
_cell_formula_units_Z 14
_cell_length_a 13.326985
_cell_length_b 10.754689
_cell_length_c 15.280008
_cell_angle_alpha 40.720987
_cell_angle_beta 117.575608
_cell_angle_gamma 145.765573
_cell_volume 719.431788
_symmetry_space_group_name_H-M "P -1"
_symmetry_group_IT_number 2
_symmetry_cell_setting 'triclinic'
loop_
_space_group_symop_operation_xyz
x,y,z
-x,-y,-z
loop_
_atom_site_type_symbol
_atom_site_label
_atom_site_fract_x
_atom_site_fract_y
_atom_site_fract_z
Si Si1 0.125572 0.306533 0.325349
Si Si2 0.365475 0.280050 0.933209
Si Si3 0.866832 0.259319 0.158060
Si Si4 0.711383 0.169651 0.750963
Si Si5 0.489085 0.207931 0.857308
Si Si6 0.949246 0.610090 0.178045
Si Si7 0.463469 0.844285 0.660542
O O1 0.256046 0.631897 0.264863
O O2 0.284144 0.419619 0.268210
O O3 0.966798 0.204318 0.260179
O O4 0.000000 0.000000 0.500000
O O5 0.385215 0.187521 0.901451
O O6 0.478427 0.634107 0.776772
O O7 0.422964 0.196613 0.072958
O O8 0.134764 0.001076 0.015246
O O9 0.882685 0.422138 0.160024
O O10 0.643577 0.945840 0.200082
O O11 0.000000 0.500000 0.000000
O O12 0.930968 0.379838 0.720437
O O13 0.618574 0.121370 0.651120
O O14 0.500000 0.000000 0.000000
O O15 0.758200 0.418106 0.253855
O O16 0.500000 0.000000 0.500000
#
# Coordination Sequence:
#
# PCOD9026246 Si02
#       7
#     2   2   2   2   2   2   2
#     4  11  24  39  63  95 129 165 198 260 328 363
#     4  10  22  41  63  91 120 165 211 244 307 377
#     4  11  19  39  67  97 120 161 211 252 309 387
#     4   9  21  44  60  87 123 160 209 249 306 375
#     4  12  20  39  66  95 126 160 211 260 306 377
#     4   9  21  40  65  83 126 157 204 252 308 357
#     4  12  25  40  63  91 121 165 211 258 307 356
#
# _framework density 19.459800999999999
#
# number of rings (size 3 to 8) (size 9 to 14) (size 15 to 20)
#    0.857    0.571    4.286    1.714    0.000    4.571 
#    0.000    0.000    0.000    0.000    0.000    0.000 
#    0.000    0.000    0.000    0.000    0.000    0.000 
#
# Total GULP energy -77972.724910 kJ/mol
# GULP energy per Si atom -5569.480351 kJ/mol
# Density = 1.941551 g / cm^3
# Si number density = 19.459801 Si / 1000 Ang^3
#
#
#
# Elastic Constant Matrix: (Units=GPa)
#
#
# Indices 1 2 3 4 5 6 
#
# 1 67.4686 18.3130 37.1651 -0.7253 -14.3850 12.0583
# 2 18.3130 93.3274 32.7076 28.8380 0.0226 16.5436
# 3 37.1651 32.7076 125.8225 19.1294 -8.2628 8.7485
# 4 -0.7253 28.8380 19.1294 29.3750 4.0504 1.7492
# 5 -14.3850 0.0226 -8.2628 4.0504 21.6522 -2.1067
# 6 12.0583 16.5436 8.7485 1.7492 -2.1067 16.6218
#
#
#
# Elastic Compliance Matrix: (Units=1/GPa)
#
#
# Indices 1 2 3 4 5 6 
#
# 1 0.022777 -0.002448 -0.005509 0.005661 0.010962 -0.010394
# 2 -0.002448 0.019804 -0.000564 -0.018200 0.000013 -0.015721
# 3 -0.005509 -0.000564 0.010905 -0.006915 0.001773 -0.000229
# 4 0.005661 -0.018200 -0.006915 0.057098 -0.008513 0.010560
# 5 0.010962 0.000013 0.001773 -0.008513 0.055644 -0.000950
# 6 -0.010394 -0.015721 -0.000229 0.010560 -0.000950 0.082238
#
#
# Mechanical properties :
#
#
# Convention : Reuss Voigt Hill
#
# Bulk Modulus (GPa) = 27.43999 51.44334 39.44166
# Shear Modulus (GPa) = 18.00791 26.75864 22.38328
#
# Velocity S-wave (km/s) = 3.04532 3.71222 3.39519
# Velocity P-wave (km/s) = 5.14750 6.69830 5.97344
#
# Compressibility (1/GPa) = 0.03644317
#
# Stress axis : x y z
#
# Youngs Moduli (GPa) = 43.90459 50.49611 91.69796
#
# Poissons Ratio (x) = 0.12361 0.50521
# Poissons Ratio (y) = 0.10747 0.05171
# Poissons Ratio (z) = 0.24189 0.02847
#
# Static dielectric constant tensor:
#      x y z
#    x 1.709000 -0.010390 0.007810 
#    y -0.010390 1.705440 -0.019920 
#    z 0.007810 -0.019920 1.688730 
# 
# From -- ./inp_files/532338.got.cif
#   From: 2010.05.17/outbox.cif.g08.bks.cpg/sg2_267_cif.got.tgz:532338.got - 2010.06.03 11:33:40.
