data_PCOD9026620
_publ_section_title
;
Structure prediction by ZEFSAII (Michael W. Deem and Ramdas Pophale) SiO2 
 PCOD9026620
Probable space group: P -1
;
_chemical_formula_sum "Si O2"
_cell_formula_units_Z 16
_cell_length_a 8.787184
_cell_length_b 15.027734
_cell_length_c 8.019735
_cell_angle_alpha 111.097575
_cell_angle_beta 123.062331
_cell_angle_gamma 102.733738
_cell_volume 700.593877
_symmetry_space_group_name_H-M "P -1"
_symmetry_group_IT_number 2
_symmetry_cell_setting 'triclinic'
loop_
_space_group_symop_operation_xyz
x,y,z
-x,-y,-z
loop_
_atom_site_type_symbol
_atom_site_label
_atom_site_fract_x
_atom_site_fract_y
_atom_site_fract_z
Si Si1 0.550753 0.700115 0.353697
Si Si2 0.088269 0.630828 0.666127
Si Si3 0.570856 0.737714 0.997443
Si Si4 0.983164 0.184764 0.262585
Si Si5 0.247821 0.914817 0.271037
Si Si6 0.926406 0.974205 0.251134
Si Si7 0.113402 0.677578 0.108746
Si Si8 0.376311 0.463495 0.220245
O O1 0.591049 0.746927 0.219031
O O2 0.778593 0.777229 0.633259
O O3 0.340357 0.691929 0.299264
O O4 0.493117 0.572518 0.246188
O O5 0.000000 0.500000 0.500000
O O6 0.987545 0.699194 0.574787
O O7 0.327959 0.696057 0.787147
O O8 0.087389 0.647224 0.875552
O O9 0.719480 0.849468 0.055792
O O10 0.608600 0.639738 0.902918
O O11 0.902039 0.076388 0.253696
O O12 0.807189 0.136498 0.980633
O O13 0.153194 0.801390 0.247700
O O14 0.111993 0.972139 0.258187
O O15 0.500000 0.000000 0.500000
O O16 0.000000 0.000000 0.500000
O O17 0.878394 0.582676 0.968215
O O18 0.500000 0.500000 0.500000
#
# Coordination Sequence:
#
# PCOD9026620 Si02
#       8
#     2   2   2   2   2   2   2   2
#     4  11  23  42  70  95 138 182 226 277 359 408
#     4  10  22  43  67  98 138 178 225 280 342 410
#     4  11  24  44  67  96 141 183 221 288 351 405
#     4  11  24  44  73 101 133 185 234 278 353 416
#     4  11  24  46  72  96 138 181 229 284 349 412
#     4  12  25  45  68 100 140 176 235 287 339 416
#     4  10  22  41  65 101 132 174 230 283 339 409
#     4  12  23  42  68 102 135 179 237 293 340 411
#
# _framework density 22.837769999999999
#
# number of rings (size 3 to 8) (size 9 to 14) (size 15 to 20)
#    0.000    1.000    2.500    4.875    3.500    1.500 
#    0.000    1.250    0.000    0.000    0.000    0.000 
#    0.000    0.000    0.000    0.000    0.000    0.000 
#
# Total GULP energy -89345.593064 kJ/mol
# GULP energy per Si atom -5584.099566 kJ/mol
# Density = 2.278579 g / cm^3
# Si number density = 22.837770 Si / 1000 Ang^3
#
#
#
# Elastic Constant Matrix: (Units=GPa)
#
#
# Indices 1 2 3 4 5 6 
#
# 1 81.9430 34.2189 26.7315 11.6395 26.9526 -8.0673
# 2 34.2189 162.0482 34.8415 26.8024 18.6141 -12.1976
# 3 26.7315 34.8415 98.0269 19.2009 31.8482 4.6431
# 4 11.6395 26.8024 19.2009 26.8776 1.4824 5.2091
# 5 26.9526 18.6141 31.8482 1.4824 42.6562 12.1131
# 6 -8.0673 -12.1976 4.6431 5.2091 12.1131 37.0977
#
#
#
# Elastic Compliance Matrix: (Units=1/GPa)
#
#
# Indices 1 2 3 4 5 6 
#
# 1 0.019686 0.000005 0.001539 -0.010851 -0.016321 0.010942
# 2 0.000005 0.008818 0.000271 -0.009857 -0.005421 0.006020
# 3 0.001539 0.000271 0.016721 -0.013031 -0.014514 0.004900
# 4 -0.010851 -0.009857 -0.013031 0.063748 0.024624 -0.020961
# 5 -0.016321 -0.005421 -0.014514 0.024624 0.052995 -0.024276
# 6 0.010942 0.006020 0.004900 -0.020961 -0.024276 0.041572
#
#
# Mechanical properties :
#
#
# Convention : Reuss Voigt Hill
#
# Bulk Modulus (GPa) = 20.46835 59.28911 39.87873
# Shear Modulus (GPa) = 23.12744 37.74139 30.43442
#
# Velocity S-wave (km/s) = 3.18572 4.06961 3.65449
# Velocity P-wave (km/s) = 4.74486 6.93539 5.94194
#
# Compressibility (1/GPa) = 0.04885592
#
# Stress axis : x y z
#
# Youngs Moduli (GPa) = 50.79757 113.40780 59.80504
#
# Poissons Ratio (x) = -0.00057 -0.09206
# Poissons Ratio (y) = -0.00026 -0.01622
# Poissons Ratio (z) = -0.07820 -0.03076
#
# Static dielectric constant tensor:
#      x y z
#    x 1.843130 0.007270 0.030080 
#    y 0.007270 1.672180 -0.136600 
#    z 0.030080 -0.136600 1.824580 
# 
# From -- ./inp_files/208561.got.cif
#   From: 2010.05.17/outbox.cif.g08.bks.cpg/sg2_105_cif.got.tgz:208561.got - 2010.06.03 11:33:40.
