data_PCOD9026513
_publ_section_title
;
Structure prediction by ZEFSAII (Michael W. Deem and Ramdas Pophale) SiO2 
 PCOD9026513
Probable space group: P -1
;
_chemical_formula_sum "Si O2"
_cell_formula_units_Z 15
_cell_length_a 13.505710
_cell_length_b 8.527141
_cell_length_c 12.313960
_cell_angle_alpha 103.959088
_cell_angle_beta 142.815701
_cell_angle_gamma 96.181479
_cell_volume 714.862394
_symmetry_space_group_name_H-M "P -1"
_symmetry_group_IT_number 2
_symmetry_cell_setting 'triclinic'
loop_
_space_group_symop_operation_xyz
x,y,z
-x,-y,-z
loop_
_atom_site_type_symbol
_atom_site_label
_atom_site_fract_x
_atom_site_fract_y
_atom_site_fract_z
Si Si1 0.333468 0.789873 0.201534
Si Si2 0.338013 0.551269 0.356512
Si Si3 0.000000 0.000000 0.500000
Si Si4 0.034290 0.849900 0.068099
Si Si5 0.084809 0.657904 0.758322
Si Si6 0.208791 0.755402 0.650255
Si Si7 0.479134 0.854055 0.709820
Si Si8 0.900643 0.967083 0.162317
O O1 0.384684 0.674951 0.309050
O O2 0.226757 0.868341 0.196266
O O3 0.491831 0.965835 0.301743
O O4 0.187198 0.658063 0.958276
O O5 0.500000 0.500000 0.500000
O O6 0.351615 0.673790 0.493485
O O7 0.133600 0.362912 0.136816
O O8 0.097923 0.867213 0.558102
O O9 0.902878 0.925027 0.282503
O O10 0.019910 0.896904 0.187658
O O11 0.000000 0.000000 0.000000
O O12 0.229544 0.738413 0.795116
O O13 0.920902 0.455862 0.543870
O O14 0.015322 0.808113 0.738627
O O15 0.393791 0.844352 0.751706
O O16 0.687996 0.878253 0.912342
#
# Coordination Sequence:
#
# PCOD9026513 Si02
#       8
#     2   2   1   2   2   2   2   2
#     4  11  24  41  65  96 132 179 220 265 331 391
#     4  12  25  42  63 100 134 175 215 274 328 389
#     4  10  24  40  66  94 120 166 228 264 322 384
#     4  12  22  42  68  95 133 176 223 266 323 398
#     4   9  20  41  64  93 125 172 220 261 320 400
#     4  10  22  41  68  94 127 172 221 269 330 380
#     4  11  23  42  67  94 136 172 213 274 330 385
#     4  10  22  41  64  94 129 169 215 275 315 393
#
# _framework density 20.983059999999998
#
# number of rings (size 3 to 8) (size 9 to 14) (size 15 to 20)
#    0.000    1.333    4.000    1.600    3.733    4.800 
#    0.000    0.000    0.000   11.200    0.000    0.000 
#    0.000    0.000    0.000    0.000    0.000    0.000 
#
# Total GULP energy -83582.842650 kJ/mol
# GULP energy per Si atom -5572.189510 kJ/mol
# Density = 2.093530 g / cm^3
# Si number density = 20.983060 Si / 1000 Ang^3
#
#
#
# Elastic Constant Matrix: (Units=GPa)
#
#
# Indices 1 2 3 4 5 6 
#
# 1 114.3874 42.4909 35.7084 3.0012 -12.2450 9.4600
# 2 42.4909 73.9120 26.9428 -13.0513 -2.0328 3.3177
# 3 35.7084 26.9428 51.2086 -0.6516 -28.0161 -0.6240
# 4 3.0012 -13.0513 -0.6516 46.4801 3.5700 -11.1297
# 5 -12.2450 -2.0328 -28.0161 3.5700 36.8095 3.6650
# 6 9.4600 3.3177 -0.6240 -11.1297 3.6650 29.4786
#
#
#
# Elastic Compliance Matrix: (Units=1/GPa)
#
#
# Indices 1 2 3 4 5 6 
#
# 1 0.013452 -0.005919 -0.006193 -0.003913 0.000342 -0.005302
# 2 -0.005919 0.023692 -0.015804 0.008834 -0.013941 0.003967
# 3 -0.006193 -0.015804 0.053009 -0.006825 0.038319 -0.002452
# 4 -0.003913 0.008834 -0.006825 0.027741 -0.009876 0.011818
# 5 0.000342 -0.013941 0.038319 -0.009876 0.057490 -0.008606
# 6 -0.005302 0.003967 -0.002452 0.011818 -0.008606 0.040658
#
#
# Mechanical properties :
#
#
# Convention : Reuss Voigt Hill
#
# Bulk Modulus (GPa) = 29.13768 49.97693 39.55730
# Shear Modulus (GPa) = 17.64818 31.51135 24.57976
#
# Velocity S-wave (km/s) = 2.90326 3.87945 3.42630
# Velocity P-wave (km/s) = 5.01548 6.62845 5.87755
#
# Compressibility (1/GPa) = 0.03431983
#
# Stress axis : x y z
#
# Youngs Moduli (GPa) = 74.33717 42.20858 18.86465
#
# Poissons Ratio (x) = 0.24985 0.11684
# Poissons Ratio (y) = 0.44003 0.29813
# Poissons Ratio (z) = 0.46041 0.66706
#
# Static dielectric constant tensor:
#      x y z
#    x 1.780180 0.023300 0.002550 
#    y 0.023300 1.828330 0.035350 
#    z 0.002550 0.035350 1.754020 
# 
# From -- ./inp_files/241509.got.cif
#   From: 2010.05.17/outbox.cif.g08.bks.cpg/sg2_121_cif.got.tgz:241509.got - 2010.06.03 11:33:40.
