data_PCOD9026723
_publ_section_title
;
Structure prediction by ZEFSAII (Michael W. Deem and Ramdas Pophale) SiO2 
 PCOD9026723
Probable space group: P -1
;
_chemical_formula_sum "Si O2"
_cell_formula_units_Z 16
_cell_length_a 28.298097
_cell_length_b 12.199336
_cell_length_c 9.792871
_cell_angle_alpha 41.932883
_cell_angle_beta 27.904787
_cell_angle_gamma 30.501487
_cell_volume 800.863093
_symmetry_space_group_name_H-M "P -1"
_symmetry_group_IT_number 2
_symmetry_cell_setting 'triclinic'
loop_
_space_group_symop_operation_xyz
x,y,z
-x,-y,-z
loop_
_atom_site_type_symbol
_atom_site_label
_atom_site_fract_x
_atom_site_fract_y
_atom_site_fract_z
Si Si1 0.855470 0.966244 0.612825
Si Si2 0.933988 0.711840 0.379847
Si Si3 0.274263 0.262737 0.287321
Si Si4 0.535383 0.032623 0.681915
Si Si5 0.086004 0.737165 0.731347
Si Si6 0.401520 0.379454 0.237388
Si Si7 0.016595 0.647694 0.731522
Si Si8 0.437776 0.704395 0.835534
O O1 0.888707 0.888059 0.445972
O O2 0.911367 0.779338 0.756290
O O3 0.923237 0.065553 0.384757
O O4 0.698203 0.149595 0.865373
O O5 0.808640 0.773601 0.560675
O O6 0.000000 0.500000 0.500000
O O7 0.031087 0.683461 0.043891
O O8 0.358573 0.090816 0.352159
O O9 0.161011 0.494127 0.432215
O O10 0.387993 0.222702 0.941152
O O11 0.538694 0.850783 0.766185
O O12 0.574142 0.142277 0.387046
O O13 0.241866 0.533400 0.495379
O O14 0.008697 0.790672 0.737618
O O15 0.446137 0.361739 0.296581
O O16 0.447959 0.506331 0.937678
O O17 0.000000 0.500000 0.000000
#
# Coordination Sequence:
#
# PCOD9026723 Si02
#       8
#     2   2   2   2   2   2   2   2
#     4  11  24  41  64  96 130 164 213 263 322 380
#     4  12  24  40  63  94 128 164 212 262 317 381
#     4  11  24  40  63  97 122 166 220 256 317 385
#     4  11  23  42  66  89 130 169 214 263 318 376
#     4  11  24  40  66  94 129 169 207 263 326 377
#     4  10  22  41  65  94 127 163 219 262 311 389
#     4  12  21  42  67  92 128 167 212 259 315 386
#     4  10  23  40  66  95 125 170 213 262 321 375
#
# _framework density 19.978445000000001
#
# number of rings (size 3 to 8) (size 9 to 14) (size 15 to 20)
#    0.000    1.000    3.750    2.625    3.500    0.000 
#    0.000    3.750    0.000    0.000    0.000    0.000 
#    0.000    0.000    0.000    0.000    0.000    0.000 
#
# Total GULP energy -89336.056939 kJ/mol
# GULP energy per Si atom -5583.503559 kJ/mol
# Density = 1.993297 g / cm^3
# Si number density = 19.978445 Si / 1000 Ang^3
#
#
#
# Elastic Constant Matrix: (Units=GPa)
#
#
# Indices 1 2 3 4 5 6 
#
# 1 115.0702 3.8614 31.3113 -9.0159 3.7280 14.4206
# 2 3.8614 43.5074 26.2051 -6.6566 7.8060 12.8965
# 3 31.3113 26.2051 61.5598 -7.6661 9.2645 10.5239
# 4 -9.0159 -6.6566 -7.6661 24.7164 2.0552 -6.0599
# 5 3.7280 7.8060 9.2645 2.0552 24.3432 8.0485
# 6 14.4206 12.8965 10.5239 -6.0599 8.0485 35.8239
#
#
#
# Elastic Compliance Matrix: (Units=1/GPa)
#
#
# Indices 1 2 3 4 5 6 
#
# 1 0.010967 0.004363 -0.006593 0.002158 0.000504 -0.003796
# 2 0.004363 0.035383 -0.014619 0.004848 -0.004060 -0.008467
# 3 -0.006593 -0.014619 0.026663 0.002791 -0.005260 0.001738
# 4 0.002158 0.004848 0.002791 0.045699 -0.008886 0.006293
# 5 0.000504 -0.004060 -0.005260 -0.008886 0.048207 -0.009530
# 6 -0.003796 -0.008467 0.001738 0.006293 -0.009530 0.035186
#
#
# Mechanical properties :
#
#
# Convention : Reuss Voigt Hill
#
# Bulk Modulus (GPa) = 25.43616 38.09923 31.76770
# Shear Modulus (GPa) = 20.08787 27.56068 23.82427
#
# Velocity S-wave (km/s) = 3.17437 3.71822 3.45700
# Velocity P-wave (km/s) = 5.11810 6.12741 5.64535
#
# Compressibility (1/GPa) = 0.03931411
#
# Stress axis : x y z
#
# Youngs Moduli (GPa) = 91.18669 28.26255 37.50521
#
# Poissons Ratio (x) = -0.12331 0.24728
# Poissons Ratio (y) = -0.39785 0.54828
# Poissons Ratio (z) = 0.60122 0.41316
#
# Static dielectric constant tensor:
#      x y z
#    x 1.536890 0.097630 0.031750 
#    y 0.097630 1.703840 -0.030070 
#    z 0.031750 -0.030070 1.677410 
# 
# From -- ./inp_files/208989.got.cif
#   From: 2010.05.17/outbox.cif.g08.bks.cpg/sg2_105_cif.got.tgz:208989.got - 2010.06.03 11:33:40.
