data_PCOD9026520
_publ_section_title
;
Structure prediction by ZEFSAII (Michael W. Deem and Ramdas Pophale) SiO2 
 PCOD9026520
Probable space group: P -1
;
_chemical_formula_sum "Si O2"
_cell_formula_units_Z 15
_cell_length_a 18.713561
_cell_length_b 12.780901
_cell_length_c 8.341825
_cell_angle_alpha 59.891995
_cell_angle_beta 131.217731
_cell_angle_gamma 153.172781
_cell_volume 655.017769
_symmetry_space_group_name_H-M "P -1"
_symmetry_group_IT_number 2
_symmetry_cell_setting 'triclinic'
loop_
_space_group_symop_operation_xyz
x,y,z
-x,-y,-z
loop_
_atom_site_type_symbol
_atom_site_label
_atom_site_fract_x
_atom_site_fract_y
_atom_site_fract_z
Si Si1 0.373936 0.275273 0.096648
Si Si2 0.517602 0.242939 0.142785
Si Si3 0.270405 0.499514 0.052210
Si Si4 0.034658 0.090253 0.236234
Si Si5 0.960375 0.316354 0.545005
Si Si6 0.557493 0.843491 0.468954
Si Si7 0.500000 0.000000 0.500000
Si Si8 0.931844 0.734924 0.519282
O O1 0.345957 0.131457 0.044027
O O2 0.459997 0.307830 0.356762
O O3 0.500000 0.500000 0.000000
O O4 0.180067 0.124849 0.967353
O O5 0.710468 0.490496 0.333477
O O6 0.498311 0.079625 0.267485
O O7 0.568867 0.340350 0.965628
O O8 0.378882 0.677848 0.223753
O O9 0.173276 0.275028 0.156116
O O10 0.108394 0.401233 0.804878
O O11 0.062318 0.217606 0.324316
O O12 0.042210 0.963785 0.414508
O O13 0.000000 0.500000 0.500000
O O14 0.995244 0.310358 0.417142
O O15 0.749932 0.057078 0.489861
O O16 0.565580 0.951743 0.536938
#
# Coordination Sequence:
#
# PCOD9026520 Si02
#       8
#     2   2   2   2   2   2   1   2
#     4  11  22  40  66  96 135 178 228 273 334 411
#     4  10  22  41  64  94 131 176 219 280 339 398
#     4  11  25  43  69 100 137 177 222 282 348 396
#     4  11  22  42  68 101 136 178 227 277 341 409
#     4  11  25  46  67 100 135 175 229 283 337 405
#     4  11  24  45  66  98 138 177 227 282 335 405
#     4  10  22  42  70  90 130 180 222 278 332 398
#     4  10  23  41  68  95 137 177 221 281 341 401
#
# _framework density 22.900143
#
# number of rings (size 3 to 8) (size 9 to 14) (size 15 to 20)
#    0.000    1.333    2.667    3.200    3.733    5.333 
#    2.400    2.667    0.000    0.000    0.000    0.000 
#    0.000    0.000    0.000    0.000    0.000    0.000 
#
# Total GULP energy -83515.441275 kJ/mol
# GULP energy per Si atom -5567.696085 kJ/mol
# Density = 2.284802 g / cm^3
# Si number density = 22.900143 Si / 1000 Ang^3
#
#
#
# Elastic Constant Matrix: (Units=GPa)
#
#
# Indices 1 2 3 4 5 6 
#
# 1 103.5616 23.7583 11.4822 -0.9281 -8.2474 -8.2665
# 2 23.7583 65.5807 17.4719 -18.4228 -2.5519 7.6448
# 3 11.4822 17.4719 49.5028 -6.3799 -11.2350 -4.3191
# 4 -0.9281 -18.4228 -6.3799 41.6060 2.5555 -1.6899
# 5 -8.2474 -2.5519 -11.2350 2.5555 20.3202 -5.2325
# 6 -8.2665 7.6448 -4.3191 -1.6899 -5.2325 34.7857
#
#
#
# Elastic Compliance Matrix: (Units=1/GPa)
#
#
# Indices 1 2 3 4 5 6 
#
# 1 0.011643 -0.005336 0.000670 -0.002169 0.005938 0.004811
# 2 -0.005336 0.022313 -0.007715 0.008676 -0.006707 -0.007717
# 3 0.000670 -0.007715 0.027142 0.000073 0.016278 0.007677
# 4 -0.002169 0.008676 0.000073 0.028001 -0.003686 -0.001607
# 5 0.005938 -0.006707 0.016278 -0.003686 0.063937 0.014344
# 6 0.004811 -0.007717 0.007677 -0.001607 0.014344 0.034619
#
#
# Mechanical properties :
#
#
# Convention : Reuss Voigt Hill
#
# Bulk Modulus (GPa) = 27.52015 36.00777 31.76396
# Shear Modulus (GPa) = 22.26893 30.40456 26.33674
#
# Velocity S-wave (km/s) = 3.12177 3.64772 3.39495
# Velocity P-wave (km/s) = 5.00375 5.78784 5.41002
#
# Compressibility (1/GPa) = 0.03633701
#
# Stress axis : x y z
#
# Youngs Moduli (GPa) = 85.88645 44.81740 36.84348
#
# Poissons Ratio (x) = 0.23914 -0.02470
# Poissons Ratio (y) = 0.45828 0.28425
# Poissons Ratio (z) = -0.05757 0.34576
#
# Static dielectric constant tensor:
#      x y z
#    x 1.855680 0.001320 -0.002380 
#    y 0.001320 1.884830 -0.008990 
#    z -0.002380 -0.008990 1.866530 
# 
# From -- ./inp_files/333057.got.cif
#   From: 2010.05.17/outbox.cif.g08.bks.cpg/sg2_167_cif.got.tgz:333057.got - 2010.06.03 11:33:40.
