data_PCOD9026497
_publ_section_title
;
Structure prediction by ZEFSAII (Michael W. Deem and Ramdas Pophale) SiO2 
 PCOD9026497
Probable space group: P -1
;
_chemical_formula_sum "Si O2"
_cell_formula_units_Z 14
_cell_length_a 8.366762
_cell_length_b 6.255569
_cell_length_c 26.518610
_cell_angle_alpha 123.844892
_cell_angle_beta 149.537713
_cell_angle_gamma 64.030793
_cell_volume 581.477778
_symmetry_space_group_name_H-M "P -1"
_symmetry_group_IT_number 2
_symmetry_cell_setting 'triclinic'
loop_
_space_group_symop_operation_xyz
x,y,z
-x,-y,-z
loop_
_atom_site_type_symbol
_atom_site_label
_atom_site_fract_x
_atom_site_fract_y
_atom_site_fract_z
Si Si1 0.322973 0.841999 0.018875
Si Si2 0.778463 0.605302 0.911967
Si Si3 0.131634 0.474454 0.833777
Si Si4 0.428331 0.915342 0.346288
Si Si5 0.763071 0.820641 0.323965
Si Si6 0.839405 0.711059 0.517605
Si Si7 0.202770 0.460966 0.356352
O O1 0.596862 0.714605 0.107034
O O2 0.381435 0.149537 0.077813
O O3 0.273794 0.734975 0.934670
O O4 0.996984 0.731408 0.943070
O O5 0.538959 0.360225 0.800855
O O6 0.000000 0.500000 0.000000
O O7 0.820836 0.337604 0.759339
O O8 0.002119 0.504569 0.746089
O O9 0.652575 0.937511 0.361557
O O10 0.645807 0.873280 0.447357
O O11 0.234488 0.160720 0.333033
O O12 0.027422 0.618411 0.370914
O O13 0.898262 0.070483 0.360636
O O14 0.563065 0.586206 0.461961
O O15 0.000000 0.500000 0.500000
#
# Coordination Sequence:
#
# PCOD9026497 Si02
#       7
#     2   2   2   2   2   2   2
#     4  10  22  41  64  93 134 174 218 272 323 387
#     4  11  24  40  64 101 128 172 224 266 328 390
#     4  10  22  43  66  94 135 175 216 272 328 387
#     4  11  24  45  69 100 132 173 222 270 331 395
#     4  12  24  45  68  98 134 172 220 279 321 388
#     4  11  25  47  69  98 135 173 218 272 338 394
#     4  11  25  44  68 101 131 175 222 268 335 396
#
# _framework density 24.076587
#
# number of rings (size 3 to 8) (size 9 to 14) (size 15 to 20)
#    0.000    1.143    2.857    2.571    2.000    0.571 
#    7.714    3.571    0.000    0.000    0.000    0.000 
#    0.000    0.000    0.000    0.000    0.000    0.000 
#
# Total GULP energy -78354.054008 kJ/mol
# GULP energy per Si atom -5596.718143 kJ/mol
# Density = 2.402179 g / cm^3
# Si number density = 24.076587 Si / 1000 Ang^3
#
#
#
# Elastic Constant Matrix: (Units=GPa)
#
#
# Indices 1 2 3 4 5 6 
#
# 1 42.9289 5.5412 10.6939 -2.4256 15.0092 -16.5759
# 2 5.5412 94.7512 36.9705 -4.6661 -26.4251 -13.9713
# 3 10.6939 36.9705 137.8413 14.3159 6.7288 9.6340
# 4 -2.4256 -4.6661 14.3159 37.3095 -1.8957 7.3533
# 5 15.0092 -26.4251 6.7288 -1.8957 34.9823 3.4640
# 6 -16.5759 -13.9713 9.6340 7.3533 3.4640 32.1582
#
#
#
# Elastic Compliance Matrix: (Units=1/GPa)
#
#
# Indices 1 2 3 4 5 6 
#
# 1 0.041376 -0.004929 -0.002049 -0.002866 -0.023514 0.022988
# 2 -0.004929 0.019192 -0.006427 0.004496 0.017617 0.004797
# 3 -0.002049 -0.006427 0.010212 -0.004083 -0.005630 -0.005368
# 4 -0.002866 0.004496 -0.004083 0.030329 0.007655 -0.006060
# 5 -0.023514 0.017617 -0.005630 0.007655 0.054510 -0.010402
# 6 0.022988 0.004797 -0.005368 -0.006060 -0.010402 0.049144
#
#
# Mechanical properties :
#
#
# Convention : Reuss Voigt Hill
#
# Bulk Modulus (GPa) = 22.74357 42.43694 32.59025
# Shear Modulus (GPa) = 20.30617 35.71105 28.00861
#
# Velocity S-wave (km/s) = 2.90728 3.85545 3.41444
# Velocity P-wave (km/s) = 4.55374 6.12237 5.39537
#
# Compressibility (1/GPa) = 0.04396848
#
# Stress axis : x y z
#
# Youngs Moduli (GPa) = 24.16832 52.10488 97.92769
#
# Poissons Ratio (x) = 0.25685 0.20066
# Poissons Ratio (y) = 0.11914 0.62941
# Poissons Ratio (z) = 0.04952 0.33489
#
# Static dielectric constant tensor:
#      x y z
#    x 1.973450 -0.006390 0.011010 
#    y -0.006390 1.860000 0.019880 
#    z 0.011010 0.019880 1.944870 
# 
# From -- ./inp_files/31852.got.cif
#   From: 2010.05.17/outbox.cif.g08.bks.cpg/sg2_16_cif.got.tgz:31852.got - 2010.06.03 11:33:40.
