data_PCOD9026235
_publ_section_title
;
Structure prediction by ZEFSAII (Michael W. Deem and Ramdas Pophale) SiO2 
 PCOD9026235
Probable space group: P -1
;
_chemical_formula_sum "Si O2"
_cell_formula_units_Z 16
_cell_length_a 8.888812
_cell_length_b 14.017910
_cell_length_c 13.523477
_cell_angle_alpha 30.957845
_cell_angle_beta 131.037535
_cell_angle_gamma 117.723745
_cell_volume 632.697854
_symmetry_space_group_name_H-M "P -1"
_symmetry_group_IT_number 2
_symmetry_cell_setting 'triclinic'
loop_
_space_group_symop_operation_xyz
x,y,z
-x,-y,-z
loop_
_atom_site_type_symbol
_atom_site_label
_atom_site_fract_x
_atom_site_fract_y
_atom_site_fract_z
Si Si1 0.817574 0.427949 0.933933
Si Si2 0.177263 0.525833 0.743353
Si Si3 0.236193 0.499034 0.583467
Si Si4 0.255972 0.783825 0.716576
Si Si5 0.465242 0.764966 0.383262
Si Si6 0.660780 0.918363 0.789012
Si Si7 0.988163 0.059024 0.220017
Si Si8 0.728438 0.797451 0.281209
O O1 0.647313 0.608191 0.657956
O O2 0.739850 0.302124 0.095837
O O3 0.910906 0.279341 0.019395
O O4 0.000000 0.500000 0.000000
O O5 0.289349 0.565757 0.655502
O O6 0.271910 0.605099 0.808130
O O7 0.936741 0.634404 0.543689
O O8 0.209937 0.300169 0.949174
O O9 0.288446 0.651140 0.395711
O O10 0.342490 0.289565 0.771977
O O11 0.000000 0.500000 0.500000
O O12 0.437910 0.890351 0.687966
O O13 0.045937 0.935363 0.456307
O O14 0.565671 0.814521 0.282454
O O15 0.375689 0.948417 0.249357
O O16 0.799252 0.994037 0.702233
O O17 0.819585 0.982305 0.154928
#
# Coordination Sequence:
#
# PCOD9026235 Si02
#       8
#     2   2   2   2   2   2   2   2
#     4  12  24  41  64  95 133 171 204 251 313 378
#     4  10  22  41  63  90 125 166 210 257 312 373
#     4  10  22  44  68  91 122 163 210 268 319 362
#     4  11  22  38  62  93 127 167 209 257 309 372
#     4  12  24  41  65  97 127 164 211 257 311 380
#     4  12  23  38  61  94 129 167 209 257 309 375
#     4  11  23  41  62  91 126 169 211 255 310 375
#     4  10  22  44  66  89 123 163 209 264 315 367
#
# _framework density 25.288530999999999
#
# number of rings (size 3 to 8) (size 9 to 14) (size 15 to 20)
#    0.000    1.000    0.000    9.000    0.000    2.000 
#    0.000    9.375    0.000    0.000    0.000    0.000 
#    0.000    0.000    0.000    0.000    0.000    0.000 
#
# Total GULP energy -89565.741213 kJ/mol
# GULP energy per Si atom -5597.858826 kJ/mol
# Density = 2.523097 g / cm^3
# Si number density = 25.288531 Si / 1000 Ang^3
#
#
#
# Elastic Constant Matrix: (Units=GPa)
#
#
# Indices 1 2 3 4 5 6 
#
# 1 161.9525 70.8031 0.9443 -16.9429 -9.0179 -6.8510
# 2 70.8031 149.5634 20.6541 -44.6447 11.1760 -8.5857
# 3 0.9443 20.6541 71.0668 -25.7772 17.8345 2.5737
# 4 -16.9429 -44.6447 -25.7772 44.8303 -6.2046 8.5068
# 5 -9.0179 11.1760 17.8345 -6.2046 39.6542 -6.6797
# 6 -6.8510 -8.5857 2.5737 8.5068 -6.6797 50.6851
#
#
#
# Elastic Compliance Matrix: (Units=1/GPa)
#
#
# Indices 1 2 3 4 5 6 
#
# 1 0.008183 -0.004346 -0.000019 -0.000997 0.003098 0.000946
# 2 -0.004346 0.011973 0.001381 0.010767 -0.003450 -0.000891
# 3 -0.000019 0.001381 0.020547 0.012802 -0.008315 -0.004056
# 4 -0.000997 0.010767 0.012802 0.040691 -0.003710 -0.006279
# 5 0.003098 -0.003450 -0.008315 -0.003710 0.030888 0.004950
# 6 0.000946 -0.000891 -0.004056 -0.006279 0.004950 0.021619
#
#
# Mechanical properties :
#
#
# Convention : Reuss Voigt Hill
#
# Bulk Modulus (GPa) = 28.78842 63.04285 45.91563
# Shear Modulus (GPa) = 33.01479 46.37932 39.69706
#
# Velocity S-wave (km/s) = 3.61712 4.28718 3.96632
# Velocity P-wave (km/s) = 5.37154 7.03492 6.25873
#
# Compressibility (1/GPa) = 0.03473619
#
# Stress axis : x y z
#
# Youngs Moduli (GPa) = 122.20511 83.51858 48.66870
#
# Poissons Ratio (x) = 0.36297 0.00093
# Poissons Ratio (y) = 0.53110 -0.06723
# Poissons Ratio (z) = 0.00232 -0.11537
#
# Static dielectric constant tensor:
#      x y z
#    x 2.011150 -0.003560 -0.051100 
#    y -0.003560 2.036560 0.061950 
#    z -0.051100 0.061950 2.071670 
# 
# From -- ./inp_files/503718.got.cif
#   From: 2010.05.17/outbox.cif.g08.bks.cpg/sg2_252_cif.got.tgz:503718.got - 2010.06.03 11:33:40.
