data_PCOD9026368
_publ_section_title
;
Structure prediction by ZEFSAII (Michael W. Deem and Ramdas Pophale) SiO2 
 PCOD9026368
Probable space group: P -1
;
_chemical_formula_sum "Si O2"
_cell_formula_units_Z 15
_cell_length_a 11.729769
_cell_length_b 8.349559
_cell_length_c 9.034787
_cell_angle_alpha 126.072042
_cell_angle_beta 86.351550
_cell_angle_gamma 116.696701
_cell_volume 613.738162
_symmetry_space_group_name_H-M "P -1"
_symmetry_group_IT_number 2
_symmetry_cell_setting 'triclinic'
loop_
_space_group_symop_operation_xyz
x,y,z
-x,-y,-z
loop_
_atom_site_type_symbol
_atom_site_label
_atom_site_fract_x
_atom_site_fract_y
_atom_site_fract_z
Si Si1 0.384673 0.817807 0.084454
Si Si2 0.318212 0.350043 0.693388
Si Si3 0.725096 0.624135 0.595867
Si Si4 0.663726 0.947641 0.241035
Si Si5 0.000000 0.000000 0.500000
Si Si6 0.935835 0.529027 0.373207
Si Si7 0.642401 0.238409 0.614350
Si Si8 0.799421 0.048850 0.986583
O O1 0.541793 0.954501 0.176264
O O2 0.316504 0.716648 0.194524
O O3 0.323941 0.957663 0.091589
O O4 0.355492 0.605246 0.869455
O O5 0.353940 0.343413 0.514915
O O6 0.385816 0.273482 0.770942
O O7 0.160511 0.171135 0.621714
O O8 0.805463 0.525527 0.448415
O O9 0.648693 0.450891 0.642005
O O10 0.826789 0.876740 0.794627
O O11 0.725855 0.158793 0.465233
O O12 0.756346 0.955270 0.105889
O O13 0.008525 0.771214 0.416339
O O14 0.000000 0.500000 0.500000
O O15 0.903950 0.317974 0.150736
O O16 0.500000 0.000000 0.500000
#
# Coordination Sequence:
#
# PCOD9026368 Si02
#       8
#     2   2   2   2   1   2   2   2
#     4  11  22  41  65 102 142 184 235 286 358 422
#     4  11  22  43  67 100 140 181 238 295 354 422
#     4  11  24  44  70 102 141 185 237 293 356 433
#     4  11  22  40  68 100 142 186 234 294 354 426
#     4  10  22  42  72 102 132 184 236 294 358 416
#     4  11  24  47  75 102 143 187 241 304 361 418
#     4  10  22  41  64 101 140 180 233 285 350 428
#     4  12  23  44  70 101 143 186 233 296 356 428
#
# _framework density 24.440393
#
# number of rings (size 3 to 8) (size 9 to 14) (size 15 to 20)
#    0.000    1.067    4.000    3.200    0.000    2.667 
#    0.000   10.000    0.000    0.000    0.000    0.000 
#    0.000    0.000    0.000    0.000    0.000    0.000 
#
# Total GULP energy -83528.388165 kJ/mol
# GULP energy per Si atom -5568.559211 kJ/mol
# Density = 2.438477 g / cm^3
# Si number density = 24.440393 Si / 1000 Ang^3
#
#
#
# Elastic Constant Matrix: (Units=GPa)
#
#
# Indices 1 2 3 4 5 6 
#
# 1 45.3360 -1.2241 -9.1418 2.7530 22.1984 -13.4881
# 2 -1.2241 130.4698 46.2511 3.3172 10.8051 -16.2647
# 3 -9.1418 46.2511 152.0564 -1.8701 -1.6432 -5.1621
# 4 2.7530 3.3172 -1.8701 44.6772 -5.6583 6.1024
# 5 22.1984 10.8051 -1.6432 -5.6583 20.3663 -1.3913
# 6 -13.4881 -16.2647 -5.1621 6.1024 -1.3913 34.0360
#
#
#
# Elastic Compliance Matrix: (Units=1/GPa)
#
#
# Indices 1 2 3 4 5 6 
#
# 1 0.096719 0.017167 0.000543 -0.028720 -0.119259 0.046889
# 2 0.017167 0.012820 -0.002816 -0.007269 -0.026892 0.012706
# 3 0.000543 -0.002816 0.007491 0.000712 0.001701 -0.000052
# 4 -0.028720 -0.007269 0.000712 0.032747 0.043027 -0.018860
# 5 -0.119259 -0.026892 0.001701 0.043027 0.201393 -0.059336
# 6 0.046889 0.012706 -0.000052 -0.018860 -0.059336 0.054982
#
#
# Mechanical properties :
#
#
# Convention : Reuss Voigt Hill
#
# Bulk Modulus (GPa) = 6.81116 44.40363 25.60740
# Shear Modulus (GPa) = 11.75632 39.28104 25.51868
#
# Velocity S-wave (km/s) = 2.19560 4.01336 3.23479
# Velocity P-wave (km/s) = 3.03651 6.29950 4.94490
#
# Compressibility (1/GPa) = 0.14681784
#
# Stress axis : x y z
#
# Youngs Moduli (GPa) = 10.33925 78.00441 133.49300
#
# Poissons Ratio (x) = -1.33912 -0.07247
# Poissons Ratio (y) = -0.17750 0.37591
# Poissons Ratio (z) = -0.00561 0.21966
#
# Static dielectric constant tensor:
#      x y z
#    x 2.095490 -0.029220 0.007770 
#    y -0.029220 2.008680 -0.054450 
#    z 0.007770 -0.054450 1.955460 
# 
# From -- ./inp_files/293477.got.cif
#   From: 2010.05.17/outbox.cif.g08.bks.cpg/sg2_147_cif.got.tgz:293477.got - 2010.06.03 11:33:40.
