data_PCOD9026918
_publ_section_title
;
Structure prediction by ZEFSAII (Michael W. Deem and Ramdas Pophale) SiO2 
 PCOD9026918
Probable space group: P -1
;
_chemical_formula_sum "Si O2"
_cell_formula_units_Z 8
_cell_length_a 7.375346
_cell_length_b 13.164509
_cell_length_c 10.942486
_cell_angle_alpha 145.087158
_cell_angle_beta 139.976982
_cell_angle_gamma 61.090099
_cell_volume 359.633455
_symmetry_space_group_name_H-M "P -1"
_symmetry_group_IT_number 2
_symmetry_cell_setting 'triclinic'
loop_
_space_group_symop_operation_xyz
x,y,z
-x,-y,-z
loop_
_atom_site_type_symbol
_atom_site_label
_atom_site_fract_x
_atom_site_fract_y
_atom_site_fract_z
Si Si1 0.510669 0.856606 0.173256
Si Si2 0.451694 0.201461 0.590611
Si Si3 0.853894 0.597467 0.115656
Si Si4 0.201022 0.838661 0.748923
O O1 0.404482 0.790237 0.192254
O O2 0.779234 0.779592 0.216439
O O3 0.573774 0.082839 0.443666
O O4 0.290230 0.783972 0.872589
O O5 0.084411 0.097582 0.313599
O O6 0.536228 0.419379 0.807747
O O7 0.065501 0.666388 0.412059
O O8 0.000000 0.500000 0.000000
O O9 0.500000 0.000000 0.000000
#
# Coordination Sequence:
#
# PCOD9026918 Si02
#       4
#     2   2   2   2
#     4  10  22  41  66  88 125 165 198 254 311 351
#     4  10  23  42  64  92 124 160 205 252 304 366
#     4  11  25  42  62  93 126 160 207 252 301 368
#     4  11  23  40  65  94 122 161 209 250 302 369
#
# _framework density 22.244871
#
# number of rings (size 3 to 8) (size 9 to 14) (size 15 to 20)
#    0.000    1.500    0.000    5.250    0.000   16.000 
#    0.000    0.000    0.000    0.000    0.000    0.000 
#    0.000    0.000    0.000    0.000    0.000    0.000 
#
# Total GULP energy -44623.775116 kJ/mol
# GULP energy per Si atom -5577.971889 kJ/mol
# Density = 2.219424 g / cm^3
# Si number density = 22.244871 Si / 1000 Ang^3
#
#
#
# Elastic Constant Matrix: (Units=GPa)
#
#
# Indices 1 2 3 4 5 6 
#
# 1 110.9514 55.1021 67.7727 -2.4068 -14.6203 -39.8056
# 2 55.1021 98.8603 69.2121 -11.9303 -20.6534 -16.1043
# 3 67.7727 69.2121 130.3176 -14.5586 -24.7442 -16.2765
# 4 -2.4068 -11.9303 -14.5586 50.9485 13.1880 -17.4370
# 5 -14.6203 -20.6534 -24.7442 13.1880 63.1198 13.0001
# 6 -39.8056 -16.1043 -16.2765 -17.4370 13.0001 29.0042
#
#
#
# Elastic Compliance Matrix: (Units=1/GPa)
#
#
# Indices 1 2 3 4 5 6 
#
# 1 0.043165 -0.004405 -0.010809 0.028089 -0.017049 0.075257
# 2 -0.004405 0.017844 -0.006598 0.001774 0.001772 0.000433
# 3 -0.010809 -0.006598 0.015546 -0.003922 0.005233 -0.014477
# 4 0.028089 0.001774 -0.003922 0.052865 -0.021738 0.078859
# 5 -0.017049 0.001772 0.005233 -0.021738 0.028391 -0.045271
# 6 0.075257 0.000433 -0.014477 0.078859 -0.045271 0.197578
#
#
# Mechanical properties :
#
#
# Convention : Reuss Voigt Hill
#
# Bulk Modulus (GPa) = 30.36429 80.47811 55.42120
# Shear Modulus (GPa) = 12.19541 38.48398 25.33970
#
# Velocity S-wave (km/s) = 2.34398 4.16386 3.37875
# Velocity P-wave (km/s) = 4.58316 7.70544 6.33952
#
# Compressibility (1/GPa) = 0.03293343
#
# Stress axis : x y z
#
# Youngs Moduli (GPa) = 23.16674 56.04045 64.32505
#
# Poissons Ratio (x) = 0.24684 0.69527
# Poissons Ratio (y) = 0.10204 0.42439
# Poissons Ratio (z) = 0.25040 0.36973
#
# Static dielectric constant tensor:
#      x y z
#    x 1.879640 0.016150 0.035200 
#    y 0.016150 1.833950 0.020280 
#    z 0.035200 0.020280 1.798270 
# 
# From -- ./inp_files/17114.got.cif
#   From: 2010.05.17/outbox.cif.g08.bks.cpg/sg2_9_cif.got.tgz:17114.got - 2010.06.03 11:33:40.
