data_PCOD9026994
_publ_section_title
;
Structure prediction by ZEFSAII (Michael W. Deem and Ramdas Pophale) SiO2 
 PCOD9026994
Probable space group: P -1
;
_chemical_formula_sum "Si O2"
_cell_formula_units_Z 14
_cell_length_a 11.205408
_cell_length_b 12.835945
_cell_length_c 10.875302
_cell_angle_alpha 157.381424
_cell_angle_beta 111.805539
_cell_angle_gamma 68.329113
_cell_volume 557.018276
_symmetry_space_group_name_H-M "P -1"
_symmetry_group_IT_number 2
_symmetry_cell_setting 'triclinic'
loop_
_space_group_symop_operation_xyz
x,y,z
-x,-y,-z
loop_
_atom_site_type_symbol
_atom_site_label
_atom_site_fract_x
_atom_site_fract_y
_atom_site_fract_z
Si Si1 0.295490 0.575401 0.533051
Si Si2 0.265636 0.827200 0.263181
Si Si3 0.544420 0.773286 0.963152
Si Si4 0.227218 0.483955 0.675762
Si Si5 0.500649 0.666490 0.331682
Si Si6 0.013487 0.810797 0.677297
Si Si7 0.894574 0.654245 0.215861
O O1 0.420305 0.733600 0.785970
O O2 0.333396 0.367217 0.213153
O O3 0.262265 0.433618 0.493823
O O4 0.165008 0.753677 0.653863
O O5 0.412926 0.737241 0.256828
O O6 0.213811 0.112219 0.613096
O O7 0.244478 0.786153 0.063565
O O8 0.181904 0.592073 0.029124
O O9 0.523157 0.606343 0.899033
O O10 0.548836 0.088968 0.330911
O O11 0.346045 0.317934 0.609939
O O12 0.080881 0.421954 0.572738
O O13 0.964046 0.831062 0.538927
O O14 0.000000 0.000000 0.000000
O O15 0.000000 0.500000 0.000000
#
# Coordination Sequence:
#
# PCOD9026994 Si02
#       7
#     2   2   2   2   2   2   2
#     4  10  22  41  66  93 139 171 230 273 346 393
#     4  11  24  44  70  96 137 176 230 273 344 396
#     4  10  24  42  65 103 130 179 221 288 323 411
#     4  10  23  43  65 104 136 180 223 287 329 412
#     4  11  23  42  71  96 139 172 233 267 348 392
#     4  11  23  40  69 100 138 181 229 278 350 401
#     4  11  26  46  67 101 139 179 228 283 333 413
#
# _framework density 25.133825000000002
#
# number of rings (size 3 to 8) (size 9 to 14) (size 15 to 20)
#    0.000    1.429    0.000    3.857    4.000   10.857 
#    0.000    7.143    0.000    0.000    0.000    0.000 
#    0.000    0.000    0.000    0.000    0.000    0.000 
#
# Total GULP energy -78173.156409 kJ/mol
# GULP energy per Si atom -5583.796886 kJ/mol
# Density = 2.507662 g / cm^3
# Si number density = 25.133825 Si / 1000 Ang^3
#
#
#
# Elastic Constant Matrix: (Units=GPa)
#
#
# Indices 1 2 3 4 5 6 
#
# 1 107.2185 15.8708 18.3289 13.7495 -35.7823 -4.4421
# 2 15.8708 68.3087 24.9231 -2.1800 -2.8456 -16.1307
# 3 18.3289 24.9231 99.6977 7.1351 -18.7655 -2.4720
# 4 13.7495 -2.1800 7.1351 36.1215 -1.0803 -4.1432
# 5 -35.7823 -2.8456 -18.7655 -1.0803 50.4135 0.7674
# 6 -4.4421 -16.1307 -2.4720 -4.1432 0.7674 35.1536
#
#
#
# Elastic Compliance Matrix: (Units=1/GPa)
#
#
# Indices 1 2 3 4 5 6 
#
# 1 0.013540 -0.003216 0.000462 -0.005219 0.009497 -0.000555
# 2 -0.003216 0.019213 -0.004876 0.004246 -0.003054 0.008634
# 3 0.000462 -0.004876 0.012188 -0.002944 0.004554 -0.001768
# 4 -0.005219 0.004246 -0.002944 0.030942 -0.003971 0.004815
# 5 0.009497 -0.003054 0.004554 -0.003971 0.028029 -0.000961
# 6 -0.000555 0.008634 -0.001768 0.004815 -0.000961 0.032802
#
#
# Mechanical properties :
#
#
# Convention : Reuss Voigt Hill
#
# Bulk Modulus (GPa) = 33.69274 43.71893 38.70584
# Shear Modulus (GPa) = 30.88920 38.74455 34.81687
#
# Velocity S-wave (km/s) = 3.50950 3.93049 3.72595
# Velocity P-wave (km/s) = 5.46411 6.16689 5.82611
#
# Compressibility (1/GPa) = 0.02967998
#
# Stress axis : x y z
#
# Youngs Moduli (GPa) = 73.85725 52.04806 82.04573
#
# Poissons Ratio (x) = 0.16741 -0.03792
# Poissons Ratio (y) = 0.23755 0.40008
# Poissons Ratio (z) = -0.03414 0.25380
#
# Static dielectric constant tensor:
#      x y z
#    x 1.972520 -0.023420 -0.039860 
#    y -0.023420 2.173860 -0.036520 
#    z -0.039860 -0.036520 2.015880 
# 
# From -- ./inp_files/67634.got.cif
#   From: 2010.05.17/outbox.cif.g08.bks.cpg/sg2_34_cif.got.tgz:67634.got - 2010.06.03 11:33:40.
