data_PCOD9026314
_publ_section_title
;
Structure prediction by ZEFSAII (Michael W. Deem and Ramdas Pophale) SiO2 
 PCOD9026314
Probable space group: P -1
;
_chemical_formula_sum "Si O2"
_cell_formula_units_Z 16
_cell_length_a 5.488266
_cell_length_b 7.160875
_cell_length_c 24.731745
_cell_angle_alpha 132.679943
_cell_angle_beta 66.929256
_cell_angle_gamma 117.965591
_cell_volume 627.003469
_symmetry_space_group_name_H-M "P -1"
_symmetry_group_IT_number 2
_symmetry_cell_setting 'triclinic'
loop_
_space_group_symop_operation_xyz
x,y,z
-x,-y,-z
loop_
_atom_site_type_symbol
_atom_site_label
_atom_site_fract_x
_atom_site_fract_y
_atom_site_fract_z
Si Si1 0.729755 0.699767 0.054382
Si Si2 0.033830 0.301107 0.493064
Si Si3 0.761780 0.243126 0.043444
Si Si4 0.483930 0.138253 0.482432
Si Si5 0.126447 0.979701 0.649201
Si Si6 0.150837 0.257400 0.280471
Si Si7 0.421299 0.036578 0.785893
Si Si8 0.604048 0.542391 0.211110
O O1 0.801891 0.517917 0.059623
O O2 0.601028 0.894542 0.136177
O O3 0.500000 0.500000 0.000000
O O4 0.974648 0.832729 0.017870
O O5 0.243813 0.270923 0.516218
O O6 0.226773 0.584671 0.501275
O O7 0.714441 0.125887 0.513481
O O8 0.050214 0.078201 0.401324
O O9 0.719372 0.336024 0.126120
O O10 0.500000 0.000000 0.000000
O O11 0.566020 0.979363 0.393409
O O12 0.155783 0.237945 0.733894
O O13 0.018913 0.714878 0.644742
O O14 0.363186 0.430163 0.253000
O O15 0.361059 0.125103 0.267169
O O16 0.889006 0.108710 0.236380
O O17 0.512408 0.298399 0.792731
#
# Coordination Sequence:
#
# PCOD9026314 Si02
#       8
#     2   2   2   2   2   2   2   2
#     4  10  23  38  64  91 128 176 224 304 361 409
#     4  10  22  42  70 102 139 178 229 286 349 418
#     4  10  22  41  63  95 132 179 242 290 360 430
#     4  10  22  42  69 100 139 183 230 285 347 424
#     4   9  25  40  71  99 145 177 235 285 352 417
#     4  11  24  45  68  98 135 187 227 287 352 422
#     4  10  25  43  67  94 139 175 236 290 352 423
#     4  10  23  45  67 100 137 188 234 293 353 428
#
# _framework density 25.518198000000002
#
# number of rings (size 3 to 8) (size 9 to 14) (size 15 to 20)
#    0.750    1.250    0.000    1.500   12.250    3.500 
#    2.250    3.750    0.000    0.000    0.000    0.000 
#    0.000    0.000    0.000    0.000    0.000    0.000 
#
# Total GULP energy -89075.995277 kJ/mol
# GULP energy per Si atom -5567.249705 kJ/mol
# Density = 2.546012 g / cm^3
# Si number density = 25.518198 Si / 1000 Ang^3
#
#
#
# Elastic Constant Matrix: (Units=GPa)
#
#
# Indices 1 2 3 4 5 6 
#
# 1 105.5839 59.8280 2.6611 -11.9099 -10.7228 9.2424
# 2 59.8280 200.9827 40.8329 -62.7539 -8.0921 3.8805
# 3 2.6611 40.8329 87.5550 -29.9311 -9.5582 9.1002
# 4 -11.9099 -62.7539 -29.9311 49.0491 0.4209 6.3600
# 5 -10.7228 -8.0921 -9.5582 0.4209 21.9425 2.7927
# 6 9.2424 3.8805 9.1002 6.3600 2.7927 63.0173
#
#
#
# Elastic Compliance Matrix: (Units=1/GPa)
#
#
# Indices 1 2 3 4 5 6 
#
# 1 0.012412 -0.004063 0.002137 -0.000663 0.005774 -0.002068
# 2 -0.004063 0.010013 -0.000192 0.011857 0.001556 -0.001258
# 3 0.002137 -0.000192 0.016497 0.010805 0.008480 -0.004150
# 4 -0.000663 0.011857 0.010805 0.042810 0.008813 -0.006904
# 5 0.005774 0.001556 0.008480 0.008813 0.053183 -0.005414
# 6 -0.002068 -0.001258 -0.004150 -0.006904 -0.005414 0.017785
#
#
# Mechanical properties :
#
#
# Convention : Reuss Voigt Hill
#
# Bulk Modulus (GPa) = 28.83164 66.75172 47.79168
# Shear Modulus (GPa) = 29.67344 46.18843 37.93094
#
# Velocity S-wave (km/s) = 3.41374 4.25905 3.85960
# Velocity P-wave (km/s) = 5.18277 7.09938 6.21540
#
# Compressibility (1/GPa) = 0.03468412
#
# Stress axis : x y z
#
# Youngs Moduli (GPa) = 80.56438 99.86694 60.61712
#
# Poissons Ratio (x) = 0.40580 -0.12951
# Poissons Ratio (y) = 0.32737 0.01166
# Poissons Ratio (z) = -0.17213 0.01921
#
# Static dielectric constant tensor:
#      x y z
#    x 2.044440 -0.064120 -0.032570 
#    y -0.064120 2.250860 -0.073450 
#    z -0.032570 -0.073450 2.088720 
# 
# From -- ./inp_files/615258.got.cif
#   From: 2010.05.17/outbox.cif.g08.bks.cpg/sg2_308_cif.got.tgz:615258.got - 2010.06.03 11:33:40.
