data_PCOD9026215
_publ_section_title
;
Structure prediction by ZEFSAII (Michael W. Deem and Ramdas Pophale) SiO2 
 PCOD9026215
Probable space group: P -1
;
_chemical_formula_sum "Si O2"
_cell_formula_units_Z 16
_cell_length_a 4.934288
_cell_length_b 6.395354
_cell_length_c 28.787433
_cell_angle_alpha 57.125090
_cell_angle_beta 62.661092
_cell_angle_gamma 77.462305
_cell_volume 677.103575
_symmetry_space_group_name_H-M "P -1"
_symmetry_group_IT_number 2
_symmetry_cell_setting 'triclinic'
loop_
_space_group_symop_operation_xyz
x,y,z
-x,-y,-z
loop_
_atom_site_type_symbol
_atom_site_label
_atom_site_fract_x
_atom_site_fract_y
_atom_site_fract_z
Si Si1 0.627306 0.370004 0.375571
Si Si2 0.935976 0.908043 0.568881
Si Si3 0.555807 0.585029 0.038720
Si Si4 0.975178 0.400434 0.765125
Si Si5 0.066890 0.980066 0.064663
Si Si6 0.652463 0.390717 0.546319
Si Si7 0.838918 0.851515 0.856103
Si Si8 0.311065 0.462253 0.828346
O O1 0.284435 0.335796 0.386842
O O2 0.569028 0.540289 0.403456
O O3 0.768492 0.129158 0.418841
O O4 0.859184 0.469209 0.306878
O O5 0.709939 0.103974 0.582897
O O6 0.000000 0.000000 0.500000
O O7 0.310972 0.784163 0.050844
O O8 0.468954 0.327217 0.103362
O O9 0.500000 0.500000 0.000000
O O10 0.871850 0.753385 0.997961
O O11 0.667754 0.526169 0.790825
O O12 0.197632 0.416449 0.790044
O O13 0.873163 0.114030 0.795450
O O14 0.758101 0.806737 0.108442
O O15 0.128065 0.060458 0.103430
O O16 0.500000 0.500000 0.500000
O O17 0.000000 0.500000 0.500000
O O18 0.107792 0.672104 0.841517
#
# Coordination Sequence:
#
# PCOD9026215 Si02
#       8
#     2   2   2   2   2   2   2   2
#     4  12  25  42  63  97 128 165 208 260 305 381
#     4  12  23  42  69  92 129 162 199 250 318 369
#     4   8  13  27  57  93 128 165 212 265 324 380
#     4  11  25  42  62  89 127 166 218 258 310 375
#     4   8  15  30  57  93 125 163 214 268 322 377
#     4  12  23  40  67  97 125 160 199 245 311 375
#     4   9  19  37  62  86 126 171 213 267 320 373
#     4  10  22  41  63  88 123 170 215 266 320 372
#
# _framework density 23.630064999999998
#
# number of rings (size 3 to 8) (size 9 to 14) (size 15 to 20)
#    0.000    1.750    2.500    1.875    0.000    4.000 
#    0.000    0.625    0.000   67.500    0.000    0.000 
#    0.000    0.000    0.000    0.000    0.000    0.000 
#
# Total GULP energy -89358.717003 kJ/mol
# GULP energy per Si atom -5584.919813 kJ/mol
# Density = 2.357628 g / cm^3
# Si number density = 23.630065 Si / 1000 Ang^3
#
#
#
# Elastic Constant Matrix: (Units=GPa)
#
#
# Indices 1 2 3 4 5 6 
#
# 1 100.0211 -2.9571 29.8429 9.3454 -0.8324 -10.0865
# 2 -2.9571 112.8179 23.9767 15.8915 7.8093 -17.1971
# 3 29.8429 23.9767 129.2130 12.9129 -15.8750 7.2811
# 4 9.3454 15.8915 12.9129 27.4601 -3.4777 -2.3735
# 5 -0.8324 7.8093 -15.8750 -3.4777 31.6492 2.5944
# 6 -10.0865 -17.1971 7.2811 -2.3735 2.5944 22.8695
#
#
#
# Elastic Compliance Matrix: (Units=1/GPa)
#
#
# Indices 1 2 3 4 5 6 
#
# 1 0.012664 0.003520 -0.004190 -0.004038 -0.003866 0.009585
# 2 0.003520 0.013258 -0.004208 -0.006667 -0.007086 0.012973
# 3 -0.004190 -0.004208 0.011015 -0.001237 0.007092 -0.009452
# 4 -0.004038 -0.006667 -0.001237 0.042743 0.005830 -0.002626
# 5 -0.003866 -0.007086 0.007092 0.005830 0.038511 -0.013055
# 6 0.009585 0.012973 -0.009452 -0.002626 -0.013055 0.061927
#
#
# Mechanical properties :
#
#
# Convention : Reuss Voigt Hill
#
# Bulk Modulus (GPa) = 36.79085 49.30856 43.04970
# Shear Modulus (GPa) = 25.13392 35.80838 30.47115
#
# Velocity S-wave (km/s) = 3.26489 3.89700 3.59487
# Velocity P-wave (km/s) = 5.46040 6.41569 5.95722
#
# Compressibility (1/GPa) = 0.02718067
#
# Stress axis : x y z
#
# Youngs Moduli (GPa) = 78.96580 75.42790 90.78264
#
# Poissons Ratio (x) = -0.26550 0.38034
# Poissons Ratio (y) = -0.27795 0.38204
# Poissons Ratio (z) = 0.33083 0.31742
#
# Static dielectric constant tensor:
#      x y z
#    x 1.924670 0.039160 -0.029240 
#    y 0.039160 1.937920 -0.074220 
#    z -0.029240 -0.074220 1.926190 
# 
# From -- ./inp_files/614837.got.cif
#   From: 2010.05.17/outbox.cif.g08.bks.cpg/sg2_308_cif.got.tgz:614837.got - 2010.06.03 11:33:40.
