data_PCOD9026167
_publ_section_title
;
Structure prediction by ZEFSAII (Michael W. Deem and Ramdas Pophale) SiO2 
 PCOD9026167
Probable space group: P -1
;
_chemical_formula_sum "Si O2"
_cell_formula_units_Z 12
_cell_length_a 13.270500
_cell_length_b 24.283974
_cell_length_c 9.197245
_cell_angle_alpha 36.025955
_cell_angle_beta 149.380541
_cell_angle_gamma 156.485226
_cell_volume 599.494816
_symmetry_space_group_name_H-M "P -1"
_symmetry_group_IT_number 2
_symmetry_cell_setting 'triclinic'
loop_
_space_group_symop_operation_xyz
x,y,z
-x,-y,-z
loop_
_atom_site_type_symbol
_atom_site_label
_atom_site_fract_x
_atom_site_fract_y
_atom_site_fract_z
Si Si1 0.296997 0.352759 0.642214
Si Si2 0.184713 0.121169 0.851008
Si Si3 0.593256 0.970937 0.316235
Si Si4 0.599558 0.457177 0.100818
Si Si5 0.725157 0.291696 0.678470
Si Si6 0.628275 0.151104 0.161031
O O1 0.500000 0.500000 0.500000
O O2 0.334335 0.263986 0.803774
O O3 0.955501 0.258330 0.400653
O O4 0.387455 0.380921 0.861963
O O5 0.411344 0.130335 0.039740
O O6 0.940702 0.073401 0.536017
O O7 0.000000 0.000000 0.000000
O O8 0.427067 0.815949 0.414930
O O9 0.524715 0.010190 0.288454
O O10 0.500000 0.000000 0.000000
O O11 0.618792 0.361142 0.400070
O O12 0.927101 0.591961 0.161821
O O13 0.500000 0.500000 0.000000
O O14 0.647304 0.214601 0.897389
#
# Coordination Sequence:
#
# PCOD9026167 Si02
#       6
#     2   2   2   2   2   2
#     4  11  24  44  67  97 132 171 223 269 323 394
#     4  11  25  42  65  96 131 172 221 269 326 386
#     4   9  21  40  64  93 125 162 214 265 318 386
#     4  11  25  40  65  94 131 170 215 268 321 385
#     4  10  22  41  62  96 130 167 216 265 324 386
#     4  10  23  42  70  92 130 173 216 268 330 385
#
# _framework density 20.016853000000001
#
# number of rings (size 3 to 8) (size 9 to 14) (size 15 to 20)
#    0.000    1.667    1.667    1.000    2.333   12.667 
#    0.000    0.000    0.000    0.000    0.000    0.000 
#    0.000    0.000    0.000    0.000    0.000    0.000 
#
# Total GULP energy -67072.937032 kJ/mol
# GULP energy per Si atom -5589.411419 kJ/mol
# Density = 1.997129 g / cm^3
# Si number density = 20.016853 Si / 1000 Ang^3
#
#
#
# Elastic Constant Matrix: (Units=GPa)
#
#
# Indices 1 2 3 4 5 6 
#
# 1 135.8105 71.1247 87.4881 3.6956 38.4460 -26.1049
# 2 71.1247 124.5803 45.4458 -4.9185 17.3091 -34.9534
# 3 87.4881 45.4458 103.3673 9.1699 23.4762 -16.3266
# 4 3.6956 -4.9185 9.1699 38.9677 -9.4008 -8.6711
# 5 38.4460 17.3091 23.4762 -9.4008 43.1923 -8.2412
# 6 -26.1049 -34.9534 -16.3266 -8.6711 -8.2412 30.1192
#
#
#
# Elastic Compliance Matrix: (Units=1/GPa)
#
#
# Indices 1 2 3 4 5 6 
#
# 1 0.022776 -0.006075 -0.013801 -0.001765 -0.010366 0.001865
# 2 -0.006075 0.016114 -0.001004 0.007465 0.004209 0.016192
# 3 -0.013801 -0.001004 0.021968 -0.004823 -0.000845 -0.002838
# 4 -0.001765 0.007465 -0.004823 0.034827 0.012193 0.017882
# 5 -0.010366 0.004209 -0.000845 0.012193 0.035456 0.008655
# 6 0.001865 0.016192 -0.002838 0.017882 0.008655 0.059587
#
#
# Mechanical properties :
#
#
# Convention : Reuss Voigt Hill
#
# Bulk Modulus (GPa) = 52.35908 85.76391 69.06150
# Shear Modulus (GPa) = 20.93328 33.10247 27.01788
#
# Velocity S-wave (km/s) = 3.23737 4.07102 3.67789
# Velocity P-wave (km/s) = 6.33943 8.06452 7.25344
#
# Compressibility (1/GPa) = 0.01909888
#
# Stress axis : x y z
#
# Youngs Moduli (GPa) = 43.90567 62.05695 45.52107
#
# Poissons Ratio (x) = 0.37699 0.62824
# Poissons Ratio (y) = 0.26672 0.04569
# Poissons Ratio (z) = 0.60594 0.06229
#
# Static dielectric constant tensor:
#      x y z
#    x 1.668500 -0.015420 -0.019400 
#    y -0.015420 1.711310 -0.019560 
#    z -0.019400 -0.019560 1.714060 
# 
# From -- ./inp_files/21487.got.cif
#   From: 2010.05.17/outbox.cif.g08.bks.cpg/sg2_11_cif.got.tgz:21487.got - 2010.06.03 11:33:40.
