data_PCOD9026898
_publ_section_title
;
Structure prediction by ZEFSAII (Michael W. Deem and Ramdas Pophale) SiO2 
 PCOD9026898
Probable space group: P -1
;
_chemical_formula_sum "Si O2"
_cell_formula_units_Z 16
_cell_length_a 11.948951
_cell_length_b 14.597328
_cell_length_c 9.429308
_cell_angle_alpha 133.718858
_cell_angle_beta 140.949967
_cell_angle_gamma 46.581267
_cell_volume 706.716614
_symmetry_space_group_name_H-M "P -1"
_symmetry_group_IT_number 2
_symmetry_cell_setting 'triclinic'
loop_
_space_group_symop_operation_xyz
x,y,z
-x,-y,-z
loop_
_atom_site_type_symbol
_atom_site_label
_atom_site_fract_x
_atom_site_fract_y
_atom_site_fract_z
Si Si1 0.442875 0.518040 0.798944
Si Si2 0.792093 0.829058 0.339576
Si Si3 0.883355 0.602475 0.620095
Si Si4 0.227064 0.735143 0.615067
Si Si5 0.591780 0.836682 0.430042
Si Si6 0.489855 0.152683 0.135920
Si Si7 0.676242 0.150794 0.592282
Si Si8 0.821496 0.353697 0.837925
O O1 0.277345 0.455951 0.554737
O O2 0.354807 0.661140 0.791496
O O3 0.627983 0.446084 0.814644
O O4 0.500000 0.500000 0.000000
O O5 0.679549 0.788348 0.311989
O O6 0.014999 0.783664 0.514847
O O7 0.735813 0.990944 0.466764
O O8 0.708091 0.781890 0.066790
O O9 0.773952 0.754810 0.617972
O O10 0.000000 0.500000 0.500000
O O11 0.015132 0.603726 0.884261
O O12 0.332432 0.835985 0.766811
O O13 0.208812 0.651490 0.365796
O O14 0.419205 0.804094 0.301328
O O15 0.500000 0.000000 0.500000
O O16 0.516311 0.204677 0.371880
O O17 0.500000 0.000000 0.000000
O O18 0.839142 0.207062 0.764872
#
# Coordination Sequence:
#
# PCOD9026898 Si02
#       8
#     2   2   2   2   2   2   2   2
#     4  12  26  46  68  97 143 183 235 294 355 415
#     4  10  22  41  66 102 141 179 231 285 346 424
#     4  12  25  44  73 102 135 189 240 288 361 422
#     4  11  26  43  69 107 138 182 240 287 354 429
#     4  10  22  43  68  99 141 184 237 291 355 419
#     4   9  21  40  68  97 138 182 220 280 351 414
#     4   9  20  43  65  99 138 182 226 285 356 415
#     4  11  25  44  70  99 138 182 235 297 350 424
#
# _framework density 22.639908999999999
#
# number of rings (size 3 to 8) (size 9 to 14) (size 15 to 20)
#    0.000    1.500    2.500    1.125    3.500    6.000 
#    4.500    1.250    0.000    0.000    0.000    0.000 
#    0.000    0.000    0.000    0.000    0.000    0.000 
#
# Total GULP energy -89203.377974 kJ/mol
# GULP energy per Si atom -5575.211123 kJ/mol
# Density = 2.258838 g / cm^3
# Si number density = 22.639909 Si / 1000 Ang^3
#
#
#
# Elastic Constant Matrix: (Units=GPa)
#
#
# Indices 1 2 3 4 5 6 
#
# 1 118.7808 48.3959 53.5551 -7.1350 -7.1976 3.9452
# 2 48.3959 69.9607 36.6136 -20.4595 -6.7939 -4.4778
# 3 53.5551 36.6136 139.6915 -8.9456 17.1919 8.9702
# 4 -7.1350 -20.4595 -8.9456 22.8828 1.3667 0.1291
# 5 -7.1976 -6.7939 17.1919 1.3667 37.3024 -1.8064
# 6 3.9452 -4.4778 8.9702 0.1291 -1.8064 32.7036
#
#
#
# Elastic Compliance Matrix: (Units=1/GPa)
#
#
# Indices 1 2 3 4 5 6 
#
# 1 0.013496 -0.008973 -0.003371 -0.005280 0.002631 -0.001766
# 2 -0.008973 0.029994 -0.004052 0.022095 0.005104 0.006495
# 3 -0.003371 -0.004052 0.010505 -0.000166 -0.006388 -0.003382
# 4 -0.005280 0.022095 -0.000166 0.061665 0.000993 0.003519
# 5 0.002631 0.005104 -0.006388 0.000993 0.031340 0.003861
# 6 -0.001766 0.006495 -0.003382 0.003519 0.003861 0.032807
#
#
# Mechanical properties :
#
#
# Convention : Reuss Voigt Hill
#
# Bulk Modulus (GPa) = 47.16046 67.28469 57.22257
# Shear Modulus (GPa) = 22.76176 31.23565 26.99870
#
# Velocity S-wave (km/s) = 3.17422 3.71842 3.45704
# Velocity P-wave (km/s) = 5.85748 6.94403 6.42377
#
# Compressibility (1/GPa) = 0.02120420
#
# Stress axis : x y z
#
# Youngs Moduli (GPa) = 74.09843 33.33962 95.18846
#
# Poissons Ratio (x) = 0.29917 0.32083
# Poissons Ratio (y) = 0.66491 0.38568
# Poissons Ratio (z) = 0.24975 0.13508
#
# Static dielectric constant tensor:
#      x y z
#    x 1.851090 0.049980 -0.006030 
#    y 0.049980 1.927010 0.034410 
#    z -0.006030 0.034410 1.844440 
# 
# From -- ./inp_files/274511.got.cif
#   From: 2010.05.17/outbox.cif.g08.bks.cpg/sg2_138_cif.got.tgz:274511.got - 2010.06.03 11:33:40.
