data_PCOD9026435
_publ_section_title
;
Structure prediction by ZEFSAII (Michael W. Deem and Ramdas Pophale) SiO2 
 PCOD9026435
Probable space group: P -1
;
_chemical_formula_sum "Si O2"
_cell_formula_units_Z 14
_cell_length_a 23.520144
_cell_length_b 8.536894
_cell_length_c 11.739479
_cell_angle_alpha 54.172980
_cell_angle_beta 160.523916
_cell_angle_gamma 132.797932
_cell_volume 561.792925
_symmetry_space_group_name_H-M "P -1"
_symmetry_group_IT_number 2
_symmetry_cell_setting 'triclinic'
loop_
_space_group_symop_operation_xyz
x,y,z
-x,-y,-z
loop_
_atom_site_type_symbol
_atom_site_label
_atom_site_fract_x
_atom_site_fract_y
_atom_site_fract_z
Si Si1 0.470414 0.102686 0.014756
Si Si2 0.813182 0.918883 0.334192
Si Si3 0.034474 0.639517 0.891784
Si Si4 0.404839 0.048893 0.468553
Si Si5 0.214904 0.561475 0.075055
Si Si6 0.462832 0.475923 0.160010
Si Si7 0.182384 0.324607 0.886067
O O1 0.587279 0.047095 0.353467
O O2 0.266236 0.023167 0.726629
O O3 0.524818 0.353966 0.984566
O O4 0.500000 0.000000 0.000000
O O5 0.904807 0.759438 0.601601
O O6 0.643518 0.770913 0.988346
O O7 0.991255 0.147739 0.535297
O O8 0.026653 0.517078 0.812300
O O9 0.000000 0.500000 0.000000
O O10 0.255993 0.830847 0.215792
O O11 0.616558 0.199789 0.752340
O O12 0.299057 0.198946 0.205644
O O13 0.336638 0.478434 0.421686
O O14 0.145759 0.433144 0.880193
O O15 0.329521 0.489676 0.002713
#
# Coordination Sequence:
#
# PCOD9026435 Si02
#       7
#     2   2   2   2   2   2   2
#     4  12  24  41  65  96 128 167 213 265 318 377
#     4  11  25  41  62  95 130 164 209 269 321 369
#     4  11  23  40  64  96 131 168 211 263 320 378
#     4  10  22  41  64  91 127 172 214 253 316 390
#     4  11  22  43  68  92 125 174 217 255 310 387
#     4  11  22  43  68  93 127 171 215 259 313 382
#     4  10  23  43  66  95 128 166 214 266 315 369
#
# _framework density 24.920214000000001
#
# number of rings (size 3 to 8) (size 9 to 14) (size 15 to 20)
#    0.000    1.143    0.000    7.286    0.000    5.714 
#    0.000    5.714    0.000    0.000    0.000    0.000 
#    0.000    0.000    0.000    0.000    0.000    0.000 
#
# Total GULP energy -78347.011506 kJ/mol
# GULP energy per Si atom -5596.215108 kJ/mol
# Density = 2.486349 g / cm^3
# Si number density = 24.920214 Si / 1000 Ang^3
#
#
#
# Elastic Constant Matrix: (Units=GPa)
#
#
# Indices 1 2 3 4 5 6 
#
# 1 140.8494 20.8978 11.8990 -17.4806 7.2863 -17.4777
# 2 20.8978 69.8579 14.3712 1.0122 -2.6291 20.9252
# 3 11.8990 14.3712 90.2217 -10.0730 -6.1727 -2.6449
# 4 -17.4806 1.0122 -10.0730 32.1435 0.0005 -6.1845
# 5 7.2863 -2.6291 -6.1727 0.0005 32.8713 -12.0876
# 6 -17.4777 20.9252 -2.6449 -6.1845 -12.0876 49.3869
#
#
#
# Elastic Compliance Matrix: (Units=1/GPa)
#
#
# Indices 1 2 3 4 5 6 
#
# 1 0.009373 -0.004850 0.000446 0.006581 -0.000104 0.006195
# 2 -0.004850 0.020121 -0.003833 -0.006758 -0.002404 -0.011882
# 3 0.000446 -0.003833 0.012546 0.005048 0.003390 0.003915
# 4 0.006581 -0.006758 0.005048 0.038607 0.003005 0.011033
# 5 -0.000104 -0.002404 0.003390 0.003005 0.034566 0.010000
# 6 0.006195 -0.011882 0.003915 0.011033 0.010000 0.031514
#
#
# Mechanical properties :
#
#
# Convention : Reuss Voigt Hill
#
# Bulk Modulus (GPa) = 39.11640 43.91831 41.51736
# Shear Modulus (GPa) = 29.11686 39.79776 34.45731
#
# Velocity S-wave (km/s) = 3.42190 4.00059 3.72251
# Velocity P-wave (km/s) = 5.59851 6.24512 5.93063
#
# Compressibility (1/GPa) = 0.02556472
#
# Stress axis : x y z
#
# Youngs Moduli (GPa) = 106.69387 49.70026 79.70771
#
# Poissons Ratio (x) = 0.24106 -0.03553
# Poissons Ratio (y) = 0.51749 0.30549
# Poissons Ratio (z) = -0.04756 0.19048
#
# Static dielectric constant tensor:
#      x y z
#    x 1.988020 -0.083480 -0.030740 
#    y -0.083480 2.010810 0.027070 
#    z -0.030740 0.027070 2.028380 
# 
# From -- ./inp_files/189577.got.cif
#   From: 2010.05.17/outbox.cif.g08.bks.cpg/sg2_95_cif.got.tgz:189577.got - 2010.06.03 11:33:40.
