data_PCOD9026061
_publ_section_title
;
Structure prediction by ZEFSAII (Michael W. Deem and Ramdas Pophale) SiO2 
 PCOD9026061
Probable space group: P -1
;
_chemical_formula_sum "Si O2"
_cell_formula_units_Z 15
_cell_length_a 18.031231
_cell_length_b 6.765528
_cell_length_c 9.512925
_cell_angle_alpha 76.094559
_cell_angle_beta 33.431743
_cell_angle_gamma 73.835417
_cell_volume 614.017110
_symmetry_space_group_name_H-M "P -1"
_symmetry_group_IT_number 2
_symmetry_cell_setting 'triclinic'
loop_
_space_group_symop_operation_xyz
x,y,z
-x,-y,-z
loop_
_atom_site_type_symbol
_atom_site_label
_atom_site_fract_x
_atom_site_fract_y
_atom_site_fract_z
Si Si1 0.500000 0.000000 0.000000
Si Si2 0.034894 0.109116 0.569759
Si Si3 0.249908 0.772335 0.391635
Si Si4 0.324577 0.078061 0.694340
Si Si5 0.758503 0.344520 0.097600
Si Si6 0.456973 0.837350 0.862771
Si Si7 0.299748 0.247518 0.018776
Si Si8 0.841099 0.551844 0.219086
O O1 0.356780 0.889858 0.283629
O O2 0.447849 0.213353 0.146291
O O3 0.900533 0.239466 0.822515
O O4 0.107357 0.923090 0.582903
O O5 0.155516 0.243028 0.321449
O O6 0.000000 0.000000 0.500000
O O7 0.229572 0.560225 0.527757
O O8 0.317511 0.753702 0.129493
O O9 0.460089 0.161084 0.409052
O O10 0.298928 0.128667 0.890326
O O11 0.205568 0.206988 0.770767
O O12 0.327916 0.837914 0.706830
O O13 0.681001 0.524110 0.090448
O O14 0.795261 0.452487 0.163851
O O15 0.414905 0.084913 0.943580
O O16 0.000000 0.500000 0.000000
#
# Coordination Sequence:
#
# PCOD9026061 Si02
#       8
#     1   2   2   2   2   2   2   2
#     4   8  18  38  60  90 124 160 214 254 308 382
#     4  11  21  41  68  93 132 168 216 270 324 385
#     4   9  21  40  66  91 130 169 211 271 314 383
#     4  11  22  40  66  89 128 170 211 268 320 382
#     4  11  24  39  66  91 131 170 207 276 326 376
#     4   9  20  39  64  90 125 168 212 264 316 379
#     4  10  22  41  61  96 124 166 217 264 322 389
#     4  11  25  42  63  99 129 167 223 261 328 390
#
# _framework density 24.429290000000002
#
# number of rings (size 3 to 8) (size 9 to 14) (size 15 to 20)
#    0.800    1.067    1.333    2.400    1.867    4.267 
#    0.000    1.333    0.000    0.000    0.000    0.000 
#    0.000    0.000    0.000    0.000    0.000    0.000 
#
# Total GULP energy -83567.150376 kJ/mol
# GULP energy per Si atom -5571.143358 kJ/mol
# Density = 2.437369 g / cm^3
# Si number density = 24.429290 Si / 1000 Ang^3
#
#
#
# Elastic Constant Matrix: (Units=GPa)
#
#
# Indices 1 2 3 4 5 6 
#
# 1 74.2793 32.7522 20.0543 -7.2543 -7.4783 -20.8357
# 2 32.7522 111.7801 15.2726 -12.1291 1.2257 -29.0021
# 3 20.0543 15.2726 110.9762 0.0161 12.3621 -16.3123
# 4 -7.2543 -12.1291 0.0161 31.9865 -2.2272 0.3779
# 5 -7.4783 1.2257 12.3621 -2.2272 42.1415 2.7362
# 6 -20.8357 -29.0021 -16.3123 0.3779 2.7362 34.5279
#
#
#
# Elastic Compliance Matrix: (Units=1/GPa)
#
#
# Indices 1 2 3 4 5 6 
#
# 1 0.017973 -0.002812 -0.002220 0.003179 0.003629 0.007112
# 2 -0.002812 0.012506 0.000254 0.003907 -0.001315 0.008989
# 3 -0.002220 0.000254 0.010397 -0.000722 -0.003755 0.004091
# 4 0.003179 0.003907 -0.000722 0.033565 0.002156 0.004321
# 5 0.003629 -0.001315 -0.003755 0.002156 0.025806 -0.002757
# 6 0.007112 0.008989 0.004091 0.004321 -0.002757 0.042908
#
#
# Mechanical properties :
#
#
# Convention : Reuss Voigt Hill
#
# Bulk Modulus (GPa) = 31.92885 48.13265 40.03075
# Shear Modulus (GPa) = 30.64635 36.99497 33.82066
#
# Velocity S-wave (km/s) = 3.54572 3.89571 3.72483
# Velocity P-wave (km/s) = 5.46454 6.32306 5.90941
#
# Compressibility (1/GPa) = 0.03131963
#
# Stress axis : x y z
#
# Youngs Moduli (GPa) = 55.63902 79.96177 96.18257
#
# Poissons Ratio (x) = 0.22488 0.21353
# Poissons Ratio (y) = 0.15647 -0.02446
# Poissons Ratio (z) = 0.12352 -0.02033
#
# Static dielectric constant tensor:
#      x y z
#    x 2.214100 -0.043160 0.048150 
#    y -0.043160 2.008380 -0.008350 
#    z 0.048150 -0.008350 2.047180 
# 
# From -- ./inp_files/468043.got.cif
#   From: 2010.05.17/outbox.cif.g08.bks.cpg/sg2_235_cif.got.tgz:468043.got - 2010.06.03 11:33:40.
