data_PCOD9026887
_publ_section_title
;
Structure prediction by ZEFSAII (Michael W. Deem and Ramdas Pophale) SiO2 
 PCOD9026887
Probable space group: P -1
;
_chemical_formula_sum "Si O2"
_cell_formula_units_Z 9
_cell_length_a 5.114890
_cell_length_b 9.393106
_cell_length_c 7.827537
_cell_angle_alpha 113.670919
_cell_angle_beta 114.090864
_cell_angle_gamma 91.798831
_cell_volume 305.735580
_symmetry_space_group_name_H-M "P -1"
_symmetry_group_IT_number 2
_symmetry_cell_setting 'triclinic'
loop_
_space_group_symop_operation_xyz
x,y,z
-x,-y,-z
loop_
_atom_site_type_symbol
_atom_site_label
_atom_site_fract_x
_atom_site_fract_y
_atom_site_fract_z
Si Si1 0.808263 0.245670 0.836729
Si Si2 0.742452 0.589020 0.475597
Si Si3 0.500000 0.500000 0.000000
Si Si4 0.749633 0.840597 0.861011
Si Si5 0.724092 0.073588 0.403184
O O1 0.750349 0.389530 0.003231
O O2 0.790480 0.230361 0.619854
O O3 0.555631 0.080995 0.722210
O O4 0.148239 0.244812 0.985724
O O5 0.500000 0.500000 0.500000
O O6 0.810918 0.762696 0.660626
O O7 0.000000 0.500000 0.500000
O O8 0.617416 0.581527 0.251218
O O9 0.417247 0.861487 0.772910
O O10 0.000000 0.000000 0.000000
O O11 0.000000 0.000000 0.500000
#
# Coordination Sequence:
#
# PCOD9026887 Si02
#       5
#     2   2   1   2   2
#     4  10  22  42  68 103 143 197 250 317 391 463
#     4  12  28  51  78 117 161 209 267 330 405 482
#     4  12  24  48  78 108 160 200 264 322 404 476
#     4  10  22  47  71 106 154 200 259 324 394 467
#     4  10  22  41  66 101 143 197 257 310 387 468
#
# _framework density 29.437201000000002
#
# number of rings (size 3 to 8) (size 9 to 14) (size 15 to 20)
#    0.000    1.333    4.444    0.000    0.000    5.333 
#    0.000    0.000    0.000    0.000    0.000    0.000 
#    0.000    0.000    0.000    0.000    0.000    0.000 
#
# Total GULP energy -50119.758986 kJ/mol
# GULP energy per Si atom -5568.862110 kJ/mol
# Density = 2.937020 g / cm^3
# Si number density = 29.437201 Si / 1000 Ang^3
#
#
#
# Elastic Constant Matrix: (Units=GPa)
#
#
# Indices 1 2 3 4 5 6 
#
# 1 147.8897 46.6925 54.7568 0.9885 34.2811 -37.7337
# 2 46.6925 91.1725 68.7345 1.4514 10.3662 -37.1359
# 3 54.7568 68.7345 312.7488 2.5775 -19.2605 -33.1803
# 4 0.9885 1.4514 2.5775 97.0864 -32.7928 14.8907
# 5 34.2811 10.3662 -19.2605 -32.7928 60.3631 -1.5649
# 6 -37.7337 -37.1359 -33.1803 14.8907 -1.5649 43.0761
#
#
#
# Elastic Compliance Matrix: (Units=1/GPa)
#
#
# Indices 1 2 3 4 5 6 
#
# 1 0.012725 0.001158 -0.001790 -0.005611 -0.010726 0.012317
# 2 0.001158 0.021610 -0.003418 -0.005878 -0.008166 0.018747
# 3 -0.001790 -0.003418 0.004314 0.001453 0.003729 -0.001558
# 4 -0.005611 -0.005878 0.001453 0.017209 0.013638 -0.014317
# 5 -0.010726 -0.008166 0.003729 0.013638 0.032216 -0.017108
# 6 0.012317 0.018747 -0.001558 -0.014317 -0.017108 0.053293
#
#
# Mechanical properties :
#
#
# Convention : Reuss Voigt Hill
#
# Bulk Modulus (GPa) = 32.73299 99.13096 65.93198
# Shear Modulus (GPa) = 31.31869 65.54694 48.43281
#
# Velocity S-wave (km/s) = 3.26531 4.72388 4.06062
# Velocity P-wave (km/s) = 5.03588 7.96881 6.66566
#
# Compressibility (1/GPa) = 0.03055022
#
# Stress axis : x y z
#
# Youngs Moduli (GPa) = 78.58287 46.27592 231.78366
#
# Poissons Ratio (x) = -0.05360 0.41492
# Poissons Ratio (y) = -0.09102 0.79215
# Poissons Ratio (z) = 0.14067 0.15815
#
# Static dielectric constant tensor:
#      x y z
#    x 2.386080 -0.050230 0.023990 
#    y -0.050230 2.568750 -0.118210 
#    z 0.023990 -0.118210 2.216230 
# 
# From -- ./inp_files/20425.got.cif
#   From: 2010.05.17/outbox.cif.g08.bks.cpg/sg2_11_cif.got.tgz:20425.got - 2010.06.03 11:33:40.
