data_PCOD9026860
_publ_section_title
;
Structure prediction by ZEFSAII (Michael W. Deem and Ramdas Pophale) SiO2 
 PCOD9026860
Probable space group: P -1
;
_chemical_formula_sum "Si O2"
_cell_formula_units_Z 15
_cell_length_a 18.782244
_cell_length_b 22.348956
_cell_length_c 9.232100
_cell_angle_alpha 35.011984
_cell_angle_beta 34.190760
_cell_angle_gamma 17.939509
_cell_volume 659.148324
_symmetry_space_group_name_H-M "P -1"
_symmetry_group_IT_number 2
_symmetry_cell_setting 'triclinic'
loop_
_space_group_symop_operation_xyz
x,y,z
-x,-y,-z
loop_
_atom_site_type_symbol
_atom_site_label
_atom_site_fract_x
_atom_site_fract_y
_atom_site_fract_z
Si Si1 0.068704 0.235833 0.733405
Si Si2 0.397002 0.789455 0.409964
Si Si3 0.136019 0.635456 0.866819
Si Si4 0.609881 0.176273 0.962810
Si Si5 0.408131 0.020487 0.961307
Si Si6 0.095899 0.866222 0.293213
Si Si7 0.267826 0.615203 0.242493
Si Si8 0.500000 0.000000 0.500000
O O1 0.921132 0.303334 0.711277
O O2 0.206952 0.246506 0.488622
O O3 0.913042 0.317042 0.973509
O O4 0.331842 0.988435 0.798941
O O5 0.286710 0.862528 0.289903
O O6 0.613387 0.558665 0.517198
O O7 0.180756 0.920714 0.624680
O O8 0.483460 0.846292 0.173713
O O9 0.343501 0.405706 0.957573
O O10 0.190340 0.709394 0.555566
O O11 0.882778 0.777956 0.943957
O O12 0.755525 0.133686 0.925597
O O13 0.479376 0.018462 0.690578
O O14 0.500000 0.000000 0.000000
O O15 0.141784 0.787342 0.215371
O O16 0.500000 0.500000 0.000000
#
# Coordination Sequence:
#
# PCOD9026860 Si02
#       8
#     2   2   2   2   2   2   2   1
#     4  11  25  44  65  96 140 170 229 293 332 408
#     4  11  24  43  68 101 129 188 225 268 357 410
#     4  10  22  41  66 100 123 176 228 274 343 409
#     4  12  21  40  70  93 131 179 224 270 342 417
#     4  10  23  47  72  99 140 174 234 296 342 406
#     4  11  23  38  68  96 134 175 221 278 335 411
#     4  12  27  43  64 104 143 173 225 286 342 409
#     4  10  22  46  70  96 134 186 220 296 350 384
#
# _framework density 22.756637999999999
#
# number of rings (size 3 to 8) (size 9 to 14) (size 15 to 20)
#    0.000    1.067    5.333    2.400    5.600    3.200 
#    2.400    2.667    0.000    0.000    0.000    0.000 
#    0.000    0.000    0.000    0.000    0.000    0.000 
#
# Total GULP energy -83654.977428 kJ/mol
# GULP energy per Si atom -5576.998495 kJ/mol
# Density = 2.270484 g / cm^3
# Si number density = 22.756638 Si / 1000 Ang^3
#
#
#
# Elastic Constant Matrix: (Units=GPa)
#
#
# Indices 1 2 3 4 5 6 
#
# 1 172.1560 26.0877 28.6858 5.3292 13.3181 -2.2345
# 2 26.0877 97.0175 32.3151 -12.4561 4.8923 16.7363
# 3 28.6858 32.3151 75.6289 5.5419 6.8898 0.7614
# 4 5.3292 -12.4561 5.5419 31.0429 5.2119 2.7415
# 5 13.3181 4.8923 6.8898 5.2119 21.9741 1.7034
# 6 -2.2345 16.7363 0.7614 2.7415 1.7034 31.0367
#
#
#
# Elastic Compliance Matrix: (Units=1/GPa)
#
#
# Indices 1 2 3 4 5 6 
#
# 1 0.006581 -0.001537 -0.001498 -0.001111 -0.003038 0.001604
# 2 -0.001537 0.015685 -0.006501 0.008842 -0.001915 -0.009085
# 3 -0.001498 -0.006501 0.017110 -0.005383 -0.002009 0.003564
# 4 -0.001111 0.008842 -0.005383 0.038980 -0.008255 -0.007706
# 5 -0.003038 -0.001915 -0.002009 -0.008255 0.050455 -0.001177
# 6 0.001604 -0.009085 0.003564 -0.007706 -0.001177 0.037892
#
#
# Mechanical properties :
#
#
# Convention : Reuss Voigt Hill
#
# Bulk Modulus (GPa) = 49.24845 57.66441 53.45643
# Shear Modulus (GPa) = 25.96820 33.99167 29.97994
#
# Velocity S-wave (km/s) = 3.38172 3.86904 3.63356
# Velocity P-wave (km/s) = 6.07753 6.73453 6.41445
#
# Compressibility (1/GPa) = 0.02030521
#
# Stress axis : x y z
#
# Youngs Moduli (GPa) = 151.94420 63.75428 58.44577
#
# Poissons Ratio (x) = 0.09800 0.08752
# Poissons Ratio (y) = 0.23355 0.37996
# Poissons Ratio (z) = 0.22754 0.41447
#
# Static dielectric constant tensor:
#      x y z
#    x 1.879520 0.006160 -0.025240 
#    y 0.006160 1.849740 0.018610 
#    z -0.025240 0.018610 1.984500 
# 
# From -- ./inp_files/338066.got.cif
#   From: 2010.05.17/outbox.cif.g08.bks.cpg/sg2_170_cif.got.tgz:338066.got - 2010.06.03 11:33:40.
