data_PCOD9026342
_publ_section_title
;
Structure prediction by ZEFSAII (Michael W. Deem and Ramdas Pophale) SiO2 
 PCOD9026342
Probable space group: P -1
;
_chemical_formula_sum "Si O2"
_cell_formula_units_Z 16
_cell_length_a 5.416076
_cell_length_b 12.009493
_cell_length_c 11.856856
_cell_angle_alpha 59.457443
_cell_angle_beta 94.295299
_cell_angle_gamma 90.556502
_cell_volume 661.989255
_symmetry_space_group_name_H-M "P -1"
_symmetry_group_IT_number 2
_symmetry_cell_setting 'triclinic'
loop_
_space_group_symop_operation_xyz
x,y,z
-x,-y,-z
loop_
_atom_site_type_symbol
_atom_site_label
_atom_site_fract_x
_atom_site_fract_y
_atom_site_fract_z
Si Si1 0.892525 0.831902 0.174725
Si Si2 0.568586 0.855677 0.812385
Si Si3 0.373053 0.821328 0.055442
Si Si4 0.147589 0.377581 0.119406
Si Si5 0.921655 0.062124 0.644569
Si Si6 0.429987 0.510079 0.239538
Si Si7 0.825987 0.183871 0.348283
Si Si8 0.948797 0.522836 0.356047
O O1 0.125950 0.868276 0.086851
O O2 0.924527 0.879437 0.278991
O O3 0.625937 0.869796 0.094649
O O4 0.915715 0.676484 0.258345
O O5 0.761835 0.735331 0.905767
O O6 0.452024 0.819464 0.706681
O O7 0.693016 0.991795 0.731377
O O8 0.372997 0.855923 0.905957
O O9 0.400066 0.664828 0.144324
O O10 0.380708 0.441013 0.155560
O O11 0.973084 0.300962 0.239170
O O12 0.000000 0.500000 0.000000
O O13 0.846496 0.165579 0.492231
O O14 0.058075 0.945690 0.641082
O O15 0.691118 0.471764 0.325084
O O16 0.196080 0.473927 0.326294
O O17 0.000000 0.500000 0.500000
#
# Coordination Sequence:
#
# PCOD9026342 Si02
#       8
#     2   2   2   2   2   2   2   2
#     4  10  24  43  67 100 135 189 228 288 346 420
#     4  11  25  43  71  99 139 183 233 298 348 418
#     4  10  24  43  67 100 140 174 237 283 348 413
#     4  11  26  41  70 104 136 187 232 288 366 418
#     4  10  24  45  69  99 140 182 239 286 356 413
#     4  10  23  40  63  97 138 174 224 284 345 416
#     4  10  24  46  67 104 139 180 236 296 348 419
#     4  10  22  41  63  97 136 179 228 285 341 415
#
# _framework density 24.169573
#
# number of rings (size 3 to 8) (size 9 to 14) (size 15 to 20)
#    0.000    1.750    0.000    1.500   14.000    2.000 
#    0.000    0.000    0.000    0.000    0.000    0.000 
#    0.000    0.000    0.000    0.000    0.000    0.000 
#
# Total GULP energy -89604.804087 kJ/mol
# GULP energy per Si atom -5600.300255 kJ/mol
# Density = 2.411456 g / cm^3
# Si number density = 24.169573 Si / 1000 Ang^3
#
#
#
# Elastic Constant Matrix: (Units=GPa)
#
#
# Indices 1 2 3 4 5 6 
#
# 1 127.2994 36.8341 47.4054 1.3667 11.5963 14.4821
# 2 36.8341 86.5182 38.7961 5.0822 7.7302 15.9590
# 3 47.4054 38.7961 118.9769 5.3802 15.1237 -3.0718
# 4 1.3667 5.0822 5.3802 39.4656 -1.6078 8.5422
# 5 11.5963 7.7302 15.1237 -1.6078 30.0848 11.5073
# 6 14.4821 15.9590 -3.0718 8.5422 11.5073 41.9368
#
#
#
# Elastic Compliance Matrix: (Units=1/GPa)
#
#
# Indices 1 2 3 4 5 6 
#
# 1 0.010134 -0.002281 -0.003361 0.001025 -0.000442 -0.002965
# 2 -0.002281 0.015479 -0.004462 0.000006 0.001366 -0.005806
# 3 -0.003361 -0.004462 0.012245 -0.002515 -0.006123 0.005948
# 4 0.001025 0.000006 -0.002515 0.027499 0.005236 -0.007579
# 5 -0.000442 0.001366 -0.006123 0.005236 0.041491 -0.013267
# 6 -0.002965 -0.005806 0.005948 -0.007579 -0.013267 0.032699
#
#
# Mechanical properties :
#
#
# Convention : Reuss Voigt Hill
#
# Bulk Modulus (GPa) = 56.66012 64.31844 60.48928
# Shear Modulus (GPa) = 30.18654 36.28137 33.23396
#
# Velocity S-wave (km/s) = 3.53788 3.87863 3.71217
# Velocity P-wave (km/s) = 6.33896 6.83575 6.59204
#
# Compressibility (1/GPa) = 0.01764910
#
# Stress axis : x y z
#
# Youngs Moduli (GPa) = 98.68230 64.60412 81.66805
#
# Poissons Ratio (x) = 0.14737 0.27445
# Poissons Ratio (y) = 0.22511 0.36443
# Poissons Ratio (z) = 0.33163 0.28829
#
# Static dielectric constant tensor:
#      x y z
#    x 1.964420 -0.028810 0.037580 
#    y -0.028810 1.954750 -0.026820 
#    z 0.037580 -0.026820 1.908820 
# 
# From -- ./inp_files/70445.got.cif
#   From: 2010.05.17/outbox.cif.g08.bks.cpg/sg2_36_cif.got.tgz:70445.got - 2010.06.03 11:33:40.
