data_PCOD9026881
_publ_section_title
;
Structure prediction by ZEFSAII (Michael W. Deem and Ramdas Pophale) SiO2 
 PCOD9026881
Probable space group: P -1
;
_chemical_formula_sum "Si O2"
_cell_formula_units_Z 14
_cell_length_a 21.734711
_cell_length_b 15.110913
_cell_length_c 11.780941
_cell_angle_alpha 30.903517
_cell_angle_beta 33.080188
_cell_angle_gamma 19.290161
_cell_volume 647.449356
_symmetry_space_group_name_H-M "P -1"
_symmetry_group_IT_number 2
_symmetry_cell_setting 'triclinic'
loop_
_space_group_symop_operation_xyz
x,y,z
-x,-y,-z
loop_
_atom_site_type_symbol
_atom_site_label
_atom_site_fract_x
_atom_site_fract_y
_atom_site_fract_z
Si Si1 0.269343 0.532332 0.062295
Si Si2 0.277716 0.835181 0.555412
Si Si3 0.898188 0.803264 0.349380
Si Si4 0.598551 0.712880 0.216405
Si Si5 0.523379 0.089779 0.558971
Si Si6 0.961928 0.073315 0.344113
Si Si7 0.327350 0.578658 0.173889
O O1 0.273722 0.616356 0.085186
O O2 0.053793 0.747540 0.129747
O O3 0.392699 0.206183 0.239587
O O4 0.330744 0.595857 0.804939
O O5 0.464944 0.717994 0.380800
O O6 0.156433 0.937728 0.519211
O O7 0.145879 0.101643 0.555612
O O8 0.000000 0.500000 0.500000
O O9 0.695844 0.015647 0.373526
O O10 0.584610 0.745901 0.337239
O O11 0.815875 0.411548 0.181835
O O12 0.500000 0.000000 0.000000
O O13 0.392107 0.311501 0.415615
O O14 0.000000 0.000000 0.500000
O O15 0.155373 0.851652 0.218987
O O16 0.500000 0.500000 0.000000
#
# Coordination Sequence:
#
# PCOD9026881 Si02
#       7
#     2   2   2   2   2   2   2
#     4  11  22  41  71 103 134 182 238 298 349 412
#     4  11  23  43  73 101 135 180 245 287 349 425
#     4   9  19  36  64  99 133 169 225 290 348 401
#     4  11  24  48  70 101 139 186 239 290 349 426
#     4  10  22  41  66 101 140 178 233 296 350 414
#     4  12  26  46  72  99 148 191 233 288 353 423
#     4  12  25  44  69 103 145 184 235 293 356 415
#
# _framework density 21.623313
#
# number of rings (size 3 to 8) (size 9 to 14) (size 15 to 20)
#    0.000    1.143    2.857    3.857    2.000    0.000 
#    5.143    0.714    0.000    0.000    0.000    0.000 
#    0.000    0.000    0.000    0.000    0.000    0.000 
#
# Total GULP energy -78237.681430 kJ/mol
# GULP energy per Si atom -5588.405816 kJ/mol
# Density = 2.157410 g / cm^3
# Si number density = 21.623313 Si / 1000 Ang^3
#
#
#
# Elastic Constant Matrix: (Units=GPa)
#
#
# Indices 1 2 3 4 5 6 
#
# 1 117.3629 48.3002 61.9394 -8.6947 14.5704 6.5085
# 2 48.3002 160.7582 56.5469 0.1584 -0.2430 18.3890
# 3 61.9394 56.5469 125.4256 -2.7172 -4.9147 -5.1020
# 4 -8.6947 0.1584 -2.7172 43.9895 -0.2012 2.8985
# 5 14.5704 -0.2430 -4.9147 -0.2012 36.5864 -1.6489
# 6 6.5085 18.3890 -5.1020 2.8985 -1.6489 30.9791
#
#
#
# Elastic Compliance Matrix: (Units=1/GPa)
#
#
# Indices 1 2 3 4 5 6 
#
# 1 0.013733 -0.001436 -0.006484 0.002532 -0.006502 -0.003683
# 2 -0.001436 0.008410 -0.003301 -0.000174 -0.000052 -0.005221
# 3 -0.006484 -0.003301 0.013060 -0.000824 0.004571 0.005793
# 4 0.002532 -0.000174 -0.000824 0.023363 -0.001118 -0.002810
# 5 -0.006502 -0.000052 0.004571 -0.001118 0.030705 0.003888
# 6 -0.003683 -0.005221 0.005793 -0.002810 0.003888 0.037576
#
#
# Mechanical properties :
#
#
# Convention : Reuss Voigt Hill
#
# Bulk Modulus (GPa) = 78.36230 81.90221 80.13225
# Shear Modulus (GPa) = 32.56447 38.09501 35.32974
#
# Velocity S-wave (km/s) = 3.88492 4.20188 4.04650
# Velocity P-wave (km/s) = 7.51278 7.84220 7.67926
#
# Compressibility (1/GPa) = 0.01276124
#
# Stress axis : x y z
#
# Youngs Moduli (GPa) = 72.81954 118.90162 76.57133
#
# Poissons Ratio (x) = 0.17078 0.49647
# Poissons Ratio (y) = 0.10459 0.25273
# Poissons Ratio (z) = 0.47215 0.39244
#
# Static dielectric constant tensor:
#      x y z
#    x 1.795420 0.019520 -0.000850 
#    y 0.019520 1.836190 -0.035630 
#    z -0.000850 -0.035630 1.801170 
# 
# From -- ./inp_files/471833.got.cif
#   From: 2010.05.17/outbox.cif.g08.bks.cpg/sg2_236_cif.got.tgz:471833.got - 2010.06.03 11:33:40.
