data_PCOD9026543
_publ_section_title
;
Structure prediction by ZEFSAII (Michael W. Deem and Ramdas Pophale) SiO2 
 PCOD9026543
Probable space group: P -1
;
_chemical_formula_sum "Si O2"
_cell_formula_units_Z 14
_cell_length_a 6.742564
_cell_length_b 15.736307
_cell_length_c 7.783529
_cell_angle_alpha 54.167070
_cell_angle_beta 99.194927
_cell_angle_gamma 82.670109
_cell_volume 635.210666
_symmetry_space_group_name_H-M "P -1"
_symmetry_group_IT_number 2
_symmetry_cell_setting 'triclinic'
loop_
_space_group_symop_operation_xyz
x,y,z
-x,-y,-z
loop_
_atom_site_type_symbol
_atom_site_label
_atom_site_fract_x
_atom_site_fract_y
_atom_site_fract_z
Si Si1 0.241471 0.046415 0.296623
Si Si2 0.234850 0.922257 0.118649
Si Si3 0.441922 0.641897 0.186427
Si Si4 0.820710 0.448129 0.464995
Si Si5 0.620902 0.821971 0.090678
Si Si6 0.821918 0.147864 0.291113
Si Si7 0.973320 0.228426 0.568818
O O1 0.993501 0.098085 0.228506
O O2 0.328020 0.971043 0.234211
O O3 0.280426 0.950640 0.558424
O O4 0.309595 0.152685 0.120667
O O5 0.398067 0.903744 0.011781
O O6 0.200010 0.807475 0.300426
O O7 0.000000 0.000000 0.000000
O O8 0.614825 0.537609 0.260251
O O9 0.273707 0.604854 0.323656
O O10 0.583662 0.703572 0.239783
O O11 0.326988 0.737325 0.926482
O O12 0.000000 0.500000 0.500000
O O13 0.918149 0.357267 0.441715
O O14 0.801539 0.824746 0.248990
O O15 0.947324 0.177529 0.439276
#
# Coordination Sequence:
#
# PCOD9026543 Si02
#       7
#     2   2   2   2   2   2   2
#     4  10  22  41  64  95 143 185 210 262 331 405
#     4  11  21  38  64  99 135 167 228 272 311 387
#     4  11  24  42  70  98 129 169 227 282 333 394
#     4  11  23  45  73  95 122 175 230 279 335 390
#     4  12  22  40  72 100 127 182 229 264 326 396
#     4  10  24  45  62 100 146 177 212 274 336 392
#     4  11  23  42  67  97 135 173 222 279 324 397
#
# _framework density 22.039932
#
# number of rings (size 3 to 8) (size 9 to 14) (size 15 to 20)
#    0.000    1.143    4.286    2.143    0.000    1.143 
#    5.143    0.714    0.000    0.000    0.000    0.000 
#    0.000    0.000    0.000    0.000    0.000    0.000 
#
# Total GULP energy -77950.439427 kJ/mol
# GULP energy per Si atom -5567.888531 kJ/mol
# Density = 2.198977 g / cm^3
# Si number density = 22.039932 Si / 1000 Ang^3
#
#
#
# Elastic Constant Matrix: (Units=GPa)
#
#
# Indices 1 2 3 4 5 6 
#
# 1 88.8145 18.4218 56.8670 4.7390 -12.0608 -3.3355
# 2 18.4218 88.1397 20.1546 -12.1234 2.0192 -7.5284
# 3 56.8670 20.1546 104.0182 -18.5993 3.5194 -9.6344
# 4 4.7390 -12.1234 -18.5993 32.9853 -1.0491 2.4437
# 5 -12.0608 2.0192 3.5194 -1.0491 50.8630 -6.2233
# 6 -3.3355 -7.5284 -9.6344 2.4437 -6.2233 48.9872
#
#
#
# Elastic Compliance Matrix: (Units=1/GPa)
#
#
# Indices 1 2 3 4 5 6 
#
# 1 0.022364 -0.003310 -0.013988 -0.012096 0.006109 -0.000357
# 2 -0.003310 0.012811 0.000442 0.005294 -0.001039 0.001434
# 3 -0.013988 0.000442 0.019826 0.013082 -0.004213 0.001827
# 4 -0.012096 0.005294 0.013082 0.041269 -0.003119 0.000108
# 5 0.006109 -0.001039 -0.004213 -0.003119 0.021663 0.002335
# 6 -0.000357 0.001434 0.001827 0.000108 0.002335 0.021260
#
#
# Mechanical properties :
#
#
# Convention : Reuss Voigt Hill
#
# Bulk Modulus (GPa) = 46.97181 52.42879 49.70030
# Shear Modulus (GPa) = 27.77763 38.93568 33.35666
#
# Velocity S-wave (km/s) = 3.55397 4.20765 3.89455
# Velocity P-wave (km/s) = 6.18056 6.88807 6.54388
#
# Compressibility (1/GPa) = 0.02128936
#
# Stress axis : x y z
#
# Youngs Moduli (GPa) = 44.71550 78.05886 50.43880
#
# Poissons Ratio (x) = 0.25837 0.70552
# Poissons Ratio (y) = 0.14800 -0.02229
# Poissons Ratio (z) = 0.62546 -0.03449
#
# Static dielectric constant tensor:
#      x y z
#    x 1.839810 0.075370 0.033390 
#    y 0.075370 1.853270 -0.016990 
#    z 0.033390 -0.016990 1.920630 
# 
# From -- ./inp_files/138532.got.cif
#   From: 2010.05.17/outbox.cif.g08.bks.cpg/sg2_70_cif.got.tgz:138532.got - 2010.06.03 11:33:40.
