data_PCOD9026679
_publ_section_title
;
Structure prediction by ZEFSAII (Michael W. Deem and Ramdas Pophale) SiO2 
 PCOD9026679
Probable space group: P -1
;
_chemical_formula_sum "Si O2"
_cell_formula_units_Z 16
_cell_length_a 11.300882
_cell_length_b 13.133505
_cell_length_c 10.147690
_cell_angle_alpha 142.146433
_cell_angle_beta 119.687850
_cell_angle_gamma 80.569760
_cell_volume 726.328716
_symmetry_space_group_name_H-M "P -1"
_symmetry_group_IT_number 2
_symmetry_cell_setting 'triclinic'
loop_
_space_group_symop_operation_xyz
x,y,z
-x,-y,-z
loop_
_atom_site_type_symbol
_atom_site_label
_atom_site_fract_x
_atom_site_fract_y
_atom_site_fract_z
Si Si1 0.408771 0.485710 0.136162
Si Si2 0.942419 0.364174 0.132482
Si Si3 0.697609 0.748087 0.425936
Si Si4 0.001526 0.759093 0.687098
Si Si5 0.536484 0.836671 0.021984
Si Si6 0.275690 0.902547 0.821121
Si Si7 0.850710 0.460813 0.792660
Si Si8 0.657552 0.057143 0.572472
O O1 0.554359 0.669715 0.364431
O O2 0.281574 0.514301 0.178003
O O3 0.340598 0.393433 0.863040
O O4 0.462450 0.348732 0.107342
O O5 0.967576 0.564368 0.399725
O O6 0.948774 0.255417 0.153620
O O7 0.078910 0.394723 0.140380
O O8 0.780648 0.262729 0.869552
O O9 0.847076 0.775733 0.611501
O O10 0.724118 0.933174 0.556252
O O11 0.137423 0.906274 0.828815
O O12 0.621521 0.989816 0.335235
O O13 0.623180 0.909402 0.006021
O O14 0.375089 0.838597 0.908752
O O15 0.212522 0.740580 0.512331
O O16 0.000000 0.500000 0.000000
O O17 0.500000 0.000000 0.500000
#
# Coordination Sequence:
#
# PCOD9026679 Si02
#       8
#     2   2   2   2   2   2   2   2
#     4  10  23  41  62  93 126 164 208 254 308 372
#     4  10  23  39  66  92 122 168 204 252 314 367
#     4  10  24  39  63  91 127 166 203 257 312 362
#     4  10  22  42  64  90 129 162 208 252 309 380
#     4  10  23  41  63  92 126 166 209 253 317 367
#     4  10  22  41  65  92 123 168 206 257 313 365
#     4  11  23  40  64  93 124 162 210 259 305 371
#     4  11  24  39  63  93 124 163 208 261 306 370
#
# _framework density 22.028594999999999
#
# number of rings (size 3 to 8) (size 9 to 14) (size 15 to 20)
#    0.000    1.750    0.000    3.000   14.000    2.000 
#    0.000    3.125    0.000    0.000    0.000    0.000 
#    0.000    0.000    0.000    0.000    0.000    0.000 
#
# Total GULP energy -89470.280726 kJ/mol
# GULP energy per Si atom -5591.892545 kJ/mol
# Density = 2.197846 g / cm^3
# Si number density = 22.028595 Si / 1000 Ang^3
#
#
#
# Elastic Constant Matrix: (Units=GPa)
#
#
# Indices 1 2 3 4 5 6 
#
# 1 127.3877 18.2486 26.2834 -6.5716 11.0253 26.5062
# 2 18.2486 69.3853 23.6382 -13.8301 -0.4522 9.5829
# 3 26.2834 23.6382 79.0368 -11.8538 13.4463 -3.5993
# 4 -6.5716 -13.8301 -11.8538 21.2182 0.9958 12.9616
# 5 11.0253 -0.4522 13.4463 0.9958 27.5261 -1.9478
# 6 26.5062 9.5829 -3.5993 12.9616 -1.9478 36.8134
#
#
#
# Elastic Compliance Matrix: (Units=1/GPa)
#
#
# Indices 1 2 3 4 5 6 
#
# 1 0.012134 0.002152 -0.002569 0.012686 -0.005039 -0.014282
# 2 0.002152 0.021888 -0.004694 0.021690 -0.000080 -0.015347
# 3 -0.002569 -0.004694 0.016901 0.004173 -0.007252 0.002871
# 4 0.012686 0.021690 0.004173 0.098615 -0.013857 -0.049827
# 5 -0.005039 -0.000080 -0.007252 -0.013857 0.043105 0.010100
# 6 -0.014282 -0.015347 0.002871 -0.049827 0.010100 0.059801
#
#
# Mechanical properties :
#
#
# Convention : Reuss Voigt Hill
#
# Bulk Modulus (GPa) = 24.56972 45.79447 35.18209
# Shear Modulus (GPa) = 18.10067 30.95417 24.52742
#
# Velocity S-wave (km/s) = 2.86962 3.75264 3.34044
# Velocity P-wave (km/s) = 4.70717 6.29366 5.55732
#
# Compressibility (1/GPa) = 0.04070051
#
# Stress axis : x y z
#
# Youngs Moduli (GPa) = 82.41262 45.68749 59.16818
#
# Poissons Ratio (x) = -0.09833 0.15202
# Poissons Ratio (y) = -0.17737 0.27775
# Poissons Ratio (z) = 0.21174 0.21447
#
# Static dielectric constant tensor:
#      x y z
#    x 1.798260 -0.008840 -0.031610 
#    y -0.008840 1.821230 0.028040 
#    z -0.031610 0.028040 1.823140 
# 
# From -- ./inp_files/263599.got.cif
#   From: 2010.05.17/outbox.cif.g08.bks.cpg/sg2_132_cif.got.tgz:263599.got - 2010.06.03 11:33:40.
