data_PCOD9026859
_publ_section_title
;
Structure prediction by ZEFSAII (Michael W. Deem and Ramdas Pophale) SiO2 
 PCOD9026859
Probable space group: P -1
;
_chemical_formula_sum "Si O2"
_cell_formula_units_Z 14
_cell_length_a 15.595332
_cell_length_b 5.289684
_cell_length_c 23.491124
_cell_angle_alpha 105.830395
_cell_angle_beta 160.329175
_cell_angle_gamma 83.434321
_cell_volume 563.534092
_symmetry_space_group_name_H-M "P -1"
_symmetry_group_IT_number 2
_symmetry_cell_setting 'triclinic'
loop_
_space_group_symop_operation_xyz
x,y,z
-x,-y,-z
loop_
_atom_site_type_symbol
_atom_site_label
_atom_site_fract_x
_atom_site_fract_y
_atom_site_fract_z
Si Si1 0.911256 0.205452 0.892302
Si Si2 0.088167 0.738884 0.436233
Si Si3 0.281927 0.655657 0.722474
Si Si4 0.852528 0.443690 0.756042
Si Si5 0.641821 0.849887 0.121498
Si Si6 0.386508 0.649588 0.522008
Si Si7 0.632503 0.950524 0.864193
O O1 0.890137 0.232236 0.812248
O O2 0.597420 0.971250 0.695128
O O3 0.000000 0.500000 0.000000
O O4 0.163300 0.116678 0.054332
O O5 0.170278 0.536557 0.432613
O O6 0.351849 0.920247 0.653936
O O7 0.821785 0.546352 0.298998
O O8 0.975446 0.919916 0.336074
O O9 0.527475 0.707912 0.833985
O O10 0.000000 0.500000 0.500000
O O11 0.369404 0.989394 0.816871
O O12 0.598465 0.508105 0.628606
O O13 0.766047 0.340453 0.631449
O O14 0.149864 0.732555 0.958191
O O15 0.500000 0.500000 0.000000
O O16 0.500000 0.000000 0.000000
#
# Coordination Sequence:
#
# PCOD9026859 Si02
#       7
#     2   2   2   2   2   2   2
#     4  11  22  40  68 103 144 187 243 302 369 449
#     4  11  24  45  71 104 148 192 252 304 379 450
#     4  10  25  46  72 106 148 198 255 311 378 451
#     4  10  22  41  65  99 146 179 246 298 369 440
#     4  12  27  50  73 107 148 197 255 315 382 452
#     4  10  23  41  66 103 137 191 233 306 367 442
#     4  10  24  42  70 104 140 195 244 302 374 444
#
# _framework density 24.843216999999999
#
# number of rings (size 3 to 8) (size 9 to 14) (size 15 to 20)
#    0.000    1.429    1.429    2.143    2.000   12.571 
#    0.000    0.000    0.000    0.000    0.000    0.000 
#    0.000    0.000    0.000    0.000    0.000    0.000 
#
# Total GULP energy -78072.340970 kJ/mol
# GULP energy per Si atom -5576.595784 kJ/mol
# Density = 2.478667 g / cm^3
# Si number density = 24.843217 Si / 1000 Ang^3
#
#
#
# Elastic Constant Matrix: (Units=GPa)
#
#
# Indices 1 2 3 4 5 6 
#
# 1 122.7019 21.5459 60.1295 0.1177 -7.4296 18.0530
# 2 21.5459 82.8694 56.4620 -1.3678 -17.2570 10.7783
# 3 60.1295 56.4620 150.7196 -20.0712 -24.7401 13.2966
# 4 0.1177 -1.3678 -20.0712 35.5282 0.2699 -6.6315
# 5 -7.4296 -17.2570 -24.7401 0.2699 58.1603 8.3030
# 6 18.0530 10.7783 13.2966 -6.6315 8.3030 36.4363
#
#
#
# Elastic Compliance Matrix: (Units=1/GPa)
#
#
# Indices 1 2 3 4 5 6 
#
# 1 0.011043 0.001030 -0.004788 -0.003595 0.000377 -0.004769
# 2 0.001030 0.017476 -0.006531 -0.003931 0.003235 -0.004749
# 3 -0.004788 -0.006531 0.012274 0.006766 0.002573 0.000470
# 4 -0.003595 -0.003931 0.006766 0.033032 0.000179 0.006446
# 5 0.000377 0.003235 0.002573 0.000179 0.020247 -0.006664
# 6 -0.004769 -0.004749 0.000470 0.006446 -0.006664 0.033733
#
#
# Mechanical properties :
#
#
# Convention : Reuss Voigt Hill
#
# Bulk Modulus (GPa) = 49.46769 70.28509 59.87639
# Shear Modulus (GPa) = 32.23317 40.56849 36.40083
#
# Velocity S-wave (km/s) = 3.60594 4.04540 3.83197
# Velocity P-wave (km/s) = 6.10674 7.08331 6.61307
#
# Compressibility (1/GPa) = 0.02021522
#
# Stress axis : x y z
#
# Youngs Moduli (GPa) = 90.55451 57.22192 81.47635
#
# Poissons Ratio (x) = -0.05896 0.39008
# Poissons Ratio (y) = -0.09331 0.53215
# Poissons Ratio (z) = 0.43354 0.37374
#
# Static dielectric constant tensor:
#      x y z
#    x 2.046930 0.032910 0.016250 
#    y 0.032910 2.062220 0.011260 
#    z 0.016250 0.011260 1.933140 
# 
# From -- ./inp_files/611328.got.cif
#   From: 2010.05.17/outbox.cif.g08.bks.cpg/sg2_306_cif.got.tgz:611328.got - 2010.06.03 11:33:40.
