data_PCOD9026414
_publ_section_title
;
Structure prediction by ZEFSAII (Michael W. Deem and Ramdas Pophale) SiO2 
 PCOD9026414
Probable space group: P -1
;
_chemical_formula_sum "Si O2"
_cell_formula_units_Z 16
_cell_length_a 15.385363
_cell_length_b 9.116728
_cell_length_c 16.383015
_cell_angle_alpha 35.934878
_cell_angle_beta 153.881511
_cell_angle_gamma 137.823615
_cell_volume 592.805143
_symmetry_space_group_name_H-M "P -1"
_symmetry_group_IT_number 2
_symmetry_cell_setting 'triclinic'
loop_
_space_group_symop_operation_xyz
x,y,z
-x,-y,-z
loop_
_atom_site_type_symbol
_atom_site_label
_atom_site_fract_x
_atom_site_fract_y
_atom_site_fract_z
Si Si1 0.871114 0.730371 0.313753
Si Si2 0.074093 0.636650 0.111192
Si Si3 0.454934 0.133175 0.816871
Si Si4 0.523937 0.793688 0.886831
Si Si5 0.314888 0.910678 0.316641
Si Si6 0.385217 0.711043 0.633751
Si Si7 0.931840 0.851367 0.588791
Si Si8 0.682142 0.573594 0.728532
O O1 0.699340 0.573352 0.293575
O O2 0.000000 0.500000 0.500000
O O3 0.753771 0.842890 0.086542
O O4 0.999736 0.942511 0.375724
O O5 0.148707 0.853683 0.136293
O O6 0.986782 0.402662 0.195446
O O7 0.261979 0.531424 0.267093
O O8 0.894853 0.703446 0.872437
O O9 0.267218 0.277432 0.564523
O O10 0.629265 0.322512 0.848909
O O11 0.413657 0.913660 0.814079
O O12 0.500000 0.000000 0.000000
O O13 0.410745 0.843789 0.684609
O O14 0.500000 0.500000 0.000000
O O15 0.266978 0.818661 0.409376
O O16 0.502463 0.751427 0.515048
O O17 0.391940 0.203903 0.247603
O O18 0.000000 0.000000 0.500000
#
# Coordination Sequence:
#
# PCOD9026414 Si02
#       8
#     2   2   2   2   2   2   2   2
#     4  11  24  42  65  96 133 176 222 279 335 406
#     4  11  24  43  68 104 133 177 229 281 341 414
#     4  12  25  42  70 101 136 178 225 285 350 402
#     4  10  22  41  64  90 130 176 219 268 333 405
#     4  11  23  45  70  94 138 179 223 288 329 410
#     4  10  24  44  66  95 130 181 230 266 346 404
#     4  12  24  41  67 103 138 171 224 288 337 406
#     4  11  25  42  70 100 137 177 226 285 346 401
#
# _framework density 26.990317999999998
#
# number of rings (size 3 to 8) (size 9 to 14) (size 15 to 20)
#    0.000    1.000    1.250    5.625    7.000    1.000 
#    4.500    1.250    0.000    0.000    0.000    0.000 
#    0.000    0.000    0.000    0.000    0.000    0.000 
#
# Total GULP energy -89109.678178 kJ/mol
# GULP energy per Si atom -5569.354886 kJ/mol
# Density = 2.692889 g / cm^3
# Si number density = 26.990318 Si / 1000 Ang^3
#
#
#
# Elastic Constant Matrix: (Units=GPa)
#
#
# Indices 1 2 3 4 5 6 
#
# 1 87.9531 34.5888 48.1754 0.2842 -34.0368 -5.6364
# 2 34.5888 138.2820 34.4165 25.7626 -13.3675 -0.7625
# 3 48.1754 34.4165 110.5310 44.9442 -23.3895 -13.2608
# 4 0.2842 25.7626 44.9442 65.0763 -12.1424 -10.5939
# 5 -34.0368 -13.3675 -23.3895 -12.1424 48.9903 5.6137
# 6 -5.6364 -0.7625 -13.2608 -10.5939 5.6137 56.0129
#
#
#
# Elastic Compliance Matrix: (Units=1/GPa)
#
#
# Indices 1 2 3 4 5 6 
#
# 1 0.024322 -0.004219 -0.011248 0.011911 0.013255 0.000652
# 2 -0.004219 0.008831 0.000398 -0.004127 -0.001255 -0.000865
# 3 -0.011248 0.000398 0.018967 -0.013431 -0.002098 0.001034
# 4 0.011911 -0.004127 -0.013431 0.028014 0.007391 0.002520
# 5 0.013255 -0.001255 -0.002098 0.007391 0.030202 -0.000809
# 6 0.000652 -0.000865 0.001034 0.002520 -0.000809 0.018709
#
#
# Mechanical properties :
#
#
# Convention : Reuss Voigt Hill
#
# Bulk Modulus (GPa) = 45.48931 63.45863 54.47397
# Shear Modulus (GPa) = 30.02835 48.65492 39.34163
#
# Velocity S-wave (km/s) = 3.33912 4.25040 3.82202
# Velocity P-wave (km/s) = 5.63532 6.90294 6.30109
#
# Compressibility (1/GPa) = 0.02198319
#
# Stress axis : x y z
#
# Youngs Moduli (GPa) = 41.11467 113.24283 52.72283
#
# Poissons Ratio (x) = 0.47772 0.59301
# Poissons Ratio (y) = 0.17345 -0.02098
# Poissons Ratio (z) = 0.46245 -0.04506
#
# Static dielectric constant tensor:
#      x y z
#    x 2.662070 0.283490 0.319390 
#    y 0.283490 2.471190 0.298470 
#    z 0.319390 0.298470 2.133650 
# 
# From -- ./inp_files/529447.got.cif
#   From: 2010.05.17/outbox.cif.g08.bks.cpg/sg2_265_cif.got.tgz:529447.got - 2010.06.03 11:33:40.
