data_PCOD9026262
_publ_section_title
;
Structure prediction by ZEFSAII (Michael W. Deem and Ramdas Pophale) SiO2 
 PCOD9026262
Probable space group: P -1
;
_chemical_formula_sum "Si O2"
_cell_formula_units_Z 16
_cell_length_a 5.588341
_cell_length_b 21.245734
_cell_length_c 6.518859
_cell_angle_alpha 67.338871
_cell_angle_beta 106.632825
_cell_angle_gamma 88.584228
_cell_volume 676.316418
_symmetry_space_group_name_H-M "P -1"
_symmetry_group_IT_number 2
_symmetry_cell_setting 'triclinic'
loop_
_space_group_symop_operation_xyz
x,y,z
-x,-y,-z
loop_
_atom_site_type_symbol
_atom_site_label
_atom_site_fract_x
_atom_site_fract_y
_atom_site_fract_z
Si Si1 0.549876 0.881243 0.219993
Si Si2 0.445772 0.782844 0.684602
Si Si3 0.160579 0.235406 0.821361
Si Si4 0.294335 0.335217 0.381332
Si Si5 0.539538 0.472972 0.319093
Si Si6 0.876640 0.159860 0.105812
Si Si7 0.750847 0.962717 0.493396
Si Si8 0.135859 0.563296 0.887294
O O1 0.465441 0.843169 0.450371
O O2 0.771969 0.830510 0.227495
O O3 0.660006 0.945284 0.264557
O O4 0.325304 0.883117 0.995468
O O5 0.509826 0.714284 0.648527
O O6 0.200416 0.807656 0.731623
O O7 0.653509 0.770063 0.932117
O O8 0.215467 0.297308 0.613231
O O9 0.899689 0.223542 0.877974
O O10 0.405938 0.404924 0.361593
O O11 0.023132 0.365094 0.174193
O O12 0.500000 0.500000 0.500000
O O13 0.413955 0.541696 0.075694
O O14 0.816293 0.445800 0.332396
O O15 0.134338 0.107348 0.268581
O O16 0.500000 0.000000 0.500000
O O17 0.000000 0.000000 0.500000
O O18 0.000000 0.500000 0.000000
#
# Coordination Sequence:
#
# PCOD9026262 Si02
#       8
#     2   2   2   2   2   2   2   2
#     4  10  24  46  71 101 149 187 236 304 368 429
#     4  10  22  44  66  98 140 185 232 305 365 432
#     4  10  23  41  69 100 133 186 233 303 366 431
#     4  10  23  40  65 103 132 177 242 281 363 441
#     4  10  22  41  63  91 138 183 225 293 357 418
#     4  11  25  45  75 102 146 191 241 301 383 416
#     4  12  28  48  77 112 148 201 251 299 365 454
#     4   9  21  40  61  88 130 179 219 283 346 410
#
# _framework density 23.657565999999999
#
# number of rings (size 3 to 8) (size 9 to 14) (size 15 to 20)
#    0.000    1.750    1.250    0.750    5.250   11.000 
#    0.000    0.000    0.000    0.000    0.000    0.000 
#    0.000    0.000    0.000    0.000    0.000    0.000 
#
# Total GULP energy -89226.727405 kJ/mol
# GULP energy per Si atom -5576.670463 kJ/mol
# Density = 2.360372 g / cm^3
# Si number density = 23.657566 Si / 1000 Ang^3
#
#
#
# Elastic Constant Matrix: (Units=GPa)
#
#
# Indices 1 2 3 4 5 6 
#
# 1 106.3438 57.6158 40.0764 2.8398 -18.7395 -16.3782
# 2 57.6158 119.4569 48.6045 4.0924 -6.7772 -11.1043
# 3 40.0764 48.6045 104.6291 5.1304 -13.6194 -9.2867
# 4 2.8398 4.0924 5.1304 33.9869 0.6811 -3.2941
# 5 -18.7395 -6.7772 -13.6194 0.6811 51.5125 -0.1237
# 6 -16.3782 -11.1043 -9.2867 -3.2941 -0.1237 36.6131
#
#
#
# Elastic Compliance Matrix: (Units=1/GPa)
#
#
# Indices 1 2 3 4 5 6 
#
# 1 0.014574 -0.005547 -0.002103 0.000106 0.004025 0.004327
# 2 -0.005547 0.012578 -0.003849 -0.000412 -0.001374 0.000316
# 3 -0.002103 -0.003849 0.012566 -0.001204 0.002069 0.000978
# 4 0.000106 -0.000412 -0.001204 0.029883 -0.000724 0.002303
# 5 0.004025 -0.001374 0.002069 -0.000724 0.021257 0.001915
# 6 0.004327 0.000316 0.000978 0.002303 0.001915 0.029806
#
#
# Mechanical properties :
#
#
# Convention : Reuss Voigt Hill
#
# Bulk Modulus (GPa) = 59.80539 69.22481 64.51510
# Shear Modulus (GPa) = 33.50402 36.69803 35.10103
#
# Velocity S-wave (km/s) = 3.76734 3.94282 3.85608
# Velocity P-wave (km/s) = 6.65269 7.07478 6.86698
#
# Compressibility (1/GPa) = 0.01672090
#
# Stress axis : x y z
#
# Youngs Moduli (GPa) = 68.61590 79.50347 79.57757
#
# Poissons Ratio (x) = 0.44098 0.16734
# Poissons Ratio (y) = 0.38059 0.30631
# Poissons Ratio (z) = 0.14429 0.30602
#
# Static dielectric constant tensor:
#      x y z
#    x 1.825140 -0.043710 0.427590 
#    y -0.043710 1.915160 0.060470 
#    z 0.427590 0.060470 1.290570 
# 
# From -- ./inp_files/10816.got.cif
#   From: 2010.05.17/outbox.cif.g08.bks.cpg/sg2_6_cif.got.tgz:10816.got - 2010.06.03 11:33:40.
