data_PCOD9026166
_publ_section_title
;
Structure prediction by ZEFSAII (Michael W. Deem and Ramdas Pophale) SiO2 
 PCOD9026166
Probable space group: P -1
;
_chemical_formula_sum "Si O2"
_cell_formula_units_Z 16
_cell_length_a 8.147842
_cell_length_b 15.263905
_cell_length_c 9.302576
_cell_angle_alpha 140.386029
_cell_angle_beta 88.306057
_cell_angle_gamma 98.218389
_cell_volume 724.130679
_symmetry_space_group_name_H-M "P -1"
_symmetry_group_IT_number 2
_symmetry_cell_setting 'triclinic'
loop_
_space_group_symop_operation_xyz
x,y,z
-x,-y,-z
loop_
_atom_site_type_symbol
_atom_site_label
_atom_site_fract_x
_atom_site_fract_y
_atom_site_fract_z
Si Si1 0.830817 0.113326 0.523335
Si Si2 0.006917 0.858957 0.736191
Si Si3 0.522005 0.371204 0.504912
Si Si4 0.126620 0.648272 0.679794
Si Si5 0.848010 0.798998 0.211235
Si Si6 0.652611 0.149564 0.847136
Si Si7 0.333138 0.166262 0.466571
Si Si8 0.616160 0.677699 0.854954
O O1 0.679608 0.136019 0.657732
O O2 0.845828 0.130515 0.374569
O O3 0.986855 0.213466 0.723031
O O4 0.863622 0.957356 0.355084
O O5 0.835400 0.828064 0.611774
O O6 0.036537 0.746934 0.709340
O O7 0.000000 0.000000 0.000000
O O8 0.702945 0.371081 0.431114
O O9 0.479551 0.263780 0.499629
O O10 0.517646 0.532544 0.739913
O O11 0.391255 0.330773 0.326544
O O12 0.000000 0.500000 0.500000
O O13 0.203523 0.736164 0.931948
O O14 0.700028 0.775471 0.302276
O O15 0.796819 0.704138 0.955438
O O16 0.654247 0.996429 0.720649
O O17 0.479511 0.197986 0.944761
#
# Coordination Sequence:
#
# PCOD9026166 Si02
#       8
#     2   2   2   2   2   2   2   2
#     4   9  21  38  62  97 127 161 217 257 317 372
#     4  11  23  40  67  97 123 169 211 264 315 375
#     4  10  25  42  60  95 127 167 217 262 313 379
#     4  11  26  42  64  94 128 168 215 264 320 378
#     4   9  20  37  62  92 128 169 202 260 314 378
#     4  10  22  42  63  96 129 164 213 265 307 383
#     4  10  22  41  62  96 130 156 217 263 309 384
#     4  10  23  39  63  90 122 178 205 256 319 369
#
# _framework density 22.095458000000001
#
# number of rings (size 3 to 8) (size 9 to 14) (size 15 to 20)
#    0.000    2.000    1.250    0.750    8.750    6.500 
#    0.000    0.625    0.000    0.000    0.000    0.000 
#    0.000    0.000    0.000    0.000    0.000    0.000 
#
# Total GULP energy -89368.443030 kJ/mol
# GULP energy per Si atom -5585.527689 kJ/mol
# Density = 2.204517 g / cm^3
# Si number density = 22.095458 Si / 1000 Ang^3
#
#
#
# Elastic Constant Matrix: (Units=GPa)
#
#
# Indices 1 2 3 4 5 6 
#
# 1 50.8403 25.0842 7.7082 -2.5020 4.0601 -2.5448
# 2 25.0842 130.0634 46.7130 2.5728 -3.1647 15.5374
# 3 7.7082 46.7130 58.4643 -4.6364 4.1029 -4.3510
# 4 -2.5020 2.5728 -4.6364 22.9767 -10.9856 -1.0942
# 5 4.0601 -3.1647 4.1029 -10.9856 31.4137 -1.2763
# 6 -2.5448 15.5374 -4.3510 -1.0942 -1.2763 36.9984
#
#
#
# Elastic Compliance Matrix: (Units=1/GPa)
#
#
# Indices 1 2 3 4 5 6 
#
# 1 0.022772 -0.005893 0.002421 0.002491 -0.002807 0.004302
# 2 -0.005893 0.013958 -0.011395 -0.003925 0.001972 -0.007655
# 3 0.002421 -0.011395 0.027172 0.006220 -0.002499 0.008245
# 4 0.002491 -0.003925 0.006220 0.054126 0.017592 0.004759
# 5 -0.002807 0.001972 -0.002499 0.017592 0.038895 0.000547
# 6 0.004302 -0.007655 0.008245 0.004759 0.000547 0.031668
#
#
# Mechanical properties :
#
#
# Convention : Reuss Voigt Hill
#
# Bulk Modulus (GPa) = 29.26707 44.26430 36.76569
# Shear Modulus (GPa) = 21.76630 28.93528 25.35079
#
# Velocity S-wave (km/s) = 3.14204 3.62271 3.39090
# Velocity P-wave (km/s) = 5.14176 6.12988 5.65743
#
# Compressibility (1/GPa) = 0.03416809
#
# Stress axis : x y z
#
# Youngs Moduli (GPa) = 43.91359 71.64598 36.80285
#
# Poissons Ratio (x) = 0.42219 -0.08909
# Poissons Ratio (y) = 0.25877 0.41935
# Poissons Ratio (z) = -0.10630 0.81637
#
# Static dielectric constant tensor:
#      x y z
#    x 1.912350 0.035750 0.009290 
#    y 0.035750 1.785900 -0.006520 
#    z 0.009290 -0.006520 1.838830 
# 
# From -- ./inp_files/209382.got.cif
#   From: 2010.05.17/outbox.cif.g08.bks.cpg/sg2_105_cif.got.tgz:209382.got - 2010.06.03 11:33:40.
