data_PCOD9026893
_publ_section_title
;
Structure prediction by ZEFSAII (Michael W. Deem and Ramdas Pophale) SiO2 
 PCOD9026893
Probable space group: P -1
;
_chemical_formula_sum "Si O2"
_cell_formula_units_Z 15
_cell_length_a 11.715751
_cell_length_b 11.127964
_cell_length_c 5.987650
_cell_angle_alpha 72.662573
_cell_angle_beta 73.050284
_cell_angle_gamma 61.060971
_cell_volume 641.891050
_symmetry_space_group_name_H-M "P -1"
_symmetry_group_IT_number 2
_symmetry_cell_setting 'triclinic'
loop_
_space_group_symop_operation_xyz
x,y,z
-x,-y,-z
loop_
_atom_site_type_symbol
_atom_site_label
_atom_site_fract_x
_atom_site_fract_y
_atom_site_fract_z
Si Si1 0.103465 0.917568 0.294347
Si Si2 0.987615 0.196819 0.970344
Si Si3 0.734361 0.560834 0.369105
Si Si4 0.484996 0.800058 0.587170
Si Si5 0.275844 0.711189 0.630261
Si Si6 0.866464 0.678938 0.907749
Si Si7 0.603543 0.924311 0.788945
Si Si8 0.000000 0.500000 0.500000
O O1 0.240042 0.823323 0.386831
O O2 0.053737 0.816093 0.249235
O O3 0.000000 0.000000 0.500000
O O4 0.092409 0.038898 0.063511
O O5 0.856816 0.242631 0.170916
O O6 0.050902 0.301486 0.937515
O O7 0.605694 0.703363 0.414308
O O8 0.694284 0.435977 0.415655
O O9 0.842345 0.532658 0.517995
O O10 0.799236 0.585495 0.093129
O O11 0.388574 0.725491 0.702458
O O12 0.552016 0.820659 0.760064
O O13 0.406387 0.955854 0.445520
O O14 0.752909 0.831616 0.831608
O O15 0.952588 0.609769 0.681766
O O16 0.500000 0.000000 0.000000
#
# Coordination Sequence:
#
# PCOD9026893 Si02
#       8
#     2   2   2   2   2   2   2   1
#     4   9  21  41  62  98 133 177 228 279 352 403
#     4  10  22  41  66 102 133 177 235 291 344 410
#     4  12  26  45  69 105 139 188 235 282 353 419
#     4  11  25  47  71 102 139 185 235 286 348 423
#     4  11  24  42  67  99 143 183 224 285 351 422
#     4  12  25  45  74 103 140 181 239 296 344 419
#     4  11  24  47  74 102 135 184 240 292 349 405
#     4  12  26  46  70 100 144 184 232 290 350 414
#
# _framework density 23.368451
#
# number of rings (size 3 to 8) (size 9 to 14) (size 15 to 20)
#    0.000    1.067    4.000    1.600    1.867    4.267 
#    0.000    0.667    0.000    0.000    0.000    0.000 
#    0.000    0.000    0.000    0.000    0.000    0.000 
#
# Total GULP energy -83707.310990 kJ/mol
# GULP energy per Si atom -5580.487399 kJ/mol
# Density = 2.331526 g / cm^3
# Si number density = 23.368451 Si / 1000 Ang^3
#
#
#
# Elastic Constant Matrix: (Units=GPa)
#
#
# Indices 1 2 3 4 5 6 
#
# 1 123.5055 35.2613 -1.6481 7.0983 17.6247 24.4296
# 2 35.2613 105.0810 8.3626 17.7650 8.2013 -0.3309
# 3 -1.6481 8.3626 28.4667 26.8698 8.8909 8.8014
# 4 7.0983 17.7650 26.8698 35.6723 11.1075 4.0317
# 5 17.6247 8.2013 8.8909 11.1075 32.4008 8.3247
# 6 24.4296 -0.3309 8.8014 4.0317 8.3247 44.9961
#
#
#
# Elastic Compliance Matrix: (Units=1/GPa)
#
#
# Indices 1 2 3 4 5 6 
#
# 1 0.011823 -0.003248 0.013609 -0.008764 -0.004411 -0.007504
# 2 -0.003248 0.011662 0.002993 -0.007674 0.000129 0.001927
# 3 0.013609 0.002993 0.153638 -0.115742 -0.003876 -0.026331
# 4 -0.008764 -0.007674 -0.115742 0.121141 -0.007659 0.017904
# 5 -0.004411 0.000129 -0.003876 -0.007659 0.037726 -0.003139
# 6 -0.007504 0.001927 -0.026331 0.017904 -0.003139 0.030439
#
#
# Mechanical properties :
#
#
# Convention : Reuss Voigt Hill
#
# Bulk Modulus (GPa) = 4.90601 37.88944 21.39773
# Shear Modulus (GPa) = 12.26498 36.95235 24.60867
#
# Velocity S-wave (km/s) = 2.29345 3.98086 3.24863
# Velocity P-wave (km/s) = 3.01947 6.11382 4.82162
#
# Compressibility (1/GPa) = 0.20383145
#
# Stress axis : x y z
#
# Youngs Moduli (GPa) = 84.57968 85.75202 6.50880
#
# Poissons Ratio (x) = 0.27853 -0.08858
# Poissons Ratio (y) = 0.27472 -0.01948
# Poissons Ratio (z) = -1.15105 -0.25668
#
# Static dielectric constant tensor:
#      x y z
#    x 1.861010 0.010900 0.002820 
#    y 0.010900 1.941440 -0.122370 
#    z 0.002820 -0.122370 1.956320 
# 
# From -- ./inp_files/69769.got.cif
#   From: 2010.05.17/outbox.cif.g08.bks.cpg/sg2_35_cif.got.tgz:69769.got - 2010.06.03 11:33:40.
