data_PCOD9026064
_publ_section_title
;
Structure prediction by ZEFSAII (Michael W. Deem and Ramdas Pophale) SiO2 
 PCOD9026064
Probable space group: P -1
;
_chemical_formula_sum "Si O2"
_cell_formula_units_Z 13
_cell_length_a 5.116899
_cell_length_b 16.615373
_cell_length_c 8.621440
_cell_angle_alpha 110.568286
_cell_angle_beta 86.031738
_cell_angle_gamma 48.537383
_cell_volume 464.258604
_symmetry_space_group_name_H-M "P -1"
_symmetry_group_IT_number 2
_symmetry_cell_setting 'triclinic'
loop_
_space_group_symop_operation_xyz
x,y,z
-x,-y,-z
loop_
_atom_site_type_symbol
_atom_site_label
_atom_site_fract_x
_atom_site_fract_y
_atom_site_fract_z
Si Si1 0.663920 0.833112 0.552182
Si Si2 0.598894 0.196198 0.190232
Si Si3 0.765631 0.627963 0.271695
Si Si4 0.490694 0.581023 0.676844
Si Si5 0.798255 0.445956 0.085209
Si Si6 0.836754 0.041345 0.780277
Si Si7 0.500000 0.000000 0.500000
O O1 0.702255 0.796257 0.703503
O O2 0.628753 0.751686 0.416695
O O3 0.879770 0.852788 0.462352
O O4 0.237377 0.984982 0.648492
O O5 0.505526 0.319278 0.301071
O O6 0.679635 0.149438 0.979837
O O7 0.981658 0.076230 0.192413
O O8 0.590768 0.576498 0.266502
O O9 0.143093 0.520626 0.293124
O O10 0.831585 0.619173 0.076769
O O11 0.500000 0.500000 0.500000
O O12 0.147280 0.640778 0.851431
O O13 0.500000 0.500000 0.000000
O O14 0.566357 0.062789 0.681118
#
# Coordination Sequence:
#
# PCOD9026064 Si02
#       7
#     2   2   2   2   2   2   1
#     4  10  23  41  63  93 131 164 217 280 318 393
#     4   9  22  46  64  89 145 161 212 281 326 379
#     4  10  22  41  61  96 133 167 212 272 332 377
#     4  11  23  39  68  99 126 178 218 263 327 397
#     4   9  21  39  60  89 130 171 216 256 320 393
#     4   9  23  46  63  95 127 177 213 281 320 383
#     4  12  24  38  72  92 118 176 234 252 336 382
#
# _framework density 28.001633999999999
#
# number of rings (size 3 to 8) (size 9 to 14) (size 15 to 20)
#    0.923    1.231    0.000    1.385    2.154    9.231 
#    0.000    0.000    0.000    0.000    0.000    0.000 
#    0.000    0.000    0.000    0.000    0.000    0.000 
#
# Total GULP energy -72387.265935 kJ/mol
# GULP energy per Si atom -5568.251226 kJ/mol
# Density = 2.793790 g / cm^3
# Si number density = 28.001634 Si / 1000 Ang^3
#
#
#
# Elastic Constant Matrix: (Units=GPa)
#
#
# Indices 1 2 3 4 5 6 
#
# 1 73.5809 52.5900 27.3878 -5.0583 26.6357 25.2976
# 2 52.5900 180.0731 57.3383 -22.3789 13.0221 38.5549
# 3 27.3878 57.3383 163.9794 -16.2998 36.3410 18.5805
# 4 -5.0583 -22.3789 -16.2998 46.1150 2.9946 -6.4497
# 5 26.6357 13.0221 36.3410 2.9946 48.2684 -9.8285
# 6 25.2976 38.5549 18.5805 -6.4497 -9.8285 46.7771
#
#
#
# Elastic Compliance Matrix: (Units=1/GPa)
#
#
# Indices 1 2 3 4 5 6 
#
# 1 0.029350 -0.004050 0.003487 0.001331 -0.021529 -0.018260
# 2 -0.004050 0.008314 -0.001656 0.002480 0.000354 -0.003588
# 3 0.003487 -0.001656 0.009179 0.002638 -0.009743 -0.005850
# 4 0.001331 0.002480 0.002638 0.024083 -0.005206 -0.001585
# 5 -0.021529 0.000354 -0.009743 -0.005206 0.045041 0.023967
# 6 -0.018260 -0.003588 -0.005850 -0.001585 0.023967 0.041352
#
#
# Mechanical properties :
#
#
# Convention : Reuss Voigt Hill
#
# Bulk Modulus (GPa) = 23.58224 76.91838 50.25031
# Shear Modulus (GPa) = 28.42619 46.91993 37.67306
#
# Velocity S-wave (km/s) = 3.18962 4.09787 3.67193
# Velocity P-wave (km/s) = 4.69094 7.06533 5.99682
#
# Compressibility (1/GPa) = 0.04240480
#
# Stress axis : x y z
#
# Youngs Moduli (GPa) = 34.07153 120.27343 108.93844
#
# Poissons Ratio (x) = 0.48711 -0.37983
# Poissons Ratio (y) = 0.13799 0.18042
# Poissons Ratio (z) = -0.11880 0.19920
#
# Static dielectric constant tensor:
#      x y z
#    x 2.775330 0.133750 -0.365500 
#    y 0.133750 2.403270 -0.031520 
#    z -0.365500 -0.031520 2.343880 
# 
# From -- ./inp_files/136846.got.cif
#   From: 2010.05.17/outbox.cif.g08.bks.cpg/sg2_69_cif.got.tgz:136846.got - 2010.06.03 11:33:40.
