data_PCOD9026931
_publ_section_title
;
Structure prediction by ZEFSAII (Michael W. Deem and Ramdas Pophale) SiO2 
 PCOD9026931
Probable space group: P -1
;
_chemical_formula_sum "Si O2"
_cell_formula_units_Z 14
_cell_length_a 18.642584
_cell_length_b 6.514215
_cell_length_c 10.960433
_cell_angle_alpha 92.787164
_cell_angle_beta 145.483118
_cell_angle_gamma 75.956191
_cell_volume 703.429382
_symmetry_space_group_name_H-M "P -1"
_symmetry_group_IT_number 2
_symmetry_cell_setting 'triclinic'
loop_
_space_group_symop_operation_xyz
x,y,z
-x,-y,-z
loop_
_atom_site_type_symbol
_atom_site_label
_atom_site_fract_x
_atom_site_fract_y
_atom_site_fract_z
Si Si1 0.645326 0.584057 0.631259
Si Si2 0.762259 0.169202 0.654738
Si Si3 0.105531 0.289739 0.074517
Si Si4 0.101443 0.758778 0.385383
Si Si5 0.198919 0.458405 0.751486
Si Si6 0.965871 0.836700 0.541855
Si Si7 0.470814 0.374850 0.265171
O O1 0.740158 0.323439 0.748433
O O2 0.746413 0.701003 0.735648
O O3 0.525242 0.577788 0.371663
O O4 0.583167 0.659508 0.678284
O O5 0.806457 0.285247 0.607407
O O6 0.609323 0.179365 0.417181
O O7 0.869778 0.931014 0.821254
O O8 0.000000 0.500000 0.000000
O O9 0.037686 0.268242 0.850654
O O10 0.166004 0.595013 0.582522
O O11 0.073394 0.011062 0.390589
O O12 0.154433 0.247233 0.668279
O O13 0.098862 0.616472 0.717694
O O14 0.351247 0.411062 0.004512
O O15 0.000000 0.000000 0.500000
#
# Coordination Sequence:
#
# PCOD9026931 Si02
#       7
#     2   2   2   2   2   2   2
#     4   9  22  41  63  94 123 166 207 258 314 369
#     4  10  23  42  59  94 127 162 214 254 312 377
#     4  12  24  38  66  95 125 167 207 266 319 365
#     4  11  24  38  65  95 127 163 209 262 316 366
#     4  10  22  41  66  90 130 163 208 257 318 373
#     4   9  22  39  58  97 121 167 205 254 310 369
#     4   9  21  44  64  90 128 165 208 258 309 380
#
# _framework density 19.902497
#
# number of rings (size 3 to 8) (size 9 to 14) (size 15 to 20)
#    0.857    1.143    1.429    0.429   10.000    1.143 
#    5.143    0.714    0.000    0.000    0.000    0.000 
#    0.000    0.000    0.000    0.000    0.000    0.000 
#
# Total GULP energy -77971.096962 kJ/mol
# GULP energy per Si atom -5569.364069 kJ/mol
# Density = 1.985720 g / cm^3
# Si number density = 19.902497 Si / 1000 Ang^3
#
#
#
# Elastic Constant Matrix: (Units=GPa)
#
#
# Indices 1 2 3 4 5 6 
#
# 1 78.5007 16.5382 27.5030 2.2118 14.5826 9.8493
# 2 16.5382 72.8273 46.2852 12.9648 -0.4671 5.5412
# 3 27.5030 46.2852 147.2650 10.3353 8.5072 16.3605
# 4 2.2118 12.9648 10.3353 28.4639 5.9246 0.4888
# 5 14.5826 -0.4671 8.5072 5.9246 27.2360 6.8020
# 6 9.8493 5.5412 16.3605 0.4888 6.8020 25.7187
#
#
#
# Elastic Compliance Matrix: (Units=1/GPa)
#
#
# Indices 1 2 3 4 5 6 
#
# 1 0.015540 -0.002894 -0.001437 0.002302 -0.007826 -0.002388
# 2 -0.002894 0.019141 -0.005130 -0.007742 0.005424 -0.001040
# 3 -0.001437 -0.005130 0.009210 -0.000602 -0.001089 -0.003904
# 4 0.002302 -0.007742 -0.000602 0.040910 -0.010894 0.003273
# 5 -0.007826 0.005424 -0.001089 -0.010894 0.046071 -0.009456
# 6 -0.002388 -0.001040 -0.003904 0.003273 -0.009456 0.044943
#
#
# Mechanical properties :
#
#
# Convention : Reuss Voigt Hill
#
# Bulk Modulus (GPa) = 40.04932 53.24953 46.64943
# Shear Modulus (GPa) = 24.62335 30.16815 27.39575
#
# Velocity S-wave (km/s) = 3.52120 3.89755 3.71414
# Velocity P-wave (km/s) = 6.05791 6.86060 6.47171
#
# Compressibility (1/GPa) = 0.02496921
#
# Stress axis : x y z
#
# Youngs Moduli (GPa) = 64.34847 52.24459 108.57739
#
# Poissons Ratio (x) = 0.15121 0.15601
# Poissons Ratio (y) = 0.18624 0.55699
# Poissons Ratio (z) = 0.09246 0.26801
#
# Static dielectric constant tensor:
#      x y z
#    x 1.730240 -0.020100 0.013730 
#    y -0.020100 1.737850 0.028160 
#    z 0.013730 0.028160 1.721830 
# 
# From -- ./inp_files/468409.got.cif
#   From: 2010.05.17/outbox.cif.g08.bks.cpg/sg2_235_cif.got.tgz:468409.got - 2010.06.03 11:33:40.
