data_PCOD9026912
_publ_section_title
;
Structure prediction by ZEFSAII (Michael W. Deem and Ramdas Pophale) SiO2 
 PCOD9026912
Probable space group: P -1
;
_chemical_formula_sum "Si O2"
_cell_formula_units_Z 12
_cell_length_a 10.783661
_cell_length_b 9.151106
_cell_length_c 4.707080
_cell_angle_alpha 62.917888
_cell_angle_beta 107.091204
_cell_angle_gamma 108.419959
_cell_volume 386.147231
_symmetry_space_group_name_H-M "P -1"
_symmetry_group_IT_number 2
_symmetry_cell_setting 'triclinic'
loop_
_space_group_symop_operation_xyz
x,y,z
-x,-y,-z
loop_
_atom_site_type_symbol
_atom_site_label
_atom_site_fract_x
_atom_site_fract_y
_atom_site_fract_z
Si Si1 0.136515 0.952223 0.242068
Si Si2 0.529474 0.160668 0.082193
Si Si3 0.276436 0.285130 0.854734
Si Si4 0.787279 0.242470 0.077924
Si Si5 0.027402 0.398418 0.324034
Si Si6 0.435195 0.617156 0.555566
O O1 0.180589 0.861045 0.077894
O O2 0.084443 0.795685 0.573964
O O3 0.215996 0.143663 0.168615
O O4 0.000000 0.000000 0.000000
O O5 0.503276 0.244278 0.300579
O O6 0.386971 0.214509 0.825248
O O7 0.684025 0.134259 0.333284
O O8 0.500000 0.000000 0.000000
O O9 0.155746 0.320036 0.547011
O O10 0.339530 0.478181 0.814935
O O11 0.894514 0.432466 0.978497
O O12 0.645648 0.300967 0.813115
O O13 0.000000 0.500000 0.500000
O O14 0.500000 0.500000 0.500000
#
# Coordination Sequence:
#
# PCOD9026912 Si02
#       6
#     2   2   2   2   2   2
#     4  10  25  45  70 103 144 184 234 287 356 422
#     4  11  23  44  70 105 140 185 237 290 344 417
#     4  11  23  44  73 105 139 188 233 292 353 417
#     4  10  24  45  68 100 148 178 237 288 350 418
#     4  10  24  48  71 102 139 187 236 294 348 423
#     4  10  22  41  66 105 139 179 235 291 341 411
#
# _framework density 31.076226999999999
#
# number of rings (size 3 to 8) (size 9 to 14) (size 15 to 20)
#    1.000    0.667    0.000    4.500    0.000    6.667 
#   12.000    0.000    0.000    0.000    0.000    0.000 
#    0.000    0.000    0.000    0.000    0.000    0.000 
#
# Total GULP energy -66929.061070 kJ/mol
# GULP energy per Si atom -5577.421756 kJ/mol
# Density = 3.100550 g / cm^3
# Si number density = 31.076227 Si / 1000 Ang^3
#
#
#
# Elastic Constant Matrix: (Units=GPa)
#
#
# Indices 1 2 3 4 5 6 
#
# 1 274.2107 104.1947 42.1692 24.5916 32.8313 -6.6282
# 2 104.1947 237.5477 142.7444 30.0201 6.2369 17.5104
# 3 42.1692 142.7444 286.2659 -27.6785 14.6856 -20.4884
# 4 24.5916 30.0201 -27.6785 104.9414 -5.1719 -5.5097
# 5 32.8313 6.2369 14.6856 -5.1719 36.4094 -5.5654
# 6 -6.6282 17.5104 -20.4884 -5.5097 -5.5654 81.9919
#
#
#
# Elastic Compliance Matrix: (Units=1/GPa)
#
#
# Indices 1 2 3 4 5 6 
#
# 1 0.005101 -0.002611 0.000797 -0.000411 -0.004403 0.000843
# 2 -0.002611 0.008718 -0.004598 -0.003182 0.001756 -0.003317
# 3 0.000797 -0.004598 0.006217 0.002829 -0.001627 0.002680
# 4 -0.000411 -0.003182 0.002829 0.011486 0.001749 0.002244
# 5 -0.004403 0.001756 -0.001627 0.001749 0.032218 0.001167
# 6 0.000843 -0.003317 0.002680 0.002244 0.001167 0.013872
#
#
# Mechanical properties :
#
#
# Convention : Reuss Voigt Hill
#
# Bulk Modulus (GPa) = 138.64040 152.91566 145.77803
# Shear Modulus (GPa) = 53.85565 78.59628 66.22596
#
# Velocity S-wave (km/s) = 4.16747 5.03452 4.62137
# Velocity P-wave (km/s) = 8.23814 9.11639 8.68837
#
# Compressibility (1/GPa) = 0.00721290
#
# Stress axis : x y z
#
# Youngs Moduli (GPa) = 196.04997 114.70155 160.83999
#
# Poissons Ratio (x) = 0.29945 -0.12817
# Poissons Ratio (y) = 0.51183 0.73953
# Poissons Ratio (z) = -0.15623 0.52739
#
# Static dielectric constant tensor:
#      x y z
#    x 0.829030 0.496080 -2.250810 
#    y 0.496080 2.283100 -0.372350 
#    z -2.250810 -0.372350 1.169750 
# 
# From -- ./inp_files/58969.got.cif
#   From: 2010.05.17/outbox.cif.g08.bks.cpg/sg2_30_cif.got.tgz:58969.got - 2010.06.03 11:33:40.
