data_PCOD9026840
_publ_section_title
;
Structure prediction by ZEFSAII (Michael W. Deem and Ramdas Pophale) SiO2 
 PCOD9026840
Probable space group: P -1
;
_chemical_formula_sum "Si O2"
_cell_formula_units_Z 16
_cell_length_a 9.346525
_cell_length_b 16.404513
_cell_length_c 8.315380
_cell_angle_alpha 110.604055
_cell_angle_beta 106.175602
_cell_angle_gamma 36.775137
_cell_volume 714.450154
_symmetry_space_group_name_H-M "P -1"
_symmetry_group_IT_number 2
_symmetry_cell_setting 'triclinic'
loop_
_space_group_symop_operation_xyz
x,y,z
-x,-y,-z
loop_
_atom_site_type_symbol
_atom_site_label
_atom_site_fract_x
_atom_site_fract_y
_atom_site_fract_z
Si Si1 0.101204 0.256621 0.669940
Si Si2 0.210837 0.299083 0.396984
Si Si3 0.264796 0.344948 0.947240
Si Si4 0.452504 0.515306 0.305673
Si Si5 0.927809 0.041085 0.746328
Si Si6 0.275412 0.986063 0.593067
Si Si7 0.277533 0.443403 0.700157
Si Si8 0.696754 0.225194 0.122137
O O1 0.109853 0.299227 0.528137
O O2 0.250237 0.251345 0.829964
O O3 0.827868 0.375578 0.726459
O O4 0.215297 0.109447 0.598679
O O5 0.464065 0.138564 0.331944
O O6 0.266088 0.374547 0.510933
O O7 0.994220 0.395054 0.269877
O O8 0.339655 0.367642 0.831590
O O9 0.452148 0.281575 0.099943
O O10 0.000000 0.500000 0.000000
O O11 0.500000 0.500000 0.500000
O O12 0.537024 0.566145 0.288166
O O13 0.614612 0.362110 0.186496
O O14 0.068470 0.047628 0.689981
O O15 0.123295 0.879866 0.751209
O O16 0.738236 0.076201 0.602209
O O17 0.823323 0.133388 0.936212
#
# Coordination Sequence:
#
# PCOD9026840 Si02
#       8
#     2   2   2   2   2   2   2   2
#     4  11  23  41  67 103 131 175 227 276 337 396
#     4  10  22  41  65  98 140 168 215 284 336 397
#     4  11  24  44  66  94 140 181 215 275 349 404
#     4  12  24  41  72 102 134 173 234 285 328 407
#     4  10  25  44  68 100 132 183 223 281 338 403
#     4  11  24  42  74  98 133 174 238 274 332 402
#     4  10  24  39  65 101 133 175 226 271 344 396
#     4  11  25  46  67  95 145 177 221 278 350 392
#
# _framework density 22.394843999999999
#
# number of rings (size 3 to 8) (size 9 to 14) (size 15 to 20)
#    0.000    1.250    2.500    2.625    8.750    1.500 
#    2.250    0.625    0.000    0.000    0.000    0.000 
#    0.000    0.000    0.000    0.000    0.000    0.000 
#
# Total GULP energy -89567.264339 kJ/mol
# GULP energy per Si atom -5597.954021 kJ/mol
# Density = 2.234387 g / cm^3
# Si number density = 22.394844 Si / 1000 Ang^3
#
#
#
# Elastic Constant Matrix: (Units=GPa)
#
#
# Indices 1 2 3 4 5 6 
#
# 1 137.4303 38.7813 16.3038 9.8147 6.2984 15.6576
# 2 38.7813 109.6407 10.0175 7.8443 1.6490 -6.9724
# 3 16.3038 10.0175 41.4367 9.1458 -1.9225 6.7413
# 4 9.8147 7.8443 9.1458 33.2340 -1.7810 9.2011
# 5 6.2984 1.6490 -1.9225 -1.7810 12.8007 0.6348
# 6 15.6576 -6.9724 6.7413 9.2011 0.6348 36.4578
#
#
#
# Elastic Compliance Matrix: (Units=1/GPa)
#
#
# Indices 1 2 3 4 5 6 
#
# 1 0.009116 -0.003166 -0.002282 -0.000465 -0.004291 -0.003906
# 2 -0.003166 0.010845 -0.001577 -0.002429 -0.000629 0.004349
# 3 -0.002282 -0.001577 0.027324 -0.005354 0.004839 -0.003107
# 4 -0.000465 -0.002429 -0.005354 0.034795 0.004983 -0.008143
# 5 -0.004291 -0.000629 0.004839 0.004983 0.081825 -0.001854
# 6 -0.003906 0.004349 -0.003107 -0.008143 -0.001854 0.032600
#
#
# Mechanical properties :
#
#
# Convention : Reuss Voigt Hill
#
# Bulk Modulus (GPa) = 30.08979 46.52366 38.30672
# Shear Modulus (GPa) = 22.55986 31.39217 26.97601
#
# Velocity S-wave (km/s) = 3.17735 3.74807 3.47445
# Velocity P-wave (km/s) = 5.18902 6.28888 5.76524
#
# Compressibility (1/GPa) = 0.03323386
#
# Stress axis : x y z
#
# Youngs Moduli (GPa) = 109.70202 92.21227 36.59801
#
# Poissons Ratio (x) = 0.29198 0.08352
# Poissons Ratio (y) = 0.34736 0.05770
# Poissons Ratio (z) = 0.25035 0.14538
#
# Static dielectric constant tensor:
#      x y z
#    x 1.810450 -0.030280 -0.020850 
#    y -0.030280 1.822110 0.016480 
#    z -0.020850 0.016480 1.831260 
# 
# From -- ./inp_files/208360.got.cif
#   From: 2010.05.17/outbox.cif.g08.bks.cpg/sg2_105_cif.got.tgz:208360.got - 2010.06.03 11:33:40.
