data_PCOD9026696
_publ_section_title
;
Structure prediction by ZEFSAII (Michael W. Deem and Ramdas Pophale) SiO2 
 PCOD9026696
Probable space group: P -1
;
_chemical_formula_sum "Si O2"
_cell_formula_units_Z 14
_cell_length_a 8.158393
_cell_length_b 7.084816
_cell_length_c 13.869300
_cell_angle_alpha 131.182976
_cell_angle_beta 93.984632
_cell_angle_gamma 73.091273
_cell_volume 568.902949
_symmetry_space_group_name_H-M "P -1"
_symmetry_group_IT_number 2
_symmetry_cell_setting 'triclinic'
loop_
_space_group_symop_operation_xyz
x,y,z
-x,-y,-z
loop_
_atom_site_type_symbol
_atom_site_label
_atom_site_fract_x
_atom_site_fract_y
_atom_site_fract_z
Si Si1 0.297707 0.862091 0.002147
Si Si2 0.478005 0.011571 0.242349
Si Si3 0.335445 0.888810 0.546173
Si Si4 0.401205 0.550773 0.717254
Si Si5 0.072790 0.398942 0.678798
Si Si6 0.177824 0.458380 0.438944
Si Si7 0.976303 0.671719 0.960827
O O1 0.407772 0.627672 0.856138
O O2 0.121845 0.817997 0.018904
O O3 0.209363 0.119165 0.013367
O O4 0.414842 0.872618 0.103663
O O5 0.611040 0.928349 0.309994
O O6 0.545206 0.225836 0.261696
O O7 0.308229 0.165434 0.350156
O O8 0.477446 0.722436 0.418958
O O9 0.275740 0.670528 0.528582
O O10 0.171302 0.094119 0.556834
O O11 0.202503 0.553549 0.699298
O O12 0.884461 0.503542 0.660707
O O13 0.038464 0.455869 0.807456
O O14 0.000000 0.500000 0.500000
O O15 0.000000 0.500000 0.000000
#
# Coordination Sequence:
#
# PCOD9026696 Si02
#       7
#     2   2   2   2   2   2   2
#     4  10  22  44  71  95 135 178 228 275 333 403
#     4  11  22  42  63 100 129 176 222 267 345 399
#     4  11  24  40  64  99 136 169 218 278 340 396
#     4  10  22  41  65  92 130 177 214 272 335 397
#     4  11  22  42  64  98 133 168 228 283 329 393
#     4  11  22  40  66  94 130 178 224 267 335 406
#     4  10  23  43  68 102 133 175 229 282 331 396
#
# _framework density 24.608765999999999
#
# number of rings (size 3 to 8) (size 9 to 14) (size 15 to 20)
#    0.000    1.429    1.429    4.714    2.000    1.143 
#    2.571    2.857    0.000    0.000    0.000    0.000 
#    0.000    0.000    0.000    0.000    0.000    0.000 
#
# Total GULP energy -78125.082510 kJ/mol
# GULP energy per Si atom -5580.363036 kJ/mol
# Density = 2.455276 g / cm^3
# Si number density = 24.608766 Si / 1000 Ang^3
#
#
#
# Elastic Constant Matrix: (Units=GPa)
#
#
# Indices 1 2 3 4 5 6 
#
# 1 72.5032 15.2516 55.3755 -22.5092 -0.7061 -1.2187
# 2 15.2516 68.1947 32.7780 -14.0170 -5.5852 3.3863
# 3 55.3755 32.7780 128.3772 -8.1428 6.4344 -2.7396
# 4 -22.5092 -14.0170 -8.1428 27.0610 -11.3913 -4.7775
# 5 -0.7061 -5.5852 6.4344 -11.3913 44.1371 -6.3716
# 6 -1.2187 3.3863 -2.7396 -4.7775 -6.3716 39.1793
#
#
#
# Elastic Compliance Matrix: (Units=1/GPa)
#
#
# Indices 1 2 3 4 5 6 
#
# 1 0.035269 0.007698 -0.015492 0.035528 0.013822 0.005928
# 2 0.007698 0.021415 -0.007992 0.019265 0.009212 0.001677
# 3 -0.015492 -0.007992 0.015859 -0.015945 -0.007964 -0.001922
# 4 0.035528 0.019265 -0.015945 0.086590 0.029657 0.013707
# 5 0.013822 0.009212 -0.007964 0.029657 0.034047 0.008230
# 6 0.005928 0.001677 -0.001922 0.013707 0.008230 0.028439
#
#
# Mechanical properties :
#
#
# Convention : Reuss Voigt Hill
#
# Bulk Modulus (GPa) = 24.40705 52.87615 38.64160
# Shear Modulus (GPa) = 18.73728 33.12016 25.92872
#
# Velocity S-wave (km/s) = 2.76235 3.67259 3.24950
# Velocity P-wave (km/s) = 4.48483 6.28627 5.46035
#
# Compressibility (1/GPa) = 0.04097176
#
# Stress axis : x y z
#
# Youngs Moduli (GPa) = 28.35322 46.69691 63.05423
#
# Poissons Ratio (x) = -0.35949 0.97682
# Poissons Ratio (y) = -0.21827 0.50396
# Poissons Ratio (z) = 0.43924 0.37322
#
# Static dielectric constant tensor:
#      x y z
#    x 1.964620 -0.010850 0.043890 
#    y -0.010850 2.028180 -0.040360 
#    z 0.043890 -0.040360 2.022950 
# 
# From -- ./inp_files/495870.got.cif
#   From: 2010.05.17/outbox.cif.g08.bks.cpg/sg2_248_cif.got.tgz:495870.got - 2010.06.03 11:33:40.
