data_PCOD9026408
_publ_section_title
;
Structure prediction by ZEFSAII (Michael W. Deem and Ramdas Pophale) SiO2 
 PCOD9026408
Probable space group: P -1
;
_chemical_formula_sum "Si O2"
_cell_formula_units_Z 16
_cell_length_a 24.001219
_cell_length_b 17.614927
_cell_length_c 7.506171
_cell_angle_alpha 36.734451
_cell_angle_beta 38.250938
_cell_angle_gamma 21.371274
_cell_volume 680.513213
_symmetry_space_group_name_H-M "P -1"
_symmetry_group_IT_number 2
_symmetry_cell_setting 'triclinic'
loop_
_space_group_symop_operation_xyz
x,y,z
-x,-y,-z
loop_
_atom_site_type_symbol
_atom_site_label
_atom_site_fract_x
_atom_site_fract_y
_atom_site_fract_z
Si Si1 0.124655 0.014350 0.568608
Si Si2 0.732624 0.795409 0.670892
Si Si3 0.450711 0.603880 0.623972
Si Si4 0.354873 0.504304 0.348098
Si Si5 0.988750 0.700220 0.190330
Si Si6 0.972094 0.993827 0.796384
Si Si7 0.079568 0.536975 0.674191
Si Si8 0.398449 0.169296 0.726881
O O1 0.295311 0.861433 0.480802
O O2 0.065628 0.020499 0.888396
O O3 0.000271 0.265788 0.370017
O O4 0.119665 0.913189 0.618684
O O5 0.868063 0.533532 0.825826
O O6 0.824385 0.818678 0.344762
O O7 0.580996 0.943925 0.650883
O O8 0.657114 0.873013 0.911185
O O9 0.500000 0.500000 0.500000
O O10 0.560547 0.560072 0.557635
O O11 0.413717 0.525634 0.994432
O O12 0.382241 0.327627 0.559088
O O13 0.177095 0.750526 0.353473
O O14 0.027033 0.624854 0.441409
O O15 0.983762 0.857675 0.898511
O O16 0.264720 0.322167 0.627425
O O17 0.000000 0.500000 0.000000
#
# Coordination Sequence:
#
# PCOD9026408 Si02
#       8
#     2   2   2   2   2   2   2   2
#     4   9  19  36  60  90 123 160 207 265 320 387
#     4  10  24  42  61  90 130 169 216 269 317 392
#     4  10  23  41  60  97 133 167 211 266 332 390
#     4  10  22  41  67  92 128 171 212 264 332 389
#     4  10  22  41  64  90 126 169 213 268 325 377
#     4   9  18  37  64  88 120 164 207 258 325 381
#     4  11  21  39  64  90 124 170 213 264 325 391
#     4  11  23  42  64  92 127 169 217 263 328 392
#
# _framework density 23.511665000000001
#
# number of rings (size 3 to 8) (size 9 to 14) (size 15 to 20)
#    0.000    2.000    2.500    0.000    8.750    1.500 
#    4.500    1.250    0.000    0.000    0.000    0.000 
#    0.000    0.000    0.000    0.000    0.000    0.000 
#
# Total GULP energy -89323.114995 kJ/mol
# GULP energy per Si atom -5582.694687 kJ/mol
# Density = 2.345815 g / cm^3
# Si number density = 23.511665 Si / 1000 Ang^3
#
#
#
# Elastic Constant Matrix: (Units=GPa)
#
#
# Indices 1 2 3 4 5 6 
#
# 1 102.5805 53.3565 37.6338 13.6756 -6.1698 -16.4754
# 2 53.3565 121.5555 39.4315 0.8098 -16.3778 -28.9400
# 3 37.6338 39.4315 46.8020 8.7258 7.3839 -1.0693
# 4 13.6756 0.8098 8.7258 24.9806 -5.5839 0.6699
# 5 -6.1698 -16.3778 7.3839 -5.5839 28.9564 5.7054
# 6 -16.4754 -28.9400 -1.0693 0.6699 5.7054 42.6376
#
#
#
# Elastic Compliance Matrix: (Units=1/GPa)
#
#
# Indices 1 2 3 4 5 6 
#
# 1 0.016348 -0.002125 -0.010976 -0.004400 0.003402 0.004214
# 2 -0.002125 0.019747 -0.019122 0.010440 0.015666 0.009842
# 3 -0.010976 -0.019122 0.053837 -0.018129 -0.028047 -0.011832
# 4 -0.004400 0.010440 -0.018129 0.052745 0.019467 0.001498
# 5 0.003402 0.015666 -0.028047 0.019467 0.054303 0.003672
# 6 0.004214 0.009842 -0.011832 0.001498 0.003672 0.030950
#
#
# Mechanical properties :
#
#
# Convention : Reuss Voigt Hill
#
# Bulk Modulus (GPa) = 39.23432 59.08687 49.16060
# Shear Modulus (GPa) = 16.61848 28.68266 22.65057
#
# Velocity S-wave (km/s) = 2.66149 3.49654 3.10720
# Velocity P-wave (km/s) = 5.11548 6.44100 5.81613
#
# Compressibility (1/GPa) = 0.02548789
#
# Stress axis : x y z
#
# Youngs Moduli (GPa) = 61.16899 50.64141 18.57454
#
# Poissons Ratio (x) = 0.10760 0.20387
# Poissons Ratio (y) = 0.12997 0.35518
# Poissons Ratio (z) = 0.67137 0.96835
#
# Static dielectric constant tensor:
#      x y z
#    x 1.981330 0.018350 0.018680 
#    y 0.018350 1.918510 -0.006810 
#    z 0.018680 -0.006810 1.907640 
# 
# From -- ./inp_files/354937.got.cif
#   From: 2010.05.17/outbox.cif.g08.bks.cpg/sg2_178_cif.got.tgz:354937.got - 2010.06.03 11:33:40.
