data_PCOD9026331
_publ_section_title
;
Structure prediction by ZEFSAII (Michael W. Deem and Ramdas Pophale) SiO2 
 PCOD9026331
Probable space group: P -1
;
_chemical_formula_sum "Si O2"
_cell_formula_units_Z 14
_cell_length_a 7.688421
_cell_length_b 7.722827
_cell_length_c 11.480655
_cell_angle_alpha 105.707831
_cell_angle_beta 57.429714
_cell_angle_gamma 120.610356
_cell_volume 494.414615
_symmetry_space_group_name_H-M "P -1"
_symmetry_group_IT_number 2
_symmetry_cell_setting 'triclinic'
loop_
_space_group_symop_operation_xyz
x,y,z
-x,-y,-z
loop_
_atom_site_type_symbol
_atom_site_label
_atom_site_fract_x
_atom_site_fract_y
_atom_site_fract_z
Si Si1 0.927506 0.028281 0.660501
Si Si2 0.095569 0.707938 0.577821
Si Si3 0.747604 0.536054 0.855382
Si Si4 0.328150 0.417843 0.658206
Si Si5 0.457716 0.743530 0.868485
Si Si6 0.498060 0.162180 0.713993
Si Si7 0.097402 0.834002 0.931733
O O1 0.078777 0.257824 0.678044
O O2 0.664811 0.944590 0.776880
O O3 0.000000 0.000000 0.500000
O O4 0.986458 0.861039 0.666014
O O5 0.316465 0.845491 0.445210
O O6 0.000000 0.500000 0.500000
O O7 0.001613 0.600763 0.715194
O O8 0.584289 0.647845 0.894519
O O9 0.607721 0.312713 0.811624
O O10 0.863685 0.628789 0.954790
O O11 0.500000 0.500000 0.500000
O O12 0.364969 0.595401 0.764195
O O13 0.400362 0.279462 0.687625
O O14 0.244033 0.798638 0.978023
O O15 0.299625 0.949008 0.784241
O O16 0.000000 0.000000 0.000000
#
# Coordination Sequence:
#
# PCOD9026331 Si02
#       7
#     2   2   2   2   2   2   2
#     4  11  20  33  56  92 135 172 208 256 326 402
#     4   9  19  34  62  94 132 170 197 259 341 404
#     4   9  22  43  64  97 135 166 214 279 341 408
#     4  11  23  37  62 101 141 179 217 259 337 425
#     4  10  23  43  63  95 133 172 222 282 331 393
#     4  10  22  41  63  96 137 174 216 275 339 395
#     4  12  27  45  69  95 125 180 242 281 327 389
#
# _framework density 28.316312
#
# number of rings (size 3 to 8) (size 9 to 14) (size 15 to 20)
#    0.000    1.714    1.429    3.429    2.000    4.571 
#    0.000    2.857    0.000    0.000    0.000    0.000 
#    0.000    0.000    0.000    0.000    0.000    0.000 
#
# Total GULP energy -77993.923122 kJ/mol
# GULP energy per Si atom -5570.994509 kJ/mol
# Density = 2.825186 g / cm^3
# Si number density = 28.316312 Si / 1000 Ang^3
#
#
#
# Elastic Constant Matrix: (Units=GPa)
#
#
# Indices 1 2 3 4 5 6 
#
# 1 176.7554 91.9838 44.3174 12.8462 -24.5889 3.8876
# 2 91.9838 183.0361 29.4188 0.1541 -7.0256 24.8572
# 3 44.3174 29.4188 98.6282 -7.9954 -17.3165 20.0550
# 4 12.8462 0.1541 -7.9954 40.6021 1.2973 -9.5240
# 5 -24.5889 -7.0256 -17.3165 1.2973 46.0738 5.0117
# 6 3.8876 24.8572 20.0550 -9.5240 5.0117 64.6407
#
#
#
# Elastic Compliance Matrix: (Units=1/GPa)
#
#
# Indices 1 2 3 4 5 6 
#
# 1 0.009216 -0.004216 -0.002841 -0.003274 0.003167 0.001220
# 2 -0.004216 0.007909 -0.000012 0.000712 -0.000784 -0.002618
# 3 -0.002841 -0.000012 0.013046 0.002458 0.003729 -0.003799
# 4 -0.003274 0.000712 0.002458 0.026973 -0.001831 0.003277
# 5 0.003167 -0.000784 0.003729 -0.001831 0.025083 -0.003261
# 6 0.001220 -0.002618 -0.003799 0.003277 -0.003261 0.018318
#
#
# Mechanical properties :
#
#
# Convention : Reuss Voigt Hill
#
# Bulk Modulus (GPa) = 62.37477 87.76216 75.06846
# Shear Modulus (GPa) = 41.65750 49.77664 45.71707
#
# Velocity S-wave (km/s) = 3.83972 4.19726 4.02246
# Velocity P-wave (km/s) = 6.46015 7.38580 6.93843
#
# Compressibility (1/GPa) = 0.01603212
#
# Stress axis : x y z
#
# Youngs Moduli (GPa) = 108.51243 126.43832 76.65374
#
# Poissons Ratio (x) = 0.53307 0.21776
# Poissons Ratio (y) = 0.45749 0.00093
# Poissons Ratio (z) = 0.30827 0.00153
#
# Static dielectric constant tensor:
#      x y z
#    x 2.542480 -0.238330 0.190030 
#    y -0.238330 2.225860 0.013290 
#    z 0.190030 0.013290 1.959340 
# 
# From -- ./inp_files/493572.got.cif
#   From: 2010.05.17/outbox.cif.g08.bks.cpg/sg2_247_cif.got.tgz:493572.got - 2010.06.03 11:33:40.
