data_PCOD9026928
_publ_section_title
;
Structure prediction by ZEFSAII (Michael W. Deem and Ramdas Pophale) SiO2 
 PCOD9026928
Probable space group: P -1
;
_chemical_formula_sum "Si O2"
_cell_formula_units_Z 16
_cell_length_a 21.935750
_cell_length_b 7.618935
_cell_length_c 15.436079
_cell_angle_alpha 94.334775
_cell_angle_beta 18.371804
_cell_angle_gamma 85.025854
_cell_volume 700.209747
_symmetry_space_group_name_H-M "P -1"
_symmetry_group_IT_number 2
_symmetry_cell_setting 'triclinic'
loop_
_space_group_symop_operation_xyz
x,y,z
-x,-y,-z
loop_
_atom_site_type_symbol
_atom_site_label
_atom_site_fract_x
_atom_site_fract_y
_atom_site_fract_z
Si Si1 0.731350 0.383499 0.802014
Si Si2 0.239211 0.669945 0.871857
Si Si3 0.342245 0.732288 0.917785
Si Si4 0.785005 0.836490 0.814087
Si Si5 0.374702 0.807693 0.311512
Si Si6 0.939596 0.934529 0.988766
Si Si7 0.733064 0.993875 0.702670
Si Si8 0.809073 0.612239 0.191961
O O1 0.985968 0.339026 0.458684
O O2 0.659104 0.388523 0.000298
O O3 0.551473 0.601973 0.016437
O O4 0.724499 0.197304 0.759070
O O5 0.500000 0.500000 0.500000
O O6 0.201622 0.722102 0.026095
O O7 0.127554 0.547535 0.977904
O O8 0.189766 0.864968 0.888454
O O9 0.582941 0.658939 0.547844
O O10 0.248355 0.960398 0.087300
O O11 0.547214 0.843450 0.138542
O O12 0.829374 0.848913 0.651991
O O13 0.186260 0.781352 0.612311
O O14 0.221600 0.995330 0.460504
O O15 0.803312 0.817582 0.178835
O O16 0.000000 0.000000 0.000000
O O17 0.500000 0.000000 0.000000
O O18 0.000000 0.500000 0.000000
#
# Coordination Sequence:
#
# PCOD9026928 Si02
#       8
#     2   2   2   2   2   2   2   2
#     4  11  22  40  66  92 131 168 216 272 327 390
#     4  10  25  44  69  95 137 171 224 272 328 398
#     4  10  22  42  64  94 131 170 215 264 333 392
#     4  10  22  41  66  90 126 176 215 265 329 392
#     4  11  24  41  63  96 129 167 219 274 327 384
#     4  12  25  43  70 100 135 173 223 275 329 396
#     4   9  20  40  63  91 123 167 216 267 322 388
#     4  11  22  44  69  99 134 174 221 270 334 396
#
# _framework density 22.850294999999999
#
# number of rings (size 3 to 8) (size 9 to 14) (size 15 to 20)
#    0.000    1.500    1.250    3.750    5.250    2.000 
#    4.500    1.250    0.000    0.000    0.000    0.000 
#    0.000    0.000    0.000    0.000    0.000    0.000 
#
# Total GULP energy -89242.686297 kJ/mol
# GULP energy per Si atom -5577.667894 kJ/mol
# Density = 2.279829 g / cm^3
# Si number density = 22.850295 Si / 1000 Ang^3
#
#
#
# Elastic Constant Matrix: (Units=GPa)
#
#
# Indices 1 2 3 4 5 6 
#
# 1 108.9378 25.5707 19.8451 -11.1111 -15.0186 14.5945
# 2 25.5707 93.6954 -3.3123 -1.9215 -11.6923 11.8129
# 3 19.8451 -3.3123 75.3929 2.5212 -19.8884 -7.0182
# 4 -11.1111 -1.9215 2.5212 28.4650 -8.6302 -7.6888
# 5 -15.0186 -11.6923 -19.8884 -8.6302 34.5074 1.3848
# 6 14.5945 11.8129 -7.0182 -7.6888 1.3848 40.9421
#
#
#
# Elastic Compliance Matrix: (Units=1/GPa)
#
#
# Indices 1 2 3 4 5 6 
#
# 1 0.011693 -0.002246 -0.002510 0.005084 0.004279 -0.003140
# 2 -0.002246 0.012253 0.002102 0.000504 0.004609 -0.002436
# 3 -0.002510 0.002102 0.016767 0.001398 0.009509 0.003104
# 4 0.005084 0.000504 0.001398 0.042742 0.013644 0.005847
# 5 0.004279 0.004609 0.009509 0.013644 0.041299 -0.000060
# 6 -0.003140 -0.002436 0.003104 0.005847 -0.000060 0.027879
#
#
# Mechanical properties :
#
#
# Convention : Reuss Voigt Hill
#
# Bulk Modulus (GPa) = 28.24447 40.24811 34.24629
# Shear Modulus (GPa) = 29.45635 36.51109 32.98372
#
# Velocity S-wave (km/s) = 3.59430 4.00163 3.80342
# Velocity P-wave (km/s) = 5.44177 6.24522 5.85729
#
# Compressibility (1/GPa) = 0.03540516
#
# Stress axis : x y z
#
# Youngs Moduli (GPa) = 85.51995 81.61460 59.63938
#
# Poissons Ratio (x) = 0.18329 0.14970
# Poissons Ratio (y) = 0.19206 -0.12535
# Poissons Ratio (z) = 0.21467 -0.17154
#
# Static dielectric constant tensor:
#      x y z
#    x 1.866460 -0.028040 0.037570 
#    y -0.028040 1.850480 0.038170 
#    z 0.037570 0.038170 1.946710 
# 
# From -- ./inp_files/540265.got.cif
#   From: 2010.05.17/outbox.cif.g08.bks.cpg/sg2_271_cif.got.tgz:540265.got - 2010.06.03 11:33:40.
