data_PCOD9026448
_publ_section_title
;
Structure prediction by ZEFSAII (Michael W. Deem and Ramdas Pophale) SiO2 
 PCOD9026448
Probable space group: P -1
;
_chemical_formula_sum "Si O2"
_cell_formula_units_Z 16
_cell_length_a 8.568311
_cell_length_b 6.277376
_cell_length_c 17.460642
_cell_angle_alpha 100.737495
_cell_angle_beta 93.778939
_cell_angle_gamma 51.751926
_cell_volume 723.145362
_symmetry_space_group_name_H-M "P -1"
_symmetry_group_IT_number 2
_symmetry_cell_setting 'triclinic'
loop_
_space_group_symop_operation_xyz
x,y,z
-x,-y,-z
loop_
_atom_site_type_symbol
_atom_site_label
_atom_site_fract_x
_atom_site_fract_y
_atom_site_fract_z
Si Si1 0.619583 0.518907 0.609877
Si Si2 0.296214 0.177486 0.676739
Si Si3 0.671087 0.828781 0.873494
Si Si4 0.400855 0.382745 0.828676
Si Si5 0.091314 0.717446 0.257948
Si Si6 0.361452 0.324018 0.537754
Si Si7 0.981023 0.943225 0.870062
Si Si8 0.350758 0.533077 0.059673
O O1 0.779537 0.326594 0.667255
O O2 0.491800 0.414269 0.579255
O O3 0.724069 0.513881 0.534346
O O4 0.466557 0.845336 0.650551
O O5 0.378045 0.310175 0.738001
O O6 0.233044 0.336553 0.603940
O O7 0.109943 0.228719 0.716942
O O8 0.771576 0.576820 0.800361
O O9 0.832686 0.878260 0.883564
O O10 0.634754 0.731032 0.942992
O O11 0.467181 0.110939 0.857851
O O12 0.568351 0.415683 0.856635
O O13 0.200254 0.667184 0.868836
O O14 0.034046 0.954813 0.211253
O O15 0.500000 0.000000 0.500000
O O16 0.883907 0.215541 0.936640
O O17 0.500000 0.500000 0.000000
#
# Coordination Sequence:
#
# PCOD9026448 Si02
#       8
#     2   2   2   2   2   2   2   2
#     4  10  22  42  63  87 128 173 212 268 317 373
#     4  11  23  36  66  95 125 166 214 266 323 375
#     4  10  22  41  64  92 125 163 203 261 314 377
#     4  11  23  39  66  96 127 166 211 265 317 378
#     4  11  23  37  64  96 126 161 214 266 313 376
#     4   9  22  42  61  89 127 171 218 257 321 380
#     4  10  24  39  62  98 128 162 216 261 313 380
#     4  10  25  45  66  94 130 170 210 257 317 383
#
# _framework density 22.125567
#
# number of rings (size 3 to 8) (size 9 to 14) (size 15 to 20)
#    0.000    1.750    2.500    0.000    8.750    3.000 
#    0.000    6.875    0.000    0.000    0.000    0.000 
#    0.000    0.000    0.000    0.000    0.000    0.000 
#
# Total GULP energy -89237.981320 kJ/mol
# GULP energy per Si atom -5577.373832 kJ/mol
# Density = 2.207521 g / cm^3
# Si number density = 22.125567 Si / 1000 Ang^3
#
#
#
# Elastic Constant Matrix: (Units=GPa)
#
#
# Indices 1 2 3 4 5 6 
#
# 1 75.1396 32.8430 37.3101 -8.8014 -25.2734 4.8699
# 2 32.8430 121.4855 25.9664 -6.8035 -15.3812 -9.3161
# 3 37.3101 25.9664 76.1519 -1.2904 -24.9204 2.6620
# 4 -8.8014 -6.8035 -1.2904 34.6900 16.7960 -0.3661
# 5 -25.2734 -15.3812 -24.9204 16.7960 45.0840 -5.4504
# 6 4.8699 -9.3161 2.6620 -0.3661 -5.4504 35.6435
#
#
#
# Elastic Compliance Matrix: (Units=1/GPa)
#
#
# Indices 1 2 3 4 5 6 
#
# 1 0.020459 -0.003434 -0.006900 0.001503 0.005646 -0.002299
# 2 -0.003434 0.009873 -0.001550 0.000690 0.000727 0.003284
# 3 -0.006900 -0.001550 0.019751 -0.005481 0.008602 0.000322
# 4 0.001503 0.000690 -0.005481 0.036803 -0.015864 -0.001663
# 5 0.005646 0.000727 0.008602 -0.015864 0.036771 0.004236
# 6 -0.002299 0.003284 0.000322 -0.001663 0.004236 0.029835
#
#
# Mechanical properties :
#
#
# Convention : Reuss Voigt Hill
#
# Bulk Modulus (GPa) = 37.99602 51.66843 44.83222
# Shear Modulus (GPa) = 26.87720 34.86066 30.86893
#
# Velocity S-wave (km/s) = 3.48912 3.97367 3.73925
# Velocity P-wave (km/s) = 5.78292 6.66757 6.24094
#
# Compressibility (1/GPa) = 0.02631855
#
# Stress axis : x y z
#
# Youngs Moduli (GPa) = 48.87715 101.28213 50.62953
#
# Poissons Ratio (x) = 0.34776 0.34932
# Poissons Ratio (y) = 0.16783 0.07845
# Poissons Ratio (z) = 0.33723 0.15694
#
# Static dielectric constant tensor:
#      x y z
#    x 1.776000 -0.002450 0.002410 
#    y -0.002450 1.885790 -0.010270 
#    z 0.002410 -0.010270 1.915660 
# 
# From -- ./inp_files/55663.got.cif
#   From: 2010.05.17/outbox.cif.g08.bks.cpg/sg2_28_cif.got.tgz:55663.got - 2010.06.03 11:33:40.
