data_PCOD9026635
_publ_section_title
;
Structure prediction by ZEFSAII (Michael W. Deem and Ramdas Pophale) SiO2 
 PCOD9026635
Probable space group: P -1
;
_chemical_formula_sum "Si O2"
_cell_formula_units_Z 14
_cell_length_a 5.011572
_cell_length_b 11.682923
_cell_length_c 9.539914
_cell_angle_alpha 85.945068
_cell_angle_beta 103.599470
_cell_angle_gamma 99.029750
_cell_volume 535.839058
_symmetry_space_group_name_H-M "P -1"
_symmetry_group_IT_number 2
_symmetry_cell_setting 'triclinic'
loop_
_space_group_symop_operation_xyz
x,y,z
-x,-y,-z
loop_
_atom_site_type_symbol
_atom_site_label
_atom_site_fract_x
_atom_site_fract_y
_atom_site_fract_z
Si Si1 0.621050 0.192618 0.301824
Si Si2 0.538323 0.059945 0.728677
Si Si3 0.546072 0.695765 0.328546
Si Si4 0.870363 0.844791 0.153144
Si Si5 0.631518 0.496310 0.863812
Si Si6 0.272930 0.585237 0.566109
Si Si7 0.056262 0.262119 0.129916
O O1 0.802667 0.289636 0.408133
O O2 0.763081 0.214376 0.165023
O O3 0.308796 0.223547 0.255790
O O4 0.607405 0.057967 0.345345
O O5 0.514852 0.179228 0.635959
O O6 0.389898 0.088869 0.852975
O O7 0.861638 0.062426 0.791480
O O8 0.824793 0.738381 0.270141
O O9 0.345628 0.630206 0.187104
O O10 0.489706 0.614892 0.462926
O O11 0.897917 0.790730 0.010945
O O12 0.410293 0.536593 0.723350
O O13 0.500000 0.500000 0.000000
O O14 0.106695 0.402658 0.119902
O O15 0.000000 0.500000 0.500000
#
# Coordination Sequence:
#
# PCOD9026635 Si02
#       7
#     2   2   2   2   2   2   2
#     4  11  25  44  68 102 140 184 242 295 351 428
#     4  10  23  42  66 103 137 189 235 294 351 425
#     4  10  24  43  69 102 143 187 234 288 359 429
#     4  10  22  41  65 104 138 189 231 290 357 424
#     4  11  22  45  73 107 143 185 241 300 357 426
#     4  11  26  46  73 106 143 193 236 300 364 431
#     4  11  23  42  67 103 142 185 236 296 362 415
#
# _framework density 26.12725
#
# number of rings (size 3 to 8) (size 9 to 14) (size 15 to 20)
#    0.857    0.571    1.429    3.000    2.000    5.143 
#    0.000    3.571    0.000    0.000    0.000    0.000 
#    0.000    0.000    0.000    0.000    0.000    0.000 
#
# Total GULP energy -78300.305079 kJ/mol
# GULP energy per Si atom -5592.878934 kJ/mol
# Density = 2.606778 g / cm^3
# Si number density = 26.127250 Si / 1000 Ang^3
#
#
#
# Elastic Constant Matrix: (Units=GPa)
#
#
# Indices 1 2 3 4 5 6 
#
# 1 109.9135 22.4942 22.8375 -2.2828 -16.6135 16.9736
# 2 22.4942 211.8996 43.0059 27.2000 -6.0328 22.1284
# 3 22.8375 43.0059 122.3083 11.1783 -24.6630 11.5131
# 4 -2.2828 27.2000 11.1783 35.0898 2.5284 4.1489
# 5 -16.6135 -6.0328 -24.6630 2.5284 36.4490 5.6605
# 6 16.9736 22.1284 11.5131 4.1489 5.6605 34.3571
#
#
#
# Elastic Compliance Matrix: (Units=1/GPa)
#
#
# Indices 1 2 3 4 5 6 
#
# 1 0.011100 -0.000508 -0.000325 0.001544 0.005604 -0.006157
# 2 -0.000508 0.005819 -0.001221 -0.003877 0.000597 -0.002718
# 3 -0.000325 -0.001221 0.010802 -0.002643 0.007705 -0.003623
# 4 0.001544 -0.003877 -0.002643 0.032809 -0.003893 -0.000701
# 5 0.005604 0.000597 0.007705 -0.003893 0.037345 -0.011418
# 6 -0.006157 -0.002718 -0.003623 -0.000701 -0.011418 0.037079
#
#
# Mechanical properties :
#
#
# Convention : Reuss Voigt Hill
#
# Bulk Modulus (GPa) = 42.34946 68.97740 55.66343
# Shear Modulus (GPa) = 34.02900 44.89810 39.46355
#
# Velocity S-wave (km/s) = 3.61284 4.14990 3.89065
# Velocity P-wave (km/s) = 5.80065 7.02995 6.44468
#
# Compressibility (1/GPa) = 0.02361305
#
# Stress axis : x y z
#
# Youngs Moduli (GPa) = 90.09367 171.83978 92.57227
#
# Poissons Ratio (x) = 0.08727 0.03012
# Poissons Ratio (y) = 0.04575 0.11302
# Poissons Ratio (z) = 0.02932 0.20980
#
# Static dielectric constant tensor:
#      x y z
#    x 2.015890 -0.083170 0.014660 
#    y -0.083170 2.167010 -0.045520 
#    z 0.014660 -0.045520 2.057040 
# 
# From -- ./inp_files/362140.got.cif
#   From: 2010.05.17/outbox.cif.g08.bks.cpg/sg2_182_cif.got.tgz:362140.got - 2010.06.03 11:33:40.
