data_PCOD9026196
_publ_section_title
;
Structure prediction by ZEFSAII (Michael W. Deem and Ramdas Pophale) SiO2 
 PCOD9026196
Probable space group: P -1
;
_chemical_formula_sum "Si O2"
_cell_formula_units_Z 16
_cell_length_a 18.635283
_cell_length_b 12.305330
_cell_length_c 5.256992
_cell_angle_alpha 47.053332
_cell_angle_beta 64.108981
_cell_angle_gamma 45.443318
_cell_volume 626.787397
_symmetry_space_group_name_H-M "P -1"
_symmetry_group_IT_number 2
_symmetry_cell_setting 'triclinic'
loop_
_space_group_symop_operation_xyz
x,y,z
-x,-y,-z
loop_
_atom_site_type_symbol
_atom_site_label
_atom_site_fract_x
_atom_site_fract_y
_atom_site_fract_z
Si Si1 0.289060 0.988162 0.260928
Si Si2 0.403839 0.103535 0.221333
Si Si3 0.080535 0.282985 0.295433
Si Si4 0.187803 0.382834 0.297490
Si Si5 0.886970 0.355290 0.509760
Si Si6 0.586937 0.331287 0.802210
Si Si7 0.268712 0.692389 0.050141
Si Si8 0.565998 0.701889 0.789531
O O1 0.348470 0.869654 0.111714
O O2 0.346338 0.064324 0.170878
O O3 0.171518 0.163549 0.147710
O O4 0.280585 0.841838 0.668874
O O5 0.308229 0.218778 0.387051
O O6 0.433210 0.243164 0.004096
O O7 0.513203 0.901123 0.412358
O O8 0.134185 0.288750 0.453138
O O9 0.008336 0.223589 0.518801
O O10 0.000000 0.500000 0.000000
O O11 0.144344 0.507083 0.419154
O O12 0.162663 0.518475 0.873585
O O13 0.839656 0.248859 0.809201
O O14 0.500000 0.500000 0.500000
O O15 0.666582 0.361078 0.711393
O O16 0.517442 0.325793 0.119608
O O17 0.328857 0.495581 0.120315
#
# Coordination Sequence:
#
# PCOD9026196 Si02
#       8
#     2   2   2   2   2   2   2   2
#     4  11  24  46  68  99 139 175 242 286 363 421
#     4  10  22  41  63 103 133 180 234 300 342 420
#     4   9  22  47  73 103 138 180 231 301 362 421
#     4  10  22  44  70 104 140 182 233 294 356 420
#     4  11  24  43  73 102 139 185 236 290 359 422
#     4  12  25  41  71  96 140 193 232 290 353 426
#     4  12  25  44  66  98 144 186 233 289 354 431
#     4  11  22  42  66  96 142 178 242 284 358 413
#
# _framework density 25.526999
#
# number of rings (size 3 to 8) (size 9 to 14) (size 15 to 20)
#    0.000    1.250    3.750    1.500    3.500    4.000 
#    4.500    0.625    0.000    0.000    0.000    0.000 
#    0.000    0.000    0.000    0.000    0.000    0.000 
#
# Total GULP energy -89246.324052 kJ/mol
# GULP energy per Si atom -5577.895253 kJ/mol
# Density = 2.546890 g / cm^3
# Si number density = 25.526999 Si / 1000 Ang^3
#
#
#
# Elastic Constant Matrix: (Units=GPa)
#
#
# Indices 1 2 3 4 5 6 
#
# 1 164.0730 33.1816 31.2612 0.4438 -29.8163 -20.2866
# 2 33.1816 113.9201 14.0454 -12.6236 13.3219 -2.5858
# 3 31.2612 14.0454 75.6197 -10.5374 -0.0601 -0.0643
# 4 0.4438 -12.6236 -10.5374 33.9562 0.7476 -1.9889
# 5 -29.8163 13.3219 -0.0601 0.7476 39.0303 0.2571
# 6 -20.2866 -2.5858 -0.0643 -1.9889 0.2571 62.7026
#
#
#
# Elastic Compliance Matrix: (Units=1/GPa)
#
#
# Indices 1 2 3 4 5 6 
#
# 1 0.009342 -0.003477 -0.003561 -0.002542 0.008348 0.002761
# 2 -0.003477 0.011012 -0.000022 0.004246 -0.006493 -0.000510
# 3 -0.003561 -0.000022 0.015368 0.004812 -0.002775 -0.000973
# 4 -0.002542 0.004246 0.004812 0.032667 -0.004012 0.000410
# 5 0.008348 -0.006493 -0.002775 -0.004012 0.034273 0.002163
# 6 0.002761 -0.000510 -0.000973 0.000410 0.002163 0.016824
#
#
# Mechanical properties :
#
#
# Convention : Reuss Voigt Hill
#
# Bulk Modulus (GPa) = 46.29473 56.73213 51.51343
# Shear Modulus (GPa) = 35.50982 45.47947 40.49465
#
# Velocity S-wave (km/s) = 3.73375 4.22551 3.98722
# Velocity P-wave (km/s) = 6.06323 6.78816 6.43591
#
# Compressibility (1/GPa) = 0.02160073
#
# Stress axis : x y z
#
# Youngs Moduli (GPa) = 107.04393 90.81201 65.07104
#
# Poissons Ratio (x) = 0.31578 0.23174
# Poissons Ratio (y) = 0.37222 0.00142
# Poissons Ratio (z) = 0.38122 0.00198
#
# Static dielectric constant tensor:
#      x y z
#    x 2.113720 0.057960 -0.010670 
#    y 0.057960 2.048980 -0.063650 
#    z -0.010670 -0.063650 2.426440 
# 
# From -- ./inp_files/109478.got.cif
#   From: 2010.05.17/outbox.cif.g08.bks.cpg/sg2_55_cif.got.tgz:109478.got - 2010.06.03 11:33:40.
