data_PCOD9026925
_publ_section_title
;
Structure prediction by ZEFSAII (Michael W. Deem and Ramdas Pophale) SiO2 
 PCOD9026925
Probable space group: P -1
;
_chemical_formula_sum "Si O2"
_cell_formula_units_Z 16
_cell_length_a 11.443301
_cell_length_b 15.882224
_cell_length_c 10.109440
_cell_angle_alpha 35.410578
_cell_angle_beta 119.284639
_cell_angle_gamma 132.640703
_cell_volume 774.560125
_symmetry_space_group_name_H-M "P -1"
_symmetry_group_IT_number 2
_symmetry_cell_setting 'triclinic'
loop_
_space_group_symop_operation_xyz
x,y,z
-x,-y,-z
loop_
_atom_site_type_symbol
_atom_site_label
_atom_site_fract_x
_atom_site_fract_y
_atom_site_fract_z
Si Si1 0.562760 0.469011 0.435311
Si Si2 0.297087 0.002250 0.737992
Si Si3 0.553467 0.209150 0.941418
Si Si4 0.881509 0.533742 0.809412
Si Si5 0.375562 0.356731 0.214132
Si Si6 0.918524 0.733158 0.325088
Si Si7 0.801611 0.969296 0.055870
Si Si8 0.040306 0.195693 0.280892
O O1 0.500000 0.500000 0.500000
O O2 0.567467 0.302241 0.690169
O O3 0.442731 0.436334 0.294820
O O4 0.744476 0.615388 0.311280
O O5 0.127614 0.833820 0.810414
O O6 0.352653 0.168753 0.461764
O O7 0.420969 0.945239 0.871126
O O8 0.246615 0.028235 0.822580
O O9 0.700151 0.361406 0.916074
O O10 0.370603 0.129665 0.988622
O O11 0.934642 0.608763 0.594518
O O12 0.899603 0.697846 0.686349
O O13 0.000000 0.500000 0.000000
O O14 0.199950 0.310652 0.136253
O O15 0.500000 0.500000 0.000000
O O16 0.889816 0.867477 0.217011
O O17 0.070526 0.841908 0.175383
O O18 0.000000 0.000000 0.500000
#
# Coordination Sequence:
#
# PCOD9026925 Si02
#       8
#     2   2   2   2   2   2   2   2
#     4  11  20  41  67  91 125 176 221 271 327 400
#     4  11  22  43  64  95 130 179 210 272 341 395
#     4  11  22  40  69  92 127 178 217 267 334 399
#     4  11  22  44  65  96 132 170 215 265 337 399
#     4  11  24  40  64  98 129 169 224 277 326 398
#     4  10  23  39  66  99 121 170 232 269 322 384
#     4  11  22  41  67  93 129 168 228 278 314 390
#     4  10  22  41  66  89 129 172 213 259 328 396
#
# _framework density 20.656884999999999
#
# number of rings (size 3 to 8) (size 9 to 14) (size 15 to 20)
#    0.000    1.250    3.750    3.375    1.750    0.000 
#    4.500    3.125    0.000    0.000    0.000    0.000 
#    0.000    0.000    0.000    0.000    0.000    0.000 
#
# Total GULP energy -89113.908589 kJ/mol
# GULP energy per Si atom -5569.619287 kJ/mol
# Density = 2.060987 g / cm^3
# Si number density = 20.656885 Si / 1000 Ang^3
#
#
#
# Elastic Constant Matrix: (Units=GPa)
#
#
# Indices 1 2 3 4 5 6 
#
# 1 84.5614 26.8082 58.8735 -5.9904 -9.1500 22.7966
# 2 26.8082 109.5530 30.4997 -9.0840 -16.5263 23.1336
# 3 58.8735 30.4997 105.1357 -11.8408 -10.0860 19.8800
# 4 -5.9904 -9.0840 -11.8408 29.0032 14.6361 -1.8489
# 5 -9.1500 -16.5263 -10.0860 14.6361 32.4835 -13.6687
# 6 22.7966 23.1336 19.8800 -1.8489 -13.6687 43.0671
#
#
#
# Elastic Compliance Matrix: (Units=1/GPa)
#
#
# Indices 1 2 3 4 5 6 
#
# 1 0.020884 -0.001067 -0.010373 -0.000614 -0.000013 -0.005724
# 2 -0.001067 0.011120 -0.001538 0.000943 0.002879 -0.003744
# 3 -0.010373 -0.001538 0.016448 0.004666 -0.001330 -0.001497
# 4 -0.000614 0.000943 0.004666 0.047615 -0.022876 -0.007552
# 5 -0.000013 0.002879 -0.001330 -0.022876 0.047709 0.013234
# 6 -0.005724 -0.003744 -0.001497 -0.007552 0.013234 0.032828
#
#
# Mechanical properties :
#
#
# Convention : Reuss Voigt Hill
#
# Bulk Modulus (GPa) = 44.45309 59.06810 51.76059
# Shear Modulus (GPa) = 23.80279 33.11533 28.45906
#
# Velocity S-wave (km/s) = 3.39823 4.00823 3.71577
# Velocity P-wave (km/s) = 6.07978 7.07660 6.59704
#
# Compressibility (1/GPa) = 0.02249563
#
# Stress axis : x y z
#
# Youngs Moduli (GPa) = 47.88323 89.92420 60.79929
#
# Poissons Ratio (x) = 0.09593 0.63069
# Poissons Ratio (y) = 0.05108 0.09352
# Poissons Ratio (z) = 0.49671 0.13832
#
# Static dielectric constant tensor:
#      x y z
#    x 1.817600 0.016510 0.048010 
#    y 0.016510 1.862320 -0.031630 
#    z 0.048010 -0.031630 1.742780 
# 
# From -- ./inp_files/271610.got.cif
#   From: 2010.05.17/outbox.cif.g08.bks.cpg/sg2_136_cif.got.tgz:271610.got - 2010.06.03 11:33:40.
