data_PCOD9026758
_publ_section_title
;
Structure prediction by ZEFSAII (Michael W. Deem and Ramdas Pophale) SiO2 
 PCOD9026758
Probable space group: P -1
;
_chemical_formula_sum "Si O2"
_cell_formula_units_Z 15
_cell_length_a 11.384267
_cell_length_b 14.577848
_cell_length_c 8.570206
_cell_angle_alpha 96.592053
_cell_angle_beta 111.022006
_cell_angle_gamma 28.823383
_cell_volume 573.745606
_symmetry_space_group_name_H-M "P -1"
_symmetry_group_IT_number 2
_symmetry_cell_setting 'triclinic'
loop_
_space_group_symop_operation_xyz
x,y,z
-x,-y,-z
loop_
_atom_site_type_symbol
_atom_site_label
_atom_site_fract_x
_atom_site_fract_y
_atom_site_fract_z
Si Si1 0.347032 0.199647 0.968732
Si Si2 0.297048 0.330057 0.278607
Si Si3 0.476787 0.618051 0.932048
Si Si4 0.709311 0.004861 0.836060
Si Si5 0.246246 0.644829 0.251800
Si Si6 0.000000 0.000000 0.000000
Si Si7 0.627008 0.557244 0.444244
Si Si8 0.968765 0.675898 0.702382
O O1 0.003139 0.422310 0.867788
O O2 0.447374 0.193564 0.165370
O O3 0.500000 0.000000 0.000000
O O4 0.412654 0.193130 0.825138
O O5 0.440988 0.310338 0.454151
O O6 0.198637 0.306148 0.328500
O O7 0.502481 0.580319 0.755927
O O8 0.500000 0.500000 0.000000
O O9 0.754843 0.493494 0.086750
O O10 0.204426 0.847572 0.913838
O O11 0.955023 0.822917 0.051133
O O12 0.766031 0.896138 0.702057
O O13 0.778214 0.063517 0.845438
O O14 0.342478 0.687802 0.273855
O O15 0.233939 0.615366 0.413061
O O16 0.874153 0.418608 0.408473
#
# Coordination Sequence:
#
# PCOD9026758 Si02
#       8
#     2   2   2   2   2   1   2   2
#     4  11  23  43  68  98 127 162 224 271 310 373
#     4  11  25  40  69  96 126 177 211 262 326 383
#     4  11  20  39  65  95 124 163 220 262 309 375
#     4  11  22  40  70  96 125 166 223 270 310 378
#     4  10  22  41  65  95 132 168 207 269 323 372
#     4  12  20  32  66  96 120 158 210 266 314 362
#     4  11  22  39  67  94 134 175 203 257 336 388
#     4  11  21  43  65  93 131 170 214 266 318 376
#
# _framework density 26.143992000000001
#
# number of rings (size 3 to 8) (size 9 to 14) (size 15 to 20)
#    0.000    1.067    5.333    2.000    7.467    0.000 
#    0.000    1.333   23.467    0.000    0.000    0.000 
#    0.000    0.000    0.000    0.000    0.000    0.000 
#
# Total GULP energy -83778.230343 kJ/mol
# GULP energy per Si atom -5585.215356 kJ/mol
# Density = 2.608449 g / cm^3
# Si number density = 26.143992 Si / 1000 Ang^3
#
#
#
# Elastic Constant Matrix: (Units=GPa)
#
#
# Indices 1 2 3 4 5 6 
#
# 1 149.0446 22.0253 35.9427 19.4698 -3.8894 14.9276
# 2 22.0253 128.9754 39.6844 45.6203 2.9301 2.8182
# 3 35.9427 39.6844 107.9805 40.2994 5.8145 1.3357
# 4 19.4698 45.6203 40.2994 48.0564 -0.3743 3.4581
# 5 -3.8894 2.9301 5.8145 -0.3743 51.1890 9.7057
# 6 14.9276 2.8182 1.3357 3.4581 9.7057 42.3872
#
#
#
# Elastic Compliance Matrix: (Units=1/GPa)
#
#
# Indices 1 2 3 4 5 6 
#
# 1 0.007714 -0.000351 -0.002209 -0.000720 0.001399 -0.002885
# 2 -0.000351 0.011724 -0.000053 -0.010981 -0.000855 0.000438
# 3 -0.002209 -0.000053 0.014283 -0.011175 -0.002200 0.001747
# 4 -0.000720 -0.010981 -0.011175 0.041106 0.002641 -0.002622
# 5 0.001399 -0.000855 -0.002200 0.002641 0.020981 -0.005386
# 6 -0.002885 0.000438 0.001747 -0.002622 -0.005386 0.025971
#
#
# Mechanical properties :
#
#
# Convention : Reuss Voigt Hill
#
# Bulk Modulus (GPa) = 35.09569 64.58949 49.84259
# Shear Modulus (GPa) = 36.62912 47.54973 42.08942
#
# Velocity S-wave (km/s) = 3.74712 4.26932 4.01672
# Velocity P-wave (km/s) = 5.67225 7.00441 6.37323
#
# Compressibility (1/GPa) = 0.02849352
#
# Stress axis : x y z
#
# Youngs Moduli (GPa) = 129.63994 85.29821 70.01155
#
# Poissons Ratio (x) = 0.02998 0.15467
# Poissons Ratio (y) = 0.04556 0.00370
# Poissons Ratio (z) = 0.28640 0.00451
#
# Static dielectric constant tensor:
#      x y z
#    x 2.108500 0.036610 -0.008360 
#    y 0.036610 1.962610 -0.026500 
#    z -0.008360 -0.026500 2.082850 
# 
# From -- ./inp_files/273800.got.cif
#   From: 2010.05.17/outbox.cif.g08.bks.cpg/sg2_137_cif.got.tgz:273800.got - 2010.06.03 11:33:40.
