data_PCOD9026940
_publ_section_title
;
Structure prediction by ZEFSAII (Michael W. Deem and Ramdas Pophale) SiO2 
 PCOD9026940
Probable space group: P -1
;
_chemical_formula_sum "Si O2"
_cell_formula_units_Z 16
_cell_length_a 19.102678
_cell_length_b 5.114960
_cell_length_c 7.203300
_cell_angle_alpha 70.452440
_cell_angle_beta 114.791635
_cell_angle_gamma 87.245928
_cell_volume 587.363160
_symmetry_space_group_name_H-M "P -1"
_symmetry_group_IT_number 2
_symmetry_cell_setting 'triclinic'
loop_
_space_group_symop_operation_xyz
x,y,z
-x,-y,-z
loop_
_atom_site_type_symbol
_atom_site_label
_atom_site_fract_x
_atom_site_fract_y
_atom_site_fract_z
Si Si1 0.241804 0.178756 0.281218
Si Si2 0.076113 0.897997 0.741829
Si Si3 0.284698 0.640522 0.594061
Si Si4 0.422288 0.945050 0.156460
Si Si5 0.679149 0.457531 0.951631
Si Si6 0.020263 0.370414 0.847210
Si Si7 0.150029 0.312852 0.510217
Si Si8 0.405037 0.171991 0.679556
O O1 0.251095 0.419719 0.092942
O O2 0.170534 0.249915 0.330947
O O3 0.329338 0.128655 0.489835
O O4 0.243422 0.846759 0.333613
O O5 0.140573 0.043999 0.684766
O O6 0.055545 0.051745 0.885110
O O7 0.000000 0.000000 0.500000
O O8 0.082786 0.562112 0.817906
O O9 0.225868 0.431173 0.618432
O O10 0.370274 0.479279 0.658145
O O11 0.292748 0.735225 0.791302
O O12 0.368369 0.719594 0.187897
O O13 0.513987 0.854014 0.334696
O O14 0.380886 0.252929 0.115435
O O15 0.423347 0.967581 0.927042
O O16 0.934925 0.468807 0.627474
O O17 0.000000 0.500000 0.000000
#
# Coordination Sequence:
#
# PCOD9026940 Si02
#       8
#     2   2   2   2   2   2   2   2
#     4  11  24  41  64  94 134 171 224 271 332 406
#     4  10  22  43  70  96 132 177 221 266 336 405
#     4  10  23  43  63  90 136 174 219 270 339 405
#     4  10  22  41  66  91 126 170 225 275 343 389
#     4  11  25  42  63  94 128 171 223 281 328 399
#     4  11  24  44  70 105 137 167 226 287 331 399
#     4  10  24  42  65  94 129 179 214 267 336 405
#     4   9  21  40  64  91 125 175 217 280 334 401
#
# _framework density 27.240390000000001
#
# number of rings (size 3 to 8) (size 9 to 14) (size 15 to 20)
#    0.000    1.750    1.250    1.875   10.500    3.500 
#    2.250    0.000    0.000    0.000    0.000    0.000 
#    0.000    0.000    0.000    0.000    0.000    0.000 
#
# Total GULP energy -89338.634852 kJ/mol
# GULP energy per Si atom -5583.664678 kJ/mol
# Density = 2.717839 g / cm^3
# Si number density = 27.240390 Si / 1000 Ang^3
#
#
#
# Elastic Constant Matrix: (Units=GPa)
#
#
# Indices 1 2 3 4 5 6 
#
# 1 163.7777 31.9932 16.1434 -3.9552 3.7798 -8.1007
# 2 31.9932 107.2936 0.4559 1.1260 -2.9907 4.0493
# 3 16.1434 0.4559 75.5993 6.8174 -15.6787 1.8019
# 4 -3.9552 1.1260 6.8174 30.5469 2.3730 -10.8320
# 5 3.7798 -2.9907 -15.6787 2.3730 50.4397 -9.8863
# 6 -8.1007 4.0493 1.8019 -10.8320 -9.8863 32.4628
#
#
#
# Elastic Compliance Matrix: (Units=1/GPa)
#
#
# Indices 1 2 3 4 5 6 
#
# 1 0.006937 -0.002210 -0.001924 0.002419 -0.000840 0.002665
# 2 -0.002210 0.010095 0.000746 -0.001658 0.000641 -0.002210
# 3 -0.001924 0.000746 0.015073 -0.004531 0.004801 -0.001460
# 4 0.002419 -0.001658 -0.004531 0.039101 -0.000811 0.013862
# 5 -0.000840 0.000641 0.004801 -0.000811 0.022647 0.006070
# 6 0.002665 -0.002210 -0.001460 0.013862 0.006070 0.038300
#
#
# Mechanical properties :
#
#
# Convention : Reuss Voigt Hill
#
# Bulk Modulus (GPa) = 39.47969 49.31728 44.39848
# Shear Modulus (GPa) = 33.92823 42.56175 38.24499
#
# Velocity S-wave (km/s) = 3.53301 3.95707 3.75104
# Velocity P-wave (km/s) = 5.58278 6.24673 5.92406
#
# Compressibility (1/GPa) = 0.02532948
#
# Stress axis : x y z
#
# Youngs Moduli (GPa) = 144.16018 99.06281 66.34375
#
# Poissons Ratio (x) = 0.21889 0.12764
# Poissons Ratio (y) = 0.31854 -0.04950
# Poissons Ratio (z) = 0.27735 -0.07391
#
# Static dielectric constant tensor:
#      x y z
#    x 2.120660 -0.005960 -0.045170 
#    y -0.005960 2.323310 -0.061010 
#    z -0.045170 -0.061010 2.287910 
# 
# From -- ./inp_files/141248.got.cif
#   From: 2010.05.17/outbox.cif.g08.bks.cpg/sg2_71_cif.got.tgz:141248.got - 2010.06.03 11:33:40.
