data_PCOD9026611
_publ_section_title
;
Structure prediction by ZEFSAII (Michael W. Deem and Ramdas Pophale) SiO2 
 PCOD9026611
Probable space group: P -1
;
_chemical_formula_sum "Si O2"
_cell_formula_units_Z 14
_cell_length_a 9.226373
_cell_length_b 5.057104
_cell_length_c 12.536713
_cell_angle_alpha 94.831078
_cell_angle_beta 99.080990
_cell_angle_gamma 116.978381
_cell_volume 506.624445
_symmetry_space_group_name_H-M "P -1"
_symmetry_group_IT_number 2
_symmetry_cell_setting 'triclinic'
loop_
_space_group_symop_operation_xyz
x,y,z
-x,-y,-z
loop_
_atom_site_type_symbol
_atom_site_label
_atom_site_fract_x
_atom_site_fract_y
_atom_site_fract_z
Si Si1 0.846344 0.272835 0.399406
Si Si2 0.192684 0.340968 0.942377
Si Si3 0.050619 0.138726 0.244996
Si Si4 0.603684 0.424574 0.246231
Si Si5 0.612676 0.322882 0.673635
Si Si6 0.648629 0.025341 0.942199
Si Si7 0.706592 0.876966 0.569582
O O1 0.724079 0.396334 0.346471
O O2 0.752459 0.993777 0.459876
O O3 0.000000 0.500000 0.500000
O O4 0.915956 0.189261 0.298609
O O5 0.288371 0.457399 0.844367
O O6 0.289579 0.202236 0.015372
O O7 0.018702 0.069408 0.873142
O O8 0.208219 0.632920 0.014512
O O9 0.123510 0.993836 0.335193
O O10 0.205450 0.462781 0.246910
O O11 0.522994 0.639226 0.271288
O O12 0.443484 0.102056 0.185067
O O13 0.602528 0.024025 0.614565
O O14 0.630411 0.527439 0.576979
O O15 0.500000 0.000000 0.000000
#
# Coordination Sequence:
#
# PCOD9026611 Si02
#       7
#     2   2   2   2   2   2   2
#     4  12  22  43  72 100 128 178 232 270 320 396
#     4  11  23  41  73  96 127 171 227 274 322 386
#     4  10  23  42  70  97 135 174 221 278 320 385
#     4  11  25  43  70 100 136 174 219 278 335 391
#     4  10  25  42  65  94 147 171 214 268 342 389
#     4  10  22  41  65 100 129 166 224 274 326 388
#     4  10  23  42  64  95 138 173 224 260 328 388
#
# _framework density 27.633880999999999
#
# number of rings (size 3 to 8) (size 9 to 14) (size 15 to 20)
#    0.857    0.571    1.429    4.714    2.000    6.857 
#    0.000    1.429    0.000    0.000    0.000    0.000 
#    0.000    0.000    0.000    0.000    0.000    0.000 
#
# Total GULP energy -78526.236749 kJ/mol
# GULP energy per Si atom -5609.016911 kJ/mol
# Density = 2.757098 g / cm^3
# Si number density = 27.633881 Si / 1000 Ang^3
#
#
#
# Elastic Constant Matrix: (Units=GPa)
#
#
# Indices 1 2 3 4 5 6 
#
# 1 102.7345 33.0106 28.5925 -8.0254 -7.7329 -10.7736
# 2 33.0106 123.1234 44.5773 14.9018 -3.8119 -31.0749
# 3 28.5925 44.5773 155.8864 13.2995 16.5991 -2.3332
# 4 -8.0254 14.9018 13.2995 64.2649 9.4000 6.4289
# 5 -7.7329 -3.8119 16.5991 9.4000 44.2660 -4.7920
# 6 -10.7736 -31.0749 -2.3332 6.4289 -4.7920 49.6553
#
#
#
# Elastic Compliance Matrix: (Units=1/GPa)
#
#
# Indices 1 2 3 4 5 6 
#
# 1 0.011394 -0.002352 -0.001798 0.001940 0.002145 0.000871
# 2 -0.002352 0.012442 -0.003049 -0.003855 0.003485 0.007968
# 3 -0.001798 -0.003049 0.008016 -0.000407 -0.003738 -0.002230
# 4 0.001940 -0.003855 -0.000407 0.017859 -0.004144 -0.004723
# 5 0.002145 0.003485 -0.003738 -0.004144 0.026146 0.005531
# 6 0.000871 0.007968 -0.002230 -0.004723 0.005531 0.026355
#
#
# Mechanical properties :
#
#
# Convention : Reuss Voigt Hill
#
# Bulk Modulus (GPa) = 57.29723 66.01168 61.65446
# Shear Modulus (GPa) = 40.83950 50.00818 45.42384
#
# Velocity S-wave (km/s) = 3.84849 4.25864 4.05875
# Velocity P-wave (km/s) = 6.36610 6.93694 6.65764
#
# Compressibility (1/GPa) = 0.01745285
#
# Stress axis : x y z
#
# Youngs Moduli (GPa) = 87.76195 80.37137 124.74945
#
# Poissons Ratio (x) = 0.18906 0.22431
# Poissons Ratio (y) = 0.20645 0.38042
# Poissons Ratio (z) = 0.15780 0.24509
#
# Static dielectric constant tensor:
#      x y z
#    x 2.187470 0.143230 0.085410 
#    y 0.143230 2.222220 0.062850 
#    z 0.085410 0.062850 2.183760 
# 
# From -- ./inp_files/488725.got.cif
#   From: 2010.05.17/outbox.cif.g08.bks.cpg/sg2_245_cif.got.tgz:488725.got - 2010.06.03 11:33:40.
