data_PCOD9026609
_publ_section_title
;
Structure prediction by ZEFSAII (Michael W. Deem and Ramdas Pophale) SiO2 
 PCOD9026609
Probable space group: P -1
;
_chemical_formula_sum "Si O2"
_cell_formula_units_Z 16
_cell_length_a 9.307707
_cell_length_b 11.135643
_cell_length_c 9.213231
_cell_angle_alpha 123.099630
_cell_angle_beta 93.579212
_cell_angle_gamma 114.521059
_cell_volume 673.433184
_symmetry_space_group_name_H-M "P -1"
_symmetry_group_IT_number 2
_symmetry_cell_setting 'triclinic'
loop_
_space_group_symop_operation_xyz
x,y,z
-x,-y,-z
loop_
_atom_site_type_symbol
_atom_site_label
_atom_site_fract_x
_atom_site_fract_y
_atom_site_fract_z
Si Si1 0.546013 0.225624 0.874184
Si Si2 0.673451 0.999257 0.501624
Si Si3 0.971540 0.435800 0.295828
Si Si4 0.266479 0.469869 0.139455
Si Si5 0.981740 0.640817 0.182812
Si Si6 0.678946 0.067252 0.970354
Si Si7 0.562552 0.443514 0.292369
Si Si8 0.655865 0.779064 0.624112
O O1 0.355124 0.086130 0.717154
O O2 0.630096 0.357724 0.834550
O O3 0.643961 0.132520 0.860480
O O4 0.569537 0.332526 0.090087
O O5 0.659585 0.869232 0.535723
O O6 0.500000 0.000000 0.500000
O O7 0.847337 0.180984 0.651701
O O8 0.140927 0.470528 0.250001
O O9 0.914512 0.541205 0.263932
O O10 0.000000 0.500000 0.500000
O O11 0.832896 0.236251 0.159955
O O12 0.399937 0.445129 0.218042
O O13 0.145793 0.338998 0.917073
O O14 0.000000 0.500000 0.000000
O O15 0.500000 0.000000 0.000000
O O16 0.736719 0.936513 0.847955
O O17 0.695513 0.638505 0.480114
O O18 0.516989 0.338771 0.370630
#
# Coordination Sequence:
#
# PCOD9026609 Si02
#       8
#     2   2   2   2   2   2   2   2
#     4  12  24  44  74 104 136 185 244 288 336 413
#     4  12  23  38  72 107 132 175 238 301 338 400
#     4  11  26  41  68 106 142 179 226 291 369 404
#     4  11  23  46  68  97 144 191 228 281 350 423
#     4  10  22  41  64  99 142 177 226 284 357 404
#     4  12  25  43  74 105 137 171 240 303 340 404
#     4  11  26  44  68 101 147 194 231 277 355 426
#     4  11  24  41  67 105 140 180 238 286 346 401
#
# _framework density 23.758852000000001
#
# number of rings (size 3 to 8) (size 9 to 14) (size 15 to 20)
#    0.000    0.750    5.000    3.375    3.500    0.000 
#    0.000    3.125    2.750    0.000    0.000    0.000 
#    0.000    0.000    0.000    0.000    0.000    0.000 
#
# Total GULP energy -89180.554565 kJ/mol
# GULP energy per Si atom -5573.784660 kJ/mol
# Density = 2.370478 g / cm^3
# Si number density = 23.758852 Si / 1000 Ang^3
#
#
#
# Elastic Constant Matrix: (Units=GPa)
#
#
# Indices 1 2 3 4 5 6 
#
# 1 35.5545 -0.5984 15.6016 9.9454 -1.2193 0.4276
# 2 -0.5984 97.1727 60.6292 20.6935 -5.1088 4.5981
# 3 15.6016 60.6292 212.2943 24.4201 1.1438 8.5717
# 4 9.9454 20.6935 24.4201 47.4426 2.3243 -0.7598
# 5 -1.2193 -5.1088 1.1438 2.3243 42.4716 0.7993
# 6 0.4276 4.5981 8.5717 -0.7598 0.7993 16.8875
#
#
#
# Elastic Compliance Matrix: (Units=1/GPa)
#
#
# Indices 1 2 3 4 5 6 
#
# 1 0.031227 0.003292 -0.002424 -0.006833 0.001748 -0.000847
# 2 0.003292 0.013810 -0.003521 -0.005046 0.002171 -0.002386
# 3 -0.002424 -0.003521 0.006109 -0.001107 -0.000557 -0.002104
# 4 -0.006833 -0.005046 -0.001107 0.025444 -0.002229 0.003359
# 5 0.001748 0.002171 -0.000557 -0.002229 0.024023 -0.001590
# 6 -0.000847 -0.002386 -0.002104 0.003359 -0.001590 0.061181
#
#
# Mechanical properties :
#
#
# Convention : Reuss Voigt Hill
#
# Bulk Modulus (GPa) = 21.81522 55.14293 38.47907
# Shear Modulus (GPa) = 27.41523 39.31961 33.36742
#
# Velocity S-wave (km/s) = 3.40059 4.07252 3.75163
# Velocity P-wave (km/s) = 4.96191 6.73600 5.91583
#
# Compressibility (1/GPa) = 0.04583956
#
# Stress axis : x y z
#
# Youngs Moduli (GPa) = 32.02406 72.41362 163.68159
#
# Poissons Ratio (x) = -0.23838 0.39680
# Poissons Ratio (y) = -0.10542 0.57628
# Poissons Ratio (z) = 0.07763 0.25495
#
# Static dielectric constant tensor:
#      x y z
#    x 2.027870 0.033160 -0.032630 
#    y 0.033160 1.941500 0.028370 
#    z -0.032630 0.028370 2.058730 
# 
# From -- ./inp_files/263074.got.cif
#   From: 2010.05.17/outbox.cif.g08.bks.cpg/sg2_132_cif.got.tgz:263074.got - 2010.06.03 11:33:40.
