data_PCOD9026950
_publ_section_title
;
Structure prediction by ZEFSAII (Michael W. Deem and Ramdas Pophale) SiO2 
 PCOD9026950
Probable space group: P -1
;
_chemical_formula_sum "Si O2"
_cell_formula_units_Z 16
_cell_length_a 13.414153
_cell_length_b 9.046061
_cell_length_c 8.891236
_cell_angle_alpha 107.429969
_cell_angle_beta 56.093747
_cell_angle_gamma 126.228690
_cell_volume 721.588779
_symmetry_space_group_name_H-M "P -1"
_symmetry_group_IT_number 2
_symmetry_cell_setting 'triclinic'
loop_
_space_group_symop_operation_xyz
x,y,z
-x,-y,-z
loop_
_atom_site_type_symbol
_atom_site_label
_atom_site_fract_x
_atom_site_fract_y
_atom_site_fract_z
Si Si1 0.944392 0.131921 0.624056
Si Si2 0.655610 0.898315 0.627587
Si Si3 0.573905 0.184253 0.785169
Si Si4 0.473470 0.581592 0.892943
Si Si5 0.622607 0.958526 0.345178
Si Si6 0.833184 0.711108 0.982547
Si Si7 0.870622 0.527393 0.595333
Si Si8 0.896425 0.119157 0.005417
O O1 0.078579 0.332701 0.541144
O O2 0.811904 0.055991 0.599236
O O3 0.889064 0.131312 0.836680
O O4 0.000000 0.000000 0.500000
O O5 0.601727 0.712343 0.711056
O O6 0.649854 0.876041 0.445339
O O7 0.565582 0.995061 0.756214
O O8 0.450437 0.165846 0.777050
O O9 0.725524 0.335352 0.633437
O O10 0.565664 0.274495 0.970719
O O11 0.500000 0.500000 0.000000
O O12 0.332596 0.423264 0.881200
O O13 0.500000 0.000000 0.500000
O O14 0.774372 0.121073 0.204715
O O15 0.855827 0.629937 0.784241
O O16 0.948300 0.735555 0.015311
O O17 0.866191 0.914867 0.992462
O O18 0.000000 0.500000 0.500000
#
# Coordination Sequence:
#
# PCOD9026950 Si02
#       8
#     2   2   2   2   2   2   2   2
#     4  12  24  41  68 104 132 181 231 274 348 415
#     4  11  23  41  68  91 136 182 226 274 341 409
#     4  10  22  41  66  91 134 180 221 278 337 396
#     4  11  23  41  65 101 135 172 231 279 335 412
#     4  10  23  42  66  98 134 181 231 280 334 406
#     4  10  23  41  67  96 138 178 217 284 346 392
#     4  11  22  42  67  98 140 173 224 279 334 411
#     4  11  23  43  68  97 139 175 229 283 338 406
#
# _framework density 22.173293000000001
#
# number of rings (size 3 to 8) (size 9 to 14) (size 15 to 20)
#    0.000    1.250    2.500    3.375    5.250    2.000 
#    0.000    3.125    0.000    0.000    0.000    0.000 
#    0.000    0.000    0.000    0.000    0.000    0.000 
#
# Total GULP energy -89278.058243 kJ/mol
# GULP energy per Si atom -5579.878640 kJ/mol
# Density = 2.212283 g / cm^3
# Si number density = 22.173293 Si / 1000 Ang^3
#
#
#
# Elastic Constant Matrix: (Units=GPa)
#
#
# Indices 1 2 3 4 5 6 
#
# 1 115.1750 28.9237 23.4306 -17.5693 5.8976 22.3497
# 2 28.9237 80.9512 26.0762 -23.6071 13.2925 10.4092
# 3 23.4306 26.0762 78.7728 -15.4960 -0.0226 -10.6439
# 4 -17.5693 -23.6071 -15.4960 44.3542 -5.2776 -4.2935
# 5 5.8976 13.2925 -0.0226 -5.2776 27.9585 -0.2738
# 6 22.3497 10.4092 -10.6439 -4.2935 -0.2738 39.1420
#
#
#
# Elastic Compliance Matrix: (Units=1/GPa)
#
#
# Indices 1 2 3 4 5 6 
#
# 1 0.011430 -0.001271 -0.003581 0.001740 -0.001550 -0.006982
# 2 -0.001271 0.017981 -0.005052 0.005978 -0.007204 -0.004825
# 3 -0.003581 -0.005052 0.017199 0.003177 0.003854 0.008440
# 4 0.001740 0.005978 0.003177 0.027904 0.002074 0.001356
# 5 -0.001550 -0.007204 0.003854 0.002074 0.039957 0.004356
# 6 -0.006982 -0.004825 0.008440 0.001356 0.004356 0.033292
#
#
# Mechanical properties :
#
#
# Convention : Reuss Voigt Hill
#
# Bulk Modulus (GPa) = 37.31075 47.97335 42.64205
# Shear Modulus (GPa) = 28.32793 35.38882 31.85838
#
# Velocity S-wave (km/s) = 3.57819 3.99935 3.79461
# Velocity P-wave (km/s) = 5.82535 6.55812 6.20257
#
# Compressibility (1/GPa) = 0.02680193
#
# Stress axis : x y z
#
# Youngs Moduli (GPa) = 87.49234 55.61374 58.14354
#
# Poissons Ratio (x) = 0.07067 0.20819
# Poissons Ratio (y) = 0.11118 0.29377
# Poissons Ratio (z) = 0.31327 0.28099
#
# Static dielectric constant tensor:
#      x y z
#    x 1.838440 0.021380 -0.020420 
#    y 0.021380 1.745110 -0.039810 
#    z -0.020420 -0.039810 1.897950 
# 
# From -- ./inp_files/244453.got.cif
#   From: 2010.05.17/outbox.cif.g08.bks.cpg/sg2_123_cif.got.tgz:244453.got - 2010.06.03 11:33:40.
