data_PCOD9026905
_publ_section_title
;
Structure prediction by ZEFSAII (Michael W. Deem and Ramdas Pophale) SiO2 
 PCOD9026905
Probable space group: P -1
;
_chemical_formula_sum "Si O2"
_cell_formula_units_Z 14
_cell_length_a 9.513237
_cell_length_b 15.827681
_cell_length_c 5.520000
_cell_angle_alpha 85.345296
_cell_angle_beta 71.664693
_cell_angle_gamma 44.057768
_cell_volume 535.246812
_symmetry_space_group_name_H-M "P -1"
_symmetry_group_IT_number 2
_symmetry_cell_setting 'triclinic'
loop_
_space_group_symop_operation_xyz
x,y,z
-x,-y,-z
loop_
_atom_site_type_symbol
_atom_site_label
_atom_site_fract_x
_atom_site_fract_y
_atom_site_fract_z
Si Si1 0.360464 0.058172 0.812865
Si Si2 0.377362 0.611251 0.346729
Si Si3 0.245634 0.505450 0.207209
Si Si4 0.229924 0.856483 0.405337
Si Si5 0.824419 0.564910 0.328237
Si Si6 0.794276 0.709725 0.941487
Si Si7 0.616904 0.132864 0.179573
O O1 0.500000 0.000000 0.500000
O O2 0.252010 0.011482 0.879589
O O3 0.220324 0.201417 0.903561
O O4 0.500000 0.000000 0.000000
O O5 0.500000 0.500000 0.500000
O O6 0.222504 0.610989 0.287222
O O7 0.244337 0.749402 0.467607
O O8 0.573564 0.560822 0.080238
O O9 0.334601 0.403727 0.389913
O O10 0.015352 0.553268 0.287826
O O11 0.037078 0.577888 0.777195
O O12 0.350605 0.850497 0.569416
O O13 0.305348 0.842201 0.090519
O O14 0.000000 0.000000 0.500000
O O15 0.716517 0.659411 0.145067
O O16 0.635149 0.783312 0.779175
#
# Coordination Sequence:
#
# PCOD9026905 Si02
#       7
#     2   2   2   2   2   2   2
#     4  10  22  41  66 103 138 188 242 296 366 456
#     4  11  28  47  77 108 157 202 264 310 397 464
#     4  10  25  46  71 110 154 208 249 327 384 468
#     4  12  29  50  76 108 144 202 264 322 375 458
#     4  10  23  43  74 116 154 192 261 320 387 449
#     4  10  23  40  73 110 151 196 247 317 392 463
#     4  11  25  47  77 102 151 201 253 309 393 462
#
# _framework density 26.156157
#
# number of rings (size 3 to 8) (size 9 to 14) (size 15 to 20)
#    0.000    1.429    0.000    3.000   12.000    9.143 
#    0.000    0.000    0.000    0.000    0.000    0.000 
#    0.000    0.000    0.000    0.000    0.000    0.000 
#
# Total GULP energy -78192.304003 kJ/mol
# GULP energy per Si atom -5585.164572 kJ/mol
# Density = 2.609662 g / cm^3
# Si number density = 26.156157 Si / 1000 Ang^3
#
#
#
# Elastic Constant Matrix: (Units=GPa)
#
#
# Indices 1 2 3 4 5 6 
#
# 1 111.1543 51.0779 35.3499 11.2556 10.9787 17.5481
# 2 51.0779 214.1227 64.8159 21.7144 8.4287 21.7623
# 3 35.3499 64.8159 170.8963 -10.0758 -4.3645 -0.4195
# 4 11.2556 21.7144 -10.0758 65.2388 16.3416 9.1209
# 5 10.9787 8.4287 -4.3645 16.3416 40.7896 4.4208
# 6 17.5481 21.7623 -0.4195 9.1209 4.4208 54.2204
#
#
#
# Elastic Compliance Matrix: (Units=1/GPa)
#
#
# Indices 1 2 3 4 5 6 
#
# 1 0.011028 -0.001678 -0.001749 -0.000685 -0.002251 -0.002610
# 2 -0.001678 0.006040 -0.002056 -0.001784 -0.000130 -0.001587
# 3 -0.001749 -0.002056 0.007119 0.001721 0.000850 0.001088
# 4 -0.000685 -0.001784 0.001721 0.018118 -0.006350 -0.001579
# 5 -0.002251 -0.000130 0.000850 -0.006350 0.027829 -0.000414
# 6 -0.002610 -0.001587 0.001088 -0.001579 -0.000414 0.020233
#
#
# Mechanical properties :
#
#
# Convention : Reuss Voigt Hill
#
# Bulk Modulus (GPa) = 75.63886 88.74009 82.18947
# Shear Modulus (GPa) = 47.28665 55.04508 51.16586
#
# Velocity S-wave (km/s) = 4.25651 4.59244 4.42766
# Velocity P-wave (km/s) = 7.28959 7.88171 7.59142
#
# Compressibility (1/GPa) = 0.01322072
#
# Stress axis : x y z
#
# Youngs Moduli (GPa) = 90.68218 165.55877 140.46932
#
# Poissons Ratio (x) = 0.27776 0.24569
# Poissons Ratio (y) = 0.15214 0.28884
# Poissons Ratio (z) = 0.15861 0.34043
#
# Static dielectric constant tensor:
#      x y z
#    x 2.179740 -0.059410 0.132200 
#    y -0.059410 2.123220 0.014460 
#    z 0.132200 0.014460 2.339290 
# 
# From -- ./inp_files/74673.got.cif
#   From: 2010.05.17/outbox.cif.g08.bks.cpg/sg2_38_cif.got.tgz:74673.got - 2010.06.03 11:33:40.
