data_PCOD9026812
_publ_section_title
;
Structure prediction by ZEFSAII (Michael W. Deem and Ramdas Pophale) SiO2 
 PCOD9026812
Probable space group: P -1
;
_chemical_formula_sum "Si O2"
_cell_formula_units_Z 15
_cell_length_a 9.027556
_cell_length_b 16.656598
_cell_length_c 10.817136
_cell_angle_alpha 145.699471
_cell_angle_beta 133.076340
_cell_angle_gamma 45.383302
_cell_volume 630.697753
_symmetry_space_group_name_H-M "P -1"
_symmetry_group_IT_number 2
_symmetry_cell_setting 'triclinic'
loop_
_space_group_symop_operation_xyz
x,y,z
-x,-y,-z
loop_
_atom_site_type_symbol
_atom_site_label
_atom_site_fract_x
_atom_site_fract_y
_atom_site_fract_z
Si Si1 0.999591 0.833222 0.323659
Si Si2 0.568846 0.960445 0.349715
Si Si3 0.270668 0.599341 0.845760
Si Si4 0.442125 0.718771 0.337125
Si Si5 0.708105 0.411280 0.430011
Si Si6 0.793765 0.084003 0.077163
Si Si7 0.500000 0.000000 0.000000
Si Si8 0.170890 0.303342 0.181312
O O1 0.820416 0.859829 0.360238
O O2 0.248231 0.730370 0.337137
O O3 0.897009 0.771103 0.072306
O O4 0.000000 0.000000 0.500000
O O5 0.500000 0.000000 0.500000
O O6 0.539144 0.117041 0.458458
O O7 0.415388 0.891961 0.099329
O O8 0.347138 0.420279 0.688998
O O9 0.355526 0.612516 0.776609
O O10 0.014815 0.675450 0.797423
O O11 0.362734 0.676865 0.105319
O O12 0.500000 0.500000 0.500000
O O13 0.818429 0.243512 0.330431
O O14 0.836324 0.528628 0.642392
O O15 0.721695 0.009212 0.061657
O O16 0.000000 0.000000 0.000000
O O17 0.595866 0.815091 0.807159
#
# Coordination Sequence:
#
# PCOD9026812 Si02
#       8
#     2   2   2   2   2   2   1   2
#     4   9  19  40  65  97 131 175 230 288 346 420
#     4  11  22  41  65  95 141 182 231 296 353 422
#     4  10  22  41  65  97 133 176 230 292 357 417
#     4   9  21  39  68  96 125 180 239 281 347 426
#     4  12  24  43  63  97 144 179 221 300 349 422
#     4  12  28  46  70 107 145 189 246 293 359 434
#     4  12  24  46  72 100 134 190 240 284 358 428
#     4  11  23  40  69  96 136 182 234 290 354 421
#
# _framework density 23.783182
#
# number of rings (size 3 to 8) (size 9 to 14) (size 15 to 20)
#    0.000    1.333    2.667    2.000    3.733    2.133 
#    2.400    0.000    0.000    5.600    0.000    0.000 
#    0.000    0.000    0.000    0.000    0.000    0.000 
#
# Total GULP energy -83581.679279 kJ/mol
# GULP energy per Si atom -5572.111952 kJ/mol
# Density = 2.372905 g / cm^3
# Si number density = 23.783182 Si / 1000 Ang^3
#
#
#
# Elastic Constant Matrix: (Units=GPa)
#
#
# Indices 1 2 3 4 5 6 
#
# 1 184.2218 45.1817 29.0290 12.2391 -21.1457 -28.2410
# 2 45.1817 67.1415 33.8712 12.5348 -1.9347 -21.7615
# 3 29.0290 33.8712 124.1945 29.4124 10.2897 -3.6816
# 4 12.2391 12.5348 29.4124 40.1808 0.6866 -5.2534
# 5 -21.1457 -1.9347 10.2897 0.6866 32.5280 17.2501
# 6 -28.2410 -21.7615 -3.6816 -5.2534 17.2501 39.8793
#
#
#
# Elastic Compliance Matrix: (Units=1/GPa)
#
#
# Indices 1 2 3 4 5 6 
#
# 1 0.007172 -0.003878 -0.000867 -0.000274 0.004155 0.001049
# 2 -0.003878 0.023786 -0.004388 -0.001305 -0.006244 0.012357
# 3 -0.000867 -0.004388 0.011307 -0.006755 -0.003562 -0.001314
# 4 -0.000274 -0.001305 -0.006755 0.030660 -0.000126 0.002564
# 5 0.004155 -0.006244 -0.003562 -0.000126 0.044941 -0.020249
# 6 0.001049 0.012357 -0.001314 0.002564 -0.020249 0.041537
#
#
# Mechanical properties :
#
#
# Convention : Reuss Voigt Hill
#
# Bulk Modulus (GPa) = 41.66818 65.74684 53.70751
# Shear Modulus (GPa) = 26.92970 40.34935 33.63952
#
# Velocity S-wave (km/s) = 3.36862 4.12339 3.76496
# Velocity P-wave (km/s) = 5.71736 7.09747 6.44446
#
# Compressibility (1/GPa) = 0.02399913
#
# Stress axis : x y z
#
# Youngs Moduli (GPa) = 139.43198 42.04164 88.43932
#
# Poissons Ratio (x) = 0.16303 0.07668
# Poissons Ratio (y) = 0.54070 0.38808
# Poissons Ratio (z) = 0.12089 0.18448
#
# Static dielectric constant tensor:
#      x y z
#    x 1.956330 0.008530 0.009260 
#    y 0.008530 1.958240 -0.040200 
#    z 0.009260 -0.040200 1.916760 
# 
# From -- ./inp_files/402556.got.cif
#   From: 2010.05.17/outbox.cif.g08.bks.cpg/sg2_202_cif.got.tgz:402556.got - 2010.06.03 11:33:40.
