data_PCOD9026535
_publ_section_title
;
Structure prediction by ZEFSAII (Michael W. Deem and Ramdas Pophale) SiO2 
 PCOD9026535
Probable space group: P -1
;
_chemical_formula_sum "Si O2"
_cell_formula_units_Z 14
_cell_length_a 20.611010
_cell_length_b 8.560041
_cell_length_c 9.953772
_cell_angle_alpha 55.607777
_cell_angle_beta 144.814574
_cell_angle_gamma 136.990763
_cell_volume 687.854971
_symmetry_space_group_name_H-M "P -1"
_symmetry_group_IT_number 2
_symmetry_cell_setting 'triclinic'
loop_
_space_group_symop_operation_xyz
x,y,z
-x,-y,-z
loop_
_atom_site_type_symbol
_atom_site_label
_atom_site_fract_x
_atom_site_fract_y
_atom_site_fract_z
Si Si1 0.810702 0.423473 0.577800
Si Si2 0.859079 0.380048 0.238379
Si Si3 0.385915 0.728212 0.924599
Si Si4 0.929338 0.134261 0.300002
Si Si5 0.480230 0.517194 0.614139
Si Si6 0.226632 0.511849 0.222959
Si Si7 0.292613 0.964223 0.220050
O O1 0.687102 0.364586 0.299347
O O2 0.951051 0.598162 0.654881
O O3 0.836266 0.552937 0.702020
O O4 0.767039 0.172119 0.674112
O O5 0.736198 0.333217 0.148665
O O6 0.000000 0.500000 0.500000
O O7 0.843632 0.149980 0.267234
O O8 0.857939 0.523159 0.038086
O O9 0.460871 0.605224 0.148404
O O10 0.500000 0.000000 0.000000
O O11 0.000000 0.000000 0.500000
O O12 0.826667 0.029390 0.053216
O O13 0.500000 0.500000 0.500000
O O14 0.324175 0.426263 0.416993
O O15 0.572739 0.786984 0.670495
O O16 0.310889 0.790151 0.248255
#
# Coordination Sequence:
#
# PCOD9026535 Si02
#       7
#     2   2   2   2   2   2   2
#     4  10  22  41  64  95 132 171 222 272 333 384
#     4  11  23  43  68  94 137 173 219 276 336 391
#     4  12  26  41  67 101 138 173 219 282 334 389
#     4  11  22  39  67  96 129 176 222 269 334 397
#     4  12  22  41  67  94 135 173 225 265 344 393
#     4   9  23  40  68  94 128 174 222 268 332 391
#     4   9  22  38  64  91 129 172 219 272 324 390
#
# _framework density 20.353127000000001
#
# number of rings (size 3 to 8) (size 9 to 14) (size 15 to 20)
#    0.857    0.571    2.857    2.571    0.000    2.857 
#    0.000    0.000    0.000    4.286    0.000    0.000 
#    0.000    0.000    0.000    0.000    0.000    0.000 
#
# Total GULP energy -77945.754365 kJ/mol
# GULP energy per Si atom -5567.553883 kJ/mol
# Density = 2.030680 g / cm^3
# Si number density = 20.353127 Si / 1000 Ang^3
#
#
#
# Elastic Constant Matrix: (Units=GPa)
#
#
# Indices 1 2 3 4 5 6 
#
# 1 81.5177 8.4136 50.8773 -14.8252 0.6056 -2.3023
# 2 8.4136 20.7781 13.2128 -4.6048 5.2838 8.0319
# 3 50.8773 13.2128 168.1817 -15.5844 -4.3161 2.4938
# 4 -14.8252 -4.6048 -15.5844 35.5354 -9.3336 6.3564
# 5 0.6056 5.2838 -4.3161 -9.3336 41.5382 -1.8172
# 6 -2.3023 8.0319 2.4938 6.3564 -1.8172 16.2853
#
#
#
# Elastic Compliance Matrix: (Units=1/GPa)
#
#
# Indices 1 2 3 4 5 6 
#
# 1 0.016183 -0.004785 -0.004196 0.003850 0.000972 0.003896
# 2 -0.004785 0.072597 -0.002819 0.011292 -0.008733 -0.041431
# 3 -0.004196 -0.002819 0.007660 0.001823 0.001585 -0.000910
# 4 0.003850 0.011292 0.001823 0.037046 0.006187 -0.019073
# 5 0.000972 -0.008733 0.001585 0.006187 0.026936 0.004793
# 6 0.003896 -0.041431 -0.000910 -0.019073 0.004793 0.090509
#
#
# Mechanical properties :
#
#
# Convention : Reuss Voigt Hill
#
# Bulk Modulus (GPa) = 13.72881 46.16499 29.94690
# Shear Modulus (GPa) = 16.73306 31.87003 24.30155
#
# Velocity S-wave (km/s) = 2.87040 3.96138 3.45917
# Velocity P-wave (km/s) = 4.21255 6.60717 5.54077
#
# Compressibility (1/GPa) = 0.07283951
#
# Stress axis : x y z
#
# Youngs Moduli (GPa) = 61.79439 13.77468 130.55210
#
# Poissons Ratio (x) = 0.06591 0.54775
# Poissons Ratio (y) = 0.29569 0.36807
# Poissons Ratio (z) = 0.25927 0.03884
#
# Static dielectric constant tensor:
#      x y z
#    x 1.508410 0.114060 -0.122780 
#    y 0.114060 1.689760 0.056800 
#    z -0.122780 0.056800 1.713940 
# 
# From -- ./inp_files/473828.got.cif
#   From: 2010.05.17/outbox.cif.g08.bks.cpg/sg2_237_cif.got.tgz:473828.got - 2010.06.03 11:33:40.
