data_PCOD9026377
_publ_section_title
;
Structure prediction by ZEFSAII (Michael W. Deem and Ramdas Pophale) SiO2 
 PCOD9026377
Probable space group: P -1
;
_chemical_formula_sum "Si O2"
_cell_formula_units_Z 14
_cell_length_a 12.979740
_cell_length_b 5.244341
_cell_length_c 12.160100
_cell_angle_alpha 83.149476
_cell_angle_beta 128.410219
_cell_angle_gamma 72.381810
_cell_volume 563.412871
_symmetry_space_group_name_H-M "P -1"
_symmetry_group_IT_number 2
_symmetry_cell_setting 'triclinic'
loop_
_space_group_symop_operation_xyz
x,y,z
-x,-y,-z
loop_
_atom_site_type_symbol
_atom_site_label
_atom_site_fract_x
_atom_site_fract_y
_atom_site_fract_z
Si Si1 0.764291 0.244255 0.868374
Si Si2 0.226589 0.143438 0.787419
Si Si3 0.699019 0.207860 0.355725
Si Si4 0.474740 0.148407 0.358721
Si Si5 0.026105 0.812409 0.678268
Si Si6 0.540040 0.164118 0.858400
Si Si7 0.947606 0.771345 0.868086
O O1 0.686150 0.564370 0.750455
O O2 0.654724 0.281226 0.892333
O O3 0.791681 0.022287 0.798859
O O4 0.925442 0.131426 0.034305
O O5 0.116706 0.493608 0.696718
O O6 0.307794 0.001951 0.733069
O O7 0.131039 0.967682 0.754743
O O8 0.359371 0.063490 0.969156
O O9 0.608065 0.217155 0.405657
O O10 0.612969 0.538026 0.234038
O O11 0.875167 0.058242 0.506710
O O12 0.500000 0.000000 0.500000
O O13 0.469657 0.975586 0.256309
O O14 0.963388 0.725957 0.751282
O O15 0.000000 0.500000 0.000000
#
# Coordination Sequence:
#
# PCOD9026377 Si02
#       7
#     2   2   2   2   2   2   2
#     4  10  22  41  64 103 137 188 246 297 365 441
#     4  12  27  52  78 109 150 199 260 310 370 449
#     4  11  29  46  75 110 148 200 246 315 380 443
#     4  11  27  44  71 106 151 191 245 306 381 450
#     4  12  28  47  78 111 152 195 254 317 374 440
#     4  11  25  48  74 104 150 196 255 306 377 448
#     4  11  23  39  70 102 143 192 243 302 372 439
#
# _framework density 24.848562000000001
#
# number of rings (size 3 to 8) (size 9 to 14) (size 15 to 20)
#    0.000    0.857    1.429    3.857   14.000    1.714 
#    0.000    0.000    0.000    0.000    0.000    0.000 
#    0.000    0.000    0.000    0.000    0.000    0.000 
#
# Total GULP energy -78184.844685 kJ/mol
# GULP energy per Si atom -5584.631763 kJ/mol
# Density = 2.479201 g / cm^3
# Si number density = 24.848562 Si / 1000 Ang^3
#
#
#
# Elastic Constant Matrix: (Units=GPa)
#
#
# Indices 1 2 3 4 5 6 
#
# 1 95.2010 28.8304 35.6079 -8.8590 -8.3766 -20.4853
# 2 28.8304 166.4240 53.8272 -32.1139 14.8769 -25.5807
# 3 35.6079 53.8272 144.1086 -15.8860 0.0575 -19.1101
# 4 -8.8590 -32.1139 -15.8860 36.9720 -8.7569 5.7833
# 5 -8.3766 14.8769 0.0575 -8.7569 30.9824 0.1756
# 6 -20.4853 -25.5807 -19.1101 5.7833 0.1756 45.8713
#
#
#
# Elastic Compliance Matrix: (Units=1/GPa)
#
#
# Indices 1 2 3 4 5 6 
#
# 1 0.013048 -0.001001 -0.002107 0.001765 0.004488 0.004151
# 2 -0.001001 0.008519 -0.001987 0.005173 -0.002912 0.002835
# 3 -0.002107 -0.001987 0.008533 0.001408 0.000759 0.001325
# 4 0.001765 0.005173 0.001408 0.034413 0.007718 -0.000109
# 5 0.004488 -0.002912 0.000759 0.007718 0.037070 -0.000418
# 6 0.004151 0.002835 0.001325 -0.000109 -0.000418 0.025802
#
#
# Mechanical properties :
#
#
# Convention : Reuss Voigt Hill
#
# Bulk Modulus (GPa) = 50.22955 71.36274 60.79614
# Shear Modulus (GPa) = 34.67107 41.92969 38.30038
#
# Velocity S-wave (km/s) = 3.73942 4.11226 3.93026
# Velocity P-wave (km/s) = 6.23718 7.16443 6.71683
#
# Compressibility (1/GPa) = 0.01990860
#
# Stress axis : x y z
#
# Youngs Moduli (GPa) = 76.64216 117.38240 117.19645
#
# Poissons Ratio (x) = 0.11756 0.24689
# Poissons Ratio (y) = 0.07676 0.23291
# Poissons Ratio (z) = 0.16146 0.23328
#
# Static dielectric constant tensor:
#      x y z
#    x 2.145130 0.069730 0.031190 
#    y 0.069730 1.997140 0.090140 
#    z 0.031190 0.090140 2.081300 
# 
# From -- ./inp_files/65902.got.cif
#   From: 2010.05.17/outbox.cif.g08.bks.cpg/sg2_33_cif.got.tgz:65902.got - 2010.06.03 11:33:40.
