data_PCOD9026478
_publ_section_title
;
Structure prediction by ZEFSAII (Michael W. Deem and Ramdas Pophale) SiO2 
 PCOD9026478
Probable space group: P -1
;
_chemical_formula_sum "Si O2"
_cell_formula_units_Z 16
_cell_length_a 11.327950
_cell_length_b 8.920318
_cell_length_c 14.158520
_cell_angle_alpha 74.683927
_cell_angle_beta 150.643160
_cell_angle_gamma 98.508956
_cell_volume 666.171293
_symmetry_space_group_name_H-M "P -1"
_symmetry_group_IT_number 2
_symmetry_cell_setting 'triclinic'
loop_
_space_group_symop_operation_xyz
x,y,z
-x,-y,-z
loop_
_atom_site_type_symbol
_atom_site_label
_atom_site_fract_x
_atom_site_fract_y
_atom_site_fract_z
Si Si1 0.970205 0.689509 0.214114
Si Si2 0.609161 0.993005 0.941386
Si Si3 0.097197 0.738060 0.561363
Si Si4 0.101852 0.340638 0.044215
Si Si5 0.724732 0.534324 0.387376
Si Si6 0.387578 0.769119 0.247212
Si Si7 0.539507 0.179604 0.500108
Si Si8 0.870511 0.056470 0.280329
O O1 0.079008 0.554729 0.385462
O O2 0.187207 0.792318 0.335092
O O3 0.905316 0.629056 0.077141
O O4 0.736499 0.811899 0.064277
O O5 0.579639 0.067297 0.805513
O O6 0.353267 0.004284 0.812503
O O7 0.785909 0.086181 0.109764
O O8 0.305567 0.604349 0.684706
O O9 0.099476 0.792598 0.662801
O O10 0.854478 0.659026 0.400122
O O11 0.079897 0.902604 0.464675
O O12 0.358785 0.270058 0.281289
O O13 0.000000 0.500000 0.000000
O O14 0.899759 0.229544 0.940264
O O15 0.506999 0.630270 0.281952
O O16 0.510429 0.752845 0.439052
O O17 0.500000 0.000000 0.500000
#
# Coordination Sequence:
#
# PCOD9026478 Si02
#       8
#     2   2   2   2   2   2   2   2
#     4  11  24  41  65  95 129 167 214 260 318 377
#     4  11  22  41  64  92 128 167 208 265 314 374
#     4  10  22  41  64  93 128 163 217 257 316 381
#     4  11  24  43  62  92 130 165 210 264 316 377
#     4  11  22  41  66  94 130 169 204 267 320 370
#     4  11  24  41  65  95 129 167 214 260 318 377
#     4  11  24  43  66  94 130 168 213 263 313 378
#     4  10  22  41  64  93 126 167 210 266 309 379
#
# _framework density 24.017848000000001
#
# number of rings (size 3 to 8) (size 9 to 14) (size 15 to 20)
#    0.000    1.250    2.500    3.000    0.000   10.000 
#    0.000    1.250    0.000    0.000    0.000    0.000 
#    0.000    0.000    0.000    0.000    0.000    0.000 
#
# Total GULP energy -89494.523616 kJ/mol
# GULP energy per Si atom -5593.407726 kJ/mol
# Density = 2.396318 g / cm^3
# Si number density = 24.017848 Si / 1000 Ang^3
#
#
#
# Elastic Constant Matrix: (Units=GPa)
#
#
# Indices 1 2 3 4 5 6 
#
# 1 73.2826 9.8281 10.2252 5.5023 -11.5053 -12.5799
# 2 9.8281 93.1762 20.3709 3.6994 -0.1622 -19.3982
# 3 10.2252 20.3709 69.7071 -2.3703 -10.8068 -3.9653
# 4 5.5023 3.6994 -2.3703 38.0297 -6.7021 -7.1436
# 5 -11.5053 -0.1622 -10.8068 -6.7021 35.6631 -0.8152
# 6 -12.5799 -19.3982 -3.9653 -7.1436 -0.8152 45.6122
#
#
#
# Elastic Compliance Matrix: (Units=1/GPa)
#
#
# Indices 1 2 3 4 5 6 
#
# 1 0.015311 -0.000511 -0.001199 -0.000715 0.004528 0.003870
# 2 -0.000511 0.012579 -0.003539 -0.000685 -0.001200 0.004772
# 3 -0.001199 -0.003539 0.016423 0.002440 0.005034 0.000064
# 4 -0.000715 -0.000685 0.002440 0.028473 0.005954 0.004289
# 5 0.004528 -0.001200 0.005034 0.005954 0.032201 0.002684
# 6 0.003870 0.004772 0.000064 0.004289 0.002684 0.025746
#
#
# Mechanical properties :
#
#
# Convention : Reuss Voigt Hill
#
# Bulk Modulus (GPa) = 29.57274 35.22383 32.39828
# Shear Modulus (GPa) = 32.78684 36.91045 34.84865
#
# Velocity S-wave (km/s) = 3.69874 3.92445 3.81326
# Velocity P-wave (km/s) = 5.52996 5.93570 5.73642
#
# Compressibility (1/GPa) = 0.03381493
#
# Stress axis : x y z
#
# Youngs Moduli (GPa) = 65.31465 79.50046 60.89104
#
# Poissons Ratio (x) = 0.04061 0.07300
# Poissons Ratio (y) = 0.03337 0.21548
# Poissons Ratio (z) = 0.07830 0.28134
#
# Static dielectric constant tensor:
#      x y z
#    x 1.950210 -0.027250 -0.020730 
#    y -0.027250 1.931510 0.038260 
#    z -0.020730 0.038260 1.939280 
# 
# From -- ./inp_files/202736.got.cif
#   From: 2010.05.17/outbox.cif.g08.bks.cpg/sg2_102_cif.got.tgz:202736.got - 2010.06.03 11:33:40.
