data_PCOD9026239
_publ_section_title
;
Structure prediction by ZEFSAII (Michael W. Deem and Ramdas Pophale) SiO2 
 PCOD9026239
Probable space group: P -1
;
_chemical_formula_sum "Si O2"
_cell_formula_units_Z 16
_cell_length_a 9.442665
_cell_length_b 16.733710
_cell_length_c 7.225221
_cell_angle_alpha 129.743556
_cell_angle_beta 63.610847
_cell_angle_gamma 111.994844
_cell_volume 779.570927
_symmetry_space_group_name_H-M "P -1"
_symmetry_group_IT_number 2
_symmetry_cell_setting 'triclinic'
loop_
_space_group_symop_operation_xyz
x,y,z
-x,-y,-z
loop_
_atom_site_type_symbol
_atom_site_label
_atom_site_fract_x
_atom_site_fract_y
_atom_site_fract_z
Si Si1 0.822185 0.945329 0.561480
Si Si2 0.209732 0.306536 0.447018
Si Si3 0.645438 0.076365 0.623030
Si Si4 0.506180 0.291819 0.995237
Si Si5 0.939112 0.549044 0.794757
Si Si6 0.796534 0.456208 0.110695
Si Si7 0.282899 0.281286 0.797964
Si Si8 0.000685 0.897266 0.725112
O O1 0.785690 0.839991 0.306211
O O2 0.847907 0.910006 0.701273
O O3 0.692077 0.020648 0.703145
O O4 0.000000 0.000000 0.500000
O O5 0.345180 0.284421 0.194171
O O6 0.185371 0.428384 0.638398
O O7 0.275169 0.296909 0.605127
O O8 0.052377 0.224465 0.370900
O O9 0.818630 0.090636 0.441255
O O10 0.500000 0.000000 0.500000
O O11 0.590281 0.189829 0.835209
O O12 0.622146 0.395213 0.133485
O O13 0.453738 0.297829 0.820432
O O14 0.000000 0.500000 0.500000
O O15 0.084074 0.602173 0.920065
O O16 0.846280 0.470694 0.886939
O O17 0.826407 0.635834 0.938141
O O18 0.000000 0.000000 0.000000
#
# Coordination Sequence:
#
# PCOD9026239 Si02
#       8
#     2   2   2   2   2   2   2   2
#     4   9  20  38  61  86 124 164 206 258 321 379
#     4  10  23  43  65  90 132 169 216 258 326 385
#     4  11  22  40  62  94 128 160 214 268 320 374
#     4  12  24  40  67  92 132 171 211 267 325 372
#     4  10  22  41  65  94 127 166 217 261 318 378
#     4  10  24  40  64  95 130 167 217 268 310 384
#     4  10  22  41  63  90 128 170 209 262 320 390
#     4  10  22  41  66  92 122 171 215 262 323 388
#
# _framework density 20.524111000000001
#
# number of rings (size 3 to 8) (size 9 to 14) (size 15 to 20)
#    0.000    1.750    1.250    1.875   10.500    3.000 
#    2.250    1.875    0.000    0.000    0.000    0.000 
#    0.000    0.000    0.000    0.000    0.000    0.000 
#
# Total GULP energy -89128.835075 kJ/mol
# GULP energy per Si atom -5570.552192 kJ/mol
# Density = 2.047740 g / cm^3
# Si number density = 20.524111 Si / 1000 Ang^3
#
#
#
# Elastic Constant Matrix: (Units=GPa)
#
#
# Indices 1 2 3 4 5 6 
#
# 1 117.4245 35.3789 25.3878 17.7583 -8.6863 3.0672
# 2 35.3789 65.8146 32.8330 15.1422 -0.3751 18.9304
# 3 25.3878 32.8330 109.7421 9.5785 -6.0964 -5.4830
# 4 17.7583 15.1422 9.5785 36.7306 0.9784 -2.2920
# 5 -8.6863 -0.3751 -6.0964 0.9784 30.5567 11.3550
# 6 3.0672 18.9304 -5.4830 -2.2920 11.3550 43.8715
#
#
#
# Elastic Compliance Matrix: (Units=1/GPa)
#
#
# Indices 1 2 3 4 5 6 
#
# 1 0.010784 -0.004886 -0.000585 -0.003099 0.002846 0.000383
# 2 -0.004886 0.026763 -0.006700 -0.007818 0.002745 -0.013163
# 3 -0.000585 -0.006700 0.011463 0.000310 0.000443 0.004266
# 4 -0.003099 -0.007818 0.000310 0.032384 -0.004347 0.006446
# 5 0.002846 0.002745 0.000443 -0.004347 0.038032 -0.011399
# 6 0.000383 -0.013163 0.004266 0.006446 -0.011399 0.032267
#
#
# Mechanical properties :
#
#
# Convention : Reuss Voigt Hill
#
# Bulk Modulus (GPa) = 40.53753 53.35338 46.94546
# Shear Modulus (GPa) = 27.13601 35.52388 31.32994
#
# Velocity S-wave (km/s) = 3.64009 4.16485 3.91128
# Velocity P-wave (km/s) = 6.12054 7.01283 6.58183
#
# Compressibility (1/GPa) = 0.02466850
#
# Stress axis : x y z
#
# Youngs Moduli (GPa) = 92.73109 37.36460 87.23884
#
# Poissons Ratio (x) = 0.18256 0.05106
# Poissons Ratio (y) = 0.45307 0.58447
# Poissons Ratio (z) = 0.05428 0.25033
#
# Static dielectric constant tensor:
#      x y z
#    x 1.823880 -0.109640 -0.012490 
#    y -0.109640 1.926090 0.056080 
#    z -0.012490 0.056080 1.781920 
# 
# From -- ./inp_files/222578.got.cif
#   From: 2010.05.17/outbox.cif.g08.bks.cpg/sg2_112_cif.got.tgz:222578.got - 2010.06.03 11:33:40.
