data_PCOD9026697
_publ_section_title
;
Structure prediction by ZEFSAII (Michael W. Deem and Ramdas Pophale) SiO2 
 PCOD9026697
Probable space group: P -1
;
_chemical_formula_sum "Si O2"
_cell_formula_units_Z 14
_cell_length_a 8.558222
_cell_length_b 5.109329
_cell_length_c 21.326490
_cell_angle_alpha 88.459329
_cell_angle_beta 142.586291
_cell_angle_gamma 90.189134
_cell_volume 566.123514
_symmetry_space_group_name_H-M "P -1"
_symmetry_group_IT_number 2
_symmetry_cell_setting 'triclinic'
loop_
_space_group_symop_operation_xyz
x,y,z
-x,-y,-z
loop_
_atom_site_type_symbol
_atom_site_label
_atom_site_fract_x
_atom_site_fract_y
_atom_site_fract_z
Si Si1 0.705382 0.217227 0.365995
Si Si2 0.646451 0.242381 0.571748
Si Si3 0.740040 0.440418 0.840299
Si Si4 0.683037 0.403850 0.959984
Si Si5 0.996076 0.714040 0.418632
Si Si6 0.070698 0.756678 0.218387
Si Si7 0.715648 0.248926 0.107377
O O1 0.444551 0.351615 0.256387
O O2 0.916653 0.416458 0.404763
O O3 0.762835 0.232136 0.458549
O O4 0.775519 0.923940 0.367870
O O5 0.500000 0.500000 0.500000
O O6 0.688063 0.248708 0.658609
O O7 0.924043 0.239780 0.627049
O O8 0.500000 0.000000 0.500000
O O9 0.621023 0.341303 0.868407
O O10 0.826037 0.219115 0.819410
O O11 0.009718 0.573391 0.940689
O O12 0.524028 0.672562 0.925069
O O13 0.626852 0.237677 0.005981
O O14 0.910602 0.491746 0.172801
O O15 0.884471 0.994525 0.177302
#
# Coordination Sequence:
#
# PCOD9026697 Si02
#       7
#     2   2   2   2   2   2   2
#     4  10  22  41  65  92 132 168 218 273 333 397
#     4  12  25  42  68  98 135 175 226 279 333 404
#     4  10  22  41  67 101 134 178 221 281 335 395
#     4   9  22  42  68  98 136 176 227 282 333 393
#     4  10  23  41  63  95 126 173 218 272 329 397
#     4  11  25  42  69  98 133 180 224 270 345 397
#     4  10  23  45  66  95 135 177 226 277 329 407
#
# _framework density 24.729585
#
# number of rings (size 3 to 8) (size 9 to 14) (size 15 to 20)
#    0.000    1.714    0.000    2.571    4.000   11.429 
#    0.000    5.714    0.000    0.000    0.000    0.000 
#    0.000    0.000    0.000    0.000    0.000    0.000 
#
# Total GULP energy -78350.249714 kJ/mol
# GULP energy per Si atom -5596.446408 kJ/mol
# Density = 2.467330 g / cm^3
# Si number density = 24.729585 Si / 1000 Ang^3
#
#
#
# Elastic Constant Matrix: (Units=GPa)
#
#
# Indices 1 2 3 4 5 6 
#
# 1 91.2058 0.5287 31.1123 3.1542 -10.9034 -7.8377
# 2 0.5287 113.5006 34.0280 -9.9900 1.6145 -0.7379
# 3 31.1123 34.0280 140.9134 -13.0916 1.5594 -18.2537
# 4 3.1542 -9.9900 -13.0916 32.0241 -7.0961 8.7333
# 5 -10.9034 1.6145 1.5594 -7.0961 39.4100 -0.6043
# 6 -7.8377 -0.7379 -18.2537 8.7333 -0.6043 25.4766
#
#
#
# Elastic Compliance Matrix: (Units=1/GPa)
#
#
# Indices 1 2 3 4 5 6 
#
# 1 0.012617 0.000558 -0.002811 -0.002250 0.003216 0.002731
# 2 0.000558 0.009782 -0.002536 0.002642 0.000295 -0.002261
# 3 -0.002811 -0.002536 0.009145 0.001714 -0.000650 0.005011
# 4 -0.002250 0.002642 0.001714 0.037560 0.005779 -0.012126
# 5 0.003216 0.000295 -0.000650 0.005779 0.027306 -0.000801
# 6 0.002731 -0.002261 0.005011 -0.012126 -0.000801 0.047755
#
#
# Mechanical properties :
#
#
# Convention : Reuss Voigt Hill
#
# Bulk Modulus (GPa) = 45.52615 52.99531 49.26073
# Shear Modulus (GPa) = 31.04332 38.04551 34.54441
#
# Velocity S-wave (km/s) = 3.54688 3.92658 3.74155
# Velocity P-wave (km/s) = 5.93493 6.48335 6.21519
#
# Compressibility (1/GPa) = 0.02196540
#
# Stress axis : x y z
#
# Youngs Moduli (GPa) = 79.25866 102.23016 109.34656
#
# Poissons Ratio (x) = -0.05705 0.30741
# Poissons Ratio (y) = -0.04423 0.27731
# Poissons Ratio (z) = 0.22282 0.25926
#
# Static dielectric constant tensor:
#      x y z
#    x 2.041560 0.028040 0.004740 
#    y 0.028040 1.935470 0.029720 
#    z 0.004740 0.029720 1.968840 
# 
# From -- ./inp_files/548143.got.cif
#   From: 2010.05.17/outbox.cif.g08.bks.cpg/sg2_275_cif.got.tgz:548143.got - 2010.06.03 11:33:40.
