data_PCOD9026039
_publ_section_title
;
Structure prediction by ZEFSAII (Michael W. Deem and Ramdas Pophale) SiO2 
 PCOD9026039
Probable space group: P -1
;
_chemical_formula_sum "Si O2"
_cell_formula_units_Z 14
_cell_length_a 15.312032
_cell_length_b 7.861041
_cell_length_c 10.335601
_cell_angle_alpha 44.818036
_cell_angle_beta 37.471343
_cell_angle_gamma 48.446351
_cell_volume 518.663920
_symmetry_space_group_name_H-M "P -1"
_symmetry_group_IT_number 2
_symmetry_cell_setting 'triclinic'
loop_
_space_group_symop_operation_xyz
x,y,z
-x,-y,-z
loop_
_atom_site_type_symbol
_atom_site_label
_atom_site_fract_x
_atom_site_fract_y
_atom_site_fract_z
Si Si1 0.761371 0.472079 0.438203
Si Si2 0.541302 0.844563 0.327896
Si Si3 0.020645 0.267408 0.798590
Si Si4 0.705076 0.285177 0.883626
Si Si5 0.027486 0.094728 0.272591
Si Si6 0.750206 0.682992 0.960974
Si Si7 0.723090 0.808791 0.651207
O O1 0.873191 0.632946 0.276885
O O2 0.711042 0.338607 0.694164
O O3 0.870931 0.272516 0.323431
O O4 0.618083 0.651847 0.449125
O O5 0.369285 0.966374 0.447402
O O6 0.605757 0.092699 0.133875
O O7 0.597812 0.704523 0.201875
O O8 0.115089 0.265935 0.558569
O O9 0.858347 0.444142 0.902672
O O10 0.000000 0.000000 0.000000
O O11 0.661475 0.557780 0.848918
O O12 0.874216 0.135678 0.796152
O O13 0.149104 0.249407 0.078452
O O14 0.000000 0.000000 0.500000
O O15 0.720896 0.866671 0.773959
#
# Coordination Sequence:
#
# PCOD9026039 Si02
#       7
#     2   2   2   2   2   2   2
#     4   9  20  40  65  95 129 162 219 263 310 389
#     4  11  23  42  67  96 130 173 206 262 323 387
#     4  10  23  42  62  97 125 168 213 269 322 361
#     4   9  20  37  64  95 123 166 215 259 323 367
#     4   8  16  36  62  89 121 161 210 262 307 367
#     4  10  22  41  61  93 128 167 215 256 320 384
#     4  11  23  43  65  93 133 167 212 263 321 384
#
# _framework density 26.992431
#
# number of rings (size 3 to 8) (size 9 to 14) (size 15 to 20)
#    0.000    2.286    0.000    2.143    2.000    7.429 
#   12.857    0.714    0.000    0.000    0.000    0.000 
#    0.000    0.000    0.000    0.000    0.000    0.000 
#
# Total GULP energy -78333.939611 kJ/mol
# GULP energy per Si atom -5595.281401 kJ/mol
# Density = 2.693100 g / cm^3
# Si number density = 26.992431 Si / 1000 Ang^3
#
#
#
# Elastic Constant Matrix: (Units=GPa)
#
#
# Indices 1 2 3 4 5 6 
#
# 1 95.7776 51.1107 11.1551 -7.6351 9.7085 -21.0061
# 2 51.1107 130.7119 2.6362 2.2619 -2.3147 -35.0894
# 3 11.1551 2.6362 57.9279 -13.5993 0.4670 1.6104
# 4 -7.6351 2.2619 -13.5993 39.2823 -3.4485 11.1347
# 5 9.7085 -2.3147 0.4670 -3.4485 33.4465 -3.9143
# 6 -21.0061 -35.0894 1.6104 11.1347 -3.9143 44.5164
#
#
#
# Elastic Compliance Matrix: (Units=1/GPa)
#
#
# Indices 1 2 3 4 5 6 
#
# 1 0.014431 -0.005113 -0.002258 0.001343 -0.004120 0.002163
# 2 -0.005113 0.012035 -0.000776 -0.004076 0.002888 0.008376
# 3 -0.002258 -0.000776 0.019646 0.007667 0.000620 -0.004251
# 4 0.001343 -0.004076 0.007667 0.031745 0.001243 -0.010687
# 5 -0.004120 0.002888 0.000620 0.001243 0.031740 0.002790
# 6 0.002163 0.008376 -0.004251 -0.010687 0.002790 0.033159
#
#
# Mechanical properties :
#
#
# Convention : Reuss Voigt Hill
#
# Bulk Modulus (GPa) = 33.53610 46.02461 39.78035
# Shear Modulus (GPa) = 29.58750 38.08340 33.83545
#
# Velocity S-wave (km/s) = 3.31439 3.76026 3.54434
# Velocity P-wave (km/s) = 5.20559 5.99505 5.61422
#
# Compressibility (1/GPa) = 0.02981862
#
# Stress axis : x y z
#
# Youngs Moduli (GPa) = 69.29372 83.08847 50.90091
#
# Poissons Ratio (x) = 0.42482 0.11494
# Poissons Ratio (y) = 0.35429 0.03951
# Poissons Ratio (z) = 0.15647 0.06449
#
# Static dielectric constant tensor:
#      x y z
#    x 2.235550 0.040050 -0.044950 
#    y 0.040050 2.149290 -0.017570 
#    z -0.044950 -0.017570 2.167280 
# 
# From -- ./inp_files/460932.got.cif
#   From: 2010.05.17/outbox.cif.g08.bks.cpg/sg2_231_cif.got.tgz:460932.got - 2010.06.03 11:33:40.
