data_PCOD9026594
_publ_section_title
;
Structure prediction by ZEFSAII (Michael W. Deem and Ramdas Pophale) SiO2 
 PCOD9026594
Probable space group: P -1
;
_chemical_formula_sum "Si O2"
_cell_formula_units_Z 14
_cell_length_a 22.363406
_cell_length_b 5.179770
_cell_length_c 15.995569
_cell_angle_alpha 93.298410
_cell_angle_beta 163.687126
_cell_angle_gamma 88.318126
_cell_volume 517.364327
_symmetry_space_group_name_H-M "P -1"
_symmetry_group_IT_number 2
_symmetry_cell_setting 'triclinic'
loop_
_space_group_symop_operation_xyz
x,y,z
-x,-y,-z
loop_
_atom_site_type_symbol
_atom_site_label
_atom_site_fract_x
_atom_site_fract_y
_atom_site_fract_z
Si Si1 0.071959 0.949459 0.335806
Si Si2 0.262953 0.025809 0.413393
Si Si3 0.668515 0.965098 0.037238
Si Si4 0.694083 0.506563 0.635146
Si Si5 0.335203 0.299559 0.820651
Si Si6 0.327203 0.765417 0.229752
Si Si7 0.985298 0.330280 0.588329
O O1 0.262325 0.098163 0.647281
O O2 0.121827 0.963706 0.305118
O O3 0.034418 0.694433 0.338020
O O4 0.858179 0.096120 0.059835
O O5 0.297345 0.754469 0.410448
O O6 0.193688 0.246868 0.261222
O O7 0.501075 0.122754 0.767724
O O8 0.547746 0.776944 0.939851
O O9 0.795839 0.780332 0.146362
O O10 0.818854 0.143857 0.305042
O O11 0.460640 0.594993 0.345069
O O12 0.765032 0.418985 0.821165
O O13 0.108112 0.396897 0.549383
O O14 0.500000 0.500000 0.000000
O O15 0.500000 0.000000 0.500000
#
# Coordination Sequence:
#
# PCOD9026594 Si02
#       7
#     2   2   2   2   2   2   2
#     4  11  27  43  71 105 145 188 246 295 374 423
#     4  12  26  46  71 112 144 193 232 312 360 441
#     4  10  23  40  66  97 146 184 250 287 358 422
#     4  11  27  48  76 105 145 187 247 298 372 427
#     4  11  23  41  66 103 144 193 236 299 355 435
#     4  11  25  53  75 105 139 192 242 311 355 441
#     4  10  22  41  64  98 137 194 241 292 352 433
#
# _framework density 27.060234999999999
#
# number of rings (size 3 to 8) (size 9 to 14) (size 15 to 20)
#    0.000    1.143    1.429    3.000    8.000    4.571 
#    0.000    0.000    0.000    0.000    0.000    0.000 
#    0.000    0.000    0.000    0.000    0.000    0.000 
#
# Total GULP energy -78380.695881 kJ/mol
# GULP energy per Si atom -5598.621134 kJ/mol
# Density = 2.699864 g / cm^3
# Si number density = 27.060235 Si / 1000 Ang^3
#
#
#
# Elastic Constant Matrix: (Units=GPa)
#
#
# Indices 1 2 3 4 5 6 
#
# 1 173.2119 56.6694 16.4348 3.1011 -14.1675 13.0657
# 2 56.6694 120.5183 8.2470 -10.6356 -14.8374 5.6999
# 3 16.4348 8.2470 97.6196 -15.8354 -13.5271 1.8142
# 4 3.1011 -10.6356 -15.8354 39.0148 1.2072 -7.4515
# 5 -14.1675 -14.8374 -13.5271 1.2072 37.9778 -12.6989
# 6 13.0657 5.6999 1.8142 -7.4515 -12.6989 54.4533
#
#
#
# Elastic Compliance Matrix: (Units=1/GPa)
#
#
# Indices 1 2 3 4 5 6 
#
# 1 0.007184 -0.003364 -0.001198 -0.002281 0.000501 -0.001527
# 2 -0.003364 0.010501 0.000683 0.003483 0.003291 0.000929
# 3 -0.001198 0.000683 0.011816 0.005240 0.004384 0.001562
# 4 -0.002281 0.003483 0.005240 0.029708 0.003030 0.004780
# 5 0.000501 0.003291 0.004384 0.003030 0.031674 0.007190
# 6 -0.001527 0.000929 0.001562 0.004780 0.007190 0.020912
#
#
# Mechanical properties :
#
#
# Convention : Reuss Voigt Hill
#
# Bulk Modulus (GPa) = 45.98758 61.56137 53.77448
# Shear Modulus (GPa) = 39.43195 46.95576 43.19385
#
# Velocity S-wave (km/s) = 3.82146 4.17013 3.99960
# Velocity P-wave (km/s) = 6.04176 6.78128 6.42217
#
# Compressibility (1/GPa) = 0.02174500
#
# Stress axis : x y z
#
# Youngs Moduli (GPa) = 139.19009 95.22939 84.62883
#
# Poissons Ratio (x) = 0.32032 0.10135
# Poissons Ratio (y) = 0.46818 -0.05779
# Poissons Ratio (z) = 0.16669 -0.06503
#
# Static dielectric constant tensor:
#      x y z
#    x 2.109080 0.039670 0.061810 
#    y 0.039670 2.174670 0.073380 
#    z 0.061810 0.073380 2.117060 
# 
# From -- ./inp_files/119410.got.cif
#   From: 2010.05.17/outbox.cif.g08.bks.cpg/sg2_60_cif.got.tgz:119410.got - 2010.06.03 11:33:40.
