data_PCOD9026703
_publ_section_title
;
Structure prediction by ZEFSAII (Michael W. Deem and Ramdas Pophale) SiO2 
 PCOD9026703
Probable space group: P -1
;
_chemical_formula_sum "Si O2"
_cell_formula_units_Z 14
_cell_length_a 12.525466
_cell_length_b 18.200749
_cell_length_c 11.621278
_cell_angle_alpha 150.514194
_cell_angle_beta 135.340937
_cell_angle_gamma 31.936914
_cell_volume 685.975763
_symmetry_space_group_name_H-M "P -1"
_symmetry_group_IT_number 2
_symmetry_cell_setting 'triclinic'
loop_
_space_group_symop_operation_xyz
x,y,z
-x,-y,-z
loop_
_atom_site_type_symbol
_atom_site_label
_atom_site_fract_x
_atom_site_fract_y
_atom_site_fract_z
Si Si1 0.680652 0.967039 0.032543
Si Si2 0.050669 0.797104 0.793124
Si Si3 0.929712 0.400986 0.240039
Si Si4 0.386915 0.996152 0.243056
Si Si5 0.240013 0.824635 0.458652
Si Si6 0.533167 0.374321 0.105510
Si Si7 0.470372 0.774169 0.334829
O O1 0.694962 0.120192 0.306492
O O2 0.896975 0.745616 0.919280
O O3 0.500000 0.000000 0.000000
O O4 0.642351 0.983594 0.889695
O O5 0.063875 0.740263 0.858699
O O6 0.288074 0.636073 0.718853
O O7 0.842838 0.847021 0.664470
O O8 0.000000 0.000000 0.000000
O O9 0.703987 0.574968 0.262773
O O10 0.000000 0.500000 0.500000
O O11 0.517605 0.057316 0.455385
O O12 0.481525 0.773948 0.042871
O O13 0.329267 0.601779 0.244588
O O14 0.347315 0.818196 0.416312
O O15 0.000000 0.000000 0.500000
O O16 0.601655 0.274742 0.895190
#
# Coordination Sequence:
#
# PCOD9026703 Si02
#       7
#     2   2   2   2   2   2   2
#     4  11  22  40  65  91 128 160 206 255 309 376
#     4   9  19  35  59  93 119 149 200 261 297 346
#     4  11  19  36  66  91 115 160 214 250 296 366
#     4  10  22  41  65  93 122 162 210 255 310 365
#     4  12  26  41  62  92 129 166 203 259 316 366
#     4  11  24  40  64  93 127 161 209 259 308 364
#     4  12  22  41  66  92 123 166 213 255 303 372
#
# _framework density 20.408884
#
# number of rings (size 3 to 8) (size 9 to 14) (size 15 to 20)
#    0.000    1.143    5.714    1.714    4.000    0.571 
#    0.000    0.714    3.143    0.000    0.000    0.000 
#    0.000    0.000    0.000    0.000    0.000    0.000 
#
# Total GULP energy -78042.793605 kJ/mol
# GULP energy per Si atom -5574.485257 kJ/mol
# Density = 2.036243 g / cm^3
# Si number density = 20.408884 Si / 1000 Ang^3
#
#
#
# Elastic Constant Matrix: (Units=GPa)
#
#
# Indices 1 2 3 4 5 6 
#
# 1 80.5011 51.7412 27.8749 22.3593 17.9718 -17.8595
# 2 51.7412 107.6674 33.7685 23.4907 19.6368 -20.5182
# 3 27.8749 33.7685 98.1907 1.3433 4.2195 -10.7359
# 4 22.3593 23.4907 1.3433 35.1198 1.1577 -4.6522
# 5 17.9718 19.6368 4.2195 1.1577 30.7241 -1.4350
# 6 -17.8595 -20.5182 -10.7359 -4.6522 -1.4350 26.8097
#
#
#
# Elastic Compliance Matrix: (Units=1/GPa)
#
#
# Indices 1 2 3 4 5 6 
#
# 1 0.023460 -0.004542 -0.003629 -0.010333 -0.009540 0.008396
# 2 -0.004542 0.016557 -0.003274 -0.006935 -0.006899 0.006763
# 3 -0.003629 -0.003274 0.012271 0.004061 0.002416 0.000825
# 4 -0.010333 -0.006935 0.004061 0.038814 0.008298 -0.003385
# 5 -0.009540 -0.006899 0.002416 0.008298 0.041566 -0.007003
# 6 0.008396 0.006763 0.000825 -0.003385 -0.007003 0.047436
#
#
# Mechanical properties :
#
#
# Convention : Reuss Voigt Hill
#
# Bulk Modulus (GPa) = 34.01413 57.01427 45.51420
# Shear Modulus (GPa) = 23.49688 30.06235 26.77961
#
# Velocity S-wave (km/s) = 3.39677 3.84214 3.62630
# Velocity P-wave (km/s) = 5.66450 6.90502 6.31530
#
# Compressibility (1/GPa) = 0.02939954
#
# Stress axis : x y z
#
# Youngs Moduli (GPa) = 42.62515 60.39608 81.49117
#
# Poissons Ratio (x) = 0.27430 0.29572
# Poissons Ratio (y) = 0.19359 0.26681
# Poissons Ratio (z) = 0.15468 0.19774
#
# Static dielectric constant tensor:
#      x y z
#    x 1.680650 0.046570 -0.032880 
#    y 0.046570 1.715360 0.023450 
#    z -0.032880 0.023450 1.741810 
# 
# From -- ./inp_files/176534.got.cif
#   From: 2010.05.17/outbox.cif.g08.bks.cpg/sg2_89_cif.got.tgz:176534.got - 2010.06.03 11:33:40.
