data_PCOD9026147
_publ_section_title
;
Structure prediction by ZEFSAII (Michael W. Deem and Ramdas Pophale) SiO2 
 PCOD9026147
Probable space group: P -1
;
_chemical_formula_sum "Si O2"
_cell_formula_units_Z 16
_cell_length_a 17.556236
_cell_length_b 23.659321
_cell_length_c 14.549191
_cell_angle_alpha 31.431195
_cell_angle_beta 21.280690
_cell_angle_gamma 20.643663
_cell_volume 764.952650
_symmetry_space_group_name_H-M "P -1"
_symmetry_group_IT_number 2
_symmetry_cell_setting 'triclinic'
loop_
_space_group_symop_operation_xyz
x,y,z
-x,-y,-z
loop_
_atom_site_type_symbol
_atom_site_label
_atom_site_fract_x
_atom_site_fract_y
_atom_site_fract_z
Si Si1 0.135692 0.655415 0.177211
Si Si2 0.309395 0.813898 0.436669
Si Si3 0.368501 0.148510 0.260298
Si Si4 0.053421 0.191130 0.015132
Si Si5 0.735370 0.648217 0.749466
Si Si6 0.292806 0.390420 0.889357
Si Si7 0.918400 0.158880 0.858150
Si Si8 0.080246 0.358024 0.901986
O O1 0.041605 0.794007 0.155119
O O2 0.081966 0.691856 0.080128
O O3 0.928663 0.634752 0.472640
O O4 0.500000 0.500000 0.000000
O O5 0.409629 0.717793 0.361925
O O6 0.623258 0.748768 0.214593
O O7 0.000000 0.000000 0.500000
O O8 0.210107 0.780699 0.681219
O O9 0.422990 0.196874 0.224553
O O10 0.132521 0.143002 0.565530
O O11 0.662803 0.983642 0.106617
O O12 0.268603 0.284040 0.116304
O O13 0.146839 0.230438 0.940457
O O14 0.987985 0.487308 0.751900
O O15 0.442719 0.694490 0.973734
O O16 0.000000 0.500000 0.000000
O O17 0.228109 0.511183 0.867442
O O18 0.000000 0.000000 0.000000
#
# Coordination Sequence:
#
# PCOD9026147 Si02
#       8
#     2   2   2   2   2   2   2   2
#     4  11  24  40  63  93 135 173 213 265 321 384
#     4  11  23  44  68  92 129 167 213 273 332 379
#     4  10  22  41  62  94 131 168 214 270 324 384
#     4  12  24  39  65  98 129 168 218 270 324 383
#     4  10  22  42  64  93 134 177 215 261 323 390
#     4   9  20  44  66  88 128 170 208 268 328 385
#     4  11  23  40  65  96 131 175 221 261 322 389
#     4  10  24  41  66  97 127 168 220 264 325 393
#
# _framework density 20.916328
#
# number of rings (size 3 to 8) (size 9 to 14) (size 15 to 20)
#    0.000    1.500    1.250    3.000    0.000   13.000 
#    0.000    0.000    0.000    0.000    0.000    0.000 
#    0.000    0.000    0.000    0.000    0.000    0.000 
#
# Total GULP energy -89170.241377 kJ/mol
# GULP energy per Si atom -5573.140086 kJ/mol
# Density = 2.086872 g / cm^3
# Si number density = 20.916328 Si / 1000 Ang^3
#
#
#
# Elastic Constant Matrix: (Units=GPa)
#
#
# Indices 1 2 3 4 5 6 
#
# 1 43.4359 -8.1228 -41.7469 58.7453 -3.3455 11.3798
# 2 -8.1228 54.2910 -27.1086 36.0499 -4.5195 8.3382
# 3 -41.7469 -27.1086 -0.3498 74.5231 1.3259 22.1024
# 4 58.7453 36.0499 74.5231 -22.8662 21.7413 -4.9317
# 5 -3.3455 -4.5195 1.3259 21.7413 33.7012 5.9868
# 6 11.3798 8.3382 22.1024 -4.9317 5.9868 39.1150
#
#
#
# Elastic Compliance Matrix: (Units=1/GPa)
#
#
# Indices 1 2 3 4 5 6 
#
# 1 0.011186 -0.004033 -0.004737 0.004462 -0.002336 0.001202
# 2 -0.004033 0.014420 -0.002804 0.002949 -0.000276 0.000098
# 3 -0.004737 -0.002804 0.010414 0.010354 -0.007682 -0.001427
# 4 0.004462 0.002949 0.010354 0.005660 -0.002020 -0.006755
# 5 -0.002336 -0.000276 -0.007682 -0.002020 0.030995 0.000081
# 6 0.001202 0.000098 -0.001427 -0.006755 0.000081 0.025138
#
#
# Mechanical properties :
#
#
# Convention : Reuss Voigt Hill
#
# Bulk Modulus (GPa) = 77.69172 -6.28662 35.70255
# Shear Modulus (GPa) = 39.91970 21.61369 30.76669
#
# Velocity S-wave (km/s) = 4.37343 3.21805 3.83945
# Velocity P-wave (km/s) = 7.92005 3.28567 6.06312
#
# Compressibility (1/GPa) = 0.01287138
#
# Stress axis : x y z
#
# Youngs Moduli (GPa) = 89.39584 69.34967 96.02475
#
# Poissons Ratio (x) = 0.27971 0.45483
# Poissons Ratio (y) = 0.36057 0.26928
# Poissons Ratio (z) = 0.42343 0.19448
#
# Static dielectric constant tensor:
#      x y z
#    x 1.722650 0.042050 -0.020710 
#    y 0.042050 1.776970 0.003060 
#    z -0.020710 0.003060 1.710980 
# 
# From -- ./inp_files/35752.got.cif
#   From: 2010.05.17/outbox.cif.g08.bks.cpg/sg2_18_cif.got.tgz:35752.got - 2010.06.03 11:33:40.
