data_PCOD9026085
_publ_section_title
;
Structure prediction by ZEFSAII (Michael W. Deem and Ramdas Pophale) SiO2 
 PCOD9026085
Probable space group: P -1
;
_chemical_formula_sum "Si O2"
_cell_formula_units_Z 16
_cell_length_a 7.621672
_cell_length_b 6.861421
_cell_length_c 18.588638
_cell_angle_alpha 57.152212
_cell_angle_beta 123.377892
_cell_angle_gamma 118.326750
_cell_volume 660.142514
_symmetry_space_group_name_H-M "P -1"
_symmetry_group_IT_number 2
_symmetry_cell_setting 'triclinic'
loop_
_space_group_symop_operation_xyz
x,y,z
-x,-y,-z
loop_
_atom_site_type_symbol
_atom_site_label
_atom_site_fract_x
_atom_site_fract_y
_atom_site_fract_z
Si Si1 0.314497 0.770148 0.528428
Si Si2 0.819893 0.348989 0.635528
Si Si3 0.782833 0.289527 0.990394
Si Si4 0.648464 0.002955 0.875849
Si Si5 0.580989 0.727097 0.337208
Si Si6 0.044404 0.091043 0.845037
Si Si7 0.391476 0.539834 0.859408
Si Si8 0.840003 0.189361 0.358204
O O1 0.180576 0.677090 0.444558
O O2 0.397800 0.538336 0.615796
O O3 0.205829 0.837961 0.562042
O O4 0.500000 0.000000 0.500000
O O5 0.581437 0.274520 0.631504
O O6 0.961450 0.181508 0.734819
O O7 0.929734 0.618430 0.633381
O O8 0.761158 0.125209 0.947600
O O9 0.578450 0.401964 0.919177
O O10 0.000000 0.500000 0.000000
O O11 0.809159 0.094773 0.094941
O O12 0.527060 0.182113 0.774049
O O13 0.832767 0.972417 0.867377
O O14 0.483263 0.743764 0.897757
O O15 0.798274 0.930281 0.364234
O O16 0.175857 0.332045 0.866937
O O17 0.329694 0.684604 0.747350
#
# Coordination Sequence:
#
# PCOD9026085 Si02
#       8
#     2   2   2   2   2   2   2   2
#     4  12  23  38  65  91 123 161 200 245 304 359
#     4  10  22  41  62  87 123 161 202 251 298 352
#     4  12  23  38  65  91 123 161 200 245 304 359
#     4  10  22  42  63  87 121 159 199 248 302 357
#     4  10  22  42  63  87 121 159 199 248 302 357
#     4  10  22  41  62  87 123 161 202 251 298 352
#     4  10  22  42  63  88 122 159 201 251 300 353
#     4  10  22  42  63  88 122 159 201 251 300 353
#
# _framework density 24.237192
#
# number of rings (size 3 to 8) (size 9 to 14) (size 15 to 20)
#    0.000    1.500    2.500    2.250    0.000    2.000 
#    4.500    0.000    0.000    0.000    0.000    0.000 
#    0.000    0.000    0.000    0.000    0.000    0.000 
#
# Total GULP energy -89579.570541 kJ/mol
# GULP energy per Si atom -5598.723159 kJ/mol
# Density = 2.418203 g / cm^3
# Si number density = 24.237192 Si / 1000 Ang^3
#
#
#
# Elastic Constant Matrix: (Units=GPa)
#
#
# Indices 1 2 3 4 5 6 
#
# 1 31.6525 11.3967 4.5010 -0.8019 -0.1873 7.1189
# 2 11.3967 136.7009 30.2125 -6.5655 7.6693 25.1513
# 3 4.5010 30.2125 70.5565 -6.5549 9.5732 0.2366
# 4 -0.8019 -6.5655 -6.5549 48.9473 -1.1243 4.0829
# 5 -0.1873 7.6693 9.5732 -1.1243 24.9301 -0.0076
# 6 7.1189 25.1513 0.2366 4.0829 -0.0076 33.3637
#
#
#
# Elastic Compliance Matrix: (Units=1/GPa)
#
#
# Indices 1 2 3 4 5 6 
#
# 1 0.033747 -0.001330 -0.001678 0.000704 0.001337 -0.006272
# 2 -0.001330 0.009720 -0.003723 0.001348 -0.001512 -0.007183
# 3 -0.001678 -0.003723 0.016698 0.001349 -0.005218 0.002880
# 4 0.000704 0.001348 0.001349 0.021117 0.000024 -0.003760
# 5 0.001337 -0.001512 -0.005218 0.000024 0.042592 0.000898
# 6 -0.006272 -0.007183 0.002880 -0.003760 0.000898 0.037165
#
#
# Mechanical properties :
#
#
# Convention : Reuss Voigt Hill
#
# Bulk Modulus (GPa) = 21.41204 36.79228 29.10216
# Shear Modulus (GPa) = 26.30619 34.30154 30.30387
#
# Velocity S-wave (km/s) = 3.29806 3.76605 3.53980
# Velocity P-wave (km/s) = 4.83286 5.84157 5.36099
#
# Compressibility (1/GPa) = 0.04670271
#
# Stress axis : x y z
#
# Youngs Moduli (GPa) = 29.63238 102.88116 59.88793
#
# Poissons Ratio (x) = 0.13680 0.10052
# Poissons Ratio (y) = 0.03940 0.22295
# Poissons Ratio (z) = 0.04974 0.38301
#
# Static dielectric constant tensor:
#      x y z
#    x 1.908920 0.001220 0.018100 
#    y 0.001220 1.915480 -0.005750 
#    z 0.018100 -0.005750 1.943500 
# 
# From -- ./inp_files/48731.got.cif
#   From: 2010.05.17/outbox.cif.g08.bks.cpg/sg2_25_cif.got.tgz:48731.got - 2010.06.03 11:33:40.
