data_PCOD9026332
_publ_section_title
;
Structure prediction by ZEFSAII (Michael W. Deem and Ramdas Pophale) SiO2 
 PCOD9026332
Probable space group: P -1
;
_chemical_formula_sum "Si O2"
_cell_formula_units_Z 12
_cell_length_a 5.370319
_cell_length_b 9.265346
_cell_length_c 11.114286
_cell_angle_alpha 124.656554
_cell_angle_beta 93.115853
_cell_angle_gamma 79.646856
_cell_volume 446.714092
_symmetry_space_group_name_H-M "P -1"
_symmetry_group_IT_number 2
_symmetry_cell_setting 'triclinic'
loop_
_space_group_symop_operation_xyz
x,y,z
-x,-y,-z
loop_
_atom_site_type_symbol
_atom_site_label
_atom_site_fract_x
_atom_site_fract_y
_atom_site_fract_z
Si Si1 0.249151 0.040191 0.866597
Si Si2 0.283160 0.782125 0.949906
Si Si3 0.045053 0.160341 0.666029
Si Si4 0.577507 0.817590 0.489180
Si Si5 0.265872 0.402087 0.406274
Si Si6 0.670221 0.459785 0.766592
O O1 0.199050 0.056225 0.730875
O O2 0.262638 0.849181 0.841447
O O3 0.505475 0.113818 0.937976
O O4 0.994126 0.158243 0.973320
O O5 0.418008 0.577037 0.868589
O O6 0.190469 0.271096 0.631920
O O7 0.843515 0.324270 0.796545
O O8 0.000000 0.000000 0.500000
O O9 0.670669 0.789849 0.614682
O O10 0.370673 0.698716 0.400058
O O11 0.500000 0.000000 0.500000
O O12 0.500000 0.500000 0.500000
O O13 0.240512 0.404360 0.262517
O O14 0.000000 0.500000 0.500000
#
# Coordination Sequence:
#
# PCOD9026332 Si02
#       6
#     2   2   2   2   2   2
#     4  10  26  50  75 104 146 190 248 299 364 435
#     4  10  25  51  76 104 140 202 245 296 358 434
#     4  12  26  44  71 110 149 191 238 307 373 428
#     4  11  24  42  64 105 152 194 237 295 372 427
#     4  10  22  41  63  96 144 184 232 290 347 428
#     4  11  25  43  71 106 143 192 246 295 363 433
#
# _framework density 26.862817
#
# number of rings (size 3 to 8) (size 9 to 14) (size 15 to 20)
#    0.000    1.333    3.333    0.000    7.000    2.667 
#    6.000    0.000    0.000    0.000    0.000    0.000 
#    0.000    0.000    0.000    0.000    0.000    0.000 
#
# Total GULP energy -66912.183075 kJ/mol
# GULP energy per Si atom -5576.015256 kJ/mol
# Density = 2.680168 g / cm^3
# Si number density = 26.862817 Si / 1000 Ang^3
#
#
#
# Elastic Constant Matrix: (Units=GPa)
#
#
# Indices 1 2 3 4 5 6 
#
# 1 123.8578 16.0832 21.5518 10.1576 -8.1032 -15.3353
# 2 16.0832 191.8616 47.4233 -5.1208 0.5975 -39.4628
# 3 21.5518 47.4233 82.4586 -11.2510 3.2300 0.9131
# 4 10.1576 -5.1208 -11.2510 56.4573 -7.9661 -16.1390
# 5 -8.1032 0.5975 3.2300 -7.9661 30.0402 10.8205
# 6 -15.3353 -39.4628 0.9131 -16.1390 10.8205 47.8471
#
#
#
# Elastic Compliance Matrix: (Units=1/GPa)
#
#
# Indices 1 2 3 4 5 6 
#
# 1 0.009030 0.000443 -0.002867 -0.001211 0.001489 0.002569
# 2 0.000443 0.007925 -0.004452 0.001704 -0.001906 0.007769
# 3 -0.002867 -0.004452 0.015773 0.002025 -0.000357 -0.004128
# 4 -0.001211 0.001704 0.002025 0.020963 0.002266 0.007537
# 5 0.001489 -0.001906 -0.000357 0.002266 0.037542 -0.008814
# 6 0.002569 0.007769 -0.004128 0.007537 -0.008814 0.032745
#
#
# Mechanical properties :
#
#
# Convention : Reuss Voigt Hill
#
# Bulk Modulus (GPa) = 52.69972 63.14383 57.92177
# Shear Modulus (GPa) = 34.70890 47.74356 41.22623
#
# Velocity S-wave (km/s) = 3.59845 4.22039 3.92177
# Velocity P-wave (km/s) = 6.07666 6.87793 6.48968
#
# Compressibility (1/GPa) = 0.01897543
#
# Stress axis : x y z
#
# Youngs Moduli (GPa) = 110.74280 126.18655 63.39843
#
# Poissons Ratio (x) = -0.05592 0.18176
# Poissons Ratio (y) = -0.04908 0.28228
# Poissons Ratio (z) = 0.31750 0.56183
#
# Static dielectric constant tensor:
#      x y z
#    x 0.467930 -0.767540 -1.039250 
#    y -0.767540 2.203580 -0.315840 
#    z -1.039250 -0.315840 1.588470 
# 
# From -- ./inp_files/360974.got.cif
#   From: 2010.05.17/outbox.cif.g08.bks.cpg/sg2_181_cif.got.tgz:360974.got - 2010.06.03 11:33:40.
