data_PCOD9026799
_publ_section_title
;
Structure prediction by ZEFSAII (Michael W. Deem and Ramdas Pophale) SiO2 
 PCOD9026799
Probable space group: P -1
;
_chemical_formula_sum "Si O2"
_cell_formula_units_Z 16
_cell_length_a 15.369553
_cell_length_b 12.396926
_cell_length_c 11.539218
_cell_angle_alpha 48.114502
_cell_angle_beta 147.908259
_cell_angle_gamma 138.474655
_cell_volume 770.894248
_symmetry_space_group_name_H-M "P -1"
_symmetry_group_IT_number 2
_symmetry_cell_setting 'triclinic'
loop_
_space_group_symop_operation_xyz
x,y,z
-x,-y,-z
loop_
_atom_site_type_symbol
_atom_site_label
_atom_site_fract_x
_atom_site_fract_y
_atom_site_fract_z
Si Si1 0.765803 0.711064 0.677545
Si Si2 0.414542 0.924011 0.136531
Si Si3 0.634493 0.733906 0.950776
Si Si4 0.443388 0.460997 0.771735
Si Si5 0.371134 0.161344 0.760319
Si Si6 0.623708 0.124800 0.448795
Si Si7 0.656333 0.398134 0.639914
Si Si8 0.920049 0.082867 0.938932
O O1 0.782403 0.824352 0.503073
O O2 0.753751 0.543156 0.736835
O O3 0.565320 0.670484 0.535994
O O4 0.925630 0.797829 0.886565
O O5 0.504726 0.875999 0.164302
O O6 0.294385 0.749811 0.187000
O O7 0.565936 0.031957 0.326461
O O8 0.321382 0.027759 0.901445
O O9 0.619625 0.619420 0.907305
O O10 0.434935 0.732575 0.729527
O O11 0.773320 0.924026 0.958430
O O12 0.656953 0.650107 0.151296
O O13 0.478579 0.340168 0.812330
O O14 0.321397 0.524841 0.516613
O O15 0.824099 0.166541 0.692064
O O16 0.500000 0.000000 0.500000
O O17 0.000000 0.000000 0.000000
#
# Coordination Sequence:
#
# PCOD9026799 Si02
#       8
#     2   2   2   2   2   2   2   2
#     4   9  18  33  53  83 110 148 192 235 293 336
#     4  10  17  31  56  88 113 146 200 240 293 334
#     4  10  21  35  59  85 117 160 198 236 293 361
#     4  10  18  35  58  84 112 156 204 237 284 351
#     4   9  18  31  56  85 116 147 193 251 279 349
#     4  10  20  35  58  87 117 153 193 243 289 353
#     4   9  17  31  56  81 108 151 195 236 279 351
#     4  11  21  35  59  88 122 152 195 249 297 350
#
# _framework density 20.755116999999998
#
# number of rings (size 3 to 8) (size 9 to 14) (size 15 to 20)
#    0.000    2.250    1.250    4.500    0.000    0.000 
#    0.000    2.500    5.500    9.750    0.000    0.000 
#    0.000    0.000    0.000    0.000    0.000    0.000 
#
# Total GULP energy -89173.214597 kJ/mol
# GULP energy per Si atom -5573.325912 kJ/mol
# Density = 2.070788 g / cm^3
# Si number density = 20.755117 Si / 1000 Ang^3
#
#
#
# Elastic Constant Matrix: (Units=GPa)
#
#
# Indices 1 2 3 4 5 6 
#
# 1 43.3214 22.4450 35.0257 7.6450 -24.2126 -12.5328
# 2 22.4450 118.0291 76.5488 -6.0524 -17.5423 -15.3236
# 3 35.0257 76.5488 144.4467 -2.4183 -30.6312 -3.6664
# 4 7.6450 -6.0524 -2.4183 50.5545 1.3555 -17.1830
# 5 -24.2126 -17.5423 -30.6312 1.3555 31.5260 1.9753
# 6 -12.5328 -15.3236 -3.6664 -17.1830 1.9753 28.9458
#
#
#
# Elastic Compliance Matrix: (Units=1/GPa)
#
#
# Indices 1 2 3 4 5 6 
#
# 1 0.051717 0.000987 -0.005444 -0.002639 0.033943 0.018342
# 2 0.000987 0.014900 -0.007632 0.004669 0.000802 0.010065
# 3 -0.005444 -0.007632 0.013117 -0.001642 0.004766 -0.006036
# 4 -0.002639 0.004669 -0.001642 0.026563 -0.003238 0.017111
# 5 0.033943 0.000802 0.004766 -0.003238 0.062408 0.009544
# 6 0.018342 0.010065 -0.006036 0.017111 0.009544 0.056559
#
#
# Mechanical properties :
#
#
# Convention : Reuss Voigt Hill
#
# Bulk Modulus (GPa) = 17.99969 63.75959 40.87964
# Shear Modulus (GPa) = 18.65956 33.65712 26.15834
#
# Velocity S-wave (km/s) = 3.00164 4.03132 3.55397
# Velocity P-wave (km/s) = 4.55021 7.24260 6.04813
#
# Compressibility (1/GPa) = 0.05555652
#
# Stress axis : x y z
#
# Youngs Moduli (GPa) = 19.33617 67.11492 76.23463
#
# Poissons Ratio (x) = -0.06624 0.41502
# Poissons Ratio (y) = -0.01908 0.58179
# Poissons Ratio (z) = 0.10527 0.51219
#
# Static dielectric constant tensor:
#      x y z
#    x 1.815840 0.019900 -0.027630 
#    y 0.019900 1.780540 -0.040230 
#    z -0.027630 -0.040230 1.696480 
# 
# From -- ./inp_files/464413.got.cif
#   From: 2010.05.17/outbox.cif.g08.bks.cpg/sg2_233_cif.got.tgz:464413.got - 2010.06.03 11:33:40.
