data_PCOD9026932
_publ_section_title
;
Structure prediction by ZEFSAII (Michael W. Deem and Ramdas Pophale) SiO2 
 PCOD9026932
Probable space group: P -1
;
_chemical_formula_sum "Si O2"
_cell_formula_units_Z 14
_cell_length_a 19.072654
_cell_length_b 6.940197
_cell_length_c 5.289228
_cell_angle_alpha 132.958939
_cell_angle_beta 95.875477
_cell_angle_gamma 90.224888
_cell_volume 507.071411
_symmetry_space_group_name_H-M "P -1"
_symmetry_group_IT_number 2
_symmetry_cell_setting 'triclinic'
loop_
_space_group_symop_operation_xyz
x,y,z
-x,-y,-z
loop_
_atom_site_type_symbol
_atom_site_label
_atom_site_fract_x
_atom_site_fract_y
_atom_site_fract_z
Si Si1 0.807405 0.195580 0.557824
Si Si2 0.676255 0.028068 0.120186
Si Si3 0.277987 0.503560 0.822392
Si Si4 0.586625 0.334290 0.750679
Si Si5 0.921060 0.867356 0.375902
Si Si6 0.454188 0.151061 0.316101
Si Si7 0.857578 0.624639 0.609069
O O1 0.743332 0.976061 0.266701
O O2 0.843408 0.325376 0.436801
O O3 0.868766 0.081991 0.631260
O O4 0.769999 0.417223 0.891117
O O5 0.705072 0.219000 0.074616
O O6 0.631696 0.216893 0.440532
O O7 0.619085 0.794381 0.796903
O O8 0.222846 0.321528 0.463676
O O9 0.357158 0.452153 0.898616
O O10 0.509069 0.383826 0.658925
O O11 0.568432 0.077980 0.693798
O O12 0.908829 0.662230 0.419534
O O13 0.892018 0.768649 0.000748
O O14 0.000000 0.000000 0.500000
O O15 0.500000 0.000000 0.000000
#
# Coordination Sequence:
#
# PCOD9026932 Si02
#       7
#     2   2   2   2   2   2   2
#     4  10  22  41  66  90 130 164 209 264 309 371
#     4   8  15  26  49  78 117 158 203 252 305 359
#     4   9  17  35  57  86 120 162 207 255 308 366
#     4   8  13  22  42  75 116 156 200 256 296 356
#     4  12  28  45  67  97 126 163 210 255 320 388
#     4   8  12  20  37  72 117 153 202 253 294 355
#     4  11  24  45  66  95 127 163 209 256 317 379
#
# _framework density 27.609524
#
# number of rings (size 3 to 8) (size 9 to 14) (size 15 to 20)
#    0.000    2.571    1.429    0.429    4.000    1.143 
#    0.000    0.000    0.000    0.000    0.000    2.000 
#    0.000    3.571    0.000    0.000    0.000    0.000 
#
# Total GULP energy -78310.500595 kJ/mol
# GULP energy per Si atom -5593.607185 kJ/mol
# Density = 2.754668 g / cm^3
# Si number density = 27.609524 Si / 1000 Ang^3
#
#
#
# Elastic Constant Matrix: (Units=GPa)
#
#
# Indices 1 2 3 4 5 6 
#
# 1 168.1256 43.9147 76.2678 5.1469 63.1095 26.1701
# 2 43.9147 88.6118 18.1157 -6.3869 -2.7789 18.9534
# 3 76.2678 18.1157 187.6685 -8.8346 36.8125 11.1728
# 4 5.1469 -6.3869 -8.8346 31.3663 2.0823 -0.8019
# 5 63.1095 -2.7789 36.8125 2.0823 62.4324 -1.1068
# 6 26.1701 18.9534 11.1728 -0.8019 -1.1068 45.0426
#
#
#
# Elastic Compliance Matrix: (Units=1/GPa)
#
#
# Indices 1 2 3 4 5 6 
#
# 1 0.015047 -0.006388 -0.002592 -0.003723 -0.013945 -0.005820
# 2 -0.006388 0.015472 0.000069 0.003692 0.006936 -0.002580
# 3 -0.002592 0.000069 0.006790 0.002444 -0.001466 -0.000200
# 4 -0.003723 0.003692 0.002444 0.033858 0.001368 0.000640
# 5 -0.013945 0.006936 -0.001466 0.001368 0.031353 0.006342
# 6 -0.005820 -0.002580 -0.000200 0.000640 0.006342 0.026885
#
#
# Mechanical properties :
#
#
# Convention : Reuss Voigt Hill
#
# Bulk Modulus (GPa) = 51.31317 80.11137 65.71227
# Shear Modulus (GPa) = 32.52651 48.17544 40.35097
#
# Velocity S-wave (km/s) = 3.43606 4.18171 3.82709
# Velocity P-wave (km/s) = 5.86239 7.23840 6.58643
#
# Compressibility (1/GPa) = 0.01948818
#
# Stress axis : x y z
#
# Youngs Moduli (GPa) = 66.46050 64.63214 147.28591
#
# Poissons Ratio (x) = 0.41285 0.38170
# Poissons Ratio (y) = 0.42453 -0.01020
# Poissons Ratio (z) = 0.17224 -0.00448
#
# Static dielectric constant tensor:
#      x y z
#    x 2.114180 -0.052830 0.054170 
#    y -0.052830 2.204510 -0.072610 
#    z 0.054170 -0.072610 2.258400 
# 
# From -- ./inp_files/9880.got.cif
#   From: 2010.05.17/outbox.cif.g08.bks.cpg/sg2_5_cif.got.tgz:9880.got - 2010.06.03 11:33:40.
