data_PCOD9026819
_publ_section_title
;
Structure prediction by ZEFSAII (Michael W. Deem and Ramdas Pophale) SiO2 
 PCOD9026819
Probable space group: P -1
;
_chemical_formula_sum "Si O2"
_cell_formula_units_Z 16
_cell_length_a 23.343281
_cell_length_b 13.259796
_cell_length_c 8.098252
_cell_angle_alpha 133.964746
_cell_angle_beta 54.816264
_cell_angle_gamma 156.503790
_cell_volume 703.165401
_symmetry_space_group_name_H-M "P -1"
_symmetry_group_IT_number 2
_symmetry_cell_setting 'triclinic'
loop_
_space_group_symop_operation_xyz
x,y,z
-x,-y,-z
loop_
_atom_site_type_symbol
_atom_site_label
_atom_site_fract_x
_atom_site_fract_y
_atom_site_fract_z
Si Si1 0.615394 0.091972 0.999268
Si Si2 0.119127 0.290972 0.240519
Si Si3 0.563999 0.109845 0.697328
Si Si4 0.415795 0.157972 0.511390
Si Si5 0.828382 0.691360 0.465888
Si Si6 0.278024 0.199059 0.328472
Si Si7 0.835790 0.129439 0.199348
Si Si8 0.925154 0.215335 0.499818
O O1 0.754243 0.421926 0.208331
O O2 0.511387 0.884686 0.092050
O O3 0.500000 0.000000 0.000000
O O4 0.652517 0.025235 0.751900
O O5 0.261290 0.576062 0.218975
O O6 0.182573 0.325324 0.336135
O O7 0.039104 0.290957 0.435984
O O8 0.000000 0.000000 0.000000
O O9 0.500000 0.000000 0.500000
O O10 0.520821 0.875906 0.558490
O O11 0.545197 0.492687 0.630899
O O12 0.296795 0.008579 0.665032
O O13 0.760092 0.703186 0.499742
O O14 0.000000 0.000000 0.500000
O O15 0.200391 0.003238 0.399605
O O16 0.211694 0.022841 0.067136
O O17 0.869355 0.093434 0.264935
O O18 0.979821 0.475690 0.316107
#
# Coordination Sequence:
#
# PCOD9026819 Si02
#       8
#     2   2   2   2   2   2   2   2
#     4  10  22  41  65  97 140 178 214 285 347 424
#     4  12  25  40  69 106 140 180 229 292 354 424
#     4  11  21  41  65 102 137 175 226 279 355 417
#     4  11  24  44  71  94 140 184 230 287 355 411
#     4  12  24  40  68 108 138 176 227 287 364 415
#     4  12  24  47  71 104 138 182 235 296 344 423
#     4  11  26  50  67  99 138 189 241 286 339 421
#     4  11  26  46  70  99 140 186 236 283 357 411
#
# _framework density 22.754249000000002
#
# number of rings (size 3 to 8) (size 9 to 14) (size 15 to 20)
#    0.000    0.750    6.250    1.500    5.250    2.500 
#    4.500    0.000    0.000    0.000    0.000    0.000 
#    0.000    0.000    0.000    0.000    0.000    0.000 
#
# Total GULP energy -89287.662454 kJ/mol
# GULP energy per Si atom -5580.478903 kJ/mol
# Density = 2.270246 g / cm^3
# Si number density = 22.754249 Si / 1000 Ang^3
#
#
#
# Elastic Constant Matrix: (Units=GPa)
#
#
# Indices 1 2 3 4 5 6 
#
# 1 64.5769 19.2620 8.4547 0.7522 4.9737 -13.5772
# 2 19.2620 167.8463 50.4790 19.4676 4.6344 -18.1249
# 3 8.4547 50.4790 115.9604 15.2047 26.4282 -12.6461
# 4 0.7522 19.4676 15.2047 39.3067 7.7743 8.0630
# 5 4.9737 4.6344 26.4282 7.7743 25.8751 -4.7038
# 6 -13.5772 -18.1249 -12.6461 8.0630 -4.7038 31.0668
#
#
#
# Elastic Compliance Matrix: (Units=1/GPa)
#
#
# Indices 1 2 3 4 5 6 
#
# 1 0.017447 -0.001271 0.000696 -0.000980 -0.002255 0.007079
# 2 -0.001271 0.007984 -0.003290 -0.004456 0.004346 0.004578
# 3 0.000696 -0.003290 0.013241 -0.001580 -0.012168 0.002342
# 4 -0.000980 -0.004456 -0.001580 0.033037 -0.009823 -0.013733
# 5 -0.002255 0.004346 -0.012168 -0.009823 0.055042 0.007480
# 6 0.007079 0.004578 0.002342 -0.013733 0.007480 0.043603
#
#
# Mechanical properties :
#
#
# Convention : Reuss Voigt Hill
#
# Bulk Modulus (GPa) = 32.31899 56.08612 44.20256
# Shear Modulus (GPa) = 26.53949 37.26226 31.90087
#
# Velocity S-wave (km/s) = 3.41890 4.05111 3.74836
# Velocity P-wave (km/s) = 5.46072 6.82526 6.18076
#
# Compressibility (1/GPa) = 0.03094156
#
# Stress axis : x y z
#
# Youngs Moduli (GPa) = 57.31651 125.24562 75.52486
#
# Poissons Ratio (x) = 0.15920 -0.05255
# Poissons Ratio (y) = 0.07286 0.24846
# Poissons Ratio (z) = -0.03988 0.41204
#
# Static dielectric constant tensor:
#      x y z
#    x 1.926730 -0.074440 0.034340 
#    y -0.074440 2.050780 -0.022940 
#    z 0.034340 -0.022940 1.887860 
# 
# From -- ./inp_files/357458.got.cif
#   From: 2010.05.17/outbox.cif.g08.bks.cpg/sg2_179_cif.got.tgz:357458.got - 2010.06.03 11:33:40.
