data_PCOD9026128
_publ_section_title
;
Structure prediction by ZEFSAII (Michael W. Deem and Ramdas Pophale) SiO2 
 PCOD9026128
Probable space group: P -1
;
_chemical_formula_sum "Si O2"
_cell_formula_units_Z 14
_cell_length_a 5.365889
_cell_length_b 10.265085
_cell_length_c 16.482488
_cell_angle_alpha 95.822303
_cell_angle_beta 61.369147
_cell_angle_gamma 120.545251
_cell_volume 674.052906
_symmetry_space_group_name_H-M "P -1"
_symmetry_group_IT_number 2
_symmetry_cell_setting 'triclinic'
loop_
_space_group_symop_operation_xyz
x,y,z
-x,-y,-z
loop_
_atom_site_type_symbol
_atom_site_label
_atom_site_fract_x
_atom_site_fract_y
_atom_site_fract_z
Si Si1 0.283461 0.819181 0.539698
Si Si2 0.241280 0.316856 0.533767
Si Si3 0.072892 0.409244 0.721518
Si Si4 0.636279 0.648638 0.930551
Si Si5 0.737591 0.204662 0.915324
Si Si6 0.144724 0.890668 0.961939
Si Si7 0.747561 0.603283 0.728365
O O1 0.541194 0.761917 0.507497
O O2 0.034310 0.739335 0.497061
O O3 0.039871 0.761437 0.652529
O O4 0.500000 0.000000 0.500000
O O5 0.500000 0.500000 0.500000
O O6 0.074705 0.297967 0.646067
O O7 0.445039 0.522651 0.706039
O O8 0.867040 0.309447 0.824238
O O9 0.911380 0.500786 0.714597
O O10 0.606858 0.617107 0.837921
O O11 0.022670 0.774153 0.899517
O O12 0.500000 0.500000 0.000000
O O13 0.457321 0.736705 0.995391
O O14 0.533326 0.023547 0.911631
O O15 0.996014 0.214680 0.942090
O O16 0.000000 0.000000 0.000000
#
# Coordination Sequence:
#
# PCOD9026128 Si02
#       7
#     2   2   2   2   2   2   2
#     4  12  26  48  71 105 142 175 226 300 352 406
#     4  12  23  47  75  97 134 183 229 281 347 410
#     4  12  25  41  72 100 128 178 232 274 332 413
#     4  11  22  38  65  93 133 177 214 274 337 393
#     4  10  22  41  62  92 133 175 223 275 328 405
#     4   9  21  41  59  87 133 174 222 274 328 391
#     4  12  25  42  67 102 135 173 229 281 338 407
#
# _framework density 20.769883
#
# number of rings (size 3 to 8) (size 9 to 14) (size 15 to 20)
#    0.000    0.857    4.286    2.571    4.000    2.286 
#    7.714    0.000    0.000    0.000    0.000    0.000 
#    0.000    0.000    0.000    0.000    0.000    0.000 
#
# Total GULP energy -78117.210614 kJ/mol
# GULP energy per Si atom -5579.800758 kJ/mol
# Density = 2.072261 g / cm^3
# Si number density = 20.769883 Si / 1000 Ang^3
#
#
#
# Elastic Constant Matrix: (Units=GPa)
#
#
# Indices 1 2 3 4 5 6 
#
# 1 64.0785 2.1722 -4.7309 -1.8109 9.0837 -4.3400
# 2 2.1722 80.4333 9.6017 -17.9162 -0.4698 -2.4094
# 3 -4.7309 9.6017 117.0628 -1.4479 -4.7872 -1.4072
# 4 -1.8109 -17.9162 -1.4479 33.5262 2.5131 5.5392
# 5 9.0837 -0.4698 -4.7872 2.5131 27.1774 4.4613
# 6 -4.3400 -2.4094 -1.4072 5.5392 4.4613 34.5053
#
#
#
# Elastic Compliance Matrix: (Units=1/GPa)
#
#
# Indices 1 2 3 4 5 6 
#
# 1 0.016715 -0.000293 0.000496 0.000764 -0.006028 0.002759
# 2 -0.000293 0.014264 -0.001111 0.007638 -0.000517 -0.000245
# 3 0.000496 -0.001111 0.008707 -0.000328 0.001343 0.000219
# 4 0.000764 0.007638 -0.000328 0.034902 -0.002646 -0.004645
# 5 -0.006028 -0.000517 0.001343 -0.002646 0.040187 -0.005511
# 6 0.002759 -0.000245 0.000219 -0.004645 -0.005511 0.030778
#
#
# Mechanical properties :
#
#
# Convention : Reuss Voigt Hill
#
# Bulk Modulus (GPa) = 26.40676 30.62897 28.51786
# Shear Modulus (GPa) = 31.25103 36.01053 33.63078
#
# Velocity S-wave (km/s) = 3.88317 4.16839 4.02831
# Velocity P-wave (km/s) = 5.73122 6.16005 5.94950
#
# Compressibility (1/GPa) = 0.03786909
#
# Stress axis : x y z
#
# Youngs Moduli (GPa) = 59.82511 70.10518 114.84851
#
# Poissons Ratio (x) = 0.02054 -0.05693
# Poissons Ratio (y) = 0.01753 0.12765
# Poissons Ratio (z) = -0.02965 0.07792
#
# Static dielectric constant tensor:
#      x y z
#    x 1.959170 0.058180 0.002240 
#    y 0.058180 1.742880 -0.014390 
#    z 0.002240 -0.014390 1.795670 
# 
# From -- ./inp_files/37089.got.cif
#   From: 2010.05.17/outbox.cif.g08.bks.cpg/sg2_19_cif.got.tgz:37089.got - 2010.06.03 11:33:40.
