data_PCOD9026742
_publ_section_title
;
Structure prediction by ZEFSAII (Michael W. Deem and Ramdas Pophale) SiO2 
 PCOD9026742
Probable space group: P -1
;
_chemical_formula_sum "Si O2"
_cell_formula_units_Z 16
_cell_length_a 14.285932
_cell_length_b 9.357283
_cell_length_c 9.734003
_cell_angle_alpha 143.867065
_cell_angle_beta 65.032111
_cell_angle_gamma 119.733862
_cell_volume 665.666235
_symmetry_space_group_name_H-M "P -1"
_symmetry_group_IT_number 2
_symmetry_cell_setting 'triclinic'
loop_
_space_group_symop_operation_xyz
x,y,z
-x,-y,-z
loop_
_atom_site_type_symbol
_atom_site_label
_atom_site_fract_x
_atom_site_fract_y
_atom_site_fract_z
Si Si1 0.264355 0.202103 0.957200
Si Si2 0.194435 0.487085 0.767582
Si Si3 0.909947 0.259903 0.183141
Si Si4 0.651659 0.070221 0.821271
Si Si5 0.608408 0.567609 0.579015
Si Si6 0.129702 0.517643 0.330380
Si Si7 0.541374 0.036246 0.346078
Si Si8 0.816773 0.962424 0.423420
O O1 0.174078 0.014768 0.963623
O O2 0.231180 0.146590 0.777002
O O3 0.370684 0.116879 0.843884
O O4 0.246307 0.474145 0.206901
O O5 0.115677 0.621550 0.848949
O O6 0.281368 0.455495 0.576293
O O7 0.130721 0.226359 0.677692
O O8 0.272743 0.664393 0.967898
O O9 0.885788 0.419953 0.453271
O O10 0.034886 0.284475 0.148217
O O11 0.546578 0.074015 0.804571
O O12 0.719238 0.968513 0.587848
O O13 0.629011 0.872439 0.810179
O O14 0.500000 0.500000 0.500000
O O15 0.581611 0.340960 0.530055
O O16 0.117332 0.753325 0.432221
O O17 0.500000 0.000000 0.500000
#
# Coordination Sequence:
#
# PCOD9026742 Si02
#       8
#     2   2   2   2   2   2   2   2
#     4  11  21  42  68  96 135 168 224 270 325 392
#     4  11  22  42  65  95 130 174 218 268 327 393
#     4  10  23  44  68  97 129 166 230 274 325 394
#     4  10  22  41  65  94 137 176 210 263 334 380
#     4   9  21  40  61  91 131 169 217 269 310 388
#     4  10  23  44  70  95 127 177 213 283 335 372
#     4  11  21  41  68 100 133 175 220 265 317 392
#     4  10  22  42  63  94 137 168 217 277 318 391
#
# _framework density 24.036069000000001
#
# number of rings (size 3 to 8) (size 9 to 14) (size 15 to 20)
#    0.000    1.750    2.500    1.125    0.000    4.500 
#    2.250    7.500    0.000    0.000    0.000    0.000 
#    0.000    0.000    0.000    0.000    0.000    0.000 
#
# Total GULP energy -89376.008529 kJ/mol
# GULP energy per Si atom -5586.000533 kJ/mol
# Density = 2.398136 g / cm^3
# Si number density = 24.036069 Si / 1000 Ang^3
#
#
#
# Elastic Constant Matrix: (Units=GPa)
#
#
# Indices 1 2 3 4 5 6 
#
# 1 101.2670 31.6946 23.3965 -0.4971 -9.5250 -19.9000
# 2 31.6946 143.5274 38.3756 10.0144 -2.2154 -36.9400
# 3 23.3965 38.3756 27.6758 1.8802 -8.7147 -6.5764
# 4 -0.4971 10.0144 1.8802 29.2296 0.4126 -1.0889
# 5 -9.5250 -2.2154 -8.7147 0.4126 27.3221 4.5100
# 6 -19.9000 -36.9400 -6.5764 -1.0889 4.5100 29.5637
#
#
#
# Elastic Compliance Matrix: (Units=1/GPa)
#
#
# Indices 1 2 3 4 5 6 
#
# 1 0.014215 0.003617 -0.014858 0.000387 -0.001311 0.010997
# 2 0.003617 0.019058 -0.027047 -0.003795 -0.009314 0.021512
# 3 -0.014858 -0.027047 0.087272 0.001998 0.025078 -0.028135
# 4 0.000387 -0.003795 0.001998 0.035280 0.000393 -0.002798
# 5 -0.001311 -0.009314 0.025078 0.000393 0.045675 -0.013896
# 6 0.010997 0.021512 -0.028135 -0.002798 -0.013896 0.063865
#
#
# Mechanical properties :
#
#
# Convention : Reuss Voigt Hill
#
# Bulk Modulus (GPa) = 22.74346 51.04485 36.89415
# Shear Modulus (GPa) = 14.02135 29.15663 21.58899
#
# Velocity S-wave (km/s) = 2.41788 3.48665 3.00024
# Velocity P-wave (km/s) = 4.15663 6.12306 5.23304
#
# Compressibility (1/GPa) = 0.04396869
#
# Stress axis : x y z
#
# Youngs Moduli (GPa) = 70.34665 52.47159 11.45839
#
# Poissons Ratio (x) = -0.18977 0.17025
# Poissons Ratio (y) = -0.25442 0.30991
# Poissons Ratio (z) = 1.04524 1.41919
#
# Static dielectric constant tensor:
#      x y z
#    x 1.890430 0.004230 0.011720 
#    y 0.004230 1.970340 0.051480 
#    z 0.011720 0.051480 1.944720 
# 
# From -- ./inp_files/299812.got.cif
#   From: 2010.05.17/outbox.cif.g08.bks.cpg/sg2_150_cif.got.tgz:299812.got - 2010.06.03 11:33:40.
