data_PCOD9026106
_publ_section_title
;
Structure prediction by ZEFSAII (Michael W. Deem and Ramdas Pophale) SiO2 
 PCOD9026106
Probable space group: P -1
;
_chemical_formula_sum "Si O2"
_cell_formula_units_Z 16
_cell_length_a 8.539117
_cell_length_b 8.318461
_cell_length_c 23.221030
_cell_angle_alpha 62.051401
_cell_angle_beta 129.676422
_cell_angle_gamma 76.254341
_cell_volume 688.154808
_symmetry_space_group_name_H-M "P -1"
_symmetry_group_IT_number 2
_symmetry_cell_setting 'triclinic'
loop_
_space_group_symop_operation_xyz
x,y,z
-x,-y,-z
loop_
_atom_site_type_symbol
_atom_site_label
_atom_site_fract_x
_atom_site_fract_y
_atom_site_fract_z
Si Si1 0.611736 0.500358 0.250503
Si Si2 0.497427 0.823255 0.268280
Si Si3 0.385514 0.969378 0.343478
Si Si4 0.381754 0.271643 0.114851
Si Si5 0.669545 0.075759 0.536246
Si Si6 0.626997 0.609475 0.030352
Si Si7 0.377296 0.799589 0.614965
Si Si8 0.239631 0.781570 0.011166
O O1 0.708732 0.563491 0.315448
O O2 0.447622 0.442901 0.254015
O O3 0.339590 0.780315 0.097752
O O4 0.944515 0.221413 0.340060
O O5 0.524235 0.778538 0.350289
O O6 0.560508 0.991313 0.240812
O O7 0.125208 0.017291 0.129979
O O8 0.375620 0.854591 0.418328
O O9 0.576889 0.021870 0.391254
O O10 0.012290 0.305461 0.185861
O O11 0.427870 0.450434 0.110646
O O12 0.430524 0.221070 0.066182
O O13 0.000000 0.500000 0.000000
O O14 0.500000 0.000000 0.500000
O O15 0.526840 0.299942 0.412817
O O16 0.408486 0.800317 0.002928
O O17 0.500000 0.500000 0.000000
O O18 0.000000 0.000000 0.500000
#
# Coordination Sequence:
#
# PCOD9026106 Si02
#       8
#     2   2   2   2   2   2   2   2
#     4  11  21  36  59  83 121 148 181 242 298 315
#     4  11  22  34  53  95 120 147 183 234 281 341
#     4  11  18  36  64  80 109 154 192 229 283 336
#     4   9  17  31  51  77 119 147 195 216 252 337
#     4   9  20  39  61  78 101 144 203 238 276 343
#     4  10  17  31  55  84 112 148 200 222 251 339
#     4   9  21  39  59  84 102 144 203 242 278 342
#     4  10  19  34  55  83 121 158 186 216 267 361
#
# _framework density 23.250579999999999
#
# number of rings (size 3 to 8) (size 9 to 14) (size 15 to 20)
#    0.000    2.000    5.000    1.125    1.750    0.000 
#    0.000    9.375    0.000    0.000    0.000    0.000 
#    0.000    0.000    0.000    0.000    0.000    0.000 
#
# Total GULP energy -89192.983209 kJ/mol
# GULP energy per Si atom -5574.561451 kJ/mol
# Density = 2.319766 g / cm^3
# Si number density = 23.250580 Si / 1000 Ang^3
#
#
#
# Elastic Constant Matrix: (Units=GPa)
#
#
# Indices 1 2 3 4 5 6 
#
# 1 145.4026 30.1235 32.3117 23.0101 -31.5388 -25.7086
# 2 30.1235 68.9658 9.8978 22.9791 -12.1329 -15.4687
# 3 32.3117 9.8978 61.8041 27.5075 -0.0447 -11.3813
# 4 23.0101 22.9791 27.5075 28.9026 -9.0557 -13.5054
# 5 -31.5388 -12.1329 -0.0447 -9.0557 45.8086 26.5527
# 6 -25.7086 -15.4687 -11.3813 -13.5054 26.5527 32.3027
#
#
#
# Elastic Compliance Matrix: (Units=1/GPa)
#
#
# Indices 1 2 3 4 5 6 
#
# 1 0.009781 -0.002935 -0.005352 0.001612 0.006256 0.000025
# 2 -0.002935 0.022679 0.009093 -0.023153 -0.003380 0.004827
# 3 -0.005352 0.009093 0.035534 -0.037236 -0.013162 0.007866
# 4 0.001612 -0.023153 -0.037236 0.094337 0.007671 0.010212
# 5 0.006256 -0.003380 -0.013162 0.007671 0.048949 -0.038306
# 6 0.000025 0.004827 0.007866 0.010212 -0.038306 0.071817
#
#
# Mechanical properties :
#
#
# Convention : Reuss Voigt Hill
#
# Bulk Modulus (GPa) = 14.36635 46.75985 30.56310
# Shear Modulus (GPa) = 16.41031 34.99208 25.70120
#
# Velocity S-wave (km/s) = 2.65958 3.88364 3.32836
# Velocity P-wave (km/s) = 3.95265 6.34548 5.28624
#
# Compressibility (1/GPa) = 0.06960709
#
# Stress axis : x y z
#
# Youngs Moduli (GPa) = 102.23829 44.09319 28.14243
#
# Poissons Ratio (x) = 0.12942 0.15061
# Poissons Ratio (y) = 0.30008 -0.25591
# Poissons Ratio (z) = 0.54716 -0.40096
#
# Static dielectric constant tensor:
#      x y z
#    x 1.921000 -0.078010 -0.055200 
#    y -0.078010 1.998930 -0.015410 
#    z -0.055200 -0.015410 1.983070 
# 
# From -- ./inp_files/197900.got.cif
#   From: 2010.05.17/outbox.cif.g08.bks.cpg/sg2_99_cif.got.tgz:197900.got - 2010.06.03 11:33:40.
