data_PCOD9026240
_publ_section_title
;
Structure prediction by ZEFSAII (Michael W. Deem and Ramdas Pophale) SiO2 
 PCOD9026240
Probable space group: P -1
;
_chemical_formula_sum "Si O2"
_cell_formula_units_Z 16
_cell_length_a 9.391145
_cell_length_b 18.068677
_cell_length_c 9.935185
_cell_angle_alpha 52.723506
_cell_angle_beta 79.395168
_cell_angle_gamma 37.589924
_cell_volume 648.687654
_symmetry_space_group_name_H-M "P -1"
_symmetry_group_IT_number 2
_symmetry_cell_setting 'triclinic'
loop_
_space_group_symop_operation_xyz
x,y,z
-x,-y,-z
loop_
_atom_site_type_symbol
_atom_site_label
_atom_site_fract_x
_atom_site_fract_y
_atom_site_fract_z
Si Si1 0.956315 0.133581 0.079512
Si Si2 0.527812 0.610918 0.322666
Si Si3 0.928099 0.784579 0.494911
Si Si4 0.645689 0.909956 0.926208
Si Si5 0.331191 0.795160 0.712818
Si Si6 0.101113 0.430140 0.712194
Si Si7 0.795668 0.676929 0.747992
Si Si8 0.308302 0.747947 0.492184
O O1 0.695593 0.255173 0.097777
O O2 0.153527 0.111491 0.107737
O O3 0.784622 0.240941 0.850898
O O4 0.165319 0.926015 0.274968
O O5 0.595881 0.681170 0.203088
O O6 0.517490 0.602340 0.493565
O O7 0.803731 0.405147 0.434421
O O8 0.870510 0.743364 0.671236
O O9 0.050764 0.816289 0.476720
O O10 0.623617 0.952372 0.281694
O O11 0.839595 0.708879 0.111075
O O12 0.500000 0.000000 0.000000
O O13 0.481154 0.810861 0.689890
O O14 0.463673 0.672160 0.692866
O O15 0.000000 0.000000 0.500000
O O16 0.000000 0.500000 0.500000
O O17 0.870591 0.606877 0.658324
O O18 0.000000 0.500000 0.000000
#
# Coordination Sequence:
#
# PCOD9026240 Si02
#       8
#     2   2   2   2   2   2   2   2
#     4  11  24  43  65  96 132 171 217 271 328 390
#     4  11  22  41  65  96 132 170 215 271 327 389
#     4  11  24  40  67 101 131 171 222 274 329 390
#     4  12  24  43  69 101 133 171 219 274 330 392
#     4  10  22  41  63  90 129 172 212 264 323 383
#     4  11  24  43  69 100 131 172 220 273 329 390
#     4  11  24  45  67  94 134 177 220 270 326 391
#     4  11  22  40  66  96 130 172 218 273 328 387
#
# _framework density 24.665184
#
# number of rings (size 3 to 8) (size 9 to 14) (size 15 to 20)
#    0.000    1.000    0.000    8.250    0.000    4.000 
#    0.000    5.625    0.000    0.000    0.000    0.000 
#    0.000    0.000    0.000    0.000    0.000    0.000 
#
# Total GULP energy -89618.814382 kJ/mol
# GULP energy per Si atom -5601.175899 kJ/mol
# Density = 2.460904 g / cm^3
# Si number density = 24.665184 Si / 1000 Ang^3
#
#
#
# Elastic Constant Matrix: (Units=GPa)
#
#
# Indices 1 2 3 4 5 6 
#
# 1 200.4339 1.8304 25.5475 -14.0781 -30.8464 -34.8942
# 2 1.8304 80.7847 -8.9052 3.9068 -6.8335 -10.4916
# 3 25.5475 -8.9052 74.9778 -4.1926 -13.9937 0.3810
# 4 -14.0781 3.9068 -4.1926 34.1652 -2.4739 1.2261
# 5 -30.8464 -6.8335 -13.9937 -2.4739 43.3219 2.3381
# 6 -34.8942 -10.4916 0.3810 1.2261 2.3381 39.5355
#
#
#
# Elastic Compliance Matrix: (Units=1/GPa)
#
#
# Indices 1 2 3 4 5 6 
#
# 1 0.007126 0.000738 -0.001361 0.002796 0.004579 0.006141
# 2 0.000738 0.013382 0.001816 -0.000934 0.002952 0.004040
# 3 -0.001361 0.001816 0.014899 0.001411 0.004273 -0.001159
# 4 0.002796 -0.000934 0.001411 0.030956 0.004013 0.001009
# 5 0.004579 0.002952 0.004273 0.004013 0.028257 0.002988
# 6 0.006141 0.004040 -0.001159 0.001009 0.002988 0.031589
#
#
# Mechanical properties :
#
#
# Convention : Reuss Voigt Hill
#
# Bulk Modulus (GPa) = 26.45957 43.68242 35.07099
# Shear Modulus (GPa) = 36.65157 45.91942 41.28550
#
# Velocity S-wave (km/s) = 3.85900 4.31943 4.09569
# Velocity P-wave (km/s) = 5.53233 6.52880 6.05111
#
# Compressibility (1/GPa) = 0.03779351
#
# Stress axis : x y z
#
# Youngs Moduli (GPa) = 140.32934 74.72996 67.11889
#
# Poissons Ratio (x) = -0.05517 0.09132
# Poissons Ratio (y) = -0.10359 -0.12188
# Poissons Ratio (z) = 0.19094 -0.13570
#
# Static dielectric constant tensor:
#      x y z
#    x 1.972580 0.114170 -0.038510 
#    y 0.114170 1.478490 0.090970 
#    z -0.038510 0.090970 1.913600 
# 
# From -- ./inp_files/402989.got.cif
#   From: 2010.05.17/outbox.cif.g08.bks.cpg/sg2_202_cif.got.tgz:402989.got - 2010.06.03 11:33:40.
