data_PCOD9026397
_publ_section_title
;
Structure prediction by ZEFSAII (Michael W. Deem and Ramdas Pophale) SiO2 
 PCOD9026397
Probable space group: P -1
;
_chemical_formula_sum "Si O2"
_cell_formula_units_Z 16
_cell_length_a 19.493605
_cell_length_b 11.019839
_cell_length_c 8.812273
_cell_angle_alpha 141.550245
_cell_angle_beta 80.515566
_cell_angle_gamma 127.177990
_cell_volume 733.928539
_symmetry_space_group_name_H-M "P -1"
_symmetry_group_IT_number 2
_symmetry_cell_setting 'triclinic'
loop_
_space_group_symop_operation_xyz
x,y,z
-x,-y,-z
loop_
_atom_site_type_symbol
_atom_site_label
_atom_site_fract_x
_atom_site_fract_y
_atom_site_fract_z
Si Si1 0.407134 0.267498 0.181666
Si Si2 0.560089 0.882934 0.264912
Si Si3 0.079289 0.776814 0.366649
Si Si4 0.393181 0.880704 0.989645
Si Si5 0.979479 0.000683 0.185647
Si Si6 0.797604 0.346637 0.763341
Si Si7 0.823934 0.687619 0.360275
Si Si8 0.563050 0.327923 0.607203
O O1 0.500000 0.500000 0.500000
O O2 0.360564 0.369416 0.230626
O O3 0.464871 0.310505 0.053567
O O4 0.344665 0.948342 0.966795
O O5 0.671618 0.068375 0.488936
O O6 0.586810 0.151985 0.445531
O O7 0.459448 0.662507 0.202202
O O8 0.153266 0.760604 0.380673
O O9 0.029892 0.797771 0.545234
O O10 0.147384 0.080481 0.540426
O O11 0.000000 0.500000 0.000000
O O12 0.291656 0.526183 0.724731
O O13 0.500000 0.000000 0.000000
O O14 0.446114 0.080379 0.319673
O O15 0.867525 0.646213 0.926306
O O16 0.077792 0.122376 0.370120
O O17 0.000000 0.000000 0.000000
O O18 0.813265 0.467754 0.046314
#
# Coordination Sequence:
#
# PCOD9026397 Si02
#       8
#     2   2   2   2   2   2   2   2
#     4  10  23  39  62  89 130 174 222 277 329 398
#     4  11  22  40  66  95 132 172 228 282 334 398
#     4  11  21  46  74 102 130 183 237 278 343 426
#     4  11  22  42  64  96 139 181 226 280 339 403
#     4  11  25  42  72 102 144 172 219 292 354 406
#     4  11  23  43  71 100 132 177 235 281 337 425
#     4  11  23  44  69  96 139 188 223 282 349 408
#     4  10  22  41  64  89 132 179 225 274 337 394
#
# _framework density 21.800488000000001
#
# number of rings (size 3 to 8) (size 9 to 14) (size 15 to 20)
#    0.000    1.250    5.000    1.125    1.750    3.500 
#    2.250    1.250    2.750    0.000    0.000    0.000 
#    0.000    0.000    0.000    0.000    0.000    0.000 
#
# Total GULP energy -89202.943508 kJ/mol
# GULP energy per Si atom -5575.183969 kJ/mol
# Density = 2.175087 g / cm^3
# Si number density = 21.800488 Si / 1000 Ang^3
#
#
#
# Elastic Constant Matrix: (Units=GPa)
#
#
# Indices 1 2 3 4 5 6 
#
# 1 88.6560 24.8991 17.7556 -0.8193 -24.2769 -16.4509
# 2 24.8991 93.8973 39.4341 -14.6852 -13.7679 3.5362
# 3 17.7556 39.4341 85.8106 -22.0945 -15.6907 9.1169
# 4 -0.8193 -14.6852 -22.0945 40.5305 2.6309 -0.0050
# 5 -24.2769 -13.7679 -15.6907 2.6309 27.2320 1.0939
# 6 -16.4509 3.5362 9.1169 -0.0050 1.0939 33.0782
#
#
#
# Elastic Compliance Matrix: (Units=1/GPa)
#
#
# Indices 1 2 3 4 5 6 
#
# 1 0.017683 -0.002813 -0.001492 -0.002340 0.013344 0.009064
# 2 -0.002813 0.014088 -0.004815 0.002313 0.001682 -0.001633
# 3 -0.001492 -0.004815 0.017767 0.007523 0.005960 -0.005320
# 4 -0.002340 0.002313 0.007523 0.029518 0.000707 -0.003503
# 5 0.013344 0.001682 0.005960 0.000707 0.052710 0.003071
# 6 0.009064 -0.001633 -0.005320 -0.003503 0.003071 0.036278
#
#
# Mechanical properties :
#
#
# Convention : Reuss Voigt Hill
#
# Bulk Modulus (GPa) = 31.95125 48.06015 40.00570
# Shear Modulus (GPa) = 25.41707 32.58648 29.00178
#
# Velocity S-wave (km/s) = 3.41822 3.87041 3.65132
# Velocity P-wave (km/s) = 5.50155 6.48588 6.01389
#
# Compressibility (1/GPa) = 0.03129768
#
# Stress axis : x y z
#
# Youngs Moduli (GPa) = 56.55200 70.98131 56.28389
#
# Poissons Ratio (x) = 0.19970 0.08395
# Poissons Ratio (y) = 0.15910 0.27103
# Poissons Ratio (z) = 0.08435 0.34180
#
# Static dielectric constant tensor:
#      x y z
#    x 1.854400 -0.037130 -0.090670 
#    y -0.037130 1.847070 0.020910 
#    z -0.090670 0.020910 1.855670 
# 
# From -- ./inp_files/345703.got.cif
#   From: 2010.05.17/outbox.cif.g08.bks.cpg/sg2_173_cif.got.tgz:345703.got - 2010.06.03 11:33:40.
