data_PCOD9026043
_publ_section_title
;
Structure prediction by ZEFSAII (Michael W. Deem and Ramdas Pophale) SiO2 
 PCOD9026043
Probable space group: P -1
;
_chemical_formula_sum "Si O2"
_cell_formula_units_Z 12
_cell_length_a 7.570665
_cell_length_b 19.114384
_cell_length_c 7.137965
_cell_angle_alpha 124.798430
_cell_angle_beta 64.424880
_cell_angle_gamma 140.629464
_cell_volume 537.953134
_symmetry_space_group_name_H-M "P -1"
_symmetry_group_IT_number 2
_symmetry_cell_setting 'triclinic'
loop_
_space_group_symop_operation_xyz
x,y,z
-x,-y,-z
loop_
_atom_site_type_symbol
_atom_site_label
_atom_site_fract_x
_atom_site_fract_y
_atom_site_fract_z
Si Si1 0.441116 0.947306 0.652247
Si Si2 0.161187 0.212345 0.179962
Si Si3 0.875342 0.648453 0.885878
Si Si4 0.084948 0.976035 0.238855
Si Si5 0.422118 0.359145 0.664435
Si Si6 0.589180 0.231208 0.398844
O O1 0.369029 0.825110 0.539756
O O2 0.160425 0.903185 0.787039
O O3 0.500000 0.000000 0.500000
O O4 0.719921 0.041424 0.796614
O O5 0.191676 0.300344 0.158121
O O6 0.326500 0.292932 0.407858
O O7 0.184404 0.136384 0.922720
O O8 0.651763 0.503149 0.758984
O O9 0.170416 0.702766 0.765211
O O10 0.828101 0.679127 0.155644
O O11 0.302774 0.108359 0.248175
O O12 0.000000 0.000000 0.500000
O O13 0.554224 0.314492 0.623718
#
# Coordination Sequence:
#
# PCOD9026043 Si02
#       6
#     2   2   2   2   2   2
#     4   9  22  38  63  92 127 170 209 258 330 384
#     4  11  23  40  65  93 133 167 213 266 323 385
#     4  10  23  44  66  93 134 171 220 266 315 379
#     4  10  22  41  61  93 133 165 211 265 321 391
#     4  11  23  42  70  95 127 177 216 266 322 376
#     4   9  22  41  66  94 134 165 213 272 313 389
#
# _framework density 22.306774999999998
#
# number of rings (size 3 to 8) (size 9 to 14) (size 15 to 20)
#    1.000    1.000    0.000    2.500    4.667    0.667 
#    3.000    0.000    0.000    9.000    0.000    0.000 
#    0.000    0.000    0.000    0.000    0.000    0.000 
#
# Total GULP energy -66859.480803 kJ/mol
# GULP energy per Si atom -5571.623400 kJ/mol
# Density = 2.225600 g / cm^3
# Si number density = 22.306775 Si / 1000 Ang^3
#
#
#
# Elastic Constant Matrix: (Units=GPa)
#
#
# Indices 1 2 3 4 5 6 
#
# 1 25.6196 21.4099 29.2405 0.0450 -8.0706 -0.5284
# 2 21.4099 141.2333 58.7922 -2.4977 -10.1868 -10.7372
# 3 29.2405 58.7922 135.4183 11.1845 -4.3895 -5.0880
# 4 0.0450 -2.4977 11.1845 30.3735 -1.9452 -5.3369
# 5 -8.0706 -10.1868 -4.3895 -1.9452 34.5775 -7.9651
# 6 -0.5284 -10.7372 -5.0880 -5.3369 -7.9651 32.5718
#
#
#
# Elastic Compliance Matrix: (Units=1/GPa)
#
#
# Indices 1 2 3 4 5 6 
#
# 1 0.058140 -0.003072 -0.011163 0.004874 0.011962 0.001910
# 2 -0.003072 0.009517 -0.003483 0.002883 0.002651 0.003664
# 3 -0.011163 -0.003483 0.011587 -0.004877 -0.002658 -0.000968
# 4 0.004874 0.002883 -0.004877 0.036602 0.005161 0.007527
# 5 0.011962 0.002651 -0.002658 0.005161 0.034749 0.009996
# 6 0.001910 0.003664 -0.000968 0.007527 0.009996 0.035467
#
#
# Mechanical properties :
#
#
# Convention : Reuss Voigt Hill
#
# Bulk Modulus (GPa) = 22.82722 57.90628 40.36675
# Shear Modulus (GPa) = 21.17735 32.35979 26.76857
#
# Velocity S-wave (km/s) = 3.08453 3.81290 3.46789
# Velocity P-wave (km/s) = 4.78970 6.73793 5.84555
#
# Compressibility (1/GPa) = 0.04380734
#
# Stress axis : x y z
#
# Youngs Moduli (GPa) = 17.19984 105.07731 86.30121
#
# Poissons Ratio (x) = 0.32284 0.96339
# Poissons Ratio (y) = 0.05285 0.30058
# Poissons Ratio (z) = 0.19200 0.36597
#
# Static dielectric constant tensor:
#      x y z
#    x 1.950430 0.006980 -0.013080 
#    y 0.006980 1.813990 -0.008510 
#    z -0.013080 -0.008510 2.034570 
# 
# From -- ./inp_files/31478.got.cif
#   From: 2010.05.17/outbox.cif.g08.bks.cpg/sg2_16_cif.got.tgz:31478.got - 2010.06.03 11:33:40.
