data_PCOD9026110
_publ_section_title
;
Structure prediction by ZEFSAII (Michael W. Deem and Ramdas Pophale) SiO2 
 PCOD9026110
Probable space group: P -1
;
_chemical_formula_sum "Si O2"
_cell_formula_units_Z 16
_cell_length_a 12.019449
_cell_length_b 17.710448
_cell_length_c 5.481053
_cell_angle_alpha 126.512030
_cell_angle_beta 103.308071
_cell_angle_gamma 55.283048
_cell_volume 760.311346
_symmetry_space_group_name_H-M "P -1"
_symmetry_group_IT_number 2
_symmetry_cell_setting 'triclinic'
loop_
_space_group_symop_operation_xyz
x,y,z
-x,-y,-z
loop_
_atom_site_type_symbol
_atom_site_label
_atom_site_fract_x
_atom_site_fract_y
_atom_site_fract_z
Si Si1 0.380798 0.200906 0.244595
Si Si2 0.539762 0.103090 0.621639
Si Si3 0.699724 0.357193 0.952116
Si Si4 0.783788 0.887984 0.160702
Si Si5 0.155981 0.979339 0.892047
Si Si6 0.954468 0.153489 0.513822
Si Si7 0.560692 0.612170 0.384244
Si Si8 0.336678 0.772054 0.951939
O O1 0.445141 0.128709 0.386505
O O2 0.373967 0.316314 0.503862
O O3 0.469676 0.147274 0.936434
O O4 0.243295 0.204408 0.123470
O O5 0.661344 0.971869 0.444939
O O6 0.609919 0.172019 0.731711
O O7 0.820850 0.279796 0.674867
O O8 0.555366 0.374953 0.834501
O O9 0.670663 0.479316 0.210911
O O10 0.740757 0.278635 0.059274
O O11 0.930706 0.847255 0.268133
O O12 0.763117 0.973569 0.101115
O O13 0.100652 0.923899 0.575739
O O14 0.247359 0.874956 0.918840
O O15 0.033228 0.086666 0.179858
O O16 0.469557 0.668689 0.688255
#
# Coordination Sequence:
#
# PCOD9026110 Si02
#       8
#     2   2   2   2   2   2   2   2
#     4  11  25  41  65  94 132 169 218 263 317 378
#     4  11  22  39  62  97 130 170 208 262 320 385
#     4  11  22  39  64  89 124 162 220 260 328 367
#     4  12  24  39  61  90 130 174 208 251 320 388
#     4  11  24  38  60  92 135 163 208 254 325 386
#     4  11  25  38  59  92 126 171 208 260 315 390
#     4  10  22  41  62  91 120 165 212 277 313 373
#     4  11  20  38  64  94 126 159 209 266 326 377
#
# _framework density 21.044011999999999
#
# number of rings (size 3 to 8) (size 9 to 14) (size 15 to 20)
#    0.000    1.000    3.750    3.750    5.250    0.000 
#    0.000    0.625    0.000    0.750    0.000    0.000 
#    0.000    0.000    0.000    0.000    0.000    0.000 
#
# Total GULP energy -89292.019266 kJ/mol
# GULP energy per Si atom -5580.751204 kJ/mol
# Density = 2.099612 g / cm^3
# Si number density = 21.044012 Si / 1000 Ang^3
#
#
#
# Elastic Constant Matrix: (Units=GPa)
#
#
# Indices 1 2 3 4 5 6 
#
# 1 97.8879 43.6946 45.9394 11.2926 32.4190 5.3577
# 2 43.6946 91.4250 54.2861 15.2435 4.4063 1.4795
# 3 45.9394 54.2861 97.4692 26.6342 7.2978 4.7736
# 4 11.2926 15.2435 26.6342 41.8530 -3.2845 3.2343
# 5 32.4190 4.4063 7.2978 -3.2845 47.1279 0.2678
# 6 5.3577 1.4795 4.7736 3.2343 0.2678 25.1368
#
#
#
# Elastic Compliance Matrix: (Units=1/GPa)
#
#
# Indices 1 2 3 4 5 6 
#
# 1 0.019084 -0.005625 -0.004589 -0.000914 -0.011940 -0.002620
# 2 -0.005625 0.018019 -0.007716 0.000009 0.003371 0.001567
# 3 -0.004589 -0.007716 0.018891 -0.007852 0.000412 -0.001149
# 4 -0.000914 0.000009 -0.007852 0.029609 0.003920 -0.002166
# 5 -0.011940 0.003371 0.000412 0.003920 0.029318 0.001451
# 6 -0.002620 0.001567 -0.001149 -0.002166 0.001451 0.040730
#
#
# Mechanical properties :
#
#
# Convention : Reuss Voigt Hill
#
# Bulk Modulus (GPa) = 49.67109 63.84692 56.75901
# Shear Modulus (GPa) = 25.22427 32.34770 28.78598
#
# Velocity S-wave (km/s) = 3.46590 3.92490 3.70252
# Velocity P-wave (km/s) = 6.29851 7.13760 6.73114
#
# Compressibility (1/GPa) = 0.02013243
#
# Stress axis : x y z
#
# Youngs Moduli (GPa) = 52.40065 55.49838 52.93468
#
# Poissons Ratio (x) = 0.31219 0.24294
# Poissons Ratio (y) = 0.29477 0.40843
# Poissons Ratio (z) = 0.24049 0.42821
#
# Static dielectric constant tensor:
#      x y z
#    x 1.856050 0.001250 0.015350 
#    y 0.001250 1.795170 -0.060920 
#    z 0.015350 -0.060920 1.796720 
# 
# From -- ./inp_files/81047.got.cif
#   From: 2010.05.17/outbox.cif.g08.bks.cpg/sg2_41_cif.got.tgz:81047.got - 2010.06.03 11:33:40.
