data_PCOD9026015
_publ_section_title
;
Structure prediction by ZEFSAII (Michael W. Deem and Ramdas Pophale) SiO2 
 PCOD9026015
Probable space group: P -1
;
_chemical_formula_sum "Si O2"
_cell_formula_units_Z 14
_cell_length_a 8.247389
_cell_length_b 14.160405
_cell_length_c 13.968893
_cell_angle_alpha 151.502816
_cell_angle_beta 97.300108
_cell_angle_gamma 65.447306
_cell_volume 591.885427
_symmetry_space_group_name_H-M "P -1"
_symmetry_group_IT_number 2
_symmetry_cell_setting 'triclinic'
loop_
_space_group_symop_operation_xyz
x,y,z
-x,-y,-z
loop_
_atom_site_type_symbol
_atom_site_label
_atom_site_fract_x
_atom_site_fract_y
_atom_site_fract_z
Si Si1 0.482492 0.692750 0.745049
Si Si2 0.108966 0.912561 0.299132
Si Si3 0.761852 0.890281 0.159819
Si Si4 0.878117 0.430360 0.863128
Si Si5 0.962500 0.813787 0.920852
Si Si6 0.282417 0.873582 0.077527
Si Si7 0.683804 0.713062 0.615703
O O1 0.500000 0.500000 0.500000
O O2 0.646447 0.718651 0.731916
O O3 0.477519 0.660063 0.829397
O O4 0.248736 0.958191 0.944261
O O5 0.029441 0.179526 0.580682
O O6 0.897969 0.950369 0.281362
O O7 0.210771 0.675770 0.170458
O O8 0.268537 0.833318 0.152882
O O9 0.541944 0.148186 0.331740
O O10 0.725396 0.706151 0.043494
O O11 0.904824 0.730649 0.935467
O O12 0.000000 0.500000 0.000000
O O13 0.133598 0.577729 0.657799
O O14 0.075205 0.919120 0.065328
O O15 0.254692 0.124657 0.277867
#
# Coordination Sequence:
#
# PCOD9026015 Si02
#       7
#     2   2   2   2   2   2   2
#     4  11  23  43  62  88 128 168 207 256 307 360
#     4   9  19  36  65  93 121 168 201 252 315 362
#     4   9  20  37  60  92 125 161 201 251 305 369
#     4   9  17  36  64  94 124 158 204 252 311 371
#     4  10  22  41  61  89 126 165 205 256 305 360
#     4  11  22  39  62  92 123 164 211 254 301 366
#     4  11  23  39  60  91 126 165 209 253 307 362
#
# _framework density 23.653227000000001
#
# number of rings (size 3 to 8) (size 9 to 14) (size 15 to 20)
#    0.000    2.000    1.429    1.714    0.000    1.714 
#    7.714    0.714    0.000   35.143    0.000    0.000 
#    0.000    0.000    0.000    0.000    0.000    0.000 
#
# Total GULP energy -78095.595936 kJ/mol
# GULP energy per Si atom -5578.256853 kJ/mol
# Density = 2.359939 g / cm^3
# Si number density = 23.653227 Si / 1000 Ang^3
#
#
#
# Elastic Constant Matrix: (Units=GPa)
#
#
# Indices 1 2 3 4 5 6 
#
# 1 81.8509 42.8371 49.6768 -5.6022 4.2445 23.6761
# 2 42.8371 122.8907 66.6881 -18.6746 -3.8223 42.6646
# 3 49.6768 66.6881 149.8000 -11.7424 2.4250 13.7984
# 4 -5.6022 -18.6746 -11.7424 40.9895 6.5775 -3.8256
# 5 4.2445 -3.8223 2.4250 6.5775 41.5142 -3.1289
# 6 23.6761 42.6646 13.7984 -3.8256 -3.1289 50.9310
#
#
#
# Elastic Compliance Matrix: (Units=1/GPa)
#
#
# Indices 1 2 3 4 5 6 
#
# 1 0.017619 -0.001831 -0.004471 0.000118 -0.002147 -0.005568
# 2 -0.001831 0.016048 -0.005195 0.004492 0.000441 -0.010820
# 3 -0.004471 -0.005195 0.010165 0.000340 -0.000392 0.003678
# 4 0.000118 0.004492 0.000340 0.027009 -0.004058 -0.002131
# 5 -0.002147 0.000441 -0.000392 -0.004058 0.025163 0.001976
# 6 -0.005568 -0.010820 0.003678 -0.002131 0.001976 0.030251
#
#
# Mechanical properties :
#
#
# Convention : Reuss Voigt Hill
#
# Bulk Modulus (GPa) = 47.99020 74.77173 61.38096
# Shear Modulus (GPa) = 32.01113 39.70956 35.86035
#
# Velocity S-wave (km/s) = 3.68278 4.10179 3.89792
# Velocity P-wave (km/s) = 6.19814 7.35616 6.80184
#
# Compressibility (1/GPa) = 0.02083759
#
# Stress axis : x y z
#
# Youngs Moduli (GPa) = 56.75623 62.31500 98.37499
#
# Poissons Ratio (x) = 0.11411 0.43981
# Poissons Ratio (y) = 0.10394 0.51107
# Poissons Ratio (z) = 0.25374 0.32374
#
# Static dielectric constant tensor:
#      x y z
#    x 1.990820 0.000570 0.050190 
#    y 0.000570 2.022730 -0.040260 
#    z 0.050190 -0.040260 1.893740 
# 
# From -- ./inp_files/505776.got.cif
#   From: 2010.05.17/outbox.cif.g08.bks.cpg/sg2_253_cif.got.tgz:505776.got - 2010.06.03 11:33:40.
