data_PCOD9026309
_publ_section_title
;
Structure prediction by ZEFSAII (Michael W. Deem and Ramdas Pophale) SiO2 
 PCOD9026309
Probable space group: P -1
;
_chemical_formula_sum "Si O2"
_cell_formula_units_Z 14
_cell_length_a 14.829341
_cell_length_b 17.855385
_cell_length_c 10.195577
_cell_angle_alpha 32.243118
_cell_angle_beta 36.352125
_cell_angle_gamma 22.210190
_cell_volume 541.080395
_symmetry_space_group_name_H-M "P -1"
_symmetry_group_IT_number 2
_symmetry_cell_setting 'triclinic'
loop_
_space_group_symop_operation_xyz
x,y,z
-x,-y,-z
loop_
_atom_site_type_symbol
_atom_site_label
_atom_site_fract_x
_atom_site_fract_y
_atom_site_fract_z
Si Si1 0.402727 0.459191 0.568802
Si Si2 0.656826 0.740891 0.339717
Si Si3 0.175822 0.674422 0.253546
Si Si4 0.755790 0.972079 0.960851
Si Si5 0.505824 0.832476 0.775230
Si Si6 0.961951 0.373866 0.058500
Si Si7 0.284823 0.879106 0.720192
O O1 0.500000 0.500000 0.500000
O O2 0.374556 0.534943 0.343597
O O3 0.141193 0.604833 0.715993
O O4 0.576426 0.201885 0.753493
O O5 0.817575 0.490329 0.558108
O O6 0.671197 0.870062 0.218878
O O7 0.387957 0.875827 0.473391
O O8 0.792562 0.710035 0.099543
O O9 0.232087 0.751969 0.965485
O O10 0.938227 0.886759 0.296026
O O11 0.985893 0.786858 0.871759
O O12 0.719293 0.045812 0.044774
O O13 0.747154 0.619776 0.884650
O O14 0.487489 0.759655 0.770579
O O15 0.500000 0.000000 0.500000
#
# Coordination Sequence:
#
# PCOD9026309 Si02
#       7
#     2   2   2   2   2   2   2
#     4  11  24  46  67  91 125 165 215 262 318 380
#     4  10  22  41  63  95 129 159 213 258 312 376
#     4  11  25  42  64  89 130 173 205 261 319 374
#     4   9  22  39  63  98 123 160 213 260 309 366
#     4  11  18  36  65  92 130 163 204 257 306 371
#     4   9  22  39  63  98 121 165 209 261 312 361
#     4  11  24  42  62  94 132 168 211 256 315 376
#
# _framework density 25.87416
#
# number of rings (size 3 to 8) (size 9 to 14) (size 15 to 20)
#    0.857    0.857    1.429    3.000    2.000    6.286 
#    0.000    4.286    0.000    0.000    0.000    0.000 
#    0.000    0.000    0.000    0.000    0.000    0.000 
#
# Total GULP energy -78154.202794 kJ/mol
# GULP energy per Si atom -5582.443057 kJ/mol
# Density = 2.581527 g / cm^3
# Si number density = 25.874160 Si / 1000 Ang^3
#
#
#
# Elastic Constant Matrix: (Units=GPa)
#
#
# Indices 1 2 3 4 5 6 
#
# 1 74.5551 9.4303 20.2568 -3.2863 4.8759 7.1993
# 2 9.4303 128.2276 37.9482 -8.9722 -4.4265 26.3601
# 3 20.2568 37.9482 111.0641 3.5474 -12.8124 6.1492
# 4 -3.2863 -8.9722 3.5474 35.0893 5.2478 0.5997
# 5 4.8759 -4.4265 -12.8124 5.2478 32.1977 -0.5670
# 6 7.1993 26.3601 6.1492 0.5997 -0.5670 35.7045
#
#
#
# Elastic Compliance Matrix: (Units=1/GPa)
#
#
# Indices 1 2 3 4 5 6 
#
# 1 0.014884 0.000509 -0.003261 0.002493 -0.003939 -0.002920
# 2 0.000509 0.010498 -0.003458 0.003308 -0.000678 -0.007324
# 3 -0.003261 -0.003458 0.011390 -0.003125 0.005085 0.001382
# 4 0.002493 0.003308 -0.003125 0.030881 -0.006253 -0.003025
# 5 -0.003939 -0.000678 0.005085 -0.006253 0.034623 0.001074
# 6 -0.002920 -0.007324 0.001382 -0.003025 0.001074 0.033834
#
#
# Mechanical properties :
#
#
# Convention : Reuss Voigt Hill
#
# Bulk Modulus (GPa) = 41.06436 49.90194 45.48315
# Shear Modulus (GPa) = 31.91880 37.01239 34.46560
#
# Velocity S-wave (km/s) = 3.51610 3.78627 3.65368
# Velocity P-wave (km/s) = 5.69115 6.20022 5.95113
#
# Compressibility (1/GPa) = 0.02435202
#
# Stress axis : x y z
#
# Youngs Moduli (GPa) = 67.18620 95.25277 87.79590
#
# Poissons Ratio (x) = -0.04850 0.28631
# Poissons Ratio (y) = -0.03421 0.30363
# Poissons Ratio (z) = 0.21910 0.32941
#
# Static dielectric constant tensor:
#      x y z
#    x 2.053470 -0.015500 0.020670 
#    y -0.015500 2.048130 0.038780 
#    z 0.020670 0.038780 2.059260 
# 
# From -- ./inp_files/467015.got.cif
#   From: 2010.05.17/outbox.cif.g08.bks.cpg/sg2_234_cif.got.tgz:467015.got - 2010.06.03 11:33:40.
