data_PCOD9026428
_publ_section_title
;
Structure prediction by ZEFSAII (Michael W. Deem and Ramdas Pophale) SiO2 
 PCOD9026428
Probable space group: P -1
;
_chemical_formula_sum "Si O2"
_cell_formula_units_Z 10
_cell_length_a 10.770509
_cell_length_b 6.905997
_cell_length_c 7.197033
_cell_angle_alpha 61.454212
_cell_angle_beta 62.908979
_cell_angle_gamma 101.630388
_cell_volume 353.422789
_symmetry_space_group_name_H-M "P -1"
_symmetry_group_IT_number 2
_symmetry_cell_setting 'triclinic'
loop_
_space_group_symop_operation_xyz
x,y,z
-x,-y,-z
loop_
_atom_site_type_symbol
_atom_site_label
_atom_site_fract_x
_atom_site_fract_y
_atom_site_fract_z
Si Si1 0.833178 0.995084 0.092216
Si Si2 0.805178 0.475855 0.974573
Si Si3 0.302858 0.541986 0.520241
Si Si4 0.150298 0.840750 0.410146
Si Si5 0.480342 0.072311 0.269532
O O1 0.839871 0.241827 0.063851
O O2 0.821997 0.028278 0.865751
O O3 0.696257 0.714279 0.402636
O O4 0.000000 0.000000 0.000000
O O5 0.971057 0.727655 0.671653
O O6 0.756972 0.503503 0.202188
O O7 0.643062 0.357139 0.007878
O O8 0.171604 0.591435 0.486138
O O9 0.468328 0.830981 0.271047
O O10 0.306630 0.029962 0.348070
O O11 0.500000 0.000000 0.500000
#
# Coordination Sequence:
#
# PCOD9026428 Si02
#       5
#     2   2   2   2   2
#     4  12  24  38  65  95 122 164 209 248 306 368
#     4  11  21  42  68  85 129 165 195 260 312 347
#     4   9  22  43  60  92 124 157 210 250 295 375
#     4  10  22  41  64  91 127 158 207 256 297 370
#     4   8  19  39  67  87 123 163 198 256 306 354
#
# _framework density 28.294723000000001
#
# number of rings (size 3 to 8) (size 9 to 14) (size 15 to 20)
#    1.200    0.800    2.000    1.200    0.000    2.400 
#    0.000    6.000    0.000    0.000    0.000    0.000 
#    0.000    0.000    0.000    0.000    0.000    0.000 
#
# Total GULP energy -55975.376405 kJ/mol
# GULP energy per Si atom -5597.537640 kJ/mol
# Density = 2.823032 g / cm^3
# Si number density = 28.294723 Si / 1000 Ang^3
#
#
#
# Elastic Constant Matrix: (Units=GPa)
#
#
# Indices 1 2 3 4 5 6 
#
# 1 152.1850 31.7880 74.5040 -20.8169 -27.2171 33.1390
# 2 31.7880 116.0426 41.5904 -20.2042 12.0890 -4.1108
# 3 74.5040 41.5904 158.7781 -15.8953 -8.6244 7.9526
# 4 -20.8169 -20.2042 -15.8953 52.4502 -9.7090 5.7349
# 5 -27.2171 12.0890 -8.6244 -9.7090 59.0765 -13.5677
# 6 33.1390 -4.1108 7.9526 5.7349 -13.5677 39.4717
#
#
#
# Elastic Compliance Matrix: (Units=1/GPa)
#
#
# Indices 1 2 3 4 5 6 
#
# 1 0.012318 -0.001818 -0.004162 0.004674 0.004154 -0.008944
# 2 -0.001818 0.010489 -0.001915 0.002074 -0.002499 0.001844
# 3 -0.004162 -0.001915 0.008690 0.000094 0.000119 0.001572
# 4 0.004674 0.002074 0.000094 0.023151 0.004255 -0.005628
# 5 0.004154 -0.002499 0.000119 0.004255 0.020694 0.002724
# 6 -0.008944 0.001844 0.001572 -0.005628 0.002724 0.034473
#
#
# Mechanical properties :
#
#
# Convention : Reuss Voigt Hill
#
# Bulk Modulus (GPa) = 63.66933 80.30784 71.98858
# Shear Modulus (GPa) = 38.21412 48.80791 43.51102
#
# Velocity S-wave (km/s) = 3.67900 4.15780 3.92571
# Velocity P-wave (km/s) = 6.37164 7.17593 6.78571
#
# Compressibility (1/GPa) = 0.01570615
#
# Stress axis : x y z
#
# Youngs Moduli (GPa) = 81.18015 95.34097 115.07570
#
# Poissons Ratio (x) = 0.17336 0.47899
# Poissons Ratio (y) = 0.14761 0.22033
# Poissons Ratio (z) = 0.33790 0.18254
#
# Static dielectric constant tensor:
#      x y z
#    x 2.221660 0.053670 -0.122130 
#    y 0.053670 2.272780 -0.085040 
#    z -0.122130 -0.085040 2.313480 
# 
# From -- ./inp_files/146507.got.cif
#   From: 2010.05.17/outbox.cif.g08.bks.cpg/sg2_74_cif.got.tgz:146507.got - 2010.06.03 11:33:40.
