data_PCOD9026268
_publ_section_title
;
Structure prediction by ZEFSAII (Michael W. Deem and Ramdas Pophale) SiO2 
 PCOD9026268
Probable space group: P -1
;
_chemical_formula_sum "Si O2"
_cell_formula_units_Z 16
_cell_length_a 9.084103
_cell_length_b 12.826011
_cell_length_c 11.268448
_cell_angle_alpha 37.521209
_cell_angle_beta 88.064561
_cell_angle_gamma 75.393370
_cell_volume 742.376356
_symmetry_space_group_name_H-M "P -1"
_symmetry_group_IT_number 2
_symmetry_cell_setting 'triclinic'
loop_
_space_group_symop_operation_xyz
x,y,z
-x,-y,-z
loop_
_atom_site_type_symbol
_atom_site_label
_atom_site_fract_x
_atom_site_fract_y
_atom_site_fract_z
Si Si1 0.084139 0.847807 0.908417
Si Si2 0.761681 0.919693 0.978371
Si Si3 0.495816 0.181357 0.580791
Si Si4 0.680147 0.285101 0.791379
Si Si5 0.966869 0.317903 0.187834
Si Si6 0.335204 0.394112 0.632412
Si Si7 0.755579 0.954000 0.414505
Si Si8 0.373848 0.666307 0.777977
O O1 0.040960 0.775261 0.853177
O O2 0.935726 0.894845 0.954759
O O3 0.140992 0.012327 0.725622
O O4 0.234466 0.702198 0.101737
O O5 0.637732 0.011127 0.792051
O O6 0.716022 0.074840 0.941925
O O7 0.752310 0.727573 0.195468
O O8 0.402154 0.300401 0.587857
O O9 0.375849 0.116084 0.568429
O O10 0.562756 0.291845 0.387119
O O11 0.491024 0.371740 0.724433
O O12 0.741052 0.390430 0.592882
O O13 0.793528 0.360138 0.211021
O O14 0.114209 0.183007 0.379278
O O15 0.000000 0.500000 0.000000
O O16 0.670257 0.147128 0.310690
O O17 0.500000 0.500000 0.000000
#
# Coordination Sequence:
#
# PCOD9026268 Si02
#       8
#     2   2   2   2   2   2   2   2
#     4  11  23  41  67  89 130 174 210 265 340 381
#     4  11  22  43  63  99 129 172 220 268 325 398
#     4  11  22  40  68  93 128 172 214 264 336 382
#     4  10  22  41  63  92 129 167 218 272 325 388
#     4  11  25  45  62  98 136 171 221 274 324 400
#     4  10  23  41  64  95 133 163 223 272 320 396
#     4  11  23  42  68  92 135 174 215 274 330 393
#     4  11  24  41  66  98 129 170 227 271 322 400
#
# _framework density 21.552410999999999
#
# number of rings (size 3 to 8) (size 9 to 14) (size 15 to 20)
#    0.000    1.250    0.000    7.500    5.250    1.500 
#   11.250    0.000    0.000    0.000    0.000    0.000 
#    0.000    0.000    0.000    0.000    0.000    0.000 
#
# Total GULP energy -89454.533075 kJ/mol
# GULP energy per Si atom -5590.908317 kJ/mol
# Density = 2.150336 g / cm^3
# Si number density = 21.552411 Si / 1000 Ang^3
#
#
#
# Elastic Constant Matrix: (Units=GPa)
#
#
# Indices 1 2 3 4 5 6 
#
# 1 108.7423 42.9971 51.2447 1.5893 -9.9507 18.4319
# 2 42.9971 30.8185 17.9055 5.1200 2.0675 12.0133
# 3 51.2447 17.9055 133.3151 1.1899 1.5896 15.9518
# 4 1.5893 5.1200 1.1899 31.3027 3.8191 -0.2867
# 5 -9.9507 2.0675 1.5896 3.8191 48.5563 7.9152
# 6 18.4319 12.0133 15.9518 -0.2867 7.9152 23.9425
#
#
#
# Elastic Compliance Matrix: (Units=1/GPa)
#
#
# Indices 1 2 3 4 5 6 
#
# 1 0.025637 -0.032982 -0.005313 0.003440 0.006868 -0.001877
# 2 -0.032982 0.085852 0.003479 -0.011850 -0.006672 -0.017940
# 3 -0.005313 0.003479 0.009537 -0.000587 -0.000897 -0.003720
# 4 0.003440 -0.011850 -0.000587 0.034049 -0.002238 0.004836
# 5 0.006868 -0.006672 -0.000897 -0.002238 0.024008 -0.009306
# 6 -0.001877 -0.017940 -0.003720 0.004836 -0.009306 0.057826
#
#
# Mechanical properties :
#
#
# Convention : Reuss Voigt Hill
#
# Bulk Modulus (GPa) = 19.45740 55.24116 37.34928
# Shear Modulus (GPa) = 15.44768 31.47555 23.46162
#
# Velocity S-wave (km/s) = 2.68012 3.82569 3.30295
# Velocity P-wave (km/s) = 4.31566 6.72319 5.64917
#
# Compressibility (1/GPa) = 0.05139434
#
# Stress axis : x y z
#
# Youngs Moduli (GPa) = 39.00558 11.64798 104.85455
#
# Poissons Ratio (x) = 0.38418 0.55708
# Poissons Ratio (y) = 1.28649 -0.36480
# Poissons Ratio (z) = 0.20723 -0.04053
#
# Static dielectric constant tensor:
#      x y z
#    x 1.758680 -0.025870 0.004760 
#    y -0.025870 1.775230 -0.002780 
#    z 0.004760 -0.002780 1.834260 
# 
# From -- ./inp_files/187281.got.cif
#   From: 2010.05.17/outbox.cif.g08.bks.cpg/sg2_94_cif.got.tgz:187281.got - 2010.06.03 11:33:40.
