data_PCOD9026228
_publ_section_title
;
Structure prediction by ZEFSAII (Michael W. Deem and Ramdas Pophale) SiO2 
 PCOD9026228
Probable space group: P -1
;
_chemical_formula_sum "Si O2"
_cell_formula_units_Z 14
_cell_length_a 9.279035
_cell_length_b 9.593371
_cell_length_c 15.358446
_cell_angle_alpha 65.068588
_cell_angle_beta 116.618101
_cell_angle_gamma 148.392595
_cell_volume 638.250447
_symmetry_space_group_name_H-M "P -1"
_symmetry_group_IT_number 2
_symmetry_cell_setting 'triclinic'
loop_
_space_group_symop_operation_xyz
x,y,z
-x,-y,-z
loop_
_atom_site_type_symbol
_atom_site_label
_atom_site_fract_x
_atom_site_fract_y
_atom_site_fract_z
Si Si1 0.839869 0.016339 0.289230
Si Si2 0.477078 0.455487 0.401647
Si Si3 0.684687 0.286826 0.444455
Si Si4 0.187938 0.289987 0.004620
Si Si5 0.961612 0.403480 0.819223
Si Si6 0.428207 0.915527 0.716092
Si Si7 0.935832 0.608107 0.896005
O O1 0.160394 0.228079 0.343004
O O2 0.840355 0.108826 0.171787
O O3 0.729025 0.044483 0.328084
O O4 0.665086 0.724473 0.328609
O O5 0.500000 0.500000 0.500000
O O6 0.581498 0.365793 0.434042
O O7 0.647580 0.249149 0.341288
O O8 0.000000 0.500000 0.500000
O O9 0.500000 0.000000 0.500000
O O10 0.209654 0.378912 0.085148
O O11 0.500000 0.500000 0.000000
O O12 0.008931 0.285593 0.913451
O O13 0.000000 0.000000 0.000000
O O14 0.806356 0.416501 0.828421
O O15 0.277101 0.706673 0.808272
O O16 0.755193 0.205080 0.736599
O O17 0.000000 0.500000 0.000000
#
# Coordination Sequence:
#
# PCOD9026228 Si02
#       7
#     2   2   2   2   2   2   2
#     4  11  23  42  68  97 129 175 224 277 335 398
#     4  12  25  43  66  98 134 173 221 279 336 400
#     4  12  25  43  66  94 130 175 217 273 344 410
#     4  11  24  40  62  93 130 170 215 276 334 387
#     4  10  22  41  63  89 124 171 215 265 326 395
#     4  11  22  41  64  91 124 164 217 268 322 399
#     4   9  22  44  68  96 134 180 228 272 335 411
#
# _framework density 21.934963
#
# number of rings (size 3 to 8) (size 9 to 14) (size 15 to 20)
#    0.000    1.143    0.000    6.429    0.000    6.857 
#    0.000   12.143    0.000    0.000    0.000    0.000 
#    0.000    0.000    0.000    0.000    0.000    0.000 
#
# Total GULP energy -77981.208606 kJ/mol
# GULP energy per Si atom -5570.086329 kJ/mol
# Density = 2.188504 g / cm^3
# Si number density = 21.934963 Si / 1000 Ang^3
#
#
#
# Elastic Constant Matrix: (Units=GPa)
#
#
# Indices 1 2 3 4 5 6 
#
# 1 172.1951 54.5284 35.9465 -10.4218 -2.9015 -30.5213
# 2 54.5284 152.2193 29.6156 -19.6714 12.4766 -1.6065
# 3 35.9465 29.6156 66.2100 -21.0125 2.5765 -5.8977
# 4 -10.4218 -19.6714 -21.0125 40.9799 -5.9232 7.2941
# 5 -2.9015 12.4766 2.5765 -5.9232 35.7510 -0.9367
# 6 -30.5213 -1.6065 -5.8977 7.2941 -0.9367 46.5132
#
#
#
# Elastic Compliance Matrix: (Units=1/GPa)
#
#
# Indices 1 2 3 4 5 6 
#
# 1 0.008164 -0.002548 -0.003396 -0.001557 0.001673 0.005116
# 2 -0.002548 0.008314 -0.001623 0.002492 -0.002632 -0.002035
# 3 -0.003396 -0.001623 0.020445 0.009080 0.000293 -0.001110
# 4 -0.001557 0.002492 0.009080 0.031168 0.003393 -0.004604
# 5 0.001673 -0.002632 0.000293 0.003393 0.029595 0.001108
# 6 0.005116 -0.002035 -0.001110 -0.004604 0.001108 0.025390
#
#
# Mechanical properties :
#
#
# Convention : Reuss Voigt Hill
#
# Bulk Modulus (GPa) = 45.89713 70.08950 57.99331
# Shear Modulus (GPa) = 34.37020 42.68443 38.52731
#
# Velocity S-wave (km/s) = 3.96272 4.41608 4.19553
# Velocity P-wave (km/s) = 6.47357 7.61742 7.06867
#
# Compressibility (1/GPa) = 0.02178786
#
# Stress axis : x y z
#
# Youngs Moduli (GPa) = 122.48840 120.27237 48.91214
#
# Poissons Ratio (x) = 0.30647 0.16611
# Poissons Ratio (y) = 0.31212 0.07941
# Poissons Ratio (z) = 0.41599 0.19525
#
# Static dielectric constant tensor:
#      x y z
#    x 1.787120 -0.054960 -0.083580 
#    y -0.054960 1.731900 -0.021380 
#    z -0.083580 -0.021380 1.896000 
# 
# From -- ./inp_files/547595.got.cif
#   From: 2010.05.17/outbox.cif.g08.bks.cpg/sg2_274_cif.got.tgz:547595.got - 2010.06.03 11:33:40.
