data_PCOD9026181
_publ_section_title
;
Structure prediction by ZEFSAII (Michael W. Deem and Ramdas Pophale) SiO2 
 PCOD9026181
Probable space group: P -1
;
_chemical_formula_sum "Si O2"
_cell_formula_units_Z 14
_cell_length_a 19.032728
_cell_length_b 7.922818
_cell_length_c 13.145023
_cell_angle_alpha 37.014566
_cell_angle_beta 30.750563
_cell_angle_gamma 45.797352
_cell_volume 609.750442
_symmetry_space_group_name_H-M "P -1"
_symmetry_group_IT_number 2
_symmetry_cell_setting 'triclinic'
loop_
_space_group_symop_operation_xyz
x,y,z
-x,-y,-z
loop_
_atom_site_type_symbol
_atom_site_label
_atom_site_fract_x
_atom_site_fract_y
_atom_site_fract_z
Si Si1 0.295974 0.148736 0.450588
Si Si2 0.982143 0.824092 0.347361
Si Si3 0.255892 0.308332 0.016154
Si Si4 0.863881 0.129769 0.049032
Si Si5 0.018408 0.345430 0.157703
Si Si6 0.448838 0.807639 0.249486
Si Si7 0.750938 0.343364 0.598366
O O1 0.157645 0.144627 0.557230
O O2 0.315076 0.458145 0.326057
O O3 0.262697 0.974167 0.677738
O O4 0.402051 0.999839 0.311517
O O5 0.000000 0.500000 0.500000
O O6 0.980094 0.021525 0.351463
O O7 0.106190 0.945285 0.067999
O O8 0.166901 0.534407 0.083544
O O9 0.416224 0.367546 0.797803
O O10 0.176344 0.364544 0.983038
O O11 0.243638 0.980091 0.216056
O O12 0.000000 0.000000 0.000000
O O13 0.903742 0.449262 0.332426
O O14 0.000000 0.500000 0.000000
O O15 0.330380 0.645989 0.414217
O O16 0.500000 0.000000 0.000000
#
# Coordination Sequence:
#
# PCOD9026181 Si02
#       7
#     2   2   2   2   2   2   2
#     4  11  22  44  67  95 140 176 222 285 339 399
#     4  11  21  36  66  99 131 170 226 281 331 396
#     4  11  24  43  66  98 137 176 227 279 336 409
#     4  10  22  41  62  98 136 172 219 285 340 391
#     4  12  22  39  67 100 131 173 226 277 336 399
#     4  10  25  45  69  99 139 180 228 281 337 410
#     4  11  23  45  72  97 133 181 229 278 341 403
#
# _framework density 22.960213
#
# number of rings (size 3 to 8) (size 9 to 14) (size 15 to 20)
#    0.000    1.143    1.429    6.429    2.000    2.857 
#    2.571    0.714    0.000    0.000    0.000    0.000 
#    0.000    0.000    0.000    0.000    0.000    0.000 
#
# Total GULP energy -78038.507766 kJ/mol
# GULP energy per Si atom -5574.179126 kJ/mol
# Density = 2.290795 g / cm^3
# Si number density = 22.960213 Si / 1000 Ang^3
#
#
#
# Elastic Constant Matrix: (Units=GPa)
#
#
# Indices 1 2 3 4 5 6 
#
# 1 99.1009 54.7094 3.3385 18.4693 -15.7341 -11.2653
# 2 54.7094 161.3063 34.5961 8.0511 -4.7744 14.9192
# 3 3.3385 34.5961 53.0978 8.8624 6.5605 1.0345
# 4 18.4693 8.0511 8.8624 35.5021 11.6363 -3.7919
# 5 -15.7341 -4.7744 6.5605 11.6363 31.2995 4.5388
# 6 -11.2653 14.9192 1.0345 -3.7919 4.5388 52.7822
#
#
#
# Elastic Compliance Matrix: (Units=1/GPa)
#
#
# Indices 1 2 3 4 5 6 
#
# 1 0.017839 -0.006199 0.003466 -0.012032 0.011238 0.003661
# 2 -0.006199 0.009860 -0.006278 0.002360 -0.000628 -0.003764
# 3 0.003466 -0.006278 0.023866 -0.005312 -0.002516 0.001881
# 4 -0.012032 0.002360 -0.005312 0.042103 -0.020468 0.001654
# 5 0.011238 -0.000628 -0.002516 -0.020468 0.046046 -0.002805
# 6 0.003661 -0.003764 0.001881 0.001654 -0.002805 0.021114
#
#
# Mechanical properties :
#
#
# Convention : Reuss Voigt Hill
#
# Bulk Modulus (GPa) = 29.81190 55.42146 42.61668
# Shear Modulus (GPa) = 26.31153 38.64083 32.47618
#
# Velocity S-wave (km/s) = 3.38888 4.10682 3.76500
# Velocity P-wave (km/s) = 5.32212 6.83216 6.12387
#
# Compressibility (1/GPa) = 0.03354366
#
# Stress axis : x y z
#
# Youngs Moduli (GPa) = 56.05689 101.41979 41.90029
#
# Poissons Ratio (x) = 0.62872 -0.14522
# Poissons Ratio (y) = 0.34751 0.26303
# Poissons Ratio (z) = -0.19429 0.63667
#
# Static dielectric constant tensor:
#      x y z
#    x 1.913180 0.015110 -0.040510 
#    y 0.015110 1.941090 -0.015590 
#    z -0.040510 -0.015590 1.943760 
# 
# From -- ./inp_files/380024.got.cif
#   From: 2010.05.17/outbox.cif.g08.bks.cpg/sg2_191_cif.got.tgz:380024.got - 2010.06.03 11:33:40.
