data_PCOD9026892
_publ_section_title
;
Structure prediction by ZEFSAII (Michael W. Deem and Ramdas Pophale) SiO2 
 PCOD9026892
Probable space group: P -1
;
_chemical_formula_sum "Si O2"
_cell_formula_units_Z 16
_cell_length_a 15.113343
_cell_length_b 9.120380
_cell_length_c 11.955018
_cell_angle_alpha 113.356923
_cell_angle_beta 28.427608
_cell_angle_gamma 106.127536
_cell_volume 710.648205
_symmetry_space_group_name_H-M "P -1"
_symmetry_group_IT_number 2
_symmetry_cell_setting 'triclinic'
loop_
_space_group_symop_operation_xyz
x,y,z
-x,-y,-z
loop_
_atom_site_type_symbol
_atom_site_label
_atom_site_fract_x
_atom_site_fract_y
_atom_site_fract_z
Si Si1 0.929568 0.650579 0.383170
Si Si2 0.353966 0.704774 0.975125
Si Si3 0.667154 0.134474 0.172649
Si Si4 0.922662 0.616209 0.017348
Si Si5 0.084077 0.098426 0.730936
Si Si6 0.569902 0.668610 0.941425
Si Si7 0.566374 0.126235 0.640496
Si Si8 0.496039 0.621662 0.408592
O O1 0.878860 0.785334 0.380425
O O2 0.772363 0.658210 0.654478
O O3 0.137361 0.674991 0.202358
O O4 0.955960 0.471400 0.245275
O O5 0.372483 0.843029 0.907461
O O6 0.422566 0.741887 0.031698
O O7 0.488985 0.547617 0.724886
O O8 0.635434 0.312976 0.319646
O O9 0.524787 0.026082 0.345075
O O10 0.880220 0.053080 0.924965
O O11 0.934385 0.792526 0.103298
O O12 0.706425 0.621523 0.222110
O O13 0.000000 0.500000 0.000000
O O14 0.241653 0.946976 0.533408
O O15 0.500000 0.500000 0.000000
O O16 0.563526 0.773177 0.091592
O O17 0.575914 0.244311 0.563073
#
# Coordination Sequence:
#
# PCOD9026892 Si02
#       8
#     2   2   2   2   2   2   2   2
#     4   9  22  42  67  97 131 169 228 282 310 389
#     4  10  23  44  68 100 124 177 230 269 327 390
#     4  11  24  41  72  98 134 174 219 279 335 392
#     4   9  19  38  67  99 131 169 216 272 326 384
#     4  10  22  41  66 102 133 173 218 269 346 390
#     4  12  26  45  67  93 133 184 224 263 333 404
#     4  12  26  45  61 101 144 173 218 277 331 396
#     4  11  22  43  66  99 144 170 216 279 332 391
#
# _framework density 22.514655999999999
#
# number of rings (size 3 to 8) (size 9 to 14) (size 15 to 20)
#    0.000    1.500    2.500    2.250    3.500    4.000 
#    4.500    2.500    0.000    0.000    0.000    0.000 
#    0.000    0.000    0.000    0.000    0.000    0.000 
#
# Total GULP energy -89420.646948 kJ/mol
# GULP energy per Si atom -5588.790434 kJ/mol
# Density = 2.246341 g / cm^3
# Si number density = 22.514656 Si / 1000 Ang^3
#
#
#
# Elastic Constant Matrix: (Units=GPa)
#
#
# Indices 1 2 3 4 5 6 
#
# 1 435.9185 -122.5418 -95.3200 71.2889 -228.0611 -91.8821
# 2 -122.5418 86.0781 50.0957 -26.1827 67.0363 15.5212
# 3 -95.3200 50.0957 145.0967 -22.7322 65.5881 4.9125
# 4 71.2889 -26.1827 -22.7322 38.1573 -48.3729 -12.9641
# 5 -228.0611 67.0363 65.5881 -48.3729 190.3635 55.2958
# 6 -91.8821 15.5212 4.9125 -12.9641 55.2958 42.8138
#
#
#
# Elastic Compliance Matrix: (Units=1/GPa)
#
#
# Indices 1 2 3 4 5 6 
#
# 1 0.009970 0.006542 0.001063 -0.003048 0.005244 0.011206
# 2 0.006542 0.022773 -0.003035 0.003638 -0.000501 0.007881
# 3 0.001063 -0.003035 0.009650 0.000404 -0.002522 0.005655
# 4 -0.003048 0.003638 0.000404 0.041778 0.006667 -0.003868
# 5 0.005244 -0.000501 -0.002522 0.006667 0.016457 -0.007511
# 6 0.011206 0.007881 0.005655 -0.003868 -0.007511 0.052429
#
#
# Mechanical properties :
#
#
# Convention : Reuss Voigt Hill
#
# Bulk Modulus (GPa) = 19.40473 36.84014 28.12243
# Shear Modulus (GPa) = 31.03783 109.92421 70.48102
#
# Velocity S-wave (km/s) = 3.71693 6.99495 5.60111
# Velocity P-wave (km/s) = 5.20174 9.03534 7.37210
#
# Compressibility (1/GPa) = 0.05153383
#
# Stress axis : x y z
#
# Youngs Moduli (GPa) = 100.30350 43.91186 103.62375
#
# Poissons Ratio (x) = -0.28729 -0.11018
# Poissons Ratio (y) = -0.65622 0.31451
# Poissons Ratio (z) = -0.10665 0.13328
#
# Static dielectric constant tensor:
#      x y z
#    x 1.801900 0.006300 -0.013990 
#    y 0.006300 1.874640 -0.006960 
#    z -0.013990 -0.006960 1.831050 
# 
# From -- ./inp_files/437180.got.cif
#   From: 2010.05.17/outbox.cif.g08.bks.cpg/sg2_219_cif.got.tgz:437180.got - 2010.06.03 11:33:40.
