data_PCOD9026730
_publ_section_title
;
Structure prediction by ZEFSAII (Michael W. Deem and Ramdas Pophale) SiO2 
 PCOD9026730
Probable space group: P -1
;
_chemical_formula_sum "Si O2"
_cell_formula_units_Z 16
_cell_length_a 14.458587
_cell_length_b 11.956022
_cell_length_c 9.064712
_cell_angle_alpha 138.681022
_cell_angle_beta 49.693772
_cell_angle_gamma 132.502795
_cell_volume 730.788855
_symmetry_space_group_name_H-M "P -1"
_symmetry_group_IT_number 2
_symmetry_cell_setting 'triclinic'
loop_
_space_group_symop_operation_xyz
x,y,z
-x,-y,-z
loop_
_atom_site_type_symbol
_atom_site_label
_atom_site_fract_x
_atom_site_fract_y
_atom_site_fract_z
Si Si1 0.579968 0.912830 0.728892
Si Si2 0.854897 0.048657 0.424128
Si Si3 0.515055 0.191245 0.594481
Si Si4 0.243376 0.156330 0.960621
Si Si5 0.044216 0.220508 0.759723
Si Si6 0.799347 0.474985 0.645124
Si Si7 0.779950 0.885792 0.713643
Si Si8 0.026611 0.537707 0.272422
O O1 0.489726 0.814094 0.585078
O O2 0.647586 0.826982 0.696396
O O3 0.713363 0.029372 0.616618
O O4 0.500000 0.000000 0.000000
O O5 0.948709 0.251648 0.568164
O O6 0.838122 0.009820 0.227722
O O7 0.903047 0.892837 0.286581
O O8 0.389655 0.230122 0.817356
O O9 0.650296 0.341387 0.655902
O O10 0.500000 0.000000 0.500000
O O11 0.189422 0.316936 0.166059
O O12 0.245127 0.109115 0.083014
O O13 0.145715 0.243014 0.544794
O O14 0.048819 0.413795 0.000015
O O15 0.893339 0.084699 0.755404
O O16 0.868050 0.451708 0.699869
O O17 0.882949 0.439057 0.390756
#
# Coordination Sequence:
#
# PCOD9026730 Si02
#       8
#     2   2   2   2   2   2   2   2
#     4  10  22  41  65  94 130 178 221 269 330 397
#     4  10  22  43  69 100 130 177 223 277 334 382
#     4  11  24  43  70  95 128 175 227 278 329 391
#     4  11  22  42  70  94 136 172 223 277 329 396
#     4  10  22  44  64  95 141 172 219 274 325 403
#     4  11  24  40  63 107 127 169 226 276 337 386
#     4  10  23  40  66  94 131 184 213 265 345 386
#     4  11  24  39  69 102 136 169 221 280 331 396
#
# _framework density 21.894148999999999
#
# number of rings (size 3 to 8) (size 9 to 14) (size 15 to 20)
#    0.000    1.500    1.250    3.375    7.000    1.000 
#    2.250    6.875    0.000    0.000    0.000    0.000 
#    0.000    0.000    0.000    0.000    0.000    0.000 
#
# Total GULP energy -89336.924480 kJ/mol
# GULP energy per Si atom -5583.557780 kJ/mol
# Density = 2.184432 g / cm^3
# Si number density = 21.894149 Si / 1000 Ang^3
#
#
#
# Elastic Constant Matrix: (Units=GPa)
#
#
# Indices 1 2 3 4 5 6 
#
# 1 101.1920 21.5283 46.1652 -5.2933 -11.4733 -11.5633
# 2 21.5283 42.7825 38.3975 3.4230 8.4643 -0.0702
# 3 46.1652 38.3975 171.9594 -10.6445 11.1040 -1.0797
# 4 -5.2933 3.4230 -10.6445 33.0944 -6.0296 5.5247
# 5 -11.4733 8.4643 11.1040 -6.0296 29.8443 -9.0252
# 6 -11.5633 -0.0702 -1.0797 5.5247 -9.0252 36.6142
#
#
#
# Elastic Compliance Matrix: (Units=1/GPa)
#
#
# Indices 1 2 3 4 5 6 
#
# 1 0.015153 -0.007636 -0.002883 0.003261 0.011876 0.007121
# 2 -0.007636 0.035670 -0.005558 -0.008485 -0.014122 -0.004708
# 3 -0.002883 -0.005558 0.008143 0.002550 -0.002560 -0.001697
# 4 0.003261 -0.008485 0.002550 0.034404 0.009100 -0.001859
# 5 0.011876 -0.014122 -0.002560 0.009100 0.049227 0.014409
# 6 0.007121 -0.004708 -0.001697 -0.001859 0.014409 0.033334
#
#
# Mechanical properties :
#
#
# Convention : Reuss Voigt Hill
#
# Bulk Modulus (GPa) = 37.29752 58.67958 47.98855
# Shear Modulus (GPa) = 23.03907 33.90010 28.46958
#
# Velocity S-wave (km/s) = 3.24743 3.93919 3.60992
# Velocity P-wave (km/s) = 5.57973 6.89560 6.27227
#
# Compressibility (1/GPa) = 0.02681144
#
# Stress axis : x y z
#
# Youngs Moduli (GPa) = 65.99321 28.03482 122.80696
#
# Poissons Ratio (x) = 0.21408 0.35409
# Poissons Ratio (y) = 0.50394 0.68252
# Poissons Ratio (z) = 0.19028 0.15581
#
# Static dielectric constant tensor:
#      x y z
#    x 1.855360 -0.061560 0.022580 
#    y -0.061560 1.817280 -0.010430 
#    z 0.022580 -0.010430 1.799630 
# 
# From -- ./inp_files/308688.got.cif
#   From: 2010.05.17/outbox.cif.g08.bks.cpg/sg2_155_cif.got.tgz:308688.got - 2010.06.03 11:33:40.
