data_PCOD9026292
_publ_section_title
;
Structure prediction by ZEFSAII (Michael W. Deem and Ramdas Pophale) SiO2 
 PCOD9026292
Probable space group: P -1
;
_chemical_formula_sum "Si O2"
_cell_formula_units_Z 14
_cell_length_a 12.347104
_cell_length_b 10.055021
_cell_length_c 5.787430
_cell_angle_alpha 107.822512
_cell_angle_beta 55.997233
_cell_angle_gamma 104.522969
_cell_volume 564.176000
_symmetry_space_group_name_H-M "P -1"
_symmetry_group_IT_number 2
_symmetry_cell_setting 'triclinic'
loop_
_space_group_symop_operation_xyz
x,y,z
-x,-y,-z
loop_
_atom_site_type_symbol
_atom_site_label
_atom_site_fract_x
_atom_site_fract_y
_atom_site_fract_z
Si Si1 0.680934 0.636271 0.920285
Si Si2 0.596752 0.320548 0.884768
Si Si3 0.110100 0.053882 0.078222
Si Si4 0.278689 0.661899 0.838967
Si Si5 0.641477 0.074286 0.442526
Si Si6 0.795403 0.657125 0.306337
Si Si7 0.040618 0.793069 0.325526
O O1 0.686115 0.467503 0.805595
O O2 0.725545 0.703972 0.652080
O O3 0.529249 0.665458 0.114832
O O4 0.743555 0.680452 0.119647
O O5 0.628103 0.158177 0.741626
O O6 0.586145 0.343174 0.184706
O O7 0.103750 0.944128 0.241273
O O8 0.050017 0.187603 0.334879
O O9 0.248908 0.032563 0.780438
O O10 0.000000 0.000000 0.000000
O O11 0.305783 0.785967 0.691172
O O12 0.223382 0.510398 0.740252
O O13 0.162138 0.704119 0.168101
O O14 0.500000 0.000000 0.500000
O O15 0.944739 0.722949 0.203037
#
# Coordination Sequence:
#
# PCOD9026292 Si02
#       7
#     2   2   2   2   2   2   2
#     4  10  24  40  69  99 140 175 220 279 346 411
#     4  10  22  41  63  93 135 177 219 278 343 407
#     4  10  23  44  65  91 134 179 230 281 335 407
#     4  10  22  44  64  95 135 173 223 289 341 407
#     4  11  24  40  64  95 131 177 230 281 341 402
#     4  11  23  42  69 105 135 176 225 281 346 407
#     4  10  23  41  67  95 130 179 228 279 340 407
#
# _framework density 24.814951000000001
#
# number of rings (size 3 to 8) (size 9 to 14) (size 15 to 20)
#    0.000    1.714    1.429    1.286    6.000    2.286 
#    0.000    2.143    0.000    0.000    0.000    0.000 
#    0.000    0.000    0.000    0.000    0.000    0.000 
#
# Total GULP energy -77937.397811 kJ/mol
# GULP energy per Si atom -5566.956987 kJ/mol
# Density = 2.475847 g / cm^3
# Si number density = 24.814951 Si / 1000 Ang^3
#
#
#
# Elastic Constant Matrix: (Units=GPa)
#
#
# Indices 1 2 3 4 5 6 
#
# 1 109.4972 0.4015 31.5642 17.4140 -5.9099 28.9587
# 2 0.4015 89.5213 15.9739 14.9139 -3.8134 7.8118
# 3 31.5642 15.9739 101.8511 16.3992 -6.3505 9.2155
# 4 17.4140 14.9139 16.3992 29.7884 4.8332 8.3591
# 5 -5.9099 -3.8134 -6.3505 4.8332 24.3248 6.1922
# 6 28.9587 7.8118 9.2155 8.3591 6.1922 42.0338
#
#
#
# Elastic Compliance Matrix: (Units=1/GPa)
#
#
# Indices 1 2 3 4 5 6 
#
# 1 0.013556 0.002496 -0.002326 -0.006450 0.006648 -0.008990
# 2 0.002496 0.013031 -0.001077 -0.007257 0.004610 -0.003141
# 3 -0.002326 -0.001077 0.011759 -0.005051 0.003409 -0.000273
# 4 -0.006450 -0.007257 -0.005051 0.045964 -0.013076 -0.000315
# 5 0.006648 0.004610 0.003409 -0.013076 0.049713 -0.010907
# 6 -0.008990 -0.003141 -0.000273 -0.000315 -0.010907 0.032297
#
#
# Mechanical properties :
#
#
# Convention : Reuss Voigt Hill
#
# Bulk Modulus (GPa) = 27.37350 44.08320 35.72835
# Shear Modulus (GPa) = 27.72981 36.09137 31.91059
#
# Velocity S-wave (km/s) = 3.34648 3.81782 3.58989
# Velocity P-wave (km/s) = 5.09773 6.10227 5.62248
#
# Compressibility (1/GPa) = 0.03653169
#
# Stress axis : x y z
#
# Youngs Moduli (GPa) = 73.76671 76.73993 85.04433
#
# Poissons Ratio (x) = -0.19158 0.19784
# Poissons Ratio (y) = -0.18416 0.09162
# Poissons Ratio (z) = 0.17160 0.08267
#
# Static dielectric constant tensor:
#      x y z
#    x 1.545650 -0.289920 -0.554520 
#    y -0.289920 1.813900 -0.401830 
#    z -0.554520 -0.401830 1.488850 
# 
# From -- ./inp_files/68266.got.cif
#   From: 2010.05.17/outbox.cif.g08.bks.cpg/sg2_35_cif.got.tgz:68266.got - 2010.06.03 11:33:40.
