data_PCOD9026264
_publ_section_title
;
Structure prediction by ZEFSAII (Michael W. Deem and Ramdas Pophale) SiO2 
 PCOD9026264
Probable space group: P -1
;
_chemical_formula_sum "Si O2"
_cell_formula_units_Z 12
_cell_length_a 6.939610
_cell_length_b 11.218187
_cell_length_c 21.420172
_cell_angle_alpha 27.220261
_cell_angle_beta 39.437147
_cell_angle_gamma 44.594949
_cell_volume 482.690069
_symmetry_space_group_name_H-M "P -1"
_symmetry_group_IT_number 2
_symmetry_cell_setting 'triclinic'
loop_
_space_group_symop_operation_xyz
x,y,z
-x,-y,-z
loop_
_atom_site_type_symbol
_atom_site_label
_atom_site_fract_x
_atom_site_fract_y
_atom_site_fract_z
Si Si1 0.921639 0.874984 0.744975
Si Si2 0.484234 0.524487 0.226684
Si Si3 0.085304 0.772072 0.534607
Si Si4 0.272644 0.794205 0.951667
Si Si5 0.288358 0.335145 0.770335
Si Si6 0.911489 0.788008 0.918737
O O1 0.630330 0.703386 0.898354
O O2 0.240181 0.708058 0.729237
O O3 0.945966 0.970053 0.765837
O O4 0.842659 0.089345 0.612376
O O5 0.194169 0.397004 0.333819
O O6 0.476076 0.650280 0.238478
O O7 0.584978 0.741788 0.051790
O O8 0.322947 0.569470 0.604491
O O9 0.000000 0.000000 0.500000
O O10 0.118768 0.844925 0.899005
O O11 0.288460 0.069210 0.855877
O O12 0.043794 0.637186 0.123935
O O13 0.000000 0.500000 0.000000
#
# Coordination Sequence:
#
# PCOD9026264 Si02
#       6
#     2   2   2   2   2   2
#     4  11  23  37  65  94 125 161 207 264 302 373
#     4  10  22  41  63  92 123 167 214 254 309 363
#     4  12  25  39  65  92 128 169 207 260 313 372
#     4  10  23  43  66  95 125 165 209 256 315 365
#     4  10  23  44  66  90 130 167 206 256 311 380
#     4   9  21  37  64  93 124 156 208 263 297 369
#
# _framework density 24.860673999999999
#
# number of rings (size 3 to 8) (size 9 to 14) (size 15 to 20)
#    0.000    1.667    1.667    1.500    4.667    8.000 
#    0.000    6.667    0.000    0.000    0.000    0.000 
#    0.000    0.000    0.000    0.000    0.000    0.000 
#
# Total GULP energy -67127.501841 kJ/mol
# GULP energy per Si atom -5593.958487 kJ/mol
# Density = 2.480409 g / cm^3
# Si number density = 24.860674 Si / 1000 Ang^3
#
#
#
# Elastic Constant Matrix: (Units=GPa)
#
#
# Indices 1 2 3 4 5 6 
#
# 1 167.7618 31.6057 58.8941 10.1911 13.0165 59.6891
# 2 31.6057 76.1395 13.8202 3.7797 3.4381 29.6232
# 3 58.8941 13.8202 80.9178 -2.7676 36.9692 23.4488
# 4 10.1911 3.7797 -2.7676 25.7419 5.7656 -2.8773
# 5 13.0165 3.4381 36.9692 5.7656 67.0568 5.3794
# 6 59.6891 29.6232 23.4488 -2.8773 5.3794 41.4677
#
#
#
# Elastic Compliance Matrix: (Units=1/GPa)
#
#
# Indices 1 2 3 4 5 6 
#
# 1 0.017249 0.004317 -0.008485 -0.012031 0.004107 -0.024482
# 2 0.004317 0.019760 -0.001476 -0.007292 0.001207 -0.020157
# 3 -0.008485 -0.001476 0.024366 0.009226 -0.012646 0.001770
# 4 -0.012031 -0.007292 0.009226 0.050006 -0.008431 0.021874
# 5 0.004107 0.001207 -0.012646 -0.008431 0.021996 -0.003061
# 6 -0.024482 -0.020157 0.001770 0.021874 -0.003061 0.074668
#
#
# Mechanical properties :
#
#
# Convention : Reuss Voigt Hill
#
# Bulk Modulus (GPa) = 19.96559 59.27322 39.61941
# Shear Modulus (GPa) = 21.18385 41.55323 31.36854
#
# Velocity S-wave (km/s) = 2.92225 4.09277 3.55600
# Velocity P-wave (km/s) = 4.40845 6.79913 5.72986
#
# Compressibility (1/GPa) = 0.05008617
#
# Stress axis : x y z
#
# Youngs Moduli (GPa) = 57.97442 50.60777 41.04085
#
# Poissons Ratio (x) = -0.21846 0.34822
# Poissons Ratio (y) = -0.25026 0.06059
# Poissons Ratio (z) = 0.49190 0.07471
#
# Static dielectric constant tensor:
#      x y z
#    x 1.981280 -0.027850 0.032870 
#    y -0.027850 2.099580 -0.003890 
#    z 0.032870 -0.003890 1.974160 
# 
# From -- ./inp_files/60866.got.cif
#   From: 2010.05.17/outbox.cif.g08.bks.cpg/sg2_31_cif.got.tgz:60866.got - 2010.06.03 11:33:40.
