data_PCOD9026404
_publ_section_title
;
Structure prediction by ZEFSAII (Michael W. Deem and Ramdas Pophale) SiO2 
 PCOD9026404
Probable space group: P -1
;
_chemical_formula_sum "Si O2"
_cell_formula_units_Z 10
_cell_length_a 11.340882
_cell_length_b 13.971259
_cell_length_c 13.364450
_cell_angle_alpha 158.422812
_cell_angle_beta 44.036949
_cell_angle_gamma 145.354064
_cell_volume 431.800282
_symmetry_space_group_name_H-M "P -1"
_symmetry_group_IT_number 2
_symmetry_cell_setting 'triclinic'
loop_
_space_group_symop_operation_xyz
x,y,z
-x,-y,-z
loop_
_atom_site_type_symbol
_atom_site_label
_atom_site_fract_x
_atom_site_fract_y
_atom_site_fract_z
Si Si1 0.127587 0.863621 0.822033
Si Si2 0.795634 0.396089 0.086123
Si Si3 0.524932 0.623911 0.491893
Si Si4 0.624697 0.872856 0.255761
Si Si5 0.094038 0.444948 0.594054
O O1 0.124622 0.764983 0.842052
O O2 0.000000 0.500000 0.500000
O O3 0.345294 0.078077 0.834857
O O4 0.000000 0.000000 0.000000
O O5 0.673512 0.546642 0.273886
O O6 0.868825 0.508083 0.264740
O O7 0.000000 0.500000 0.000000
O O8 0.635005 0.005911 0.799489
O O9 0.500000 0.500000 0.500000
O O10 0.285424 0.454816 0.436773
O O11 0.500000 0.000000 0.500000
O O12 0.500000 0.500000 0.000000
O O13 0.863480 0.113733 0.389063
#
# Coordination Sequence:
#
# PCOD9026404 Si02
#       5
#     2   2   2   2   2
#     4  10  22  41  64  90 125 172 221 261 319 400
#     4  11  24  43  68 104 135 165 222 279 327 395
#     4  10  22  42  67  95 130 176 222 262 326 410
#     4  11  24  42  64  97 131 167 224 279 322 381
#     4  10  23  44  68  94 136 184 214 269 335 390
#
# _framework density 23.158854999999999
#
# number of rings (size 3 to 8) (size 9 to 14) (size 15 to 20)
#    0.000    1.600    0.000    5.400    0.000   16.000 
#    0.000    8.000    0.000    0.000    0.000    0.000 
#    0.000    0.000    0.000    0.000    0.000    0.000 
#
# Total GULP energy -55928.158994 kJ/mol
# GULP energy per Si atom -5592.815899 kJ/mol
# Density = 2.310614 g / cm^3
# Si number density = 23.158855 Si / 1000 Ang^3
#
#
#
# Elastic Constant Matrix: (Units=GPa)
#
#
# Indices 1 2 3 4 5 6 
#
# 1 117.8267 52.0995 48.0068 1.0915 -0.6615 24.0247
# 2 52.0995 153.5211 47.8168 -2.9990 0.7187 25.7970
# 3 48.0068 47.8168 153.1085 15.0109 -20.8644 26.7681
# 4 1.0915 -2.9990 15.0109 58.9358 8.1768 -6.0332
# 5 -0.6615 0.7187 -20.8644 8.1768 40.2342 -1.0666
# 6 24.0247 25.7970 26.7681 -6.0332 -1.0666 49.2691
#
#
#
# Elastic Compliance Matrix: (Units=1/GPa)
#
#
# Indices 1 2 3 4 5 6 
#
# 1 0.011153 -0.002567 -0.002365 0.000129 -0.001098 -0.002817
# 2 -0.002567 0.008282 -0.001675 0.000860 -0.001289 -0.002097
# 3 -0.002365 -0.001675 0.009510 -0.003589 0.005560 -0.003456
# 4 0.000129 0.000860 -0.003589 0.019081 -0.005655 0.003651
# 5 -0.001098 -0.001289 0.005560 -0.005655 0.028842 -0.001879
# 6 -0.002817 -0.002097 -0.003456 0.003651 -0.001879 0.025052
#
#
# Mechanical properties :
#
#
# Convention : Reuss Voigt Hill
#
# Bulk Modulus (GPa) = 63.57152 80.03363 71.80257
# Shear Modulus (GPa) = 41.53600 48.12340 44.82970
#
# Velocity S-wave (km/s) = 4.23960 4.56342 4.40449
# Velocity P-wave (km/s) = 7.17463 7.89937 7.54571
#
# Compressibility (1/GPa) = 0.01573031
#
# Stress axis : x y z
#
# Youngs Moduli (GPa) = 89.66351 120.74582 105.15746
#
# Poissons Ratio (x) = 0.30998 0.24869
# Poissons Ratio (y) = 0.23018 0.17612
# Poissons Ratio (z) = 0.21205 0.20223
#
# Static dielectric constant tensor:
#      x y z
#    x 1.985790 -0.006160 0.025190 
#    y -0.006160 1.898140 -0.077040 
#    z 0.025190 -0.077040 1.926880 
# 
# From -- ./inp_files/54304.got.cif
#   From: 2010.05.17/outbox.cif.g08.bks.cpg/sg2_28_cif.got.tgz:54304.got - 2010.06.03 11:33:40.
