data_PCOD9026455
_publ_section_title
;
Structure prediction by ZEFSAII (Michael W. Deem and Ramdas Pophale) SiO2 
 PCOD9026455
Probable space group: P -1
;
_chemical_formula_sum "Si O2"
_cell_formula_units_Z 16
_cell_length_a 16.725399
_cell_length_b 13.542516
_cell_length_c 19.493251
_cell_angle_alpha 153.603616
_cell_angle_beta 28.335028
_cell_angle_gamma 131.443459
_cell_volume 745.555323
_symmetry_space_group_name_H-M "P -1"
_symmetry_group_IT_number 2
_symmetry_cell_setting 'triclinic'
loop_
_space_group_symop_operation_xyz
x,y,z
-x,-y,-z
loop_
_atom_site_type_symbol
_atom_site_label
_atom_site_fract_x
_atom_site_fract_y
_atom_site_fract_z
Si Si1 0.099007 0.131750 0.045292
Si Si2 0.364944 0.816285 0.921005
Si Si3 0.098420 0.676759 0.225609
Si Si4 0.432151 0.143101 0.714171
Si Si5 0.076226 0.665056 0.080251
Si Si6 0.063467 0.195597 0.269328
Si Si7 0.213163 0.316040 0.445376
Si Si8 0.286627 0.788017 0.367571
O O1 0.116547 0.071347 0.075147
O O2 0.926842 0.461624 0.369085
O O3 0.300449 0.071037 0.814536
O O4 0.000000 0.000000 0.000000
O O5 0.266920 0.649060 0.891205
O O6 0.290268 0.022925 0.171731
O O7 0.611807 0.651491 0.640650
O O8 0.266678 0.005788 0.045930
O O9 0.152807 0.576090 0.044303
O O10 0.923613 0.641734 0.360266
O O11 0.286271 0.472912 0.009664
O O12 0.000000 0.000000 0.500000
O O13 0.626515 0.075892 0.569212
O O14 0.500000 0.000000 0.500000
O O15 0.873489 0.991249 0.431566
O O16 0.000000 0.500000 0.000000
O O17 0.865992 0.233994 0.480928
O O18 0.000000 0.500000 0.500000
O O19 0.500000 0.500000 0.000000
#
# Coordination Sequence:
#
# PCOD9026455 Si02
#       8
#     2   2   2   2   2   2   2   2
#     4  11  24  42  65  95 131 168 212 263 324 385
#     4  10  22  41  64  92 127 163 216 262 319 374
#     4  11  22  40  67  92 125 169 218 261 316 387
#     4  11  24  42  63  93 131 166 211 262 319 381
#     4  11  24  42  64  93 130 168 212 269 324 380
#     4  11  22  40  66  92 127 169 214 264 318 382
#     4  10  22  41  64  93 125 165 214 269 308 383
#     4  11  24  40  63  95 130 165 212 267 316 378
#
# _framework density 21.460514
#
# number of rings (size 3 to 8) (size 9 to 14) (size 15 to 20)
#    0.000    1.250    2.500    3.000    3.500    9.000 
#    0.000    1.250    0.000    0.000    0.000    0.000 
#    0.000    0.000    0.000    0.000    0.000    0.000 
#
# Total GULP energy -89338.607140 kJ/mol
# GULP energy per Si atom -5583.662946 kJ/mol
# Density = 2.141167 g / cm^3
# Si number density = 21.460514 Si / 1000 Ang^3
#
#
#
# Elastic Constant Matrix: (Units=GPa)
#
#
# Indices 1 2 3 4 5 6 
#
# 1 105.8639 34.3318 7.1851 -14.3680 -4.4867 -4.6328
# 2 34.3318 91.5898 19.1360 -5.0483 -9.2761 0.5132
# 3 7.1851 19.1360 57.6506 -11.6621 -6.7886 -4.5140
# 4 -14.3680 -5.0483 -11.6621 25.4660 9.1313 -0.1452
# 5 -4.4867 -9.2761 -6.7886 9.1313 36.5565 -0.4461
# 6 -4.6328 0.5132 -4.5140 -0.1452 -0.4461 45.6504
#
#
#
# Elastic Compliance Matrix: (Units=1/GPa)
#
#
# Indices 1 2 3 4 5 6 
#
# 1 0.011720 -0.004423 0.001353 0.006759 -0.001104 0.001384
# 2 -0.004423 0.013605 -0.004273 -0.002763 0.002794 -0.001006
# 3 0.001353 -0.004273 0.020707 0.009174 0.000663 0.002269
# 4 0.006759 -0.002763 0.009174 0.050613 -0.010790 0.001680
# 5 -0.001104 0.002794 0.000663 -0.010790 0.030749 0.000188
# 6 0.001384 -0.001006 0.002269 0.001680 0.000188 0.022289
#
#
# Mechanical properties :
#
#
# Convention : Reuss Voigt Hill
#
# Bulk Modulus (GPa) = 31.90223 41.82333 36.86278
# Shear Modulus (GPa) = 28.60112 34.49801 31.54957
#
# Velocity S-wave (km/s) = 3.65462 4.01373 3.83838
# Velocity P-wave (km/s) = 5.71893 6.40397 6.07112
#
# Compressibility (1/GPa) = 0.03134578
#
# Stress axis : x y z
#
# Youngs Moduli (GPa) = 85.32691 73.50119 48.29223
#
# Poissons Ratio (x) = 0.32507 -0.06534
# Poissons Ratio (y) = 0.37738 0.20637
# Poissons Ratio (z) = -0.11544 0.31410
#
# Static dielectric constant tensor:
#      x y z
#    x 1.745600 0.003460 0.011480 
#    y 0.003460 1.751810 0.043850 
#    z 0.011480 0.043850 1.858850 
# 
# From -- ./inp_files/298547.got.cif
#   From: 2010.05.17/outbox.cif.g08.bks.cpg/sg2_150_cif.got.tgz:298547.got - 2010.06.03 11:33:40.
