data_PCOD9026953
_publ_section_title
;
Structure prediction by ZEFSAII (Michael W. Deem and Ramdas Pophale) SiO2 
 PCOD9026953
Probable space group: P -1
;
_chemical_formula_sum "Si O2"
_cell_formula_units_Z 16
_cell_length_a 14.971210
_cell_length_b 23.601159
_cell_length_c 18.041467
_cell_angle_alpha 161.028546
_cell_angle_beta 160.251706
_cell_angle_gamma 29.290502
_cell_volume 690.871546
_symmetry_space_group_name_H-M "P -1"
_symmetry_group_IT_number 2
_symmetry_cell_setting 'triclinic'
loop_
_space_group_symop_operation_xyz
x,y,z
-x,-y,-z
loop_
_atom_site_type_symbol
_atom_site_label
_atom_site_fract_x
_atom_site_fract_y
_atom_site_fract_z
Si Si1 0.422314 0.125306 0.264847
Si Si2 0.979079 0.596175 0.368261
Si Si3 0.532155 0.325044 0.737783
Si Si4 0.186622 0.229325 0.693775
Si Si5 0.367140 0.855515 0.776680
Si Si6 0.531361 0.580969 0.463452
Si Si7 0.945555 0.187780 0.161117
Si Si8 0.208960 0.890773 0.215749
O O1 0.567571 0.185688 0.528515
O O2 0.483662 0.281019 0.444640
O O3 0.107072 0.111751 0.019975
O O4 0.480853 0.941989 0.050113
O O5 0.955442 0.698296 0.399936
O O6 0.164727 0.446922 0.319725
O O7 0.107847 0.710855 0.680504
O O8 0.678435 0.510446 0.050624
O O9 0.219746 0.302791 0.484959
O O10 0.686990 0.268101 0.858517
O O11 0.950676 0.153277 0.472507
O O12 0.329002 0.074114 0.577850
O O13 0.365357 0.394256 0.077259
O O14 0.424732 0.668625 0.561564
O O15 0.500000 0.000000 0.000000
O O16 0.759269 0.139614 0.884327
O O17 0.000000 0.000000 0.000000
#
# Coordination Sequence:
#
# PCOD9026953 Si02
#       8
#     2   2   2   2   2   2   2   2
#     4   9  19  41  64  92 128 163 207 264 311 379
#     4  12  25  42  64  97 130 167 213 266 318 378
#     4  11  23  42  68  91 129 171 216 259 323 377
#     4  11  23  40  68  94 133 166 205 267 323 371
#     4   9  21  42  67  94 129 169 209 260 320 382
#     4  11  22  40  66  94 129 164 213 262 320 375
#     4  11  25  43  63  95 132 167 217 268 311 377
#     4  10  22  41  66  92 123 171 214 255 320 380
#
# _framework density 23.159153
#
# number of rings (size 3 to 8) (size 9 to 14) (size 15 to 20)
#    0.000    1.500    3.750    0.750    1.750    2.500 
#    0.000    3.125    0.000    0.000    0.000    0.000 
#    0.000    0.000    0.000    0.000    0.000    0.000 
#
# Total GULP energy -89381.833718 kJ/mol
# GULP energy per Si atom -5586.364607 kJ/mol
# Density = 2.310644 g / cm^3
# Si number density = 23.159153 Si / 1000 Ang^3
#
#
#
# Elastic Constant Matrix: (Units=GPa)
#
#
# Indices 1 2 3 4 5 6 
#
# 1 103.0748 25.0180 39.4566 2.5315 -11.6914 -20.5680
# 2 25.0180 38.8294 -3.7845 2.7910 2.4034 -2.5480
# 3 39.4566 -3.7845 120.0718 13.5681 0.8016 -14.0486
# 4 2.5315 2.7910 13.5681 22.2757 -3.5757 -7.4354
# 5 -11.6914 2.4034 0.8016 -3.5757 48.9251 6.9109
# 6 -20.5680 -2.5480 -14.0486 -7.4354 6.9109 43.9385
#
#
#
# Elastic Compliance Matrix: (Units=1/GPa)
#
#
# Indices 1 2 3 4 5 6 
#
# 1 0.015930 -0.011106 -0.005605 0.005419 0.004092 0.005294
# 2 -0.011106 0.034146 0.005390 -0.007743 -0.004693 -0.002067
# 3 -0.005605 0.005390 0.011210 -0.007098 -0.002369 0.000444
# 4 0.005419 -0.007743 -0.007098 0.052991 0.004524 0.008074
# 5 0.004092 -0.004693 -0.002369 0.004524 0.022279 -0.001853
# 6 0.005294 -0.002067 0.000444 0.008074 -0.001853 0.026917
#
#
# Mechanical properties :
#
#
# Convention : Reuss Voigt Hill
#
# Bulk Modulus (GPa) = 25.87678 42.59511 34.23594
# Shear Modulus (GPa) = 25.12596 36.44691 30.78643
#
# Velocity S-wave (km/s) = 3.29739 3.97137 3.64997
# Velocity P-wave (km/s) = 5.06900 6.28182 5.70772
#
# Compressibility (1/GPa) = 0.03864469
#
# Stress axis : x y z
#
# Youngs Moduli (GPa) = 62.77281 29.28604 89.20542
#
# Poissons Ratio (x) = 0.32525 0.50001
# Poissons Ratio (y) = 0.69714 -0.48082
# Poissons Ratio (z) = 0.35185 -0.15785
#
# Static dielectric constant tensor:
#      x y z
#    x 1.895090 -0.049590 0.003350 
#    y -0.049590 1.817240 0.019820 
#    z 0.003350 0.019820 1.932630 
# 
# From -- ./inp_files/38447.got.cif
#   From: 2010.05.17/outbox.cif.g08.bks.cpg/sg2_20_cif.got.tgz:38447.got - 2010.06.03 11:33:40.
