data_PCOD9026818
_publ_section_title
;
Structure prediction by ZEFSAII (Michael W. Deem and Ramdas Pophale) SiO2 
 PCOD9026818
Probable space group: P -1
;
_chemical_formula_sum "Si O2"
_cell_formula_units_Z 13
_cell_length_a 8.135165
_cell_length_b 11.431446
_cell_length_c 8.483715
_cell_angle_alpha 107.970113
_cell_angle_beta 60.921044
_cell_angle_gamma 120.176359
_cell_volume 593.911963
_symmetry_space_group_name_H-M "P -1"
_symmetry_group_IT_number 2
_symmetry_cell_setting 'triclinic'
loop_
_space_group_symop_operation_xyz
x,y,z
-x,-y,-z
loop_
_atom_site_type_symbol
_atom_site_label
_atom_site_fract_x
_atom_site_fract_y
_atom_site_fract_z
Si Si1 0.296061 0.790924 0.183329
Si Si2 0.061850 0.446615 0.606428
Si Si3 0.260215 0.681390 0.818132
Si Si4 0.337516 0.301788 0.944797
Si Si5 0.407213 0.952037 0.695711
Si Si6 0.000000 0.000000 0.000000
Si Si7 0.545847 0.539838 0.731674
O O1 0.464796 0.733391 0.130117
O O2 0.095371 0.706475 0.346283
O O3 0.411948 0.950912 0.228771
O O4 0.229345 0.754528 0.018607
O O5 0.069841 0.547502 0.786875
O O6 0.292005 0.461407 0.472462
O O7 0.000000 0.500000 0.500000
O O8 0.345776 0.794615 0.690356
O O9 0.432766 0.630607 0.766237
O O10 0.384103 0.391608 0.802977
O O11 0.332671 0.391341 0.134750
O O12 0.132254 0.164533 0.981103
O O13 0.500000 0.000000 0.500000
O O14 0.204387 0.977667 0.832160
#
# Coordination Sequence:
#
# PCOD9026818 Si02
#       7
#     2   2   2   2   2   1   2
#     4  10  22  43  64  97 136 177 222 282 339 404
#     4  12  23  39  68 102 132 179 231 276 336 409
#     4  11  25  43  66  97 139 179 220 289 344 402
#     4   9  20  40  66  94 135 179 218 276 340 402
#     4  11  25  46  71  99 137 179 235 280 343 412
#     4  10  24  40  70  98 132 180 228 270 342 400
#     4  10  22  41  65  97 140 172 226 278 338 404
#
# _framework density 21.888766
#
# number of rings (size 3 to 8) (size 9 to 14) (size 15 to 20)
#    0.000    1.538    1.538    2.308    6.462    1.231 
#    2.769    0.769    0.000    0.000    0.000    0.000 
#    0.000    0.000    0.000    0.000    0.000    0.000 
#
# Total GULP energy -72444.151042 kJ/mol
# GULP energy per Si atom -5572.627003 kJ/mol
# Density = 2.183895 g / cm^3
# Si number density = 21.888766 Si / 1000 Ang^3
#
#
#
# Elastic Constant Matrix: (Units=GPa)
#
#
# Indices 1 2 3 4 5 6 
#
# 1 57.4269 5.6752 26.5003 -6.9381 -6.9555 -2.4863
# 2 5.6752 124.5163 26.4552 -30.1332 -16.5387 10.7583
# 3 26.5003 26.4552 83.7255 -26.0783 -7.7334 16.1410
# 4 -6.9381 -30.1332 -26.0783 40.9590 5.4866 2.1514
# 5 -6.9555 -16.5387 -7.7334 5.4866 18.1893 -10.2927
# 6 -2.4863 10.7583 16.1410 2.1514 -10.2927 27.4215
#
#
#
# Elastic Compliance Matrix: (Units=1/GPa)
#
#
# Indices 1 2 3 4 5 6 
#
# 1 0.024133 0.000732 -0.010790 -0.004980 0.014854 0.014219
# 2 0.000732 0.010857 -0.000489 0.006998 0.006745 -0.001923
# 3 -0.010790 -0.000489 0.022874 0.014749 -0.010174 -0.019227
# 4 -0.004980 0.006998 0.014749 0.040880 -0.012873 -0.019918
# 5 0.014854 0.006745 -0.010174 -0.012873 0.088335 0.038856
# 6 0.014219 -0.001923 -0.019227 -0.019918 0.038856 0.065976
#
#
# Mechanical properties :
#
#
# Convention : Reuss Voigt Hill
#
# Bulk Modulus (GPa) = 27.19579 42.54779 34.87179
# Shear Modulus (GPa) = 17.45759 31.11647 24.28703
#
# Velocity S-wave (km/s) = 2.82717 3.77447 3.33463
# Velocity P-wave (km/s) = 4.80715 6.20289 5.54908
#
# Compressibility (1/GPa) = 0.03677040
#
# Stress axis : x y z
#
# Youngs Moduli (GPa) = 41.43631 92.10594 43.71689
#
# Poissons Ratio (x) = -0.06741 0.47171
# Poissons Ratio (y) = -0.03032 0.02138
# Poissons Ratio (z) = 0.44710 0.04504
#
# Static dielectric constant tensor:
#      x y z
#    x 1.831340 0.013020 0.028940 
#    y 0.013020 1.786120 0.036920 
#    z 0.028940 0.036920 1.803250 
# 
# From -- ./inp_files/175248.got.cif
#   From: 2010.05.17/outbox.cif.g08.bks.cpg/sg2_88_cif.got.tgz:175248.got - 2010.06.03 11:33:40.
