data_PCOD9026232
_publ_section_title
;
Structure prediction by ZEFSAII (Michael W. Deem and Ramdas Pophale) SiO2 
 PCOD9026232
Probable space group: P -1
;
_chemical_formula_sum "Si O2"
_cell_formula_units_Z 16
_cell_length_a 12.581377
_cell_length_b 12.635187
_cell_length_c 12.231430
_cell_angle_alpha 81.608985
_cell_angle_beta 51.342668
_cell_angle_gamma 123.084782
_cell_volume 849.772677
_symmetry_space_group_name_H-M "P -1"
_symmetry_group_IT_number 2
_symmetry_cell_setting 'triclinic'
loop_
_space_group_symop_operation_xyz
x,y,z
-x,-y,-z
loop_
_atom_site_type_symbol
_atom_site_label
_atom_site_fract_x
_atom_site_fract_y
_atom_site_fract_z
Si Si1 0.731801 0.969841 0.108086
Si Si2 0.840026 0.636937 0.883901
Si Si3 0.627242 0.166364 0.811398
Si Si4 0.733131 0.612898 0.268744
Si Si5 0.157713 0.462211 0.340801
Si Si6 0.633359 0.972449 0.421314
Si Si7 0.234674 0.576161 0.842385
Si Si8 0.410764 0.349444 0.852645
O O1 0.558850 0.933257 0.153046
O O2 0.661521 0.939565 0.286058
O O3 0.694031 0.828466 0.101310
O O4 0.013834 0.178071 0.884569
O O5 0.841347 0.590952 0.769300
O O6 0.757329 0.486515 0.041148
O O7 0.695570 0.656153 0.974585
O O8 0.103743 0.837779 0.728434
O O9 0.704258 0.333105 0.785351
O O10 0.884147 0.293673 0.582028
O O11 0.500000 0.000000 0.000000
O O12 0.500000 0.500000 0.500000
O O13 0.774566 0.514449 0.238141
O O14 0.667263 0.616844 0.192790
O O15 0.312344 0.494773 0.324020
O O16 0.474156 0.797377 0.630412
O O17 0.500000 0.000000 0.500000
O O18 0.000000 0.500000 0.000000
#
# Coordination Sequence:
#
# PCOD9026232 Si02
#       8
#     2   2   2   2   2   2   2   2
#     4  11  22  41  65  94 127 168 214 265 321 375
#     4  11  23  41  62  93 127 165 211 258 317 383
#     4  10  24  43  66  93 124 165 212 262 310 380
#     4  11  23  37  64  97 127 167 212 268 319 377
#     4  10  23  43  65  91 125 169 210 255 317 376
#     4  12  22  39  62  93 129 163 208 263 322 370
#     4  11  23  39  60  93 129 166 210 262 317 380
#     4  10  22  41  63  89 126 168 209 260 315 381
#
# _framework density 18.828564
#
# number of rings (size 3 to 8) (size 9 to 14) (size 15 to 20)
#    0.000    1.250    3.750    2.250    3.500    3.000 
#    0.000    0.000    0.000    4.500    0.000    0.000 
#    0.000    0.000    0.000    0.000    0.000    0.000 
#
# Total GULP energy -89178.957989 kJ/mol
# GULP energy per Si atom -5573.684874 kJ/mol
# Density = 1.878571 g / cm^3
# Si number density = 18.828564 Si / 1000 Ang^3
#
#
#
# Elastic Constant Matrix: (Units=GPa)
#
#
# Indices 1 2 3 4 5 6 
#
# 1 80.0878 47.4610 43.8744 -23.6346 -31.6167 3.2852
# 2 47.4610 117.9932 65.3972 15.2395 -5.5417 4.6841
# 3 43.8744 65.3972 131.4969 -15.4120 -19.1886 0.4729
# 4 -23.6346 15.2395 -15.4120 13.8984 -24.9975 -2.8633
# 5 -31.6167 -5.5417 -19.1886 -24.9975 25.1920 4.0323
# 6 3.2852 4.6841 0.4729 -2.8633 4.0323 32.9707
#
#
#
# Elastic Compliance Matrix: (Units=1/GPa)
#
#
# Indices 1 2 3 4 5 6 
#
# 1 0.007077 0.002077 -0.006349 -0.013887 -0.009117 -0.001000
# 2 0.002077 0.008940 -0.002986 0.006734 0.009299 -0.001987
# 3 -0.006349 -0.002986 0.010277 -0.002993 -0.003948 0.001132
# 4 -0.013887 0.006734 -0.002993 -0.005871 -0.024527 0.002960
# 5 -0.009117 0.009299 -0.003948 -0.024527 0.003419 -0.002904
# 6 -0.001000 -0.001987 0.001132 0.002960 -0.002904 0.031308
#
#
# Mechanical properties :
#
#
# Convention : Reuss Voigt Hill
#
# Bulk Modulus (GPa) = 84.89449 71.44924 78.17187
# Shear Modulus (GPa) = 67.94171 25.93522 46.93847
#
# Velocity S-wave (km/s) = 6.01354 3.71541 4.99835
# Velocity P-wave (km/s) = 9.66452 7.51235 8.65559
#
# Compressibility (1/GPa) = 0.01177933
#
# Stress axis : x y z
#
# Youngs Moduli (GPa) = 141.30389 111.85071 97.30305
#
# Poissons Ratio (x) = -0.23235 0.61776
# Poissons Ratio (y) = -0.29353 0.29056
# Poissons Ratio (z) = 0.89711 0.33401
#
# Static dielectric constant tensor:
#      x y z
#    x 1.653490 -0.096890 -0.048330 
#    y -0.096890 1.326130 -0.364050 
#    z -0.048330 -0.364050 1.248600 
# 
# From -- ./inp_files/427891.got.cif
#   From: 2010.05.17/outbox.cif.g08.bks.cpg/sg2_214_cif.got.tgz:427891.got - 2010.06.03 11:33:40.
