data_PCOD9026783
_publ_section_title
;
Structure prediction by ZEFSAII (Michael W. Deem and Ramdas Pophale) SiO2 
 PCOD9026783
Probable space group: P -1
;
_chemical_formula_sum "Si O2"
_cell_formula_units_Z 16
_cell_length_a 11.651363
_cell_length_b 14.914120
_cell_length_c 29.349869
_cell_angle_alpha 27.455644
_cell_angle_beta 159.329263
_cell_angle_gamma 152.560876
_cell_volume 776.998760
_symmetry_space_group_name_H-M "P -1"
_symmetry_group_IT_number 2
_symmetry_cell_setting 'triclinic'
loop_
_space_group_symop_operation_xyz
x,y,z
-x,-y,-z
loop_
_atom_site_type_symbol
_atom_site_label
_atom_site_fract_x
_atom_site_fract_y
_atom_site_fract_z
Si Si1 0.124326 0.881228 0.061061
Si Si2 0.139623 0.471831 0.678279
Si Si3 0.172974 0.068416 0.350212
Si Si4 0.456117 0.445322 0.715489
Si Si5 0.915565 0.809772 0.830114
Si Si6 0.910229 0.702293 0.972731
Si Si7 0.339807 0.314251 0.629979
Si Si8 0.512839 0.720388 0.042286
O O1 0.289924 0.719153 0.217289
O O2 0.844584 0.767619 0.969354
O O3 0.392613 0.070438 0.045985
O O4 0.000000 0.000000 0.000000
O O5 0.186206 0.399082 0.677420
O O6 0.514914 0.657263 0.742434
O O7 0.161128 0.306641 0.798198
O O8 0.818415 0.555468 0.521019
O O9 0.299115 0.311139 0.299120
O O10 0.026122 0.028661 0.261996
O O11 0.500000 0.000000 0.500000
O O12 0.921826 0.923315 0.359432
O O13 0.311969 0.401827 0.630705
O O14 0.714796 0.320355 0.874873
O O15 0.936782 0.855701 0.870786
O O16 0.213902 0.714811 0.970505
O O17 0.646106 0.479018 0.959428
#
# Coordination Sequence:
#
# PCOD9026783 Si02
#       8
#     2   2   2   2   2   2   2   2
#     4  11  26  41  56  78 104 149 208 234 257 316
#     4  10  18  31  54  87 115 140 167 216 284 347
#     4  11  19  29  48  84 121 148 165 208 274 344
#     4  10  18  30  49  81 118 142 174 202 268 354
#     4  10  17  31  56  87 118 139 171 215 277 355
#     4  10  19  36  59  83 111 143 178 228 282 328
#     4  11  21  34  53  76 112 151 176 225 272 315
#     4  11  19  37  59  81 116 144 172 230 280 328
#
# _framework density 20.592054999999998
#
# number of rings (size 3 to 8) (size 9 to 14) (size 15 to 20)
#    0.000    1.500    7.500    1.125    0.000    2.000 
#    0.000    0.625    0.000    3.000    0.000    0.000 
#    0.000    0.000    0.000    0.000    0.000    0.000 
#
# Total GULP energy -89135.480924 kJ/mol
# GULP energy per Si atom -5570.967558 kJ/mol
# Density = 2.054519 g / cm^3
# Si number density = 20.592055 Si / 1000 Ang^3
#
#
#
# Elastic Constant Matrix: (Units=GPa)
#
#
# Indices 1 2 3 4 5 6 
#
# 1 59.6016 14.9559 38.3736 -3.2208 -2.1490 -33.5058
# 2 14.9559 61.4959 4.3067 -2.0285 -4.4621 -18.2022
# 3 38.3736 4.3067 148.1106 -13.8760 -26.5900 -15.9007
# 4 -3.2208 -2.0285 -13.8760 14.6105 -0.1944 1.2465
# 5 -2.1490 -4.4621 -26.5900 -0.1944 17.8770 -3.1032
# 6 -33.5058 -18.2022 -15.9007 1.2465 -3.1032 27.8483
#
#
#
# Elastic Compliance Matrix: (Units=1/GPa)
#
#
# Indices 1 2 3 4 5 6 
#
# 1 0.066706 0.011561 -0.004173 0.005154 0.019929 0.087422
# 2 0.011561 0.025140 0.004331 0.007457 0.020216 0.034734
# 3 -0.004173 0.004331 0.013699 0.012343 0.022404 0.007576
# 4 0.005154 0.007457 0.012343 0.081196 0.024716 0.017242
# 5 0.019929 0.020216 0.022404 0.024716 0.107536 0.060860
# 6 0.087422 0.034734 0.007576 0.017242 0.060860 0.174129
#
#
# Mechanical properties :
#
#
# Convention : Reuss Voigt Hill
#
# Bulk Modulus (GPa) = 7.75297 42.72005 25.23651
# Shear Modulus (GPa) = 10.24670 26.17195 18.20933
#
# Velocity S-wave (km/s) = 2.23313 3.56894 2.97693
# Velocity P-wave (km/s) = 3.22836 6.14606 4.90899
#
# Compressibility (1/GPa) = 0.12898277
#
# Stress axis : x y z
#
# Youngs Moduli (GPa) = 14.99112 39.77744 72.99966
#
# Poissons Ratio (x) = -0.45988 0.30461
# Poissons Ratio (y) = -0.17332 -0.31613
# Poissons Ratio (z) = 0.06256 -0.17226
#
# Static dielectric constant tensor:
#      x y z
#    x 1.149420 -0.492940 -0.533050 
#    y -0.492940 1.427310 -0.417170 
#    z -0.533050 -0.417170 1.358270 
# 
# From -- ./inp_files/457754.got.cif
#   From: 2010.05.17/outbox.cif.g08.bks.cpg/sg2_229_cif.got.tgz:457754.got - 2010.06.03 11:33:40.
