data_PCOD9026345
_publ_section_title
;
Structure prediction by ZEFSAII (Michael W. Deem and Ramdas Pophale) SiO2 
 PCOD9026345
Probable space group: P -1
;
_chemical_formula_sum "Si O2"
_cell_formula_units_Z 12
_cell_length_a 17.959072
_cell_length_b 4.975407
_cell_length_c 9.675754
_cell_angle_alpha 82.483924
_cell_angle_beta 41.874087
_cell_angle_gamma 101.532332
_cell_volume 511.138543
_symmetry_space_group_name_H-M "P -1"
_symmetry_group_IT_number 2
_symmetry_cell_setting 'triclinic'
loop_
_space_group_symop_operation_xyz
x,y,z
-x,-y,-z
loop_
_atom_site_type_symbol
_atom_site_label
_atom_site_fract_x
_atom_site_fract_y
_atom_site_fract_z
Si Si1 0.530395 0.324578 0.771231
Si Si2 0.377253 0.646857 0.048670
Si Si3 0.957920 0.005129 0.901834
Si Si4 0.094484 0.307065 0.427426
Si Si5 0.842946 0.387532 0.949738
Si Si6 0.411050 0.663317 0.601312
O O1 0.594946 0.340961 0.826990
O O2 0.620535 0.365973 0.516159
O O3 0.477079 0.568464 0.837614
O O4 0.411527 0.993236 0.940957
O O5 0.239919 0.382952 0.230767
O O6 0.053244 0.263065 0.647871
O O7 0.841659 0.089091 0.040314
O O8 0.932892 0.684926 0.891432
O O9 0.000000 0.000000 0.000000
O O10 0.111581 0.573662 0.275462
O O11 0.000000 0.000000 0.500000
O O12 0.713620 0.411260 0.136456
O O13 0.500000 0.500000 0.500000
O O14 0.500000 0.000000 0.500000
#
# Coordination Sequence:
#
# PCOD9026345 Si02
#       6
#     2   2   2   2   2   2
#     4  10  22  41  63  98 128 175 217 273 333 398
#     4  10  22  41  66  93 134 169 223 272 334 398
#     4  11  25  44  65  96 130 174 223 275 332 388
#     4  10  23  43  69  97 132 179 225 278 335 403
#     4  11  24  43  66  96 133 172 222 270 331 400
#     4  12  24  40  67  97 136 173 220 271 337 399
#
# _framework density 23.477003
#
# number of rings (size 3 to 8) (size 9 to 14) (size 15 to 20)
#    0.000    1.333    0.000    5.000    2.333    6.667 
#    6.000    0.000    0.000    0.000    0.000    0.000 
#    0.000    0.000    0.000    0.000    0.000    0.000 
#
# Total GULP energy -66970.478698 kJ/mol
# GULP energy per Si atom -5580.873225 kJ/mol
# Density = 2.342357 g / cm^3
# Si number density = 23.477003 Si / 1000 Ang^3
#
#
#
# Elastic Constant Matrix: (Units=GPa)
#
#
# Indices 1 2 3 4 5 6 
#
# 1 106.6672 31.1114 51.1480 7.5912 24.5149 0.4312
# 2 31.1114 114.6764 15.5964 10.8675 7.6510 -10.2819
# 3 51.1480 15.5964 127.2802 19.2827 21.3146 17.2672
# 4 7.5912 10.8675 19.2827 33.9602 13.0716 -1.4191
# 5 24.5149 7.6510 21.3146 13.0716 36.6894 2.8039
# 6 0.4312 -10.2819 17.2672 -1.4191 2.8039 43.4440
#
#
#
# Elastic Compliance Matrix: (Units=1/GPa)
#
#
# Indices 1 2 3 4 5 6 
#
# 1 0.013900 -0.002808 -0.004761 0.003359 -0.007260 0.001668
# 2 -0.002808 0.009908 -0.000103 -0.002633 0.000633 0.002287
# 3 -0.004761 -0.000103 0.011383 -0.005076 -0.001251 -0.004587
# 4 0.003359 -0.002633 -0.005076 0.037292 -0.012290 0.003373
# 5 -0.007260 0.000633 -0.001251 -0.012290 0.037240 -0.002086
# 6 0.001668 0.002287 -0.004587 0.003373 -0.002086 0.025611
#
#
# Mechanical properties :
#
#
# Convention : Reuss Voigt Hill
#
# Bulk Modulus (GPa) = 50.38461 60.48171 55.43316
# Shear Modulus (GPa) = 31.78771 39.53657 35.66214
#
# Velocity S-wave (km/s) = 3.68366 4.10818 3.90169
# Velocity P-wave (km/s) = 6.29288 6.95132 6.63028
#
# Compressibility (1/GPa) = 0.01984733
#
# Stress axis : x y z
#
# Youngs Moduli (GPa) = 71.94455 100.92568 87.84741
#
# Poissons Ratio (x) = 0.28338 0.41824
# Poissons Ratio (y) = 0.20201 0.00907
# Poissons Ratio (z) = 0.34252 0.01042
#
# Static dielectric constant tensor:
#      x y z
#    x 1.984070 -0.049700 -0.032140 
#    y -0.049700 1.865030 0.053180 
#    z -0.032140 0.053180 1.997810 
# 
# From -- ./inp_files/107985.got.cif
#   From: 2010.05.17/outbox.cif.g08.bks.cpg/sg2_54_cif.got.tgz:107985.got - 2010.06.03 11:33:40.
