data_PCOD9026874
_publ_section_title
;
Structure prediction by ZEFSAII (Michael W. Deem and Ramdas Pophale) SiO2 
 PCOD9026874
Probable space group: P -1
;
_chemical_formula_sum "Si O2"
_cell_formula_units_Z 16
_cell_length_a 17.427974
_cell_length_b 12.191366
_cell_length_c 8.848324
_cell_angle_alpha 130.297593
_cell_angle_beta 120.292071
_cell_angle_gamma 31.515947
_cell_volume 744.322995
_symmetry_space_group_name_H-M "P -1"
_symmetry_group_IT_number 2
_symmetry_cell_setting 'triclinic'
loop_
_space_group_symop_operation_xyz
x,y,z
-x,-y,-z
loop_
_atom_site_type_symbol
_atom_site_label
_atom_site_fract_x
_atom_site_fract_y
_atom_site_fract_z
Si Si1 0.123801 0.462012 0.081556
Si Si2 0.611297 0.317493 0.586059
Si Si3 0.046727 0.184651 0.542743
Si Si4 0.126490 0.402570 0.700123
Si Si5 0.087447 0.742400 0.819688
Si Si6 0.562746 0.964688 0.867832
Si Si7 0.429127 0.907948 0.471520
Si Si8 0.414460 0.405152 0.948799
O O1 0.262497 0.245462 0.128862
O O2 0.036761 0.707562 0.284325
O O3 0.179072 0.398807 0.909587
O O4 0.000000 0.500000 0.000000
O O5 0.500000 0.500000 0.500000
O O6 0.581204 0.193217 0.493731
O O7 0.787472 0.091782 0.523742
O O8 0.591090 0.437081 0.826634
O O9 0.059719 0.332986 0.619106
O O10 0.942556 0.239229 0.370207
O O11 0.038385 0.652157 0.765464
O O12 0.265538 0.186755 0.539346
O O13 0.253297 0.559778 0.875267
O O14 0.000000 0.000000 0.000000
O O15 0.529460 0.903449 0.638019
O O16 0.483391 0.214073 0.972828
O O17 0.500000 0.000000 0.000000
O O18 0.486536 0.752062 0.241783
#
# Coordination Sequence:
#
# PCOD9026874 Si02
#       8
#     2   2   2   2   2   2   2   2
#     4  10  22  41  66 101 129 166 228 275 326 387
#     4  11  25  46  66  94 136 177 220 278 336 396
#     4  10  23  43  67  94 130 175 221 269 331 394
#     4  10  22  42  66  94 129 173 217 272 323 389
#     4  12  23  44  62  94 137 171 214 270 339 393
#     4  12  22  41  72  98 133 175 225 279 329 392
#     4  11  23  42  66  98 128 170 233 266 326 398
#     4  12  25  41  68  97 131 177 220 278 332 395
#
# _framework density 21.496046
#
# number of rings (size 3 to 8) (size 9 to 14) (size 15 to 20)
#    0.000    1.000    3.750    2.625    5.250    0.000 
#    4.500    0.625    0.000    0.000    0.000    0.000 
#    0.000    0.000    0.000    0.000    0.000    0.000 
#
# Total GULP energy -89225.458753 kJ/mol
# GULP energy per Si atom -5576.591172 kJ/mol
# Density = 2.144712 g / cm^3
# Si number density = 21.496046 Si / 1000 Ang^3
#
#
#
# Elastic Constant Matrix: (Units=GPa)
#
#
# Indices 1 2 3 4 5 6 
#
# 1 31.6100 19.8730 5.6128 10.6207 -2.0102 -5.1959
# 2 19.8730 93.7600 23.4085 14.8643 -2.3250 -3.9040
# 3 5.6128 23.4085 135.4441 7.0910 -6.2382 -9.8891
# 4 10.6207 14.8643 7.0910 39.4288 -2.9161 3.9735
# 5 -2.0102 -2.3250 -6.2382 -2.9161 30.5982 2.0907
# 6 -5.1959 -3.9040 -9.8891 3.9735 2.0907 33.2052
#
#
#
# Elastic Compliance Matrix: (Units=1/GPa)
#
#
# Indices 1 2 3 4 5 6 
#
# 1 0.040008 -0.006908 0.000525 -0.008865 0.000914 0.006608
# 2 -0.006908 0.013026 -0.001808 -0.002758 -0.000112 0.000249
# 3 0.000525 -0.001808 0.007952 -0.001026 0.001265 0.002281
# 4 -0.008865 -0.002758 -0.001026 0.029715 0.002221 -0.005713
# 5 0.000914 -0.000112 0.001265 0.002221 0.033330 -0.001858
# 6 0.006608 0.000249 0.002281 -0.005713 -0.001858 0.032659
#
#
# Mechanical properties :
#
#
# Convention : Reuss Voigt Hill
#
# Bulk Modulus (GPa) = 22.41899 39.84474 31.13187
# Shear Modulus (GPa) = 26.60436 34.77443 30.68939
#
# Velocity S-wave (km/s) = 3.52183 4.02644 3.78256
# Velocity P-wave (km/s) = 5.19516 6.33975 5.79578
#
# Compressibility (1/GPa) = 0.04460504
#
# Stress axis : x y z
#
# Youngs Moduli (GPa) = 24.99488 76.77065 125.74971
#
# Poissons Ratio (x) = 0.53031 -0.06596
# Poissons Ratio (y) = 0.17266 0.22730
# Poissons Ratio (z) = -0.01311 0.13876
#
# Static dielectric constant tensor:
#      x y z
#    x 1.788830 0.009730 -0.038430 
#    y 0.009730 1.769510 0.007860 
#    z -0.038430 0.007860 1.875450 
# 
# From -- ./inp_files/333798.got.cif
#   From: 2010.05.17/outbox.cif.g08.bks.cpg/sg2_167_cif.got.tgz:333798.got - 2010.06.03 11:33:40.
