data_PCOD9026761
_publ_section_title
;
Structure prediction by ZEFSAII (Michael W. Deem and Ramdas Pophale) SiO2 
 PCOD9026761
Probable space group: P -1
;
_chemical_formula_sum "Si O2"
_cell_formula_units_Z 16
_cell_length_a 12.691767
_cell_length_b 12.938667
_cell_length_c 14.455729
_cell_angle_alpha 133.010565
_cell_angle_beta 149.122491
_cell_angle_gamma 33.973902
_cell_volume 677.144463
_symmetry_space_group_name_H-M "P -1"
_symmetry_group_IT_number 2
_symmetry_cell_setting 'triclinic'
loop_
_space_group_symop_operation_xyz
x,y,z
-x,-y,-z
loop_
_atom_site_type_symbol
_atom_site_label
_atom_site_fract_x
_atom_site_fract_y
_atom_site_fract_z
Si Si1 0.060461 0.960129 0.740445
Si Si2 0.751666 0.455754 0.611673
Si Si3 0.597193 0.177795 0.652899
Si Si4 0.877237 0.480827 0.113668
Si Si5 0.254811 0.048166 0.784494
Si Si6 0.786476 0.883211 0.748136
Si Si7 0.619260 0.436089 0.290458
Si Si8 0.476965 0.103435 0.829072
O O1 0.143077 0.760859 0.696478
O O2 0.146284 0.957233 0.697590
O O3 0.258508 0.966146 0.956730
O O4 0.760108 0.128761 0.649820
O O5 0.500000 0.500000 0.500000
O O6 0.708773 0.434476 0.459576
O O7 0.847991 0.576121 0.756361
O O8 0.006956 0.266185 0.735121
O O9 0.356957 0.175890 0.454495
O O10 0.464857 0.381456 0.710314
O O11 0.814456 0.007396 0.780234
O O12 0.733738 0.671580 0.180621
O O13 0.961321 0.306108 0.129227
O O14 0.651890 0.538064 0.903954
O O15 0.353234 0.020852 0.736583
O O16 0.500000 0.000000 0.000000
O O17 0.573119 0.026343 0.752765
#
# Coordination Sequence:
#
# PCOD9026761 Si02
#       8
#     2   2   2   2   2   2   2   2
#     4  10  22  41  65  95 132 174 220 273 333 400
#     4  11  23  40  67 101 138 179 230 276 335 408
#     4  11  25  42  64 101 131 173 232 278 339 401
#     4  10  23  43  66  97 135 174 222 278 342 398
#     4   9  20  40  66  99 135 174 222 273 332 402
#     4  11  24  42  68  94 134 177 222 287 336 399
#     4  11  24  43  66  96 136 174 223 282 333 406
#     4   9  21  41  66  95 130 174 222 271 333 400
#
# _framework density 23.628636
#
# number of rings (size 3 to 8) (size 9 to 14) (size 15 to 20)
#    0.000    1.750    1.250    2.250    3.500    6.000 
#    0.000    6.250    0.000    0.000    0.000    0.000 
#    0.000    0.000    0.000    0.000    0.000    0.000 
#
# Total GULP energy -89375.046082 kJ/mol
# GULP energy per Si atom -5585.940380 kJ/mol
# Density = 2.357486 g / cm^3
# Si number density = 23.628636 Si / 1000 Ang^3
#
#
#
# Elastic Constant Matrix: (Units=GPa)
#
#
# Indices 1 2 3 4 5 6 
#
# 1 63.5274 13.8858 1.1556 4.2292 -0.7092 5.6757
# 2 13.8858 120.0876 15.2760 -4.1547 -2.5853 16.7520
# 3 1.1556 15.2760 79.0821 -7.7837 -4.7973 6.8709
# 4 4.2292 -4.1547 -7.7837 40.4775 3.1132 0.1675
# 5 -0.7092 -2.5853 -4.7973 3.1132 8.2547 -7.8616
# 6 5.6757 16.7520 6.8709 0.1675 -7.8616 26.1308
#
#
#
# Elastic Compliance Matrix: (Units=1/GPa)
#
#
# Indices 1 2 3 4 5 6 
#
# 1 0.016452 -0.001593 0.000076 -0.001768 -0.001140 -0.002904
# 2 -0.001593 0.009599 -0.001405 0.001301 -0.005081 -0.006975
# 3 0.000076 -0.001405 0.013547 0.002013 0.005771 -0.000954
# 4 -0.001768 0.001301 0.002013 0.026473 -0.013530 -0.005220
# 5 -0.001140 -0.005081 0.005771 -0.013530 0.182048 0.056845
# 6 -0.002904 -0.006975 -0.000954 -0.005220 0.056845 0.060758
#
#
# Mechanical properties :
#
#
# Convention : Reuss Voigt Hill
#
# Bulk Modulus (GPa) = 29.62519 35.92577 32.77548
# Shear Modulus (GPa) = 15.33879 30.46459 22.90169
#
# Velocity S-wave (km/s) = 2.55063 3.59459 3.11663
# Velocity P-wave (km/s) = 4.60861 5.69784 5.18193
#
# Compressibility (1/GPa) = 0.03375506
#
# Stress axis : x y z
#
# Youngs Moduli (GPa) = 60.78133 104.17958 73.81976
#
# Poissons Ratio (x) = 0.16593 -0.00564
# Poissons Ratio (y) = 0.09681 0.10372
# Poissons Ratio (z) = -0.00464 0.14637
#
# Static dielectric constant tensor:
#      x y z
#    x 1.972580 0.116460 0.046890 
#    y 0.116460 1.962910 0.033690 
#    z 0.046890 0.033690 1.887190 
# 
# From -- ./inp_files/519167.got.cif
#   From: 2010.05.17/outbox.cif.g08.bks.cpg/sg2_260_cif.got.tgz:519167.got - 2010.06.03 11:33:40.
