data_PCOD9026962
_publ_section_title
;
Structure prediction by ZEFSAII (Michael W. Deem and Ramdas Pophale) SiO2 
 PCOD9026962
Probable space group: P -1
;
_chemical_formula_sum "Si O2"
_cell_formula_units_Z 12
_cell_length_a 22.718982
_cell_length_b 8.830512
_cell_length_c 4.963845
_cell_angle_alpha 60.033581
_cell_angle_beta 81.455843
_cell_angle_gamma 35.821302
_cell_volume 435.572258
_symmetry_space_group_name_H-M "P -1"
_symmetry_group_IT_number 2
_symmetry_cell_setting 'triclinic'
loop_
_space_group_symop_operation_xyz
x,y,z
-x,-y,-z
loop_
_atom_site_type_symbol
_atom_site_label
_atom_site_fract_x
_atom_site_fract_y
_atom_site_fract_z
Si Si1 0.040330 0.593278 0.315228
Si Si2 0.397146 0.177776 0.235958
Si Si3 0.299435 0.742116 0.567453
Si Si4 0.427969 0.545653 0.182798
Si Si5 0.797614 0.302033 0.631004
Si Si6 0.879764 0.414858 0.222969
O O1 0.109139 0.500007 0.595986
O O2 0.000000 0.500000 0.500000
O O3 0.123184 0.435820 0.146838
O O4 0.920621 0.997329 0.977480
O O5 0.292315 0.443277 0.288721
O O6 0.500000 0.000000 0.500000
O O7 0.460359 0.839609 0.425010
O O8 0.373266 0.369848 0.836736
O O9 0.347885 0.762067 0.309549
O O10 0.190515 0.912362 0.355043
O O11 0.333813 0.706628 0.881092
O O12 0.500000 0.500000 0.000000
O O13 0.787859 0.491097 0.263786
O O14 0.000000 0.000000 0.500000
#
# Coordination Sequence:
#
# PCOD9026962 Si02
#       6
#     2   2   2   2   2   2
#     4  11  25  46  68  97 137 167 212 280 340 382
#     4  10  22  41  66  92 128 171 217 253 315 384
#     4  11  22  41  65  91 126 174 217 262 314 382
#     4  11  24  42  61  90 136 172 210 270 320 370
#     4  11  23  41  72  95 126 172 225 261 319 390
#     4  10  23  43  70  95 127 171 221 269 325 395
#
# _framework density 27.549965
#
# number of rings (size 3 to 8) (size 9 to 14) (size 15 to 20)
#    0.000    1.333    3.333    3.500    9.333    0.000 
#    3.000    0.000    0.000    0.000    0.000    0.000 
#    0.000    0.000    0.000    0.000    0.000    0.000 
#
# Total GULP energy -66924.557688 kJ/mol
# GULP energy per Si atom -5577.046474 kJ/mol
# Density = 2.748726 g / cm^3
# Si number density = 27.549965 Si / 1000 Ang^3
#
#
#
# Elastic Constant Matrix: (Units=GPa)
#
#
# Indices 1 2 3 4 5 6 
#
# 1 132.6449 27.3673 6.9657 39.2188 -15.5072 -17.2497
# 2 27.3673 136.8268 24.0832 37.7992 3.8669 -21.5964
# 3 6.9657 24.0832 91.8235 30.9107 -4.3384 -0.7895
# 4 39.2188 37.7992 30.9107 66.0607 -8.3760 0.7941
# 5 -15.5072 3.8669 -4.3384 -8.3760 53.7607 22.2237
# 6 -17.2497 -21.5964 -0.7895 0.7941 22.2237 42.6097
#
#
#
# Elastic Compliance Matrix: (Units=1/GPa)
#
#
# Indices 1 2 3 4 5 6 
#
# 1 0.009995 0.000295 0.001512 -0.006842 0.000152 0.004272
# 2 0.000295 0.010716 -0.000745 -0.006727 -0.005271 0.008411
# 3 0.001512 -0.000745 0.013219 -0.006617 0.000352 0.000419
# 4 -0.006842 -0.006727 -0.006617 0.027076 0.006385 -0.010137
# 5 0.000152 -0.005271 0.000352 0.006385 0.026992 -0.016801
# 6 0.004272 0.008411 0.000419 -0.010137 -0.016801 0.038421
#
#
# Mechanical properties :
#
#
# Convention : Reuss Voigt Hill
#
# Bulk Modulus (GPa) = 27.73728 53.12531 40.43129
# Shear Modulus (GPa) = 36.68015 52.67815 44.67915
#
# Velocity S-wave (km/s) = 3.65280 4.37749 4.03146
# Velocity P-wave (km/s) = 5.28019 6.69889 6.03140
#
# Compressibility (1/GPa) = 0.03605256
#
# Stress axis : x y z
#
# Youngs Moduli (GPa) = 100.05060 93.32108 75.64966
#
# Poissons Ratio (x) = -0.02752 -0.11435
# Poissons Ratio (y) = -0.02951 0.05635
# Poissons Ratio (z) = -0.15123 0.06952
#
# Static dielectric constant tensor:
#      x y z
#    x 2.741620 0.209700 -0.060960 
#    y 0.209700 2.232710 0.050710 
#    z -0.060960 0.050710 2.028870 
# 
# From -- ./inp_files/126818.got.cif
#   From: 2010.05.17/outbox.cif.g08.bks.cpg/sg2_64_cif.got.tgz:126818.got - 2010.06.03 11:33:40.
