data_PCOD9026109
_publ_section_title
;
Structure prediction by ZEFSAII (Michael W. Deem and Ramdas Pophale) SiO2 
 PCOD9026109
Probable space group: P -1
;
_chemical_formula_sum "Si O2"
_cell_formula_units_Z 16
_cell_length_a 6.347291
_cell_length_b 16.330229
_cell_length_c 13.593282
_cell_angle_alpha 30.115683
_cell_angle_beta 117.640955
_cell_angle_gamma 109.527406
_cell_volume 619.103549
_symmetry_space_group_name_H-M "P -1"
_symmetry_group_IT_number 2
_symmetry_cell_setting 'triclinic'
loop_
_space_group_symop_operation_xyz
x,y,z
-x,-y,-z
loop_
_atom_site_type_symbol
_atom_site_label
_atom_site_fract_x
_atom_site_fract_y
_atom_site_fract_z
Si Si1 0.540990 0.804493 0.833844
Si Si2 0.825350 0.744925 0.608861
Si Si3 0.860982 0.328159 0.766534
Si Si4 0.719298 0.091568 0.145654
Si Si5 0.603066 0.156959 0.456855
Si Si6 0.800803 0.878285 0.085623
Si Si7 0.347912 0.322879 0.563200
Si Si8 0.745840 0.472560 0.143999
O O1 0.363987 0.793357 0.897784
O O2 0.391201 0.840826 0.662423
O O3 0.655879 0.971682 0.699773
O O4 0.727027 0.638827 0.029190
O O5 0.675895 0.782456 0.636161
O O6 0.660986 0.698128 0.532816
O O7 0.036059 0.591337 0.814440
O O8 0.875510 0.925429 0.394496
O O9 0.619240 0.328440 0.649109
O O10 0.820615 0.507571 0.620054
O O11 0.089304 0.274725 0.801847
O O12 0.839741 0.190724 0.987390
O O13 0.463879 0.053797 0.084641
O O14 0.737591 0.301042 0.379290
O O15 0.754146 0.815997 0.249615
O O16 0.000000 0.000000 0.000000
O O17 0.500000 0.500000 0.000000
#
# Coordination Sequence:
#
# PCOD9026109 Si02
#       8
#     2   2   2   2   2   2   2   2
#     4   9  20  41  64  92 126 165 215 269 317 395
#     4  11  23  40  63  97 124 169 219 268 317 401
#     4  10  22  41  62  90 133 172 210 271 325 382
#     4  10  23  40  63  97 130 167 228 261 325 395
#     4   9  21  43  64  90 131 166 210 276 332 378
#     4  11  22  39  64  92 132 175 210 268 329 385
#     4  10  23  39  60  96 129 168 220 265 320 391
#     4  10  23  42  63  92 127 168 218 269 331 385
#
# _framework density 25.843819
#
# number of rings (size 3 to 8) (size 9 to 14) (size 15 to 20)
#    0.000    2.000    0.000    1.875    3.500    9.000 
#    0.000   18.125    0.000    0.000    0.000    0.000 
#    0.000    0.000    0.000    0.000    0.000    0.000 
#
# Total GULP energy -89543.050382 kJ/mol
# GULP energy per Si atom -5596.440649 kJ/mol
# Density = 2.578500 g / cm^3
# Si number density = 25.843819 Si / 1000 Ang^3
#
#
#
# Elastic Constant Matrix: (Units=GPa)
#
#
# Indices 1 2 3 4 5 6 
#
# 1 72.0947 28.8985 42.1158 -0.8721 24.8252 -18.0716
# 2 28.8985 79.9329 35.1170 -12.2215 7.3641 -20.6519
# 3 42.1158 35.1170 121.5016 -23.5808 33.9725 -3.0228
# 4 -0.8721 -12.2215 -23.5808 61.0424 -4.8261 -0.3274
# 5 24.8252 7.3641 33.9725 -4.8261 53.3754 -10.4172
# 6 -18.0716 -20.6519 -3.0228 -0.3274 -10.4172 42.0665
#
#
#
# Elastic Compliance Matrix: (Units=1/GPa)
#
#
# Indices 1 2 3 4 5 6 
#
# 1 0.021839 -0.004048 -0.005331 -0.002952 -0.005368 0.005659
# 2 -0.004048 0.017771 -0.004166 0.002230 0.003775 0.007638
# 3 -0.005331 -0.004166 0.013651 0.003844 -0.006237 -0.004869
# 4 -0.002952 0.002230 0.003844 0.018300 0.000337 0.000329
# 5 -0.005368 0.003775 -0.006237 0.000337 0.025782 0.005486
# 6 0.005659 0.007638 -0.004869 0.000329 0.005486 0.030964
#
#
# Mechanical properties :
#
#
# Convention : Reuss Voigt Hill
#
# Bulk Modulus (GPa) = 38.20992 53.97687 46.09339
# Shear Modulus (GPa) = 30.46552 42.45671 36.46111
#
# Velocity S-wave (km/s) = 3.43714 4.05757 3.76017
# Velocity P-wave (km/s) = 5.52892 6.54851 6.06019
#
# Compressibility (1/GPa) = 0.02617122
#
# Stress axis : x y z
#
# Youngs Moduli (GPa) = 45.78985 56.27236 73.25442
#
# Poissons Ratio (x) = 0.22779 0.39053
# Poissons Ratio (y) = 0.18536 0.30514
# Poissons Ratio (z) = 0.24411 0.23441
#
# Static dielectric constant tensor:
#      x y z
#    x 2.057450 0.056240 0.002040 
#    y 0.056240 2.063580 -0.049300 
#    z 0.002040 -0.049300 2.040180 
# 
# From -- ./inp_files/485174.got.cif
#   From: 2010.05.17/outbox.cif.g08.bks.cpg/sg2_243_cif.got.tgz:485174.got - 2010.06.03 11:33:40.
