data_PCOD9026351
_publ_section_title
;
Structure prediction by ZEFSAII (Michael W. Deem and Ramdas Pophale) SiO2 
 PCOD9026351
Probable space group: P -1
;
_chemical_formula_sum "Si O2"
_cell_formula_units_Z 16
_cell_length_a 12.488519
_cell_length_b 16.530549
_cell_length_c 7.792201
_cell_angle_alpha 80.371188
_cell_angle_beta 48.397920
_cell_angle_gamma 43.449840
_cell_volume 654.212087
_symmetry_space_group_name_H-M "P -1"
_symmetry_group_IT_number 2
_symmetry_cell_setting 'triclinic'
loop_
_space_group_symop_operation_xyz
x,y,z
-x,-y,-z
loop_
_atom_site_type_symbol
_atom_site_label
_atom_site_fract_x
_atom_site_fract_y
_atom_site_fract_z
Si Si1 0.889683 0.953313 0.956627
Si Si2 0.490604 0.337094 0.862268
Si Si3 0.218857 0.716191 0.137124
Si Si4 0.396841 0.636905 0.619748
Si Si5 0.769990 0.063567 0.528687
Si Si6 0.586540 0.850947 0.357398
Si Si7 0.019857 0.344638 0.695118
Si Si8 0.522337 0.040594 0.131032
O O1 0.087430 0.791362 0.872389
O O2 0.049966 0.959281 0.765171
O O3 0.638018 0.073400 0.300421
O O4 0.781130 0.970695 0.887393
O O5 0.630354 0.341118 0.825041
O O6 0.496554 0.355182 0.645969
O O7 0.674331 0.169784 0.746364
O O8 0.187225 0.484836 0.176632
O O9 0.129483 0.668339 0.191841
O O10 0.416144 0.649211 0.796234
O O11 0.956586 0.895238 0.373768
O O12 0.500000 0.500000 0.500000
O O13 0.489442 0.169653 0.715037
O O14 0.856126 0.714653 0.222792
O O15 0.542180 0.964001 0.290837
O O16 0.275679 0.216766 0.352549
O O17 0.500000 0.000000 0.000000
#
# Coordination Sequence:
#
# PCOD9026351 Si02
#       8
#     2   2   2   2   2   2   2   2
#     4  10  22  41  64 100 130 171 229 273 333 412
#     4  11  27  40  65 106 137 180 225 282 351 404
#     4  12  23  44  68 101 142 175 229 289 333 411
#     4  11  22  36  65  99 132 173 224 278 341 391
#     4  11  24  42  74 101 134 182 228 280 347 408
#     4  11  22  43  70  93 136 180 224 280 334 406
#     4  11  23  44  65  96 137 178 226 281 343 397
#     4  11  24  38  68  98 132 178 227 279 334 405
#
# _framework density 24.456900000000001
#
# number of rings (size 3 to 8) (size 9 to 14) (size 15 to 20)
#    0.000    1.000    3.750    3.375    5.250    1.500 
#    0.000    0.000    0.000    3.750    0.000    0.000 
#    0.000    0.000    0.000    0.000    0.000    0.000 
#
# Total GULP energy -89256.851482 kJ/mol
# GULP energy per Si atom -5578.553218 kJ/mol
# Density = 2.440124 g / cm^3
# Si number density = 24.456900 Si / 1000 Ang^3
#
#
#
# Elastic Constant Matrix: (Units=GPa)
#
#
# Indices 1 2 3 4 5 6 
#
# 1 103.7973 12.1987 25.9073 2.2120 -8.9409 2.3965
# 2 12.1987 87.1268 37.1748 17.5189 -2.6070 12.4522
# 3 25.9073 37.1748 87.4690 13.7957 10.1370 -8.8672
# 4 2.2120 17.5189 13.7957 47.0436 -3.9065 -4.7472
# 5 -8.9409 -2.6070 10.1370 -3.9065 39.8539 -2.6748
# 6 2.3965 12.4522 -8.8672 -4.7472 -2.6748 25.4718
#
#
#
# Elastic Compliance Matrix: (Units=1/GPa)
#
#
# Indices 1 2 3 4 5 6 
#
# 1 0.010959 0.000591 -0.004222 0.000557 0.003470 -0.002322
# 2 0.000591 0.017934 -0.008474 -0.005313 0.002098 -0.012543
# 3 -0.004222 -0.008474 0.018173 -0.001429 -0.005592 0.010013
# 4 0.000557 -0.005313 -0.001429 0.024580 0.003016 0.006945
# 5 0.003470 0.002098 -0.005592 0.003016 0.027737 0.000176
# 6 -0.002322 -0.012543 0.010013 0.006945 0.000176 0.050407
#
#
# Mechanical properties :
#
#
# Convention : Reuss Voigt Hill
#
# Bulk Modulus (GPa) = 43.75278 47.66164 45.70721
# Shear Modulus (GPa) = 27.53002 36.01471 31.77237
#
# Velocity S-wave (km/s) = 3.35872 3.84158 3.60824
# Velocity P-wave (km/s) = 5.74194 6.26158 6.00738
#
# Compressibility (1/GPa) = 0.02285569
#
# Stress axis : x y z
#
# Youngs Moduli (GPa) = 91.24703 55.76005 55.02610
#
# Poissons Ratio (x) = -0.03295 0.23235
# Poissons Ratio (y) = -0.05392 0.46628
# Poissons Ratio (z) = 0.38529 0.47250
#
# Static dielectric constant tensor:
#      x y z
#    x 2.046870 -0.084780 0.068820 
#    y -0.084780 2.078760 -0.088520 
#    z 0.068820 -0.088520 1.983150 
# 
# From -- ./inp_files/279502.got.cif
#   From: 2010.05.17/outbox.cif.g08.bks.cpg/sg2_140_cif.got.tgz:279502.got - 2010.06.03 11:33:40.
