data_PCOD9026739
_publ_section_title
;
Structure prediction by ZEFSAII (Michael W. Deem and Ramdas Pophale) SiO2 
 PCOD9026739
Probable space group: P -1
;
_chemical_formula_sum "Si O2"
_cell_formula_units_Z 16
_cell_length_a 10.794429
_cell_length_b 8.658565
_cell_length_c 10.050634
_cell_angle_alpha 83.276277
_cell_angle_beta 59.123488
_cell_angle_gamma 62.357637
_cell_volume 705.114109
_symmetry_space_group_name_H-M "P -1"
_symmetry_group_IT_number 2
_symmetry_cell_setting 'triclinic'
loop_
_space_group_symop_operation_xyz
x,y,z
-x,-y,-z
loop_
_atom_site_type_symbol
_atom_site_label
_atom_site_fract_x
_atom_site_fract_y
_atom_site_fract_z
Si Si1 0.499957 0.283124 0.146616
Si Si2 0.365135 0.166527 0.473376
Si Si3 0.510555 0.342399 0.834528
Si Si4 0.999393 0.386662 0.636565
Si Si5 0.123419 0.871983 0.337115
Si Si6 0.010423 0.383659 0.131925
Si Si7 0.353500 0.465132 0.637482
Si Si8 0.125710 0.003189 0.038455
O O1 0.413612 0.197953 0.294936
O O2 0.478164 0.475009 0.179650
O O3 0.456981 0.302392 0.011162
O O4 0.693034 0.152702 0.072196
O O5 0.175706 0.209509 0.574699
O O6 0.350251 0.333418 0.544691
O O7 0.500000 0.000000 0.500000
O O8 0.690290 0.182226 0.723758
O O9 0.398777 0.372665 0.765850
O O10 0.955878 0.517618 0.773035
O O11 0.000000 0.500000 0.500000
O O12 0.878395 0.311103 0.670945
O O13 0.075973 0.966563 0.213127
O O14 0.000000 0.000000 0.500000
O O15 0.835713 0.386146 0.259276
O O16 0.130140 0.185883 0.039081
O O17 0.000000 0.500000 0.000000
O O18 0.500000 0.500000 0.500000
O O19 0.000000 0.000000 0.000000
#
# Coordination Sequence:
#
# PCOD9026739 Si02
#       8
#     2   2   2   2   2   2   2   2
#     4  10  22  41  65  94 133 176 223 280 339 410
#     4  11  26  41  67 100 138 176 223 289 354 410
#     4  10  22  43  69  97 130 176 235 284 340 405
#     4  11  25  45  68  97 141 187 224 284 358 426
#     4  11  25  41  70 101 131 175 234 287 335 414
#     4  11  26  45  67 102 141 184 226 284 363 414
#     4  11  24  42  72  97 130 183 230 283 339 420
#     4  11  24  39  68  99 131 174 231 283 330 413
#
# _framework density 22.691364
#
# number of rings (size 3 to 8) (size 9 to 14) (size 15 to 20)
#    0.000    1.250    1.250    3.000   10.500    3.000 
#    0.000    0.625    0.000    0.000    0.000    0.000 
#    0.000    0.000    0.000    0.000    0.000    0.000 
#
# Total GULP energy -89394.892533 kJ/mol
# GULP energy per Si atom -5587.180783 kJ/mol
# Density = 2.263972 g / cm^3
# Si number density = 22.691364 Si / 1000 Ang^3
#
#
#
# Elastic Constant Matrix: (Units=GPa)
#
#
# Indices 1 2 3 4 5 6 
#
# 1 70.0221 6.2103 18.6937 16.5790 -0.8792 -14.2274
# 2 6.2103 102.6788 38.4608 -0.7932 -0.4614 -15.7096
# 3 18.6937 38.4608 80.9175 15.4129 7.8970 -5.7916
# 4 16.5790 -0.7932 15.4129 38.9567 -0.9797 -6.8700
# 5 -0.8792 -0.4614 7.8970 -0.9797 35.1797 2.3959
# 6 -14.2274 -15.7096 -5.7916 -6.8700 2.3959 35.9452
#
#
#
# Elastic Compliance Matrix: (Units=1/GPa)
#
#
# Indices 1 2 3 4 5 6 
#
# 1 0.017436 0.000983 -0.003168 -0.005108 0.000622 0.005803
# 2 0.000983 0.013164 -0.006913 0.003613 0.001467 0.005621
# 3 -0.003168 -0.006913 0.017830 -0.006365 -0.004190 -0.002340
# 4 -0.005108 0.003613 -0.006365 0.031255 0.001921 0.004377
# 5 0.000622 0.001467 -0.004190 0.001921 0.029549 -0.001390
# 6 0.005803 0.005621 -0.002340 0.004377 -0.001390 0.033126
#
#
# Mechanical properties :
#
#
# Convention : Reuss Voigt Hill
#
# Bulk Modulus (GPa) = 33.07524 42.26090 37.66807
# Shear Modulus (GPa) = 29.30273 34.69990 32.00131
#
# Velocity S-wave (km/s) = 3.59745 3.91476 3.75945
# Velocity P-wave (km/s) = 5.64476 6.25287 5.95658
#
# Compressibility (1/GPa) = 0.03023410
#
# Stress axis : x y z
#
# Youngs Moduli (GPa) = 57.35263 75.96735 56.08626
#
# Poissons Ratio (x) = -0.07469 0.17767
# Poissons Ratio (y) = -0.05639 0.38772
# Poissons Ratio (z) = 0.18168 0.52515
#
# Static dielectric constant tensor:
#      x y z
#    x 1.906970 -0.093950 -0.126440 
#    y -0.093950 1.763960 0.015350 
#    z -0.126440 0.015350 1.868710 
# 
# From -- ./inp_files/243417.got.cif
#   From: 2010.05.17/outbox.cif.g08.bks.cpg/sg2_122_cif.got.tgz:243417.got - 2010.06.03 11:33:40.
