data_PCOD9026884
_publ_section_title
;
Structure prediction by ZEFSAII (Michael W. Deem and Ramdas Pophale) SiO2 
 PCOD9026884
Probable space group: P -1
;
_chemical_formula_sum "Si O2"
_cell_formula_units_Z 15
_cell_length_a 5.497659
_cell_length_b 10.695655
_cell_length_c 22.001710
_cell_angle_alpha 34.610224
_cell_angle_beta 71.162014
_cell_angle_gamma 56.534762
_cell_volume 589.128210
_symmetry_space_group_name_H-M "P -1"
_symmetry_group_IT_number 2
_symmetry_cell_setting 'triclinic'
loop_
_space_group_symop_operation_xyz
x,y,z
-x,-y,-z
loop_
_atom_site_type_symbol
_atom_site_label
_atom_site_fract_x
_atom_site_fract_y
_atom_site_fract_z
Si Si1 0.810287 0.274273 0.592840
Si Si2 0.905549 0.401306 0.915292
Si Si3 0.374073 0.080094 0.210173
Si Si4 0.563201 0.049907 0.881638
Si Si5 0.000000 0.000000 0.000000
Si Si6 0.212467 0.608872 0.733245
Si Si7 0.672285 0.767377 0.626943
Si Si8 0.981598 0.445180 0.617796
O O1 0.500000 0.500000 0.500000
O O2 0.034002 0.323422 0.514571
O O3 0.780180 0.369616 0.626314
O O4 0.839899 0.999354 0.705446
O O5 0.802973 0.320543 0.896315
O O6 0.136794 0.485156 0.844585
O O7 0.668284 0.647190 0.875143
O O8 0.120716 0.105693 0.042294
O O9 0.340635 0.074943 0.142724
O O10 0.699733 0.828339 0.300001
O O11 0.297419 0.012554 0.943302
O O12 0.430583 0.354632 0.775761
O O13 0.397621 0.740056 0.681774
O O14 0.891335 0.782545 0.652799
O O15 0.894642 0.529906 0.659448
O O16 0.500000 0.000000 0.500000
#
# Coordination Sequence:
#
# PCOD9026884 Si02
#       8
#     2   2   2   2   1   2   2   2
#     4   9  21  39  66  93 139 182 235 298 372 430
#     4  11  27  42  72 102 145 193 249 310 364 450
#     4  11  23  43  69 104 138 188 248 303 375 434
#     4  11  24  44  73 100 143 194 245 312 364 443
#     4  10  24  44  64  96 142 180 244 296 376 416
#     4  11  26  47  75 106 150 199 242 307 383 435
#     4  12  27  45  76 109 147 195 252 305 368 458
#     4  10  22  41  66 101 141 192 235 310 360 448
#
# _framework density 25.461351000000001
#
# number of rings (size 3 to 8) (size 9 to 14) (size 15 to 20)
#    0.000    1.333    1.333    3.200   11.200    5.867 
#    0.000    0.000    0.000    0.000    0.000    0.000 
#    0.000    0.000    0.000    0.000    0.000    0.000 
#
# Total GULP energy -83532.771673 kJ/mol
# GULP energy per Si atom -5568.851445 kJ/mol
# Density = 2.540340 g / cm^3
# Si number density = 25.461351 Si / 1000 Ang^3
#
#
#
# Elastic Constant Matrix: (Units=GPa)
#
#
# Indices 1 2 3 4 5 6 
#
# 1 77.5268 -11.5649 33.5636 -4.5482 11.0825 -15.0444
# 2 -11.5649 86.3398 -4.6878 -18.6449 -5.2412 -8.7759
# 3 33.5636 -4.6878 68.2503 -19.0710 1.7466 -16.2512
# 4 -4.5482 -18.6449 -19.0710 45.5146 5.8348 -2.7032
# 5 11.0825 -5.2412 1.7466 5.8348 46.2447 2.2552
# 6 -15.0444 -8.7759 -16.2512 -2.7032 2.2552 15.6512
#
#
#
# Elastic Compliance Matrix: (Units=1/GPa)
#
#
# Indices 1 2 3 4 5 6 
#
# 1 0.020201 0.005384 -0.003052 0.004928 -0.005759 0.020948
# 2 0.005384 0.018516 0.009274 0.014015 -0.002675 0.027993
# 3 -0.003052 0.009274 0.031653 0.019562 -0.003786 0.039057
# 4 0.004928 0.014015 0.019562 0.039767 -0.007340 0.040833
# 5 -0.005759 -0.002675 -0.003786 -0.007340 0.024539 -0.015770
# 6 0.020948 0.027993 0.039057 0.040833 -0.015770 0.149604
#
#
# Mechanical properties :
#
#
# Convention : Reuss Voigt Hill
#
# Bulk Modulus (GPa) = 10.68585 29.63762 20.16174
# Shear Modulus (GPa) = 17.10799 35.80251 26.45525
#
# Velocity S-wave (km/s) = 2.59495 3.75394 3.22690
# Velocity P-wave (km/s) = 3.63103 5.51860 4.67115
#
# Compressibility (1/GPa) = 0.09358169
#
# Stress axis : x y z
#
# Youngs Moduli (GPa) = 49.50344 54.00668 31.59291
#
# Poissons Ratio (x) = -0.29077 0.09642
# Poissons Ratio (y) = -0.26652 -0.29300
# Poissons Ratio (z) = 0.15108 -0.50087
#
# Static dielectric constant tensor:
#      x y z
#    x 1.697960 -0.306320 -0.150370 
#    y -0.306320 1.906820 -0.139970 
#    z -0.150370 -0.139970 2.057400 
# 
# From -- ./inp_files/604386.got.cif
#   From: 2010.05.17/outbox.cif.g08.bks.cpg/sg2_303_cif.got.tgz:604386.got - 2010.06.03 11:33:40.
