data_PCOD9026901
_publ_section_title
;
Structure prediction by ZEFSAII (Michael W. Deem and Ramdas Pophale) SiO2 
 PCOD9026901
Probable space group: P -1
;
_chemical_formula_sum "Si O2"
_cell_formula_units_Z 14
_cell_length_a 14.479156
_cell_length_b 14.665728
_cell_length_c 5.518011
_cell_angle_alpha 113.712596
_cell_angle_beta 130.619899
_cell_angle_gamma 41.428559
_cell_volume 579.814332
_symmetry_space_group_name_H-M "P -1"
_symmetry_group_IT_number 2
_symmetry_cell_setting 'triclinic'
loop_
_space_group_symop_operation_xyz
x,y,z
-x,-y,-z
loop_
_atom_site_type_symbol
_atom_site_label
_atom_site_fract_x
_atom_site_fract_y
_atom_site_fract_z
Si Si1 0.233581 0.569487 0.084919
Si Si2 0.589619 0.058726 0.702730
Si Si3 0.062194 0.122523 0.177888
Si Si4 0.845816 0.085737 0.512224
Si Si5 0.553203 0.853589 0.937558
Si Si6 0.561430 0.389226 0.193376
Si Si7 0.103626 0.442217 0.866795
O O1 0.379210 0.450742 0.025161
O O2 0.333406 0.597353 0.433626
O O3 0.193662 0.497522 0.098043
O O4 0.057390 0.711834 0.820864
O O5 0.521487 0.140730 0.928491
O O6 0.500000 0.000000 0.500000
O O7 0.793297 0.940590 0.852665
O O8 0.517472 0.153142 0.439244
O O9 0.155230 0.019475 0.459418
O O10 0.913609 0.127403 0.867882
O O11 0.692103 0.221537 0.236923
O O12 0.000000 0.000000 0.500000
O O13 0.754373 0.724120 0.109826
O O14 0.500000 0.000000 0.000000
O O15 0.500000 0.500000 0.000000
O O16 0.000000 0.500000 0.500000
O O17 0.000000 0.500000 0.000000
#
# Coordination Sequence:
#
# PCOD9026901 Si02
#       7
#     2   2   2   2   2   2   2
#     4  10  25  44  68  99 141 191 240 293 373 432
#     4  10  23  42  70 102 139 183 239 289 355 420
#     4  10  23  41  67  97 137 185 234 301 353 432
#     4  10  22  41  66 103 132 177 240 293 361 428
#     4  10  24  45  70 100 140 192 240 292 356 422
#     4  10  22  45  70 100 138 185 237 301 367 434
#     4  12  29  48  72 109 152 193 246 301 367 446
#
# _framework density 24.145659999999999
#
# number of rings (size 3 to 8) (size 9 to 14) (size 15 to 20)
#    0.000    1.714    0.000    1.714   14.000    1.143 
#    0.000    0.000    0.000    0.000    0.000    0.000 
#    0.000    0.000    0.000    0.000    0.000    0.000 
#
# Total GULP energy -77965.552287 kJ/mol
# GULP energy per Si atom -5568.968021 kJ/mol
# Density = 2.409070 g / cm^3
# Si number density = 24.145660 Si / 1000 Ang^3
#
#
#
# Elastic Constant Matrix: (Units=GPa)
#
#
# Indices 1 2 3 4 5 6 
#
# 1 211.7396 84.9840 33.6905 -22.8376 -13.5369 -26.1237
# 2 84.9840 187.3535 43.1190 -58.5600 -13.0677 -20.9344
# 3 33.6905 43.1190 105.8467 -32.1848 -22.5423 -21.1660
# 4 -22.8376 -58.5600 -32.1848 47.7817 4.8155 11.8790
# 5 -13.5369 -13.0677 -22.5423 4.8155 48.4428 8.9355
# 6 -26.1237 -20.9344 -21.1660 11.8790 8.9355 42.6769
#
#
#
# Elastic Compliance Matrix: (Units=1/GPa)
#
#
# Indices 1 2 3 4 5 6 
#
# 1 0.006115 -0.002840 -0.000761 -0.001694 0.000318 0.002377
# 2 -0.002840 0.010106 0.000422 0.011186 0.000997 0.000106
# 3 -0.000761 0.000422 0.013650 0.008049 0.004852 0.003254
# 4 -0.001694 0.011186 0.008049 0.039760 0.002935 -0.003239
# 5 0.000318 0.000997 0.004852 0.002935 0.023454 -0.002637
# 6 0.002377 0.000106 0.003254 -0.003239 -0.002637 0.028007
#
#
# Mechanical properties :
#
#
# Convention : Reuss Voigt Hill
#
# Bulk Modulus (GPa) = 42.53165 92.05853 67.29509
# Shear Modulus (GPa) = 36.95837 50.65669 43.80753
#
# Velocity S-wave (km/s) = 3.91659 4.58532 4.26408
# Velocity P-wave (km/s) = 6.17298 8.13896 7.22317
#
# Compressibility (1/GPa) = 0.02351190
#
# Stress axis : x y z
#
# Youngs Moduli (GPa) = 163.53890 98.94633 73.26101
#
# Poissons Ratio (x) = 0.28102 0.05577
# Poissons Ratio (y) = 0.46448 -0.03091
# Poissons Ratio (z) = 0.12450 -0.04174
#
# Static dielectric constant tensor:
#      x y z
#    x 1.823880 -0.043550 0.020630 
#    y -0.043550 2.012190 0.160380 
#    z 0.020630 0.160380 2.315020 
# 
# From -- ./inp_files/98536.got.cif
#   From: 2010.05.17/outbox.cif.g08.bks.cpg/sg2_50_cif.got.tgz:98536.got - 2010.06.03 11:33:40.
