data_PCOD9026674
_publ_section_title
;
Structure prediction by ZEFSAII (Michael W. Deem and Ramdas Pophale) SiO2 
 PCOD9026674
Probable space group: P -1
;
_chemical_formula_sum "Si O2"
_cell_formula_units_Z 14
_cell_length_a 13.498068
_cell_length_b 26.066916
_cell_length_c 5.446840
_cell_angle_alpha 59.741758
_cell_angle_beta 116.207430
_cell_angle_gamma 159.770271
_cell_volume 569.279297
_symmetry_space_group_name_H-M "P -1"
_symmetry_group_IT_number 2
_symmetry_cell_setting 'triclinic'
loop_
_space_group_symop_operation_xyz
x,y,z
-x,-y,-z
loop_
_atom_site_type_symbol
_atom_site_label
_atom_site_fract_x
_atom_site_fract_y
_atom_site_fract_z
Si Si1 0.823992 0.163992 0.561488
Si Si2 0.874525 0.306706 0.063186
Si Si3 0.511415 0.343113 0.295195
Si Si4 0.074500 0.197452 0.442907
Si Si5 0.936796 0.914871 0.942937
Si Si6 0.655525 0.970706 0.157398
Si Si7 0.815098 0.404061 0.783645
O O1 0.888930 0.265841 0.393540
O O2 0.048965 0.249389 0.403145
O O3 0.500000 0.000000 0.500000
O O4 0.811071 0.108860 0.895100
O O5 0.675159 0.186183 0.907292
O O6 0.706263 0.283554 0.994207
O O7 0.195477 0.485508 0.910221
O O8 0.304772 0.295282 0.253214
O O9 0.591741 0.344745 0.621934
O O10 0.330152 0.209628 0.237896
O O11 0.140699 0.182905 0.758175
O O12 0.752713 0.020728 0.423804
O O13 0.000000 0.000000 0.000000
O O14 0.198431 0.017362 0.816248
O O15 0.000000 0.500000 0.500000
O O16 0.000000 0.500000 0.000000
#
# Coordination Sequence:
#
# PCOD9026674 Si02
#       7
#     2   2   2   2   2   2   2
#     4   9  20  43  63  95 128 174 227 278 338 415
#     4  10  22  41  66  94 132 178 227 281 345 406
#     4  10  24  42  64 102 135 173 227 283 348 409
#     4  10  22  41  65  91 136 167 224 287 336 412
#     4  10  23  40  67  93 133 181 220 280 345 410
#     4   9  21  41  62  98 126 173 230 275 339 407
#     4  10  24  44  65 101 145 181 225 285 354 423
#
# _framework density 24.592496000000001
#
# number of rings (size 3 to 8) (size 9 to 14) (size 15 to 20)
#    0.000    2.286    0.000    0.000    8.000    4.000 
#   18.000    6.429    0.000    0.000    0.000    0.000 
#    0.000    0.000    0.000    0.000    0.000    0.000 
#
# Total GULP energy -78016.030824 kJ/mol
# GULP energy per Si atom -5572.573630 kJ/mol
# Density = 2.453652 g / cm^3
# Si number density = 24.592496 Si / 1000 Ang^3
#
#
#
# Elastic Constant Matrix: (Units=GPa)
#
#
# Indices 1 2 3 4 5 6 
#
# 1 93.6893 23.8128 44.1340 -6.5361 16.6879 7.0075
# 2 23.8128 109.9601 49.8745 11.0119 8.4820 7.6905
# 3 44.1340 49.8745 112.5653 19.3277 25.0757 -11.7824
# 4 -6.5361 11.0119 19.3277 44.1353 -7.5258 7.5565
# 5 16.6879 8.4820 25.0757 -7.5258 39.6107 -1.1066
# 6 7.0075 7.6905 -11.7824 7.5565 -1.1066 28.3740
#
#
#
# Elastic Compliance Matrix: (Units=1/GPa)
#
#
# Indices 1 2 3 4 5 6 
#
# 1 0.016007 0.000449 -0.008834 0.007802 -0.000040 -0.009822
# 2 0.000449 0.012350 -0.006971 0.001466 0.001671 -0.006678
# 3 -0.008834 -0.006971 0.021955 -0.013852 -0.010856 0.016454
# 4 0.007802 0.001466 -0.013852 0.034297 0.011216 -0.016773
# 5 -0.000040 0.001671 -0.010856 0.011216 0.033723 -0.006623
# 6 -0.009822 -0.006678 0.016454 -0.016773 -0.006623 0.050520
#
#
# Mechanical properties :
#
#
# Convention : Reuss Voigt Hill
#
# Bulk Modulus (GPa) = 51.02014 61.31746 56.16880
# Shear Modulus (GPa) = 24.26036 35.65022 29.95529
#
# Velocity S-wave (km/s) = 3.14426 3.81154 3.49387
# Velocity P-wave (km/s) = 5.82864 6.66018 6.25824
#
# Compressibility (1/GPa) = 0.01960010
#
# Stress axis : x y z
#
# Youngs Moduli (GPa) = 62.47379 80.97027 45.54796
#
# Poissons Ratio (x) = -0.03635 0.40235
# Poissons Ratio (y) = -0.02805 0.31752
# Poissons Ratio (z) = 0.55187 0.56446
#
# Static dielectric constant tensor:
#      x y z
#    x 2.026540 0.026690 -0.052540 
#    y 0.026690 2.028070 0.011720 
#    z -0.052540 0.011720 2.012080 
# 
# From -- ./inp_files/101473.got.cif
#   From: 2010.05.17/outbox.cif.g08.bks.cpg/sg2_51_cif.got.tgz:101473.got - 2010.06.03 11:33:40.
