data_PCOD9026623
_publ_section_title
;
Structure prediction by ZEFSAII (Michael W. Deem and Ramdas Pophale) SiO2 
 PCOD9026623
Probable space group: P -1
;
_chemical_formula_sum "Si O2"
_cell_formula_units_Z 15
_cell_length_a 14.874803
_cell_length_b 11.569246
_cell_length_c 10.731233
_cell_angle_alpha 109.298132
_cell_angle_beta 135.748923
_cell_angle_gamma 39.023232
_cell_volume 695.820699
_symmetry_space_group_name_H-M "P -1"
_symmetry_group_IT_number 2
_symmetry_cell_setting 'triclinic'
loop_
_space_group_symop_operation_xyz
x,y,z
-x,-y,-z
loop_
_atom_site_type_symbol
_atom_site_label
_atom_site_fract_x
_atom_site_fract_y
_atom_site_fract_z
Si Si1 0.724391 0.412508 0.407842
Si Si2 0.500000 0.000000 0.000000
Si Si3 0.894533 0.468410 0.260433
Si Si4 0.556401 0.589150 0.790474
Si Si5 0.844647 0.917196 0.434807
Si Si6 0.298699 0.299900 0.597283
Si Si7 0.316420 0.177379 0.165417
Si Si8 0.829682 0.442072 0.784769
O O1 0.529800 0.465301 0.247188
O O2 0.646767 0.603397 0.343399
O O3 0.811042 0.382570 0.618650
O O4 0.933916 0.205264 0.458761
O O5 0.293965 0.063312 0.787929
O O6 0.620546 0.868183 0.935123
O O7 0.751025 0.658491 0.287172
O O8 0.052249 0.247156 0.410088
O O9 0.066004 0.430846 0.355371
O O10 0.714132 0.543774 0.023449
O O11 0.716113 0.447895 0.780163
O O12 0.330752 0.839929 0.618376
O O13 0.488984 0.057097 0.666619
O O14 0.304573 0.323613 0.259885
O O15 0.084028 0.288649 0.000936
#
# Coordination Sequence:
#
# PCOD9026623 Si02
#       8
#     2   1   2   2   2   2   2   2
#     4  11  26  44  65  95 136 178 223 267 337 399
#     4  12  18  40  74 102 124 164 222 276 334 372
#     4  10  23  39  70 104 126 169 226 276 338 380
#     4  12  25  46  67  93 140 182 217 276 327 402
#     4  11  23  42  72 101 130 171 226 282 326 388
#     4  10  22  41  65 102 132 161 222 291 320 388
#     4  11  23  40  70 103 127 171 220 282 329 391
#     4  11  25  41  66  99 131 176 225 262 342 398
#
# _framework density 21.557276999999999
#
# number of rings (size 3 to 8) (size 9 to 14) (size 15 to 20)
#    0.000    1.067    4.000    1.600    7.467    2.667 
#    4.800    0.667    0.000    0.000    0.000    0.000 
#    0.000    0.000    0.000    0.000    0.000    0.000 
#
# Total GULP energy -83634.060090 kJ/mol
# GULP energy per Si atom -5575.604006 kJ/mol
# Density = 2.150821 g / cm^3
# Si number density = 21.557277 Si / 1000 Ang^3
#
#
#
# Elastic Constant Matrix: (Units=GPa)
#
#
# Indices 1 2 3 4 5 6 
#
# 1 64.4190 37.4318 -46.0814 -17.6667 30.2453 -10.5863
# 2 37.4318 60.3833 37.1837 -27.8570 10.2078 8.9968
# 3 -46.0814 37.1837 -43.2355 -28.6735 2.4035 -9.1930
# 4 -17.6667 -27.8570 -28.6735 24.2658 -6.6827 0.6802
# 5 30.2453 10.2078 2.4035 -6.6827 32.9060 3.1465
# 6 -10.5863 8.9968 -9.1930 0.6802 3.1465 27.8016
#
#
#
# Elastic Compliance Matrix: (Units=1/GPa)
#
#
# Indices 1 2 3 4 5 6 
#
# 1 0.013844 -0.007257 -0.012068 -0.016371 -0.013448 0.005552
# 2 -0.007257 0.042886 0.009936 0.057732 0.005841 -0.015430
# 3 -0.012068 0.009936 -0.001599 0.003694 0.009789 -0.009538
# 4 -0.016371 0.057732 0.003694 0.106593 0.021261 -0.028709
# 5 -0.013448 0.005841 0.009789 0.021261 0.045443 -0.009437
# 6 0.005552 -0.015430 -0.009538 -0.028709 -0.009437 0.041693
#
#
# Mechanical properties :
#
#
# Convention : Reuss Voigt Hill
#
# Bulk Modulus (GPa) = 27.50744 15.40388 21.45566
# Shear Modulus (GPa) = 17.87270 20.53019 19.20145
#
# Velocity S-wave (km/s) = 2.88250 3.08937 2.98773
# Velocity P-wave (km/s) = 4.88531 4.45945 4.67723
#
# Compressibility (1/GPa) = 0.03635381
#
# Stress axis : x y z
#
# Youngs Moduli (GPa) = 72.23231 23.31739 -625.28942
#
# Poissons Ratio (x) = 0.16922 -7.54592
# Poissons Ratio (y) = 0.52421 6.21307
# Poissons Ratio (z) = 0.87169 -0.23169
#
# Static dielectric constant tensor:
#      x y z
#    x 3.345420 0.501390 -2.022140 
#    y 0.501390 1.957040 -0.683200 
#    z -2.022140 -0.683200 4.394070 
# 
# From -- ./inp_files/380856.got.cif
#   From: 2010.05.17/outbox.cif.g08.bks.cpg/sg2_191_cif.got.tgz:380856.got - 2010.06.03 11:33:40.
