data_PCOD9026180
_publ_section_title
;
Structure prediction by ZEFSAII (Michael W. Deem and Ramdas Pophale) SiO2 
 PCOD9026180
Probable space group: P -1
;
_chemical_formula_sum "Si O2"
_cell_formula_units_Z 16
_cell_length_a 8.170230
_cell_length_b 20.004252
_cell_length_c 5.196880
_cell_angle_alpha 122.772214
_cell_angle_beta 112.539110
_cell_angle_gamma 71.382691
_cell_volume 652.762888
_symmetry_space_group_name_H-M "P -1"
_symmetry_group_IT_number 2
_symmetry_cell_setting 'triclinic'
loop_
_space_group_symop_operation_xyz
x,y,z
-x,-y,-z
loop_
_atom_site_type_symbol
_atom_site_label
_atom_site_fract_x
_atom_site_fract_y
_atom_site_fract_z
Si Si1 0.094757 0.912105 0.955754
Si Si2 0.116003 0.358338 0.742671
Si Si3 0.944924 0.184115 0.760755
Si Si4 0.762345 0.345493 0.160307
Si Si5 0.806581 0.499351 0.252659
Si Si6 0.404608 0.369676 0.307518
Si Si7 0.310727 0.229873 0.232673
Si Si8 0.516533 0.055286 0.877740
O O1 0.041670 0.848626 0.587144
O O2 0.059589 0.885577 0.170852
O O3 0.298790 0.914330 0.014530
O O4 0.000000 0.000000 0.000000
O O5 0.173026 0.443232 0.856035
O O6 0.246017 0.278831 0.554271
O O7 0.919773 0.353439 0.489099
O O8 0.198236 0.363015 0.084661
O O9 0.785738 0.254377 0.883177
O O10 0.118542 0.226239 0.984576
O O11 0.785162 0.406114 0.064994
O O12 0.566231 0.369794 0.210505
O O13 0.632960 0.547613 0.388825
O O14 0.000000 0.500000 0.500000
O O15 0.444189 0.286401 0.312787
O O16 0.391931 0.137187 0.055972
O O17 0.500000 0.000000 0.500000
O O18 0.500000 0.000000 0.000000
#
# Coordination Sequence:
#
# PCOD9026180 Si02
#       8
#     2   2   2   2   2   2   2   2
#     4  12  25  45  70 100 135 177 229 274 345 413
#     4   9  22  40  64  91 128 181 223 282 351 400
#     4  11  25  44  68 100 134 182 221 288 340 406
#     4  10  22  41  62  98 136 169 236 283 342 413
#     4   9  20  42  58  96 134 173 230 286 337 413
#     4  11  22  40  68  92 130 183 226 285 345 409
#     4  10  24  42  62  92 135 166 231 281 342 410
#     4  12  26  43  70 102 136 179 222 285 346 410
#
# _framework density 24.511196000000002
#
# number of rings (size 3 to 8) (size 9 to 14) (size 15 to 20)
#    0.000    1.500    0.000    4.500    7.000    2.500 
#    2.250    0.000    0.000    0.000    0.000    0.000 
#    0.000    0.000    0.000    0.000    0.000    0.000 
#
# Total GULP energy -89204.016442 kJ/mol
# GULP energy per Si atom -5575.251028 kJ/mol
# Density = 2.445541 g / cm^3
# Si number density = 24.511196 Si / 1000 Ang^3
#
#
#
# Elastic Constant Matrix: (Units=GPa)
#
#
# Indices 1 2 3 4 5 6 
#
# 1 94.1279 32.8836 3.1699 4.7477 -3.6727 -9.5797
# 2 32.8836 144.8445 11.3636 21.0339 -18.8696 -4.4931
# 3 3.1699 11.3636 65.7330 13.2641 -11.5787 -10.7463
# 4 4.7477 21.0339 13.2641 30.4326 -8.1016 -5.7803
# 5 -3.6727 -18.8696 -11.5787 -8.1016 27.2613 9.5007
# 6 -9.5797 -4.4931 -10.7463 -5.7803 9.5007 42.3083
#
#
#
# Elastic Compliance Matrix: (Units=1/GPa)
#
#
# Indices 1 2 3 4 5 6 
#
# 1 0.011813 -0.002794 0.000099 0.000247 -0.001168 0.002699
# 2 -0.002794 0.008798 0.000194 -0.004693 0.004885 -0.001387
# 3 0.000099 0.000194 0.017693 -0.006048 0.004960 0.002597
# 4 0.000247 -0.004693 -0.006048 0.040600 0.005466 0.002341
# 5 -0.001168 0.004885 0.004960 0.005466 0.046487 -0.008178
# 6 0.002699 -0.001387 0.002597 0.002341 -0.008178 0.026916
#
#
# Mechanical properties :
#
#
# Convention : Reuss Voigt Hill
#
# Bulk Modulus (GPa) = 30.02681 44.39330 37.21005
# Shear Modulus (GPa) = 29.68954 37.15299 33.42127
#
# Velocity S-wave (km/s) = 3.48410 3.89749 3.69658
# Velocity P-wave (km/s) = 5.33499 6.19715 5.78216
#
# Compressibility (1/GPa) = 0.03330357
#
# Stress axis : x y z
#
# Youngs Moduli (GPa) = 84.65055 113.66525 56.51842
#
# Poissons Ratio (x) = 0.31757 -0.00560
# Poissons Ratio (y) = 0.23651 -0.01099
# Poissons Ratio (z) = -0.00839 -0.02210
#
# Static dielectric constant tensor:
#      x y z
#    x 1.882240 0.027500 0.110890 
#    y 0.027500 1.929530 -0.257050 
#    z 0.110890 -0.257050 2.066950 
# 
# From -- ./inp_files/49152.got.cif
#   From: 2010.05.17/outbox.cif.g08.bks.cpg/sg2_25_cif.got.tgz:49152.got - 2010.06.03 11:33:40.
