data_PCOD9026976
_publ_section_title
;
Structure prediction by ZEFSAII (Michael W. Deem and Ramdas Pophale) SiO2 
 PCOD9026976
Probable space group: P -1
;
_chemical_formula_sum "Si O2"
_cell_formula_units_Z 14
_cell_length_a 15.382789
_cell_length_b 24.400627
_cell_length_c 15.566942
_cell_angle_alpha 159.592986
_cell_angle_beta 152.858544
_cell_angle_gamma 17.367956
_cell_volume 607.575530
_symmetry_space_group_name_H-M "P -1"
_symmetry_group_IT_number 2
_symmetry_cell_setting 'triclinic'
loop_
_space_group_symop_operation_xyz
x,y,z
-x,-y,-z
loop_
_atom_site_type_symbol
_atom_site_label
_atom_site_fract_x
_atom_site_fract_y
_atom_site_fract_z
Si Si1 0.710207 0.045354 0.472356
Si Si2 0.105857 0.341998 0.629382
Si Si3 0.402335 0.463674 0.444514
Si Si4 0.712443 0.518941 0.886731
Si Si5 0.922366 0.902310 0.059506
Si Si6 0.313682 0.226183 0.232507
Si Si7 0.384284 0.994231 0.219671
O O1 0.513239 0.068593 0.398275
O O2 0.990562 0.759370 0.280401
O O3 0.528913 0.172200 0.411218
O O4 0.826008 0.136334 0.746748
O O5 0.929290 0.382943 0.615472
O O6 0.866335 0.542122 0.642762
O O7 0.296460 0.094752 0.385989
O O8 0.256438 0.407706 0.889623
O O9 0.500000 0.500000 0.500000
O O10 0.464485 0.542480 0.693998
O O11 0.617747 0.181404 0.224986
O O12 0.622010 0.707977 0.015494
O O13 0.906611 0.748943 0.871291
O O14 0.881701 0.897017 0.914618
O O15 0.500000 0.000000 0.000000
#
# Coordination Sequence:
#
# PCOD9026976 Si02
#       7
#     2   2   2   2   2   2   2
#     4  10  23  39  70  92 119 173 214 254 307 371
#     4  12  26  41  63  95 132 165 202 266 313 371
#     4  11  23  40  65  93 121 166 215 253 310 373
#     4  11  23  39  64  92 125 168 208 254 310 375
#     4  10  22  41  66  93 122 168 209 263 303 371
#     4  11  21  43  64  92 127 162 218 255 308 369
#     4  11  24  41  61  96 133 163 204 257 324 370
#
# _framework density 23.042403
#
# number of rings (size 3 to 8) (size 9 to 14) (size 15 to 20)
#    0.000    1.143    4.286    1.714    4.000    5.714 
#    0.000    1.429    0.000    0.000    0.000    0.000 
#    0.000    0.000    0.000    0.000    0.000    0.000 
#
# Total GULP energy -78298.500006 kJ/mol
# GULP energy per Si atom -5592.750000 kJ/mol
# Density = 2.298996 g / cm^3
# Si number density = 23.042403 Si / 1000 Ang^3
#
#
#
# Elastic Constant Matrix: (Units=GPa)
#
#
# Indices 1 2 3 4 5 6 
#
# 1 52.6167 13.0334 23.5638 -3.8828 1.7259 23.7713
# 2 13.0334 67.2319 38.3118 -26.5354 2.1429 24.4644
# 3 23.5638 38.3118 110.0432 -38.5390 -11.4069 -1.8347
# 4 -3.8828 -26.5354 -38.5390 44.6749 8.0787 -6.9870
# 5 1.7259 2.1429 -11.4069 8.0787 28.6078 -0.4608
# 6 23.7713 24.4644 -1.8347 -6.9870 -0.4608 24.8379
#
#
#
# Elastic Compliance Matrix: (Units=1/GPa)
#
#
# Indices 1 2 3 4 5 6 
#
# 1 0.178127 0.128463 -0.108503 -0.041168 -0.057123 -0.317664
# 2 0.128463 0.132034 -0.090626 -0.020836 -0.052184 -0.266518
# 3 -0.108503 -0.090626 0.083576 0.034338 0.040339 0.209688
# 4 -0.041168 -0.020836 0.034338 0.046864 0.005722 0.075748
# 5 -0.057123 -0.052184 0.040339 0.005722 0.058579 0.111746
# 6 -0.317664 -0.266518 0.209688 0.075748 0.111746 0.645665
#
#
# Mechanical properties :
#
#
# Convention : Reuss Voigt Hill
#
# Bulk Modulus (GPa) = 3.96187 42.19000 23.07593
# Shear Modulus (GPa) = 3.64881 29.95630 16.80255
#
# Velocity S-wave (km/s) = 1.25974 3.60953 2.70330
# Velocity P-wave (km/s) = 1.95935 5.97671 4.44748
#
# Compressibility (1/GPa) = 0.25240612
#
# Stress axis : x y z
#
# Youngs Moduli (GPa) = 5.61396 7.57382 11.96514
#
# Poissons Ratio (x) = -0.97296 1.29825
# Poissons Ratio (y) = -0.72119 1.08435
# Poissons Ratio (z) = 0.60913 0.68638
#
# Static dielectric constant tensor:
#      x y z
#    x 1.869000 0.013820 -0.042090 
#    y 0.013820 1.880810 0.001950 
#    z -0.042090 0.001950 1.852420 
# 
# From -- ./inp_files/253831.got.cif
#   From: 2010.05.17/outbox.cif.g08.bks.cpg/sg2_127_cif.got.tgz:253831.got - 2010.06.03 11:33:40.
