data_PCOD9026152
_publ_section_title
;
Structure prediction by ZEFSAII (Michael W. Deem and Ramdas Pophale) SiO2 
 PCOD9026152
Probable space group: P -1
;
_chemical_formula_sum "Si O2"
_cell_formula_units_Z 16
_cell_length_a 19.253383
_cell_length_b 9.527000
_cell_length_c 8.360293
_cell_angle_alpha 130.394557
_cell_angle_beta 146.128596
_cell_angle_gamma 54.634276
_cell_volume 647.912501
_symmetry_space_group_name_H-M "P -1"
_symmetry_group_IT_number 2
_symmetry_cell_setting 'triclinic'
loop_
_space_group_symop_operation_xyz
x,y,z
-x,-y,-z
loop_
_atom_site_type_symbol
_atom_site_label
_atom_site_fract_x
_atom_site_fract_y
_atom_site_fract_z
Si Si1 0.062003 0.568100 0.457526
Si Si2 0.746069 0.766956 0.363650
Si Si3 0.794340 0.105000 0.895764
Si Si4 0.795179 0.775691 0.124667
Si Si5 0.199134 0.628591 0.432927
Si Si6 0.633163 0.086317 0.870472
Si Si7 0.597229 0.655895 0.305519
Si Si8 0.034869 0.923920 0.186774
O O1 0.120147 0.359627 0.456103
O O2 0.110812 0.605065 0.399674
O O3 0.912963 0.621377 0.209916
O O4 0.133934 0.707751 0.815629
O O5 0.749073 0.987197 0.571125
O O6 0.713024 0.732165 0.091309
O O7 0.658369 0.689380 0.273974
O O8 0.679129 0.132620 0.815280
O O9 0.903977 0.949404 0.052955
O O10 0.879328 0.935389 0.465621
O O11 0.701583 0.889642 0.908657
O O12 0.287685 0.439945 0.437767
O O13 0.112762 0.728299 0.206289
O O14 0.295227 0.773202 0.777632
O O15 0.511860 0.843922 0.325724
O O16 0.500000 0.500000 0.000000
O O17 0.000000 0.000000 0.000000
#
# Coordination Sequence:
#
# PCOD9026152 Si02
#       8
#     2   2   2   2   2   2   2   2
#     4   9  19  35  56  83 122 150 183 235 281 345
#     4  11  21  35  59  86 115 150 192 234 288 341
#     4  10  20  35  59  86 114 153 188 229 284 345
#     4  10  19  33  55  86 117 151 184 230 292 345
#     4   8  16  32  56  83 108 154 195 223 281 343
#     4   9  18  34  56  80 110 152 198 235 275 330
#     4   9  19  37  58  80 108 153 195 245 275 325
#     4  10  17  31  55  85 120 150 178 228 291 344
#
# _framework density 24.694692
#
# number of rings (size 3 to 8) (size 9 to 14) (size 15 to 20)
#    0.000    2.500    1.250    1.875    0.000    4.000 
#    0.000    5.625    0.000    0.750    6.500    0.000 
#    0.000    0.000    0.000    0.000    0.000    0.000 
#
# Total GULP energy -89218.412954 kJ/mol
# GULP energy per Si atom -5576.150810 kJ/mol
# Density = 2.463849 g / cm^3
# Si number density = 24.694692 Si / 1000 Ang^3
#
#
#
# Elastic Constant Matrix: (Units=GPa)
#
#
# Indices 1 2 3 4 5 6 
#
# 1 105.0295 67.4371 11.9414 -12.6616 31.5496 -35.3598
# 2 67.4371 134.1217 24.8899 17.5266 -28.6536 -35.4784
# 3 11.9414 24.8899 54.4910 4.9374 2.1674 -14.2863
# 4 -12.6616 17.5266 4.9374 49.1972 -10.5258 -8.4161
# 5 31.5496 -28.6536 2.1674 -10.5258 17.1416 9.4572
# 6 -35.3598 -35.4784 -14.2863 -8.4161 9.4572 43.3290
#
#
#
# Elastic Compliance Matrix: (Units=1/GPa)
#
#
# Indices 1 2 3 4 5 6 
#
# 1 -0.005648 0.008358 -0.005313 0.001340 0.028935 -0.005572
# 2 0.008358 0.002562 0.001329 -0.000686 -0.019076 0.013388
# 3 -0.005313 0.001329 0.019007 -0.001895 0.007926 0.000921
# 4 0.001340 -0.000686 -0.001895 0.023610 0.009830 0.002347
# 5 0.028935 -0.019076 0.007926 0.009830 -0.032602 0.019632
# 6 -0.005572 0.013388 0.000921 0.002347 0.019632 0.025968
#
#
# Mechanical properties :
#
#
# Convention : Reuss Voigt Hill
#
# Bulk Modulus (GPa) = 40.53654 55.79766 48.16710
# Shear Modulus (GPa) = 154.44536 34.55847 94.50191
#
# Velocity S-wave (km/s) = 7.91692 3.74495 6.19283
# Velocity P-wave (km/s) = 10.00105 6.42990 8.40728
#
# Compressibility (1/GPa) = 0.02466910
#
# Stress axis : x y z
#
# Youngs Moduli (GPa) = -177.06489 390.26671 52.61221
#
# Poissons Ratio (x) = -3.26197 0.27955
# Poissons Ratio (y) = 1.47996 -0.06991
# Poissons Ratio (z) = -0.94081 -0.51858
#
# Static dielectric constant tensor:
#      x y z
#    x 2.095480 0.004860 -0.065700 
#    y 0.004860 1.960120 0.059590 
#    z -0.065700 0.059590 2.107790 
# 
# From -- ./inp_files/343891.got.cif
#   From: 2010.05.17/outbox.cif.g08.bks.cpg/sg2_172_cif.got.tgz:343891.got - 2010.06.03 11:33:40.
