data_PCOD9026317
_publ_section_title
;
Structure prediction by ZEFSAII (Michael W. Deem and Ramdas Pophale) SiO2 
 PCOD9026317
Probable space group: P -1
;
_chemical_formula_sum "Si O2"
_cell_formula_units_Z 12
_cell_length_a 5.868184
_cell_length_b 13.779188
_cell_length_c 14.263861
_cell_angle_alpha 28.078078
_cell_angle_beta 103.390267
_cell_angle_gamma 92.712595
_cell_volume 496.083786
_symmetry_space_group_name_H-M "P -1"
_symmetry_group_IT_number 2
_symmetry_cell_setting 'triclinic'
loop_
_space_group_symop_operation_xyz
x,y,z
-x,-y,-z
loop_
_atom_site_type_symbol
_atom_site_label
_atom_site_fract_x
_atom_site_fract_y
_atom_site_fract_z
Si Si1 0.678479 0.712092 0.505838
Si Si2 0.896257 0.360911 0.682900
Si Si3 0.978552 0.523900 0.117141
Si Si4 0.262152 0.667568 0.888038
Si Si5 0.635706 0.013490 0.904793
Si Si6 0.471489 0.031046 0.358901
O O1 0.694020 0.514878 0.604406
O O2 0.580783 0.919719 0.250118
O O3 0.492454 0.813537 0.488839
O O4 0.951012 0.609790 0.666502
O O5 0.773644 0.195260 0.765802
O O6 0.000000 0.500000 0.500000
O O7 0.137226 0.212854 0.890551
O O8 0.951319 0.350974 0.184965
O O9 0.216881 0.584022 0.055593
O O10 0.756680 0.757431 0.881481
O O11 0.289522 0.900268 0.701338
O O12 0.500000 0.500000 0.000000
O O13 0.500000 0.000000 0.000000
O O14 0.500000 0.000000 0.500000
#
# Coordination Sequence:
#
# PCOD9026317 Si02
#       6
#     2   2   2   2   2   2
#     4  12  24  43  69 103 138 183 227 292 350 416
#     4  11  25  49  73 102 141 183 232 295 360 424
#     4  10  22  41  63  95 133 182 232 279 347 400
#     4   9  19  41  64  89 135 182 227 285 330 401
#     4  11  25  48  75 106 140 182 237 294 359 427
#     4  11  24  43  65  99 139 183 235 280 338 414
#
# _framework density 24.189461999999999
#
# number of rings (size 3 to 8) (size 9 to 14) (size 15 to 20)
#    0.000    1.333    1.667    4.500    0.000    4.000 
#   12.000    0.000    0.000    0.000    0.000    0.000 
#    0.000    0.000    0.000    0.000    0.000    0.000 
#
# Total GULP energy -66825.200313 kJ/mol
# GULP energy per Si atom -5568.766693 kJ/mol
# Density = 2.413441 g / cm^3
# Si number density = 24.189462 Si / 1000 Ang^3
#
#
#
# Elastic Constant Matrix: (Units=GPa)
#
#
# Indices 1 2 3 4 5 6 
#
# 1 65.5192 14.5962 49.2971 -6.6201 -8.2047 -4.8069
# 2 14.5962 104.2187 63.8884 -0.7716 12.1025 -18.7143
# 3 49.2971 63.8884 201.9696 16.3007 41.6424 1.5709
# 4 -6.6201 -0.7716 16.3007 50.1121 -2.0143 12.7894
# 5 -8.2047 12.1025 41.6424 -2.0143 53.5230 -13.6389
# 6 -4.8069 -18.7143 1.5709 12.7894 -13.6389 24.1795
#
#
#
# Elastic Compliance Matrix: (Units=1/GPa)
#
#
# Indices 1 2 3 4 5 6 
#
# 1 0.027118 0.004821 -0.012115 0.003807 0.017107 0.017545
# 2 0.004821 0.016439 -0.008146 -0.001093 0.008277 0.019458
# 3 -0.012115 -0.008146 0.013977 -0.002578 -0.015288 -0.016881
# 4 0.003807 -0.001093 -0.002578 0.024511 0.000555 -0.012574
# 5 0.017107 0.008277 -0.015288 0.000555 0.039739 0.032922
# 6 0.017545 0.019458 -0.016881 -0.012574 0.032922 0.086223
#
#
# Mechanical properties :
#
#
# Convention : Reuss Voigt Hill
#
# Bulk Modulus (GPa) = 37.51958 69.69675 53.60816
# Shear Modulus (GPa) = 20.17979 41.82464 31.00222
#
# Velocity S-wave (km/s) = 2.89145 4.16269 3.58389
# Velocity P-wave (km/s) = 5.16640 7.20967 6.27181
#
# Compressibility (1/GPa) = 0.02665275
#
# Stress axis : x y z
#
# Youngs Moduli (GPa) = 36.87568 60.83203 71.54760
#
# Poissons Ratio (x) = -0.29326 0.86679
# Poissons Ratio (y) = -0.17777 0.58285
# Poissons Ratio (z) = 0.44674 0.49556
#
# Static dielectric constant tensor:
#      x y z
#    x 2.032360 0.006620 0.046580 
#    y 0.006620 1.967460 -0.002560 
#    z 0.046580 -0.002560 1.949880 
# 
# From -- ./inp_files/483216.got.cif
#   From: 2010.05.17/outbox.cif.g08.bks.cpg/sg2_242_cif.got.tgz:483216.got - 2010.06.03 11:33:40.
