data_PCOD9026663
_publ_section_title
;
Structure prediction by ZEFSAII (Michael W. Deem and Ramdas Pophale) SiO2 
 PCOD9026663
Probable space group: P -1
;
_chemical_formula_sum "Si O2"
_cell_formula_units_Z 16
_cell_length_a 8.856071
_cell_length_b 22.137634
_cell_length_c 9.555765
_cell_angle_alpha 52.997275
_cell_angle_beta 148.311239
_cell_angle_gamma 124.563600
_cell_volume 779.094642
_symmetry_space_group_name_H-M "P -1"
_symmetry_group_IT_number 2
_symmetry_cell_setting 'triclinic'
loop_
_space_group_symop_operation_xyz
x,y,z
-x,-y,-z
loop_
_atom_site_type_symbol
_atom_site_label
_atom_site_fract_x
_atom_site_fract_y
_atom_site_fract_z
Si Si1 0.584912 0.794421 0.246244
Si Si2 0.790491 0.205579 0.335085
Si Si3 0.832814 0.445113 0.743780
Si Si4 0.168142 0.692264 0.273764
Si Si5 0.612299 0.445113 0.865995
Si Si6 0.475879 0.307736 0.158293
Si Si7 0.794840 0.965775 0.264728
Si Si8 0.170934 0.965775 0.303722
O O1 0.375934 0.748238 0.258448
O O2 0.707542 0.875308 0.301067
O O3 0.878842 0.757683 0.492317
O O4 0.402530 0.805058 0.944942
O O5 0.627695 0.251762 0.254924
O O6 0.832234 0.124692 0.551683
O O7 0.898520 0.383812 0.767145
O O8 0.704612 0.409224 0.840776
O O9 0.604796 0.495811 0.429182
O O10 0.108985 0.504189 0.920803
O O11 0.339964 0.679930 0.570070
O O12 0.859827 0.719655 0.030345
O O13 0.485293 0.383812 0.965232
O O14 0.996481 0.992962 0.257038
O O15 0.000000 0.000000 0.500000
O O16 0.500000 0.000000 0.000000
O O17 0.500000 0.000000 0.500000
O O18 0.000000 0.000000 0.000000
#
# Coordination Sequence:
#
# PCOD9026663 Si02
#       8
#     2   2   2   2   2   2   2   2
#     4  11  24  45  67  90 127 175 217 255 313 391
#     4  11  24  45  67  90 127 175 217 255 313 391
#     4  10  22  41  65  91 125 173 219 257 311 387
#     4  12  26  41  64 100 133 166 212 272 330 369
#     4  10  22  41  65  91 125 173 219 257 311 387
#     4  12  26  41  64 100 133 166 212 272 330 369
#     4  11  23  41  65  94 124 162 207 258 316 376
#     4  11  23  41  65  94 124 162 207 258 316 376
#
# _framework density 20.536657000000002
#
# number of rings (size 3 to 8) (size 9 to 14) (size 15 to 20)
#    0.000    1.000    0.000    7.500    0.000    9.000 
#    0.000    0.000    0.000    0.000    0.000    0.000 
#    0.000    0.000    0.000    0.000    0.000    0.000 
#
# Total GULP energy -89386.796577 kJ/mol
# GULP energy per Si atom -5586.674786 kJ/mol
# Density = 2.048991 g / cm^3
# Si number density = 20.536657 Si / 1000 Ang^3
#
#
#
# Elastic Constant Matrix: (Units=GPa)
#
#
# Indices 1 2 3 4 5 6 
#
# 1 195.0269 71.3716 89.4244 3.8037 8.4315 -0.9333
# 2 71.3716 65.1337 58.2533 8.5589 -8.2264 -4.8006
# 3 89.4244 58.2533 195.9654 20.2767 1.3878 -2.7211
# 4 3.8037 8.5589 20.2767 25.0927 -0.5884 2.8924
# 5 8.4315 -8.2264 1.3878 -0.5884 60.0572 4.2506
# 6 -0.9333 -4.8006 -2.7211 2.8924 4.2506 37.0826
#
#
#
# Elastic Compliance Matrix: (Units=1/GPa)
#
#
# Indices 1 2 3 4 5 6 
#
# 1 0.009539 -0.009662 -0.001831 0.003399 -0.002508 -0.001123
# 2 -0.009662 0.031555 -0.004337 -0.006054 0.005481 0.003368
# 3 -0.001831 -0.004337 0.007705 -0.004527 -0.000586 0.000378
# 4 0.003399 -0.006054 -0.004527 0.045572 -0.000434 -0.004535
# 5 -0.002508 0.005481 -0.000586 -0.000434 0.017863 -0.001410
# 6 -0.001123 0.003368 0.000378 -0.004535 -0.001410 0.027918
#
#
# Mechanical properties :
#
#
# Convention : Reuss Voigt Hill
#
# Bulk Modulus (GPa) = 58.33942 99.35829 78.84885
# Shear Modulus (GPa) = 28.16502 40.25162 34.20832
#
# Velocity S-wave (km/s) = 3.70733 4.43198 4.08575
# Velocity P-wave (km/s) = 6.84068 8.64152 7.79329
#
# Compressibility (1/GPa) = 0.01714107
#
# Stress axis : x y z
#
# Youngs Moduli (GPa) = 104.82742 31.69058 129.78203
#
# Poissons Ratio (x) = 0.30620 0.23757
# Poissons Ratio (y) = 1.01285 0.56283
# Poissons Ratio (z) = 0.19189 0.13743
#
# Static dielectric constant tensor:
#      x y z
#    x 1.720470 0.003350 0.010070 
#    y 0.003350 1.742010 -0.010040 
#    z 0.010070 -0.010040 1.698880 
# 
# From -- ./inp_files/223550.got.cif
#   From: 2010.05.17/outbox.cif.g08.bks.cpg/sg2_112_cif.got.tgz:223550.got - 2010.06.03 11:33:40.
