data_PCOD9026527
_publ_section_title
;
Structure prediction by ZEFSAII (Michael W. Deem and Ramdas Pophale) SiO2 
 PCOD9026527
Probable space group: P -1
;
_chemical_formula_sum "Si O2"
_cell_formula_units_Z 14
_cell_length_a 29.286866
_cell_length_b 29.613345
_cell_length_c 11.810429
_cell_angle_alpha 156.586334
_cell_angle_beta 157.017220
_cell_angle_gamma 9.826057
_cell_volume 673.933422
_symmetry_space_group_name_H-M "P -1"
_symmetry_group_IT_number 2
_symmetry_cell_setting 'triclinic'
loop_
_space_group_symop_operation_xyz
x,y,z
-x,-y,-z
loop_
_atom_site_type_symbol
_atom_site_label
_atom_site_fract_x
_atom_site_fract_y
_atom_site_fract_z
Si Si1 0.726684 0.761325 0.323575
Si Si2 0.323776 0.309982 0.715026
Si Si3 0.698259 0.932636 0.297592
Si Si4 0.195876 0.727214 0.857672
Si Si5 0.753822 0.567771 0.732729
Si Si6 0.506713 0.372194 0.160474
Si Si7 0.982736 0.850912 0.906812
O O1 0.672017 0.728740 0.232528
O O2 0.007992 0.581917 0.578794
O O3 0.483379 0.066149 0.458035
O O4 0.746007 0.664395 0.036893
O O5 0.471534 0.298339 0.997567
O O6 0.785350 0.918286 0.578800
O O7 0.984659 0.638083 0.222301
O O8 0.530164 0.172267 0.388641
O O9 0.500000 0.000000 0.000000
O O10 0.182291 0.617489 0.511410
O O11 0.113038 0.775849 0.911443
O O12 0.500000 0.500000 0.000000
O O13 0.000000 0.000000 0.000000
O O14 0.500000 0.500000 0.500000
O O15 0.241469 0.594573 0.985491
O O16 0.783174 0.113061 0.120752
#
# Coordination Sequence:
#
# PCOD9026527 Si02
#       7
#     2   2   2   2   2   2   2
#     4  10  22  41  64  95 127 170 217 281 326 392
#     4  10  23  41  64  92 130 169 223 273 335 377
#     4  11  24  40  64 100 132 169 208 262 342 404
#     4  11  23  43  66  93 131 178 214 271 332 391
#     4  11  23  40  63  99 129 161 227 261 324 413
#     4  12  26  45  68  96 133 182 229 272 333 402
#     4  11  25  44  66  98 135 167 222 277 324 395
#
# _framework density 20.773565999999999
#
# number of rings (size 3 to 8) (size 9 to 14) (size 15 to 20)
#    0.000    1.143    0.000    6.857    6.000    2.286 
#    0.000    2.857    0.000    0.000    0.000    0.000 
#    0.000    0.000    0.000    0.000    0.000    0.000 
#
# Total GULP energy -78250.142580 kJ/mol
# GULP energy per Si atom -5589.295899 kJ/mol
# Density = 2.072628 g / cm^3
# Si number density = 20.773566 Si / 1000 Ang^3
#
#
#
# Elastic Constant Matrix: (Units=GPa)
#
#
# Indices 1 2 3 4 5 6 
#
# 1 67.5728 15.4314 29.9714 5.9668 4.1475 -11.0926
# 2 15.4314 104.6339 -4.5538 12.9368 2.5238 -11.0294
# 3 29.9714 -4.5538 78.6310 14.9323 10.8215 -9.8695
# 4 5.9668 12.9368 14.9323 36.7394 -7.5048 -3.7078
# 5 4.1475 2.5238 10.8215 -7.5048 33.6747 7.5621
# 6 -11.0926 -11.0294 -9.8695 -3.7078 7.5621 39.1083
#
#
#
# Elastic Compliance Matrix: (Units=1/GPa)
#
#
# Indices 1 2 3 4 5 6 
#
# 1 0.019088 -0.002967 -0.007281 0.001159 -0.000178 0.002884
# 2 -0.002967 0.011284 0.003757 -0.005418 -0.003678 0.003487
# 3 -0.007281 0.003757 0.019249 -0.009268 -0.008681 0.004652
# 4 0.001159 -0.005418 -0.009268 0.034816 0.011556 -0.002472
# 5 -0.000178 -0.003678 -0.008681 0.011556 0.037476 -0.009430
# 6 0.002884 0.003487 0.004652 -0.002472 -0.009430 0.030134
#
#
# Mechanical properties :
#
#
# Convention : Reuss Voigt Hill
#
# Bulk Modulus (GPa) = 27.29264 36.94840 32.12052
# Shear Modulus (GPa) = 28.20995 35.90373 32.05684
#
# Velocity S-wave (km/s) = 3.68907 4.16184 3.93256
# Velocity P-wave (km/s) = 5.59574 6.39683 6.00965
#
# Compressibility (1/GPa) = 0.03663992
#
# Stress axis : x y z
#
# Youngs Moduli (GPa) = 52.38929 88.61852 51.95074
#
# Poissons Ratio (x) = 0.26292 0.37825
# Poissons Ratio (y) = 0.15543 -0.19519
# Poissons Ratio (z) = 0.38144 -0.33295
#
# Static dielectric constant tensor:
#      x y z
#    x 1.775010 -0.019660 0.089290 
#    y -0.019660 1.656490 0.138700 
#    z 0.089290 0.138700 1.452870 
# 
# From -- ./inp_files/477362.got.cif
#   From: 2010.05.17/outbox.cif.g08.bks.cpg/sg2_239_cif.got.tgz:477362.got - 2010.06.03 11:33:40.
