data_PCOD9026451
_publ_section_title
;
Structure prediction by ZEFSAII (Michael W. Deem and Ramdas Pophale) SiO2 
 PCOD9026451
Probable space group: P -1
;
_chemical_formula_sum "Si O2"
_cell_formula_units_Z 16
_cell_length_a 9.235448
_cell_length_b 14.835857
_cell_length_c 13.139413
_cell_angle_alpha 43.092720
_cell_angle_beta 135.270772
_cell_angle_gamma 103.441272
_cell_volume 695.315085
_symmetry_space_group_name_H-M "P -1"
_symmetry_group_IT_number 2
_symmetry_cell_setting 'triclinic'
loop_
_space_group_symop_operation_xyz
x,y,z
-x,-y,-z
loop_
_atom_site_type_symbol
_atom_site_label
_atom_site_fract_x
_atom_site_fract_y
_atom_site_fract_z
Si Si1 0.776712 0.897450 0.498163
Si Si2 0.736259 0.032911 0.872106
Si Si3 0.522097 0.608566 0.501150
Si Si4 0.162041 0.905047 0.806750
Si Si5 0.798383 0.876816 0.221490
Si Si6 0.653851 0.539480 0.338137
Si Si7 0.893328 0.501509 0.277761
Si Si8 0.038055 0.532664 0.873906
O O1 0.499590 0.931727 0.344158
O O2 0.965604 0.713678 0.698934
O O3 0.694658 0.552470 0.228614
O O4 0.926040 0.900032 0.666316
O O5 0.609809 0.200189 0.736199
O O6 0.918385 0.964215 0.253109
O O7 0.000000 0.000000 0.000000
O O8 0.500000 0.500000 0.500000
O O9 0.425609 0.581043 0.581123
O O10 0.814662 0.531903 0.714139
O O11 0.233722 0.977386 0.689916
O O12 0.415883 0.721989 0.103930
O O13 0.808081 0.880540 0.102313
O O14 0.934553 0.696495 0.478111
O O15 0.500000 0.000000 0.000000
O O16 0.905338 0.474157 0.586288
O O17 0.773843 0.560314 0.054673
O O18 0.000000 0.500000 0.000000
#
# Coordination Sequence:
#
# PCOD9026451 Si02
#       8
#     2   2   2   2   2   2   2   2
#     4  10  22  41  64  92 125 169 219 259 318 391
#     4  11  23  39  64  93 130 164 206 272 325 377
#     4  11  21  38  60  93 126 165 216 254 315 392
#     4  11  21  38  70  93 123 170 221 267 309 393
#     4  12  19  39  68  97 119 170 228 261 315 383
#     4  11  22  37  63  99 131 164 212 276 329 369
#     4  11  22  38  62  99 132 160 218 280 317 379
#     4  11  22  41  64  89 130 172 212 262 322 395
#
# _framework density 23.011151999999999
#
# number of rings (size 3 to 8) (size 9 to 14) (size 15 to 20)
#    0.000    1.000    5.000    3.000    0.000    1.000 
#    0.000    3.125    8.250    0.000    0.000    0.000 
#    0.000    0.000    0.000    0.000    0.000    0.000 
#
# Total GULP energy -89101.064190 kJ/mol
# GULP energy per Si atom -5568.816512 kJ/mol
# Density = 2.295878 g / cm^3
# Si number density = 23.011152 Si / 1000 Ang^3
#
#
#
# Elastic Constant Matrix: (Units=GPa)
#
#
# Indices 1 2 3 4 5 6 
#
# 1 90.4867 7.0841 9.0851 5.7055 -5.7183 -1.6321
# 2 7.0841 126.4768 17.7410 19.8227 9.6370 8.0388
# 3 9.0851 17.7410 30.2985 -2.1311 -1.0015 1.1170
# 4 5.7055 19.8227 -2.1311 30.4163 11.7623 -2.2968
# 5 -5.7183 9.6370 -1.0015 11.7623 36.2032 6.3278
# 6 -1.6321 8.0388 1.1170 -2.2968 6.3278 41.4363
#
#
#
# Elastic Compliance Matrix: (Units=1/GPa)
#
#
# Indices 1 2 3 4 5 6 
#
# 1 0.011845 0.000262 -0.003870 -0.003819 0.002960 -0.000144
# 2 0.000262 0.010058 -0.006397 -0.007173 -0.000107 -0.002150
# 3 -0.003870 -0.006397 0.038424 0.007816 -0.000483 0.000560
# 4 -0.003819 -0.007173 0.007816 0.044643 -0.013967 0.005638
# 5 0.002960 -0.000107 -0.000483 -0.013967 0.033650 -0.005763
# 6 -0.000144 -0.002150 0.000560 0.005638 -0.005763 0.025722
#
#
# Mechanical properties :
#
#
# Convention : Reuss Voigt Hill
#
# Bulk Modulus (GPa) = 24.80396 35.00917 29.90657
# Shear Modulus (GPa) = 25.27904 35.83460 30.55682
#
# Velocity S-wave (km/s) = 3.31804 3.95051 3.64801
# Velocity P-wave (km/s) = 5.04794 6.00464 5.54696
#
# Compressibility (1/GPa) = 0.04031614
#
# Stress axis : x y z
#
# Youngs Moduli (GPa) = 84.42568 99.42038 26.02521
#
# Poissons Ratio (x) = -0.02601 0.10073
# Poissons Ratio (y) = -0.02209 0.16648
# Poissons Ratio (z) = 0.32676 0.63598
#
# Static dielectric constant tensor:
#      x y z
#    x 2.074910 -0.068870 -0.060300 
#    y -0.068870 1.891680 0.050260 
#    z -0.060300 0.050260 1.932010 
# 
# From -- ./inp_files/573705.got.cif
#   From: 2010.05.17/outbox.cif.g08.bks.cpg/sg2_287_cif.got.tgz:573705.got - 2010.06.03 11:33:40.
