data_PCOD9026361
_publ_section_title
;
Structure prediction by ZEFSAII (Michael W. Deem and Ramdas Pophale) SiO2 
 PCOD9026361
Probable space group: P -1
;
_chemical_formula_sum "Si O2"
_cell_formula_units_Z 16
_cell_length_a 9.553720
_cell_length_b 13.604766
_cell_length_c 5.001009
_cell_angle_alpha 73.905925
_cell_angle_beta 79.645411
_cell_angle_gamma 75.972283
_cell_volume 601.479357
_symmetry_space_group_name_H-M "P -1"
_symmetry_group_IT_number 2
_symmetry_cell_setting 'triclinic'
loop_
_space_group_symop_operation_xyz
x,y,z
-x,-y,-z
loop_
_atom_site_type_symbol
_atom_site_label
_atom_site_fract_x
_atom_site_fract_y
_atom_site_fract_z
Si Si1 0.203438 0.622515 0.208957
Si Si2 0.867541 0.475459 0.233140
Si Si3 0.805182 0.842032 0.471635
Si Si4 0.734336 0.683666 0.956910
Si Si5 0.518504 0.782390 0.348518
Si Si6 0.788181 0.064322 0.578545
Si Si7 0.914436 0.145338 0.961551
Si Si8 0.420507 0.439070 0.285354
O O1 0.082278 0.591614 0.467996
O O2 0.196172 0.744238 0.138655
O O3 0.334110 0.543359 0.383666
O O4 0.196290 0.593468 0.921379
O O5 0.785320 0.596614 0.229533
O O6 0.000000 0.500000 0.000000
O O7 0.841231 0.752990 0.755389
O O8 0.655802 0.819742 0.412923
O O9 0.930086 0.838004 0.210567
O O10 0.779332 0.952890 0.544440
O O11 0.699275 0.607149 0.800571
O O12 0.583825 0.758314 0.046217
O O13 0.372976 0.866550 0.381655
O O14 0.495080 0.668690 0.538893
O O15 0.865227 0.062057 0.841067
O O16 0.885086 0.115704 0.296996
O O17 0.500000 0.500000 0.000000
#
# Coordination Sequence:
#
# PCOD9026361 Si02
#       8
#     2   2   2   2   2   2   2   2
#     4  11  23  40  63  99 134 184 220 289 344 420
#     4  11  22  39  64  96 139 174 230 278 351 421
#     4  11  27  48  76 102 145 191 244 314 363 426
#     4  10  24  41  68 106 139 190 240 295 361 433
#     4  11  25  45  74 106 146 189 247 294 368 440
#     4  12  29  49  74 108 144 193 248 309 365 429
#     4  12  28  49  75 108 145 192 251 298 370 435
#     4  10  22  41  64 100 145 186 234 285 356 432
#
# _framework density 26.601075999999999
#
# number of rings (size 3 to 8) (size 9 to 14) (size 15 to 20)
#    0.000    1.000    1.250    3.750   10.500    2.000 
#    0.000    0.000    0.000    0.000    0.000    0.000 
#    0.000    0.000    0.000    0.000    0.000    0.000 
#
# Total GULP energy -89432.325217 kJ/mol
# GULP energy per Si atom -5589.520326 kJ/mol
# Density = 2.654053 g / cm^3
# Si number density = 26.601076 Si / 1000 Ang^3
#
#
#
# Elastic Constant Matrix: (Units=GPa)
#
#
# Indices 1 2 3 4 5 6 
#
# 1 99.7853 40.3534 21.7955 11.1186 -11.3841 11.8822
# 2 40.3534 159.6900 50.2240 1.0307 -16.3260 5.5696
# 3 21.7955 50.2240 144.5644 3.8931 2.0747 12.1004
# 4 11.1186 1.0307 3.8931 53.2280 4.8472 -6.0119
# 5 -11.3841 -16.3260 2.0747 4.8472 34.7244 6.3809
# 6 11.8822 5.5696 12.1004 -6.0119 6.3809 45.7110
#
#
#
# Elastic Compliance Matrix: (Units=1/GPa)
#
#
# Indices 1 2 3 4 5 6 
#
# 1 0.012414 -0.002332 -0.000717 -0.003301 0.004169 -0.003769
# 2 -0.002332 0.007942 -0.002448 0.000216 0.003107 -0.000119
# 3 -0.000717 -0.002448 0.008033 -0.000418 -0.001535 -0.001483
# 4 -0.003301 0.000216 -0.000418 0.020403 -0.004588 0.004266
# 5 0.004169 0.003107 -0.001535 -0.004588 0.033523 -0.006339
# 6 -0.003769 -0.000119 -0.001483 0.004266 -0.006339 0.024709
#
#
# Mechanical properties :
#
#
# Convention : Reuss Voigt Hill
#
# Bulk Modulus (GPa) = 57.48963 69.86504 63.67733
# Shear Modulus (GPa) = 40.38262 46.17712 43.27987
#
# Velocity S-wave (km/s) = 3.90048 4.17095 4.03798
# Velocity P-wave (km/s) = 6.47640 7.03681 6.76241
#
# Compressibility (1/GPa) = 0.01739444
#
# Stress axis : x y z
#
# Youngs Moduli (GPa) = 80.55701 125.91518 124.48288
#
# Poissons Ratio (x) = 0.29369 0.08921
# Poissons Ratio (y) = 0.18790 0.30473
# Poissons Ratio (z) = 0.05773 0.30823
#
# Static dielectric constant tensor:
#      x y z
#    x 2.034650 -0.114450 0.178280 
#    y -0.114450 2.130400 0.035510 
#    z 0.178280 0.035510 1.916150 
# 
# From -- ./inp_files/77301.got.cif
#   From: 2010.05.17/outbox.cif.g08.bks.cpg/sg2_39_cif.got.tgz:77301.got - 2010.06.03 11:33:40.
