data_PCOD9026068
_publ_section_title
;
Structure prediction by ZEFSAII (Michael W. Deem and Ramdas Pophale) SiO2 
 PCOD9026068
Probable space group: P -1
;
_chemical_formula_sum "Si O2"
_cell_formula_units_Z 14
_cell_length_a 12.770494
_cell_length_b 9.862332
_cell_length_c 7.268340
_cell_angle_alpha 133.769305
_cell_angle_beta 79.797508
_cell_angle_gamma 72.697346
_cell_volume 524.879068
_symmetry_space_group_name_H-M "P -1"
_symmetry_group_IT_number 2
_symmetry_cell_setting 'triclinic'
loop_
_space_group_symop_operation_xyz
x,y,z
-x,-y,-z
loop_
_atom_site_type_symbol
_atom_site_label
_atom_site_fract_x
_atom_site_fract_y
_atom_site_fract_z
Si Si1 0.993225 0.731822 0.748081
Si Si2 0.093566 0.540045 0.896611
Si Si3 0.767816 0.959358 0.770837
Si Si4 0.723351 0.415133 0.542843
Si Si5 0.662955 0.217549 0.704826
Si Si6 0.352903 0.446503 0.721936
Si Si7 0.482201 0.915648 0.170739
O O1 0.005341 0.749698 0.979142
O O2 0.124924 0.683422 0.579302
O O3 0.000000 0.500000 0.500000
O O4 0.861929 0.935776 0.878203
O O5 0.182617 0.304332 0.526625
O O6 0.212256 0.533380 0.942450
O O7 0.000000 0.500000 0.000000
O O8 0.610786 0.093306 0.962470
O O9 0.783449 0.049027 0.654334
O O10 0.684101 0.435590 0.358227
O O11 0.696280 0.267756 0.546178
O O12 0.628956 0.686933 0.892598
O O13 0.589232 0.454318 0.071819
O O14 0.585629 0.101835 0.641197
O O15 0.445605 0.170173 0.411848
#
# Coordination Sequence:
#
# PCOD9026068 Si02
#       7
#     2   2   2   2   2   2   2
#     4   9  19  36  60  92 122 161 212 250 315 375
#     4   9  18  36  60  85 127 162 205 261 304 369
#     4   8  19  39  57  89 127 159 201 257 312 364
#     4  11  22  40  68  91 128 169 208 266 314 369
#     4  10  23  41  65  93 132 162 211 264 311 376
#     4  10  22  41  61  97 122 167 214 254 318 382
#     4   9  21  44  65  90 131 165 208 266 311 372
#
# _framework density 26.672809999999998
#
# number of rings (size 3 to 8) (size 9 to 14) (size 15 to 20)
#    0.857    1.714    0.000    1.714    4.000    1.714 
#    2.571    2.857    3.143    0.000    0.000    0.000 
#    0.000    0.000    0.000    0.000    0.000    0.000 
#
# Total GULP energy -78216.816542 kJ/mol
# GULP energy per Si atom -5586.915467 kJ/mol
# Density = 2.661210 g / cm^3
# Si number density = 26.672810 Si / 1000 Ang^3
#
#
#
# Elastic Constant Matrix: (Units=GPa)
#
#
# Indices 1 2 3 4 5 6 
#
# 1 117.5251 52.1272 39.0212 -6.3284 -12.8985 -10.3240
# 2 52.1272 199.6708 53.1252 -3.4063 -13.4936 -4.9845
# 3 39.0212 53.1252 69.5227 -1.8164 -11.3932 -3.3530
# 4 -6.3284 -3.4063 -1.8164 49.3023 6.7521 -4.6733
# 5 -12.8985 -13.4936 -11.3932 6.7521 28.6028 13.2039
# 6 -10.3240 -4.9845 -3.3530 -4.6733 13.2039 47.5323
#
#
#
# Elastic Compliance Matrix: (Units=1/GPa)
#
#
# Indices 1 2 3 4 5 6 
#
# 1 0.011104 -0.001476 -0.004768 0.001113 0.001390 0.001644
# 2 -0.001476 0.006517 -0.004014 -0.000026 0.000895 -0.000172
# 3 -0.004768 -0.004014 0.020882 -0.000978 0.005210 -0.001527
# 4 0.001113 -0.000026 -0.000978 0.021749 -0.006997 0.004252
# 5 0.001390 0.000895 0.005210 -0.006997 0.045543 -0.012576
# 6 0.001644 -0.000172 -0.001527 0.004252 -0.012576 0.025181
#
#
# Mechanical properties :
#
#
# Convention : Reuss Voigt Hill
#
# Bulk Modulus (GPa) = 55.59716 75.02954 65.31335
# Shear Modulus (GPa) = 31.74848 41.25048 36.49948
#
# Velocity S-wave (km/s) = 3.45381 3.93687 3.70322
# Velocity P-wave (km/s) = 6.06584 6.98970 6.54409
#
# Compressibility (1/GPa) = 0.01798653
#
# Stress axis : x y z
#
# Youngs Moduli (GPa) = 90.06128 153.43647 47.88907
#
# Poissons Ratio (x) = 0.22651 0.22833
# Poissons Ratio (y) = 0.13295 0.19222
# Poissons Ratio (z) = 0.42941 0.61587
#
# Static dielectric constant tensor:
#      x y z
#    x 2.170880 -0.079770 0.006760 
#    y -0.079770 2.177260 0.026770 
#    z 0.006760 0.026770 2.132420 
# 
# From -- ./inp_files/299438.got.cif
#   From: 2010.05.17/outbox.cif.g08.bks.cpg/sg2_150_cif.got.tgz:299438.got - 2010.06.03 11:33:40.
