data_PCOD9026388
_publ_section_title
;
Structure prediction by ZEFSAII (Michael W. Deem and Ramdas Pophale) SiO2 
 PCOD9026388
Probable space group: P -1
;
_chemical_formula_sum "Si O2"
_cell_formula_units_Z 16
_cell_length_a 8.926231
_cell_length_b 12.357580
_cell_length_c 15.232318
_cell_angle_alpha 47.456721
_cell_angle_beta 64.850539
_cell_angle_gamma 39.225717
_cell_volume 765.036245
_symmetry_space_group_name_H-M "P -1"
_symmetry_group_IT_number 2
_symmetry_cell_setting 'triclinic'
loop_
_space_group_symop_operation_xyz
x,y,z
-x,-y,-z
loop_
_atom_site_type_symbol
_atom_site_label
_atom_site_fract_x
_atom_site_fract_y
_atom_site_fract_z
Si Si1 0.017232 0.331007 0.630243
Si Si2 0.526974 0.410935 0.408121
Si Si3 0.134185 0.946828 0.772578
Si Si4 0.630489 0.195973 0.676717
Si Si5 0.524627 0.465614 0.186738
Si Si6 0.618580 0.944696 0.159180
Si Si7 0.043478 0.777711 0.034308
Si Si8 0.225203 0.433307 0.027662
O O1 0.158592 0.253812 0.727617
O O2 0.000000 0.500000 0.500000
O O3 0.746649 0.446910 0.630114
O O4 0.154941 0.107595 0.672122
O O5 0.606270 0.239060 0.554265
O O6 0.524128 0.571322 0.368238
O O7 0.634382 0.354039 0.315722
O O8 0.379109 0.717364 0.804515
O O9 0.073074 0.913260 0.900607
O O10 0.907999 0.040715 0.718975
O O11 0.538507 0.100912 0.789445
O O12 0.237743 0.660637 0.130023
O O13 0.651137 0.532516 0.088207
O O14 0.767997 0.923700 0.053979
O O15 0.438622 0.174236 0.127769
O O16 0.128612 0.592843 0.046758
O O17 0.000000 0.500000 0.000000
#
# Coordination Sequence:
#
# PCOD9026388 Si02
#       8
#     2   2   2   2   2   2   2   2
#     4  11  21  40  64  94 124 166 222 269 313 378
#     4  10  22  41  64  88 125 170 217 262 318 381
#     4  10  23  41  64  89 133 170 210 266 329 385
#     4  10  23  41  60  92 127 168 217 263 317 389
#     4  11  22  43  65  92 129 172 213 267 324 387
#     4  12  23  39  70  96 129 174 212 268 328 378
#     4  11  24  42  66 101 131 170 216 266 324 390
#     4  11  26  42  63 100 138 167 213 270 322 390
#
# _framework density 20.914041999999998
#
# number of rings (size 3 to 8) (size 9 to 14) (size 15 to 20)
#    0.000    1.250    2.500    4.500    5.250    2.500 
#    0.000    1.875    0.000    0.000    0.000    0.000 
#    0.000    0.000    0.000    0.000    0.000    0.000 
#
# Total GULP energy -89212.844231 kJ/mol
# GULP energy per Si atom -5575.802764 kJ/mol
# Density = 2.086644 g / cm^3
# Si number density = 20.914042 Si / 1000 Ang^3
#
#
#
# Elastic Constant Matrix: (Units=GPa)
#
#
# Indices 1 2 3 4 5 6 
#
# 1 88.7361 23.7160 22.4940 3.0382 -9.5321 5.6382
# 2 23.7160 67.5857 29.7897 -5.5933 -12.6617 2.5808
# 3 22.4940 29.7897 105.1335 -3.0563 1.8228 8.5016
# 4 3.0382 -5.5933 -3.0563 26.8600 7.6749 3.9812
# 5 -9.5321 -12.6617 1.8228 7.6749 46.5285 -12.1774
# 6 5.6382 2.5808 8.5016 3.9812 -12.1774 17.3218
#
#
#
# Elastic Compliance Matrix: (Units=1/GPa)
#
#
# Indices 1 2 3 4 5 6 
#
# 1 0.013065 -0.003601 -0.001841 -0.002928 0.002073 -0.000682
# 2 -0.003601 0.019327 -0.005110 0.001602 0.005601 0.004370
# 3 -0.001841 -0.005110 0.012275 0.003367 -0.005180 -0.009080
# 4 -0.002928 0.001602 0.003367 0.045058 -0.013093 -0.020498
# 5 0.002073 0.005601 -0.005180 -0.013093 0.032919 0.027184
# 6 -0.000682 0.004370 -0.009080 -0.020498 0.027184 0.085580
#
#
# Mechanical properties :
#
#
# Convention : Reuss Voigt Hill
#
# Bulk Modulus (GPa) = 42.43787 45.93942 44.18865
# Shear Modulus (GPa) = 21.08095 30.50577 25.79336
#
# Velocity S-wave (km/s) = 3.17832 3.82334 3.51565
# Velocity P-wave (km/s) = 5.81417 6.44237 6.13631
#
# Compressibility (1/GPa) = 0.02356386
#
# Stress axis : x y z
#
# Youngs Moduli (GPa) = 76.54187 51.74128 81.46391
#
# Poissons Ratio (x) = 0.18632 0.14997
# Poissons Ratio (y) = 0.27562 0.41626
# Poissons Ratio (z) = 0.14091 0.26439
#
# Static dielectric constant tensor:
#      x y z
#    x 1.795600 0.040610 -0.035300 
#    y 0.040610 1.825720 0.026420 
#    z -0.035300 0.026420 1.822000 
# 
# From -- ./inp_files/244049.got.cif
#   From: 2010.05.17/outbox.cif.g08.bks.cpg/sg2_123_cif.got.tgz:244049.got - 2010.06.03 11:33:40.
