data_PCOD9026360
_publ_section_title
;
Structure prediction by ZEFSAII (Michael W. Deem and Ramdas Pophale) SiO2 
 PCOD9026360
Probable space group: P -1
;
_chemical_formula_sum "Si O2"
_cell_formula_units_Z 14
_cell_length_a 22.196465
_cell_length_b 12.065341
_cell_length_c 16.040275
_cell_angle_alpha 142.784954
_cell_angle_beta 16.444700
_cell_angle_gamma 151.931317
_cell_volume 530.499304
_symmetry_space_group_name_H-M "P -1"
_symmetry_group_IT_number 2
_symmetry_cell_setting 'triclinic'
loop_
_space_group_symop_operation_xyz
x,y,z
-x,-y,-z
loop_
_atom_site_type_symbol
_atom_site_label
_atom_site_fract_x
_atom_site_fract_y
_atom_site_fract_z
Si Si1 0.529881 0.235372 0.610384
Si Si2 0.464152 0.282709 0.028797
Si Si3 0.938568 0.758364 0.319646
Si Si4 0.352337 0.329396 0.509437
Si Si5 0.113477 0.226733 0.046190
Si Si6 0.155670 0.549824 0.510238
Si Si7 0.480084 0.954976 0.902978
O O1 0.824492 0.481646 0.316789
O O2 0.254136 0.190713 0.914168
O O3 0.602104 0.304962 0.652574
O O4 0.500000 0.000000 0.500000
O O5 0.284663 0.284262 0.338821
O O6 0.612810 0.216385 0.846990
O O7 0.718724 0.505259 0.762819
O O8 0.238980 0.026861 0.117189
O O9 0.917205 0.781764 0.261866
O O10 0.500000 0.500000 0.500000
O O11 0.600509 0.514815 0.221874
O O12 0.345733 0.110488 0.404386
O O13 0.903202 0.281285 0.348192
O O14 0.000000 0.000000 0.000000
O O15 0.869018 0.300146 0.789752
O O16 0.500000 0.000000 0.000000
#
# Coordination Sequence:
#
# PCOD9026360 Si02
#       7
#     2   2   2   2   2   2   2
#     4  11  22  43  71  98 147 194 231 299 369 426
#     4  11  24  45  75 103 143 190 245 302 363 437
#     4  10  23  47  67 104 147 183 248 307 352 442
#     4  10  23  41  68 100 137 187 233 293 367 428
#     4  10  22  41  64 100 145 180 238 297 346 438
#     4  11  25  45  71 107 142 190 241 297 370 432
#     4  11  23  47  71 101 146 187 237 305 362 429
#
# _framework density 26.390232999999998
#
# number of rings (size 3 to 8) (size 9 to 14) (size 15 to 20)
#    0.000    1.429    4.286    0.000    2.000    2.286 
#    0.000    1.429    0.000    0.000    0.000    0.000 
#    0.000    0.000    0.000    0.000    0.000    0.000 
#
# Total GULP energy -77987.812158 kJ/mol
# GULP energy per Si atom -5570.558011 kJ/mol
# Density = 2.633017 g / cm^3
# Si number density = 26.390233 Si / 1000 Ang^3
#
#
#
# Elastic Constant Matrix: (Units=GPa)
#
#
# Indices 1 2 3 4 5 6 
#
# 1 186.7474 14.0938 38.5629 12.6676 -16.3304 13.5359
# 2 14.0938 68.9245 0.8513 12.5472 -17.8969 -1.4566
# 3 38.5629 0.8513 86.5320 2.5634 -1.8843 -4.6957
# 4 12.6676 12.5472 2.5634 38.0460 -2.2192 -6.5870
# 5 -16.3304 -17.8969 -1.8843 -2.2192 33.7521 -5.2425
# 6 13.5359 -1.4566 -4.6957 -6.5870 -5.2425 61.3381
#
#
#
# Elastic Compliance Matrix: (Units=1/GPa)
#
#
# Indices 1 2 3 4 5 6 
#
# 1 0.006430 -0.000333 -0.002841 -0.001987 0.002389 -0.001654
# 2 -0.000333 0.017896 0.000365 -0.005153 0.009127 0.000753
# 3 -0.002841 0.000365 0.012897 0.000228 -0.000193 0.001631
# 4 -0.001987 -0.005153 0.000228 0.029138 -0.001244 0.003356
# 5 0.002389 0.009127 -0.000193 -0.001244 0.035936 0.002613
# 6 -0.001654 0.000753 0.001631 0.003356 0.002613 0.017394
#
#
# Mechanical properties :
#
#
# Convention : Reuss Voigt Hill
#
# Bulk Modulus (GPa) = 31.64189 49.91333 40.77761
# Shear Modulus (GPa) = 36.80669 45.87362 41.34015
#
# Velocity S-wave (km/s) = 3.73863 4.17379 3.96219
# Velocity P-wave (km/s) = 5.53647 6.49477 6.03467
#
# Compressibility (1/GPa) = 0.03160368
#
# Stress axis : x y z
#
# Youngs Moduli (GPa) = 155.51777 55.87845 77.54016
#
# Poissons Ratio (x) = 0.01860 0.22031
# Poissons Ratio (y) = 0.05176 -0.02826
# Poissons Ratio (z) = 0.44185 -0.02037
#
# Static dielectric constant tensor:
#      x y z
#    x 2.126530 0.025200 -0.147490 
#    y 0.025200 2.385150 -0.179860 
#    z -0.147490 -0.179860 2.364640 
# 
# From -- ./inp_files/541128.got.cif
#   From: 2010.05.17/outbox.cif.g08.bks.cpg/sg2_271_cif.got.tgz:541128.got - 2010.06.03 11:33:40.
