data_PCOD9026704
_publ_section_title
;
Structure prediction by ZEFSAII (Michael W. Deem and Ramdas Pophale) SiO2 
 PCOD9026704
Probable space group: P -1
;
_chemical_formula_sum "Si O2"
_cell_formula_units_Z 14
_cell_length_a 8.309640
_cell_length_b 9.050140
_cell_length_c 11.960352
_cell_angle_alpha 74.976403
_cell_angle_beta 128.947864
_cell_angle_gamma 96.367667
_cell_volume 673.992128
_symmetry_space_group_name_H-M "P -1"
_symmetry_group_IT_number 2
_symmetry_cell_setting 'triclinic'
loop_
_space_group_symop_operation_xyz
x,y,z
-x,-y,-z
loop_
_atom_site_type_symbol
_atom_site_label
_atom_site_fract_x
_atom_site_fract_y
_atom_site_fract_z
Si Si1 0.385053 0.663650 0.384550
Si Si2 0.307505 0.945068 0.858778
Si Si3 0.989385 0.554441 0.113331
Si Si4 0.526485 0.217514 0.370639
Si Si5 0.467172 0.354404 0.091462
Si Si6 0.064549 0.214385 0.271639
Si Si7 0.703863 0.898494 0.401324
O O1 0.500000 0.500000 0.500000
O O2 0.187228 0.634548 0.229240
O O3 0.342347 0.745502 0.469767
O O4 0.540574 0.768812 0.367611
O O5 0.401864 0.789427 0.873286
O O6 0.099857 0.891128 0.836880
O O7 0.249185 0.067954 0.712651
O O8 0.500000 0.000000 0.000000
O O9 0.984444 0.391865 0.206215
O O10 0.000000 0.500000 0.000000
O O11 0.779906 0.660015 0.017046
O O12 0.525344 0.350008 0.249586
O O13 0.289432 0.207286 0.312162
O O14 0.604060 0.055767 0.382401
O O15 0.500000 0.500000 0.000000
O O16 0.102435 0.155316 0.426054
#
# Coordination Sequence:
#
# PCOD9026704 Si02
#       7
#     2   2   2   2   2   2   2
#     4  11  20  37  65  96 116 159 213 251 308 372
#     4  11  26  40  63  92 128 169 207 259 313 372
#     4  12  23  39  67  96 125 164 207 264 310 373
#     4  10  22  41  65  93 124 164 208 265 308 372
#     4  11  23  42  61  90 128 168 203 256 317 367
#     4  11  20  41  64  87 125 166 206 252 316 360
#     4  10  23  41  65  92 128 160 209 265 312 367
#
# _framework density 20.771757000000001
#
# number of rings (size 3 to 8) (size 9 to 14) (size 15 to 20)
#    0.000    1.143    5.714    2.143    2.000    3.429 
#    0.000    3.571    0.000    0.000    0.000    0.000 
#    0.000    0.000    0.000    0.000    0.000    0.000 
#
# Total GULP energy -78174.303621 kJ/mol
# GULP energy per Si atom -5583.878830 kJ/mol
# Density = 2.072448 g / cm^3
# Si number density = 20.771757 Si / 1000 Ang^3
#
#
#
# Elastic Constant Matrix: (Units=GPa)
#
#
# Indices 1 2 3 4 5 6 
#
# 1 40.4961 11.4042 23.2959 11.5361 0.9921 10.0592
# 2 11.4042 85.9642 33.4164 4.1062 -4.6979 29.7379
# 3 23.2959 33.4164 112.9441 10.1350 1.4074 26.7483
# 4 11.5361 4.1062 10.1350 52.2857 7.8224 10.5339
# 5 0.9921 -4.6979 1.4074 7.8224 30.9406 -3.7708
# 6 10.0592 29.7379 26.7483 10.5339 -3.7708 29.4026
#
#
#
# Elastic Compliance Matrix: (Units=1/GPa)
#
#
# Indices 1 2 3 4 5 6 
#
# 1 0.029852 -0.000701 -0.004683 -0.004916 -0.000033 -0.003487
# 2 -0.000701 0.018353 -0.001222 0.002607 -0.000006 -0.018146
# 3 -0.004683 -0.001222 0.012218 0.000815 -0.001871 -0.008809
# 4 -0.004916 0.002607 0.000815 0.023011 -0.006616 -0.010789
# 5 -0.000033 -0.000006 -0.001871 -0.006616 0.035125 0.008594
# 6 -0.003487 -0.018146 -0.008809 -0.010789 0.008594 0.066537
#
#
# Mechanical properties :
#
#
# Convention : Reuss Voigt Hill
#
# Bulk Modulus (GPa) = 21.18073 41.73749 31.45911
# Shear Modulus (GPa) = 23.35959 33.94498 28.65229
#
# Velocity S-wave (km/s) = 3.35712 4.04690 3.71804
# Velocity P-wave (km/s) = 5.02454 6.47870 5.79739
#
# Compressibility (1/GPa) = 0.04721273
#
# Stress axis : x y z
#
# Youngs Moduli (GPa) = 33.49818 54.48679 81.84889
#
# Poissons Ratio (x) = 0.03817 0.38326
# Poissons Ratio (y) = 0.02347 0.10002
# Poissons Ratio (z) = 0.15686 0.06658
#
# Static dielectric constant tensor:
#      x y z
#    x 1.783810 0.036350 -0.011370 
#    y 0.036350 1.745300 -0.008760 
#    z -0.011370 -0.008760 1.780950 
# 
# From -- ./inp_files/154165.got.cif
#   From: 2010.05.17/outbox.cif.g08.bks.cpg/sg2_78_cif.got.tgz:154165.got - 2010.06.03 11:33:40.
