data_PCOD9026458
_publ_section_title
;
Structure prediction by ZEFSAII (Michael W. Deem and Ramdas Pophale) SiO2 
 PCOD9026458
Probable space group: P -1
;
_chemical_formula_sum "Si O2"
_cell_formula_units_Z 12
_cell_length_a 7.747724
_cell_length_b 9.679975
_cell_length_c 12.451797
_cell_angle_alpha 142.825253
_cell_angle_beta 85.793887
_cell_angle_gamma 76.891863
_cell_volume 495.732261
_symmetry_space_group_name_H-M "P -1"
_symmetry_group_IT_number 2
_symmetry_cell_setting 'triclinic'
loop_
_space_group_symop_operation_xyz
x,y,z
-x,-y,-z
loop_
_atom_site_type_symbol
_atom_site_label
_atom_site_fract_x
_atom_site_fract_y
_atom_site_fract_z
Si Si1 0.182209 0.777020 0.083865
Si Si2 0.806119 0.251287 0.702314
Si Si3 0.435992 0.290582 0.648797
Si Si4 0.277063 0.119832 0.130332
Si Si5 0.805246 0.791556 0.047066
Si Si6 0.411553 0.312397 0.421384
O O1 0.253386 0.814430 0.219764
O O2 0.236896 0.920180 0.077462
O O3 0.286325 0.479110 0.859521
O O4 0.953383 0.858143 0.147309
O O5 0.631251 0.324570 0.671187
O O6 0.832013 0.504029 0.880624
O O7 0.000000 0.000000 0.500000
O O8 0.346943 0.359677 0.576816
O O9 0.500000 0.000000 0.500000
O O10 0.154025 0.195641 0.073977
O O11 0.256447 0.335218 0.351641
O O12 0.500000 0.000000 0.000000
O O13 0.587342 0.014958 0.223758
O O14 0.500000 0.500000 0.500000
#
# Coordination Sequence:
#
# PCOD9026458 Si02
#       6
#     2   2   2   2   2   2
#     4  12  24  42  66  96 129 170 216 266 321 383
#     4  12  25  44  66  95 131 172 215 266 321 381
#     4  12  23  39  63  95 128 168 214 262 316 381
#     4  10  22  41  64  92 127 167 210 261 316 375
#     4  11  23  43  65  94 131 170 213 267 319 379
#     4  11  22  41  65  92 126 169 211 260 319 379
#
# _framework density 24.206613999999998
#
# number of rings (size 3 to 8) (size 9 to 14) (size 15 to 20)
#    0.000    0.667    0.000   10.500    0.000    0.000 
#    0.000    2.500    0.000    0.000    0.000    0.000 
#    0.000    0.000    0.000    0.000    0.000    0.000 
#
# Total GULP energy -67205.803486 kJ/mol
# GULP energy per Si atom -5600.483624 kJ/mol
# Density = 2.415152 g / cm^3
# Si number density = 24.206614 Si / 1000 Ang^3
#
#
#
# Elastic Constant Matrix: (Units=GPa)
#
#
# Indices 1 2 3 4 5 6 
#
# 1 53.4828 -13.1998 3.1873 6.3942 11.8544 2.8378
# 2 -13.1998 107.2832 25.2330 -19.3526 5.9914 15.8783
# 3 3.1873 25.2330 98.4209 -16.4408 -1.3079 5.3645
# 4 6.3942 -19.3526 -16.4408 45.9391 2.3612 15.2632
# 5 11.8544 5.9914 -1.3079 2.3612 41.4293 -0.5638
# 6 2.8378 15.8783 5.3645 15.2632 -0.5638 37.5558
#
#
#
# Elastic Compliance Matrix: (Units=1/GPa)
#
#
# Indices 1 2 3 4 5 6 
#
# 1 0.021431 0.003667 -0.001712 -0.000810 -0.006707 -0.002697
# 2 0.003667 0.012979 -0.001803 0.007329 -0.003517 -0.008538
# 3 -0.001712 -0.001803 0.011566 0.004421 0.000829 -0.002545
# 4 -0.000810 0.007329 0.004421 0.032284 -0.002758 -0.016831
# 5 -0.006707 -0.003517 0.000829 -0.002758 0.026795 0.003398
# 6 -0.002697 -0.008538 -0.002545 -0.016831 0.003398 0.037696
#
#
# Mechanical properties :
#
#
# Convention : Reuss Voigt Hill
#
# Bulk Modulus (GPa) = 21.60736 32.18089 26.89412
# Shear Modulus (GPa) = 31.67086 41.24926 36.46006
#
# Velocity S-wave (km/s) = 3.62104 4.13249 3.88519
# Velocity P-wave (km/s) = 5.14084 6.00775 5.59112
#
# Compressibility (1/GPa) = 0.04628053
#
# Stress axis : x y z
#
# Youngs Moduli (GPa) = 46.66100 77.04945 86.45741
#
# Poissons Ratio (x) = -0.28254 0.14798
# Poissons Ratio (y) = -0.17111 0.15590
# Poissons Ratio (z) = 0.07987 0.13894
#
# Static dielectric constant tensor:
#      x y z
#    x 1.953430 -0.027550 0.017230 
#    y -0.027550 1.958890 0.015850 
#    z 0.017230 0.015850 1.913630 
# 
# From -- ./inp_files/28051.got.cif
#   From: 2010.05.17/outbox.cif.g08.bks.cpg/sg2_15_cif.got.tgz:28051.got - 2010.06.03 11:33:40.
