data_PCOD9026897
_publ_section_title
;
Structure prediction by ZEFSAII (Michael W. Deem and Ramdas Pophale) SiO2 
 PCOD9026897
Probable space group: P -1
;
_chemical_formula_sum "Si O2"
_cell_formula_units_Z 14
_cell_length_a 8.631592
_cell_length_b 10.800024
_cell_length_c 7.011000
_cell_angle_alpha 116.400165
_cell_angle_beta 117.063131
_cell_angle_gamma 71.468172
_cell_volume 515.817091
_symmetry_space_group_name_H-M "P -1"
_symmetry_group_IT_number 2
_symmetry_cell_setting 'triclinic'
loop_
_space_group_symop_operation_xyz
x,y,z
-x,-y,-z
loop_
_atom_site_type_symbol
_atom_site_label
_atom_site_fract_x
_atom_site_fract_y
_atom_site_fract_z
Si Si1 0.292789 0.991692 0.371350
Si Si2 0.431891 0.362578 0.290384
Si Si3 0.299862 0.400761 0.809380
Si Si4 0.281897 0.912604 0.733687
Si Si5 0.192353 0.164331 0.095668
Si Si6 0.027142 0.736750 0.328917
Si Si7 0.316129 0.675875 0.149688
O O1 0.254050 0.994908 0.575306
O O2 0.270451 0.837441 0.181385
O O3 0.500000 0.000000 0.500000
O O4 0.178250 0.108296 0.261605
O O5 0.500000 0.500000 0.500000
O O6 0.564978 0.218225 0.286701
O O7 0.390112 0.377981 0.053484
O O8 0.257775 0.314404 0.250566
O O9 0.468329 0.345485 0.731838
O O10 0.117516 0.340678 0.698393
O O11 0.264398 0.568678 0.889610
O O12 0.110477 0.835824 0.589687
O O13 0.312756 0.022673 0.986690
O O14 0.060415 0.187331 0.859251
O O15 0.198751 0.651037 0.255148
#
# Coordination Sequence:
#
# PCOD9026897 Si02
#       7
#     2   2   2   2   2   2   2
#     4  11  23  38  68  99 140 176 236 292 341 416
#     4  11  22  39  66 100 135 184 237 285 351 423
#     4  10  22  41  72  95 141 187 230 285 359 418
#     4  11  23  42  70 100 139 188 234 288 358 418
#     4  11  24  43  68 100 140 190 232 290 359 420
#     4  10  23  42  70 102 140 182 234 290 351 415
#     4  10  22  41  66 102 136 179 233 287 349 415
#
# _framework density 27.141403
#
# number of rings (size 3 to 8) (size 9 to 14) (size 15 to 20)
#    0.000    1.429    1.429    3.857    4.000    3.429 
#    0.000    1.429    0.000    7.714    0.000    0.000 
#    0.000    0.000    0.000    0.000    0.000    0.000 
#
# Total GULP energy -78184.518795 kJ/mol
# GULP energy per Si atom -5584.608485 kJ/mol
# Density = 2.707963 g / cm^3
# Si number density = 27.141403 Si / 1000 Ang^3
#
#
#
# Elastic Constant Matrix: (Units=GPa)
#
#
# Indices 1 2 3 4 5 6 
#
# 1 203.4716 44.9078 37.8772 34.5896 16.0800 15.0561
# 2 44.9078 105.0364 48.3067 11.5565 -1.9378 22.9031
# 3 37.8772 48.3067 111.5712 27.5492 16.2035 10.7280
# 4 34.5896 11.5565 27.5492 52.7779 9.5750 8.2433
# 5 16.0800 -1.9378 16.2035 9.5750 46.4660 11.0960
# 6 15.0561 22.9031 10.7280 8.2433 11.0960 39.8352
#
#
#
# Elastic Compliance Matrix: (Units=1/GPa)
#
#
# Indices 1 2 3 4 5 6 
#
# 1 0.006086 -0.002265 -0.000086 -0.003186 -0.001541 0.000114
# 2 -0.002265 0.014899 -0.006083 0.001705 0.005045 -0.007830
# 3 -0.000086 -0.006083 0.013306 -0.005116 -0.004338 0.002213
# 4 -0.003186 0.001705 -0.005116 0.024035 -0.001275 -0.003017
# 5 -0.001541 0.005045 -0.004338 -0.001275 0.025980 -0.008122
# 6 0.000114 -0.007830 0.002213 -0.003017 -0.008122 0.031853
#
#
# Mechanical properties :
#
#
# Convention : Reuss Voigt Hill
#
# Bulk Modulus (GPa) = 57.39272 75.80697 66.59985
# Shear Modulus (GPa) = 36.01436 47.08167 41.54801
#
# Velocity S-wave (km/s) = 3.64664 4.16947 3.91679
# Velocity P-wave (km/s) = 6.23878 7.15334 6.71166
#
# Compressibility (1/GPa) = 0.01742381
#
# Stress axis : x y z
#
# Youngs Moduli (GPa) = 164.32401 67.11765 75.15365
#
# Poissons Ratio (x) = 0.15203 0.00644
# Poissons Ratio (y) = 0.37222 0.45713
# Poissons Ratio (z) = 0.01408 0.40825
#
# Static dielectric constant tensor:
#      x y z
#    x 2.237410 -0.068870 -0.003860 
#    y -0.068870 2.191550 0.036570 
#    z -0.003860 0.036570 2.112690 
# 
# From -- ./inp_files/190344.got.cif
#   From: 2010.05.17/outbox.cif.g08.bks.cpg/sg2_96_cif.got.tgz:190344.got - 2010.06.03 11:33:40.
