data_PCOD9026439
_publ_section_title
;
Structure prediction by ZEFSAII (Michael W. Deem and Ramdas Pophale) SiO2 
 PCOD9026439
Probable space group: P -1
;
_chemical_formula_sum "Si O2"
_cell_formula_units_Z 14
_cell_length_a 9.902844
_cell_length_b 19.074429
_cell_length_c 19.280229
_cell_angle_alpha 20.661864
_cell_angle_beta 149.310904
_cell_angle_gamma 135.808233
_cell_volume 572.983737
_symmetry_space_group_name_H-M "P -1"
_symmetry_group_IT_number 2
_symmetry_cell_setting 'triclinic'
loop_
_space_group_symop_operation_xyz
x,y,z
-x,-y,-z
loop_
_atom_site_type_symbol
_atom_site_label
_atom_site_fract_x
_atom_site_fract_y
_atom_site_fract_z
Si Si1 0.199592 0.008236 0.280870
Si Si2 0.912155 0.438911 0.686720
Si Si3 0.440550 0.120758 0.937955
Si Si4 0.757825 0.393161 0.407884
Si Si5 0.929463 0.661695 0.634316
Si Si6 0.835512 0.417822 0.948270
Si Si7 0.216557 0.932748 0.514629
O O1 0.093349 0.003387 0.315888
O O2 0.333743 0.755621 0.544824
O O3 0.458809 0.080395 0.330984
O O4 0.942111 0.200068 0.941438
O O5 0.190948 0.413920 0.785357
O O6 0.610954 0.628281 0.339381
O O7 0.941258 0.551694 0.666863
O O8 0.328625 0.074106 0.729523
O O9 0.110385 0.208657 0.746072
O O10 0.500000 0.000000 0.000000
O O11 0.512780 0.488082 0.271511
O O12 0.872637 0.518592 0.799043
O O13 0.215066 0.698640 0.744389
O O14 0.000000 0.500000 0.000000
O O15 0.009154 0.144826 0.275118
#
# Coordination Sequence:
#
# PCOD9026439 Si02
#       7
#     2   2   2   2   2   2   2
#     4  11  20  38  65  96 115 166 212 251 301 368
#     4   9  20  38  67  91 120 160 205 259 300 355
#     4   8  18  41  65  90 120 160 207 258 299 356
#     4  10  22  41  64  91 129 152 213 252 304 369
#     4  11  22  42  62  89 130 159 203 259 304 362
#     4  12  26  42  59  94 131 166 198 252 320 365
#     4  11  24  37  64  92 125 161 213 247 309 370
#
# _framework density 24.433503000000002
#
# number of rings (size 3 to 8) (size 9 to 14) (size 15 to 20)
#    0.857    0.857    4.286    0.000    2.000    2.857 
#    2.571    2.857    0.000    0.000    0.000    0.000 
#    0.000    0.000    0.000    0.000    0.000    0.000 
#
# Total GULP energy -78164.698469 kJ/mol
# GULP energy per Si atom -5583.192748 kJ/mol
# Density = 2.437789 g / cm^3
# Si number density = 24.433503 Si / 1000 Ang^3
#
#
#
# Elastic Constant Matrix: (Units=GPa)
#
#
# Indices 1 2 3 4 5 6 
#
# 1 85.0173 17.8642 11.5585 -6.8926 17.2278 22.2163
# 2 17.8642 61.5488 2.7747 -11.7572 0.9038 4.7984
# 3 11.5585 2.7747 97.7191 -6.4240 -2.7018 3.3951
# 4 -6.8926 -11.7572 -6.4240 32.1842 3.3244 5.2752
# 5 17.2278 0.9038 -2.7018 3.3244 41.2697 -0.6702
# 6 22.2163 4.7984 3.3951 5.2752 -0.6702 34.3058
#
#
#
# Elastic Compliance Matrix: (Units=1/GPa)
#
#
# Indices 1 2 3 4 5 6 
#
# 1 0.017762 -0.003056 -0.001484 0.005171 -0.008054 -0.011881
# 2 -0.003056 0.018459 0.000322 0.006380 0.000353 -0.001609
# 3 -0.001484 0.000322 0.010567 0.001855 0.001149 -0.000393
# 4 0.005171 0.006380 0.001855 0.037108 -0.005332 -0.010235
# 5 -0.008054 0.000353 0.001149 -0.005332 0.028194 0.006424
# 6 -0.011881 -0.001609 -0.000393 -0.010235 0.006424 0.038807
#
#
# Mechanical properties :
#
#
# Convention : Reuss Voigt Hill
#
# Bulk Modulus (GPa) = 26.07414 34.29777 30.18596
# Shear Modulus (GPa) = 29.04997 35.69113 32.37055
#
# Velocity S-wave (km/s) = 3.45184 3.82612 3.64379
# Velocity P-wave (km/s) = 5.15573 5.79539 5.48489
#
# Compressibility (1/GPa) = 0.03835218
#
# Stress axis : x y z
#
# Youngs Moduli (GPa) = 56.29911 54.17462 94.63295
#
# Poissons Ratio (x) = 0.16557 0.14045
# Poissons Ratio (y) = 0.17207 -0.03052
# Poissons Ratio (z) = 0.08356 -0.01747
#
# Static dielectric constant tensor:
#      x y z
#    x 1.881740 0.022700 -0.004150 
#    y 0.022700 2.051590 0.080920 
#    z -0.004150 0.080920 1.958670 
# 
# From -- ./inp_files/591630.got.cif
#   From: 2010.05.17/outbox.cif.g08.bks.cpg/sg2_296_cif.got.tgz:591630.got - 2010.06.03 11:33:40.
