data_PCOD9026499
_publ_section_title
;
Structure prediction by ZEFSAII (Michael W. Deem and Ramdas Pophale) SiO2 
 PCOD9026499
Probable space group: P -1
;
_chemical_formula_sum "Si O2"
_cell_formula_units_Z 15
_cell_length_a 15.484773
_cell_length_b 8.152676
_cell_length_c 8.854497
_cell_angle_alpha 47.345534
_cell_angle_beta 115.031651
_cell_angle_gamma 87.991015
_cell_volume 652.300940
_symmetry_space_group_name_H-M "P -1"
_symmetry_group_IT_number 2
_symmetry_cell_setting 'triclinic'
loop_
_space_group_symop_operation_xyz
x,y,z
-x,-y,-z
loop_
_atom_site_type_symbol
_atom_site_label
_atom_site_fract_x
_atom_site_fract_y
_atom_site_fract_z
Si Si1 0.378727 0.603242 0.908129
Si Si2 0.000000 0.000000 0.000000
Si Si3 0.372204 0.918476 0.155133
Si Si4 0.606007 0.605925 0.631027
Si Si5 0.712793 0.838251 0.364295
Si Si6 0.103228 0.237421 0.282739
Si Si7 0.154532 0.709819 0.556720
Si Si8 0.165855 0.220740 0.014568
O O1 0.282784 0.628841 0.710307
O O2 0.343188 0.882705 0.774261
O O3 0.500000 0.500000 0.000000
O O4 0.376883 0.432073 0.153907
O O5 0.898167 0.227138 0.685777
O O6 0.070854 0.153616 0.948286
O O7 0.488218 0.843599 0.359018
O O8 0.386898 0.655896 0.259361
O O9 0.334505 0.120156 0.864374
O O10 0.277179 0.023921 0.140272
O O11 0.689517 0.650375 0.564931
O O12 0.840092 0.752366 0.527819
O O13 0.090874 0.985227 0.423206
O O14 0.179998 0.202341 0.216987
O O15 0.000000 0.500000 0.000000
O O16 0.138022 0.497906 0.762265
#
# Coordination Sequence:
#
# PCOD9026499 Si02
#       8
#     2   1   2   2   2   2   2   2
#     4  10  23  39  66 100 134 173 223 274 328 405
#     4  10  24  42  64  94 134 168 222 282 326 396
#     4  10  24  40  63  96 133 173 225 271 333 403
#     4  10  22  41  64  93 136 180 217 274 332 393
#     4  10  22  42  64  97 130 176 221 271 336 395
#     4  10  24  43  66  94 131 173 223 279 334 394
#     4  10  23  42  63  98 129 170 222 271 335 391
#     4  11  24  43  68  98 129 176 226 278 339 398
#
# _framework density 22.995522000000001
#
# number of rings (size 3 to 8) (size 9 to 14) (size 15 to 20)
#    0.000    1.867    0.000    1.600    7.467    8.533 
#    0.000    0.000    0.000    0.000    0.000    0.000 
#    0.000    0.000    0.000    0.000    0.000    0.000 
#
# Total GULP energy -83600.214945 kJ/mol
# GULP energy per Si atom -5573.347663 kJ/mol
# Density = 2.294318 g / cm^3
# Si number density = 22.995522 Si / 1000 Ang^3
#
#
#
# Elastic Constant Matrix: (Units=GPa)
#
#
# Indices 1 2 3 4 5 6 
#
# 1 49.5378 19.8777 6.5435 -13.1432 -14.9139 9.1918
# 2 19.8777 43.1516 30.6547 -5.1706 8.0808 -1.8775
# 3 6.5435 30.6547 126.6810 -1.5785 -4.3691 -1.6859
# 4 -13.1432 -5.1706 -1.5785 28.8373 7.0104 -12.3139
# 5 -14.9139 8.0808 -4.3691 7.0104 48.9293 -4.1657
# 6 9.1918 -1.8775 -1.6859 -12.3139 -4.1657 32.3900
#
#
#
# Elastic Compliance Matrix: (Units=1/GPa)
#
#
# Indices 1 2 3 4 5 6 
#
# 1 0.034729 -0.020484 0.003593 0.006336 0.012803 -0.006801
# 2 -0.020484 0.043044 -0.009688 0.004608 -0.014220 0.007727
# 3 0.003593 -0.009688 0.010156 -0.000810 0.003642 -0.000892
# 4 0.006336 0.004608 -0.000810 0.045914 -0.004174 0.015346
# 5 0.012803 -0.014220 0.003642 -0.004174 0.027413 -0.002329
# 6 -0.006801 0.007727 -0.000892 0.015346 -0.002329 0.038740
#
#
# Mechanical properties :
#
#
# Convention : Reuss Voigt Hill
#
# Bulk Modulus (GPa) = 28.76037 37.05800 32.90919
# Shear Modulus (GPa) = 18.88611 32.85096 25.86853
#
# Velocity S-wave (km/s) = 2.86893 3.78376 3.35765
# Velocity P-wave (km/s) = 4.84855 5.93628 5.41977
#
# Compressibility (1/GPa) = 0.03477007
#
# Stress axis : x y z
#
# Youngs Moduli (GPa) = 28.79451 23.23218 98.46181
#
# Poissons Ratio (x) = 0.47590 -0.35378
# Poissons Ratio (y) = 0.58984 0.95389
# Poissons Ratio (z) = -0.10346 0.22507
#
# Static dielectric constant tensor:
#      x y z
#    x 1.837670 -0.001830 0.005250 
#    y -0.001830 1.895590 -0.013800 
#    z 0.005250 -0.013800 1.861170 
# 
# From -- ./inp_files/297538.got.cif
#   From: 2010.05.17/outbox.cif.g08.bks.cpg/sg2_149_cif.got.tgz:297538.got - 2010.06.03 11:33:40.
