data_PCOD9026476
_publ_section_title
;
Structure prediction by ZEFSAII (Michael W. Deem and Ramdas Pophale) SiO2 
 PCOD9026476
Probable space group: P -1
;
_chemical_formula_sum "Si O2"
_cell_formula_units_Z 14
_cell_length_a 13.942426
_cell_length_b 24.596688
_cell_length_c 15.815401
_cell_angle_alpha 20.375715
_cell_angle_beta 153.467602
_cell_angle_gamma 159.050561
_cell_volume 667.088040
_symmetry_space_group_name_H-M "P -1"
_symmetry_group_IT_number 2
_symmetry_cell_setting 'triclinic'
loop_
_space_group_symop_operation_xyz
x,y,z
-x,-y,-z
loop_
_atom_site_type_symbol
_atom_site_label
_atom_site_fract_x
_atom_site_fract_y
_atom_site_fract_z
Si Si1 0.446554 0.728501 0.155072
Si Si2 0.993576 0.078557 0.143523
Si Si3 0.310693 0.954389 0.644002
Si Si4 0.502815 0.394729 0.970488
Si Si5 0.683176 0.636382 0.320563
Si Si6 0.304168 0.857232 0.478971
Si Si7 0.798440 0.818039 0.667616
O O1 0.549829 0.680082 0.225331
O O2 0.364956 0.565599 0.397255
O O3 0.691415 0.944281 0.067987
O O4 0.225947 0.757505 0.909438
O O5 0.069842 0.928749 0.438076
O O6 0.041592 0.173954 0.134891
O O7 0.217203 0.241846 0.017283
O O8 0.554366 0.033298 0.656756
O O9 0.385352 0.127481 0.514783
O O10 0.442513 0.378308 0.847548
O O11 0.639841 0.612830 0.794577
O O12 0.686628 0.326822 0.238250
O O13 0.008292 0.798873 0.338545
O O14 0.500000 0.000000 0.500000
O O15 0.000000 0.000000 0.500000
#
# Coordination Sequence:
#
# PCOD9026476 Si02
#       7
#     2   2   2   2   2   2   2
#     4  11  22  42  59  94 128 162 206 264 308 371
#     4   9  21  39  65  86 124 161 206 254 308 363
#     4   9  22  39  63  89 121 163 210 248 311 363
#     4  11  22  42  63  92 128 162 210 257 305 372
#     4  11  25  37  64  93 126 164 209 254 319 365
#     4  11  23  41  65  95 123 166 207 254 314 371
#     4  10  22  41  64  93 125 166 208 255 314 364
#
# _framework density 20.986734999999999
#
# number of rings (size 3 to 8) (size 9 to 14) (size 15 to 20)
#    0.857    0.857    0.000    4.714    2.000    1.714 
#    2.571    6.429    0.000    0.000    0.000    0.000 
#    0.000    0.000    0.000    0.000    0.000    0.000 
#
# Total GULP energy -78173.179179 kJ/mol
# GULP energy per Si atom -5583.798513 kJ/mol
# Density = 2.093897 g / cm^3
# Si number density = 20.986735 Si / 1000 Ang^3
#
#
#
# Elastic Constant Matrix: (Units=GPa)
#
#
# Indices 1 2 3 4 5 6 
#
# 1 46.5754 14.5704 -3.8703 1.3657 -14.5088 -13.2699
# 2 14.5704 58.9064 4.8333 -4.9360 -7.1879 -17.3387
# 3 -3.8703 4.8333 93.3105 4.3561 -7.0395 -4.6744
# 4 1.3657 -4.9360 4.3561 22.2996 -10.0246 -2.2545
# 5 -14.5088 -7.1879 -7.0395 -10.0246 35.5029 2.7912
# 6 -13.2699 -17.3387 -4.6744 -2.2545 2.7912 23.3026
#
#
#
# Elastic Compliance Matrix: (Units=1/GPa)
#
#
# Indices 1 2 3 4 5 6 
#
# 1 0.030500 -0.001083 0.002876 0.004750 0.012894 0.016055
# 2 -0.001083 0.023896 -0.000440 0.009757 0.005700 0.017336
# 3 0.002876 -0.000440 0.011271 -0.000888 0.002823 0.003148
# 4 0.004750 0.009757 -0.000888 0.056610 0.018701 0.013024
# 5 0.012894 0.005700 0.002823 0.018701 0.039707 0.009204
# 6 0.016055 0.017336 0.003148 0.013024 0.009204 0.065745
#
#
# Mechanical properties :
#
#
# Convention : Reuss Voigt Hill
#
# Bulk Modulus (GPa) = 14.62537 25.53990 20.08264
# Shear Modulus (GPa) = 20.17656 28.43829 24.30743
#
# Velocity S-wave (km/s) = 3.10400 3.68511 3.40697
# Velocity P-wave (km/s) = 4.45314 5.50479 5.00665
#
# Compressibility (1/GPa) = 0.06837434
#
# Stress axis : x y z
#
# Youngs Moduli (GPa) = 32.78690 41.84804 88.72239
#
# Poissons Ratio (x) = 0.04533 -0.25521
# Poissons Ratio (y) = 0.03551 0.03901
# Poissons Ratio (z) = -0.09431 0.01840
#
# Static dielectric constant tensor:
#      x y z
#    x 1.757250 -0.005300 0.005160 
#    y -0.005300 1.732890 0.013180 
#    z 0.005160 0.013180 1.790890 
# 
# From -- ./inp_files/431320.got.cif
#   From: 2010.05.17/outbox.cif.g08.bks.cpg/sg2_216_cif.got.tgz:431320.got - 2010.06.03 11:33:40.
