data_PCOD9026016
_publ_section_title
;
Structure prediction by ZEFSAII (Michael W. Deem and Ramdas Pophale) SiO2 
 PCOD9026016
Probable space group: P -1
;
_chemical_formula_sum "Si O2"
_cell_formula_units_Z 16
_cell_length_a 5.214931
_cell_length_b 15.546640
_cell_length_c 8.787142
_cell_angle_alpha 113.687344
_cell_angle_beta 82.761116
_cell_angle_gamma 86.389375
_cell_volume 642.114734
_symmetry_space_group_name_H-M "P -1"
_symmetry_group_IT_number 2
_symmetry_cell_setting 'triclinic'
loop_
_space_group_symop_operation_xyz
x,y,z
-x,-y,-z
loop_
_atom_site_type_symbol
_atom_site_label
_atom_site_fract_x
_atom_site_fract_y
_atom_site_fract_z
Si Si1 0.613938 0.176336 0.002923
Si Si2 0.891033 0.012376 0.686863
Si Si3 0.458717 0.454586 0.629808
Si Si4 0.390315 0.913785 0.731954
Si Si5 0.266781 0.442275 0.092476
Si Si6 0.852288 0.263277 0.490128
Si Si7 0.059750 0.285376 0.164333
Si Si8 0.929426 0.631989 0.228744
O O1 0.616325 0.109440 0.104952
O O2 0.319906 0.223606 0.039472
O O3 0.802041 0.254324 0.086144
O O4 0.738082 0.114279 0.811032
O O5 0.669740 0.943276 0.686342
O O6 0.000000 0.000000 0.500000
O O7 0.143899 0.990545 0.761566
O O8 0.500000 0.500000 0.500000
O O9 0.491254 0.533034 0.810760
O O10 0.672306 0.363263 0.564780
O O11 0.196630 0.410368 0.644146
O O12 0.320520 0.821055 0.581008
O O13 0.094375 0.392375 0.192818
O O14 0.155933 0.547180 0.114810
O O15 0.270520 0.372101 0.898237
O O16 0.039998 0.262200 0.328384
O O17 0.987401 0.270200 0.649487
#
# Coordination Sequence:
#
# PCOD9026016 Si02
#       8
#     2   2   2   2   2   2   2   2
#     4  11  25  46  71 103 136 181 232 285 350 426
#     4  12  26  48  73 106 140 179 227 286 359 427
#     4  11  22  37  67  94 137 175 239 285 338 400
#     4  11  24  44  76  99 141 182 228 289 345 428
#     4  10  23  40  60  93 133 192 225 287 351 407
#     4  10  24  40  64 104 125 182 234 288 341 401
#     4  11  24  42  69 100 138 175 236 291 343 409
#     4  10  22  41  61  89 139 179 241 276 349 419
#
# _framework density 24.917663999999998
#
# number of rings (size 3 to 8) (size 9 to 14) (size 15 to 20)
#    0.000    1.250    0.000    5.250   10.500    3.000 
#    2.250    0.000    0.000    0.000    0.000    0.000 
#    0.000    0.000    0.000    0.000    0.000    0.000 
#
# Total GULP energy -89512.984686 kJ/mol
# GULP energy per Si atom -5594.561543 kJ/mol
# Density = 2.486095 g / cm^3
# Si number density = 24.917664 Si / 1000 Ang^3
#
#
#
# Elastic Constant Matrix: (Units=GPa)
#
#
# Indices 1 2 3 4 5 6 
#
# 1 82.7105 24.4777 26.2602 -2.9529 -25.1898 18.7909
# 2 24.4777 61.1607 19.5563 1.5019 -12.5509 10.4985
# 3 26.2602 19.5563 126.2107 13.2959 -6.5114 11.8981
# 4 -2.9529 1.5019 13.2959 30.5774 9.1954 -3.6273
# 5 -25.1898 -12.5509 -6.5114 9.1954 38.7614 9.3853
# 6 18.7909 10.4985 11.8981 -3.6273 9.3853 47.9962
#
#
#
# Elastic Compliance Matrix: (Units=1/GPa)
#
#
# Indices 1 2 3 4 5 6 
#
# 1 0.020219 -0.002623 -0.001765 -0.002894 0.015121 -0.010080
# 2 -0.002623 0.020010 -0.001493 -0.003013 0.006314 -0.004442
# 3 -0.001765 -0.001493 0.009296 -0.004838 0.001553 -0.001956
# 4 -0.002894 -0.003013 -0.004838 0.040397 -0.015447 0.009065
# 5 0.015121 0.006314 0.001553 -0.015447 0.045913 -0.017831
# 6 -0.010080 -0.004442 -0.001956 0.009065 -0.017831 0.030410
#
#
# Mechanical properties :
#
#
# Convention : Reuss Voigt Hill
#
# Bulk Modulus (GPa) = 26.48140 45.63001 36.05571
# Shear Modulus (GPa) = 26.23373 36.78618 31.50995
#
# Velocity S-wave (km/s) = 3.24823 3.84645 3.55993
# Velocity P-wave (km/s) = 4.97179 6.17081 5.60346
#
# Compressibility (1/GPa) = 0.03776235
#
# Stress axis : x y z
#
# Youngs Moduli (GPa) = 49.45837 49.97563 107.57275
#
# Poissons Ratio (x) = 0.13110 0.18988
# Poissons Ratio (y) = 0.12974 0.16059
# Poissons Ratio (z) = 0.08730 0.07460
#
# Static dielectric constant tensor:
#      x y z
#    x 1.994420 -0.039980 0.005990 
#    y -0.039980 1.991020 0.016270 
#    z 0.005990 0.016270 2.000030 
# 
# From -- ./inp_files/135654.got.cif
#   From: 2010.05.17/outbox.cif.g08.bks.cpg/sg2_68_cif.got.tgz:135654.got - 2010.06.03 11:33:40.
