data_PCOD9026569
_publ_section_title
;
Structure prediction by ZEFSAII (Michael W. Deem and Ramdas Pophale) SiO2 
 PCOD9026569
Probable space group: P -1
;
_chemical_formula_sum "Si O2"
_cell_formula_units_Z 16
_cell_length_a 10.392520
_cell_length_b 13.219069
_cell_length_c 5.825666
_cell_angle_alpha 65.393830
_cell_angle_beta 104.804666
_cell_angle_gamma 84.905975
_cell_volume 685.931162
_symmetry_space_group_name_H-M "P -1"
_symmetry_group_IT_number 2
_symmetry_cell_setting 'triclinic'
loop_
_space_group_symop_operation_xyz
x,y,z
-x,-y,-z
loop_
_atom_site_type_symbol
_atom_site_label
_atom_site_fract_x
_atom_site_fract_y
_atom_site_fract_z
Si Si1 0.773019 0.479127 0.052812
Si Si2 0.333264 0.033947 0.382899
Si Si3 0.631760 0.895473 0.168139
Si Si4 0.732392 0.660173 0.500689
Si Si5 0.126190 0.899792 0.573732
Si Si6 0.380239 0.531868 0.601654
Si Si7 0.013435 0.704549 0.440312
Si Si8 0.806103 0.281046 0.877936
O O1 0.633357 0.483109 0.119478
O O2 0.900652 0.420997 0.324396
O O3 0.765068 0.601398 0.819344
O O4 0.784158 0.382654 0.955352
O O5 0.241123 0.939829 0.437585
O O6 0.500000 0.000000 0.500000
O O7 0.295831 0.090769 0.565701
O O8 0.302935 0.096902 0.063040
O O9 0.606560 0.768173 0.310757
O O10 0.500000 0.000000 0.000000
O O11 0.710162 0.557837 0.430100
O O12 0.860311 0.706039 0.429544
O O13 0.065522 0.803594 0.506727
O O14 0.198232 0.836243 0.893640
O O15 0.000000 0.000000 0.500000
O O16 0.500000 0.500000 0.500000
O O17 0.309924 0.665383 0.407616
O O18 0.050064 0.724660 0.175817
#
# Coordination Sequence:
#
# PCOD9026569 Si02
#       8
#     2   2   2   2   2   2   2   2
#     4   9  21  42  64  94 129 167 220 278 348 403
#     4  10  24  46  67  96 136 181 233 283 337 407
#     4  10  24  45  66 100 138 180 231 280 341 408
#     4  11  23  38  68  95 130 177 219 284 337 411
#     4  11  24  40  68  94 134 180 224 283 340 413
#     4  10  23  42  63  94 130 170 223 278 341 412
#     4  10  22  41  64  97 132 168 226 278 345 411
#     4   9  22  41  63  94 128 170 217 280 342 402
#
# _framework density 23.325952999999998
#
# number of rings (size 3 to 8) (size 9 to 14) (size 15 to 20)
#    0.000    2.000    0.000    1.125    5.250   11.000 
#   13.500    0.000    0.000    0.000    0.000    0.000 
#    0.000    0.000    0.000    0.000    0.000    0.000 
#
# Total GULP energy -89116.990171 kJ/mol
# GULP energy per Si atom -5569.811886 kJ/mol
# Density = 2.327286 g / cm^3
# Si number density = 23.325953 Si / 1000 Ang^3
#
#
#
# Elastic Constant Matrix: (Units=GPa)
#
#
# Indices 1 2 3 4 5 6 
#
# 1 121.4302 37.2310 42.8957 -10.4376 -25.4967 -6.7823
# 2 37.2310 91.4911 52.2797 -9.5943 -5.5840 -12.0271
# 3 42.8957 52.2797 163.2128 -21.4983 -38.9350 -15.2215
# 4 -10.4376 -9.5943 -21.4983 54.6675 -12.8369 -0.6626
# 5 -25.4967 -5.5840 -38.9350 -12.8369 31.4622 2.1417
# 6 -6.7823 -12.0271 -15.2215 -0.6626 2.1417 27.0777
#
#
#
# Elastic Compliance Matrix: (Units=1/GPa)
#
#
# Indices 1 2 3 4 5 6 
#
# 1 0.012606 -0.005012 0.002963 0.006345 0.015478 0.001528
# 2 -0.005012 0.016125 -0.006592 -0.003238 -0.010882 0.002983
# 3 0.002963 -0.006592 0.015111 0.011074 0.024131 0.004671
# 4 0.006345 -0.003238 0.011074 0.030483 0.030388 0.004718
# 5 0.015478 -0.010882 0.024131 0.030388 0.084202 0.006692
# 6 0.001528 0.002983 0.004671 0.004718 0.006692 0.040850
#
#
# Mechanical properties :
#
#
# Convention : Reuss Voigt Hill
#
# Bulk Modulus (GPa) = 37.65207 71.21632 54.43419
# Shear Modulus (GPa) = 22.17183 38.88999 30.53091
#
# Velocity S-wave (km/s) = 3.08640 4.08762 3.62177
# Velocity P-wave (km/s) = 5.37382 7.27154 6.39348
#
# Compressibility (1/GPa) = 0.02655897
#
# Stress axis : x y z
#
# Youngs Moduli (GPa) = 79.32858 62.01666 66.17824
#
# Poissons Ratio (x) = 0.31082 -0.19608
# Poissons Ratio (y) = 0.39758 0.43625
# Poissons Ratio (z) = -0.23504 0.40882
#
# Static dielectric constant tensor:
#      x y z
#    x 1.985880 -0.002670 0.078940 
#    y -0.002670 1.942150 0.051230 
#    z 0.078940 0.051230 2.048030 
# 
# From -- ./inp_files/68524.got.cif
#   From: 2010.05.17/outbox.cif.g08.bks.cpg/sg2_35_cif.got.tgz:68524.got - 2010.06.03 11:33:40.
