data_PCOD9026390
_publ_section_title
;
Structure prediction by ZEFSAII (Michael W. Deem and Ramdas Pophale) SiO2 
 PCOD9026390
Probable space group: P -1
;
_chemical_formula_sum "Si O2"
_cell_formula_units_Z 16
_cell_length_a 14.210790
_cell_length_b 16.454119
_cell_length_c 13.579251
_cell_angle_alpha 49.232817
_cell_angle_beta 20.923526
_cell_angle_gamma 48.394636
_cell_volume 841.466188
_symmetry_space_group_name_H-M "P -1"
_symmetry_group_IT_number 2
_symmetry_cell_setting 'triclinic'
loop_
_space_group_symop_operation_xyz
x,y,z
-x,-y,-z
loop_
_atom_site_type_symbol
_atom_site_label
_atom_site_fract_x
_atom_site_fract_y
_atom_site_fract_z
Si Si1 0.351184 0.937911 0.815307
Si Si2 0.699025 0.307548 0.268728
Si Si3 0.922057 0.341239 0.437349
Si Si4 0.146038 0.407954 0.649994
Si Si5 0.459974 0.254457 0.074638
Si Si6 0.208797 0.579834 0.716033
Si Si7 0.223075 0.912134 0.746686
Si Si8 0.289504 0.421724 0.284736
O O1 0.396849 0.859873 0.926706
O O2 0.296237 0.875821 0.817100
O O3 0.611297 0.991840 0.507215
O O4 0.090959 0.035441 0.998218
O O5 0.392362 0.372795 0.511776
O O6 0.807763 0.331882 0.250010
O O7 0.701217 0.184862 0.328569
O O8 0.894062 0.354596 0.964747
O O9 0.948823 0.461554 0.354333
O O10 0.850588 0.359547 0.378146
O O11 0.201352 0.258903 0.254021
O O12 0.679160 0.306196 0.761244
O O13 0.282804 0.373623 0.438553
O O14 0.345726 0.329027 0.221075
O O15 0.500000 0.500000 0.500000
O O16 0.000000 0.500000 0.000000
O O17 0.000000 0.500000 0.500000
O O18 0.500000 0.500000 0.000000
#
# Coordination Sequence:
#
# PCOD9026390 Si02
#       8
#     2   2   2   2   2   2   2   2
#     4  10  22  41  64  89 117 155 202 248 303 361
#     4  12  23  39  63  88 119 156 200 260 302 342
#     4  12  23  38  58  85 125 163 198 237 291 364
#     4  12  22  36  57  87 124 160 194 235 298 363
#     4  12  23  39  59  85 124 165 194 239 305 360
#     4  12  23  39  61  87 121 163 206 246 296 351
#     4  10  22  41  65  89 116 151 205 258 298 349
#     4  12  22  33  51  81 120 156 187 225 279 363
#
# _framework density 19.014430000000001
#
# number of rings (size 3 to 8) (size 9 to 14) (size 15 to 20)
#    0.000    0.500    5.000    4.500    0.000    3.000 
#    0.000    0.000    0.000    4.500    0.000    0.000 
#    0.000    0.000    0.000    0.000    0.000    0.000 
#
# Total GULP energy -89427.401406 kJ/mol
# GULP energy per Si atom -5589.212588 kJ/mol
# Density = 1.897115 g / cm^3
# Si number density = 19.014430 Si / 1000 Ang^3
#
#
#
# Elastic Constant Matrix: (Units=GPa)
#
#
# Indices 1 2 3 4 5 6 
#
# 1 115.1975 35.6784 2.6790 -4.8591 5.5418 -5.7224
# 2 35.6784 48.3020 -0.0503 4.2861 2.0998 -6.5523
# 3 2.6790 -0.0503 83.9418 6.5183 -5.1889 -9.0063
# 4 -4.8591 4.2861 6.5183 19.4292 -9.2032 -2.9471
# 5 5.5418 2.0998 -5.1889 -9.2032 29.2376 1.5478
# 6 -5.7224 -6.5523 -9.0063 -2.9471 1.5478 33.5092
#
#
#
# Elastic Compliance Matrix: (Units=1/GPa)
#
#
# Indices 1 2 3 4 5 6 
#
# 1 0.011759 -0.009079 -0.000739 0.005224 -0.000090 0.000498
# 2 -0.009079 0.028975 0.001280 -0.010205 -0.003542 0.003726
# 3 -0.000739 0.001280 0.012626 -0.003786 0.000931 0.003142
# 4 0.005224 -0.010205 -0.003786 0.066057 0.019717 0.002778
# 5 -0.000090 -0.003542 0.000931 0.019717 0.040878 -0.000612
# 6 0.000498 0.003726 0.003142 0.002778 -0.000612 0.031773
#
#
# Mechanical properties :
#
#
# Convention : Reuss Voigt Hill
#
# Bulk Modulus (GPa) = 27.55854 36.00616 31.78235
# Shear Modulus (GPa) = 22.60002 30.37747 26.48875
#
# Velocity S-wave (km/s) = 3.45131 4.00134 3.73646
# Velocity P-wave (km/s) = 5.51425 6.35019 5.94693
#
# Compressibility (1/GPa) = 0.03628639
#
# Stress axis : x y z
#
# Youngs Moduli (GPa) = 85.03971 34.51197 79.20201
#
# Poissons Ratio (x) = 0.31333 0.05849
# Poissons Ratio (y) = 0.77206 -0.10140
# Poissons Ratio (z) = 0.06281 -0.04419
#
# Static dielectric constant tensor:
#      x y z
#    x 1.960310 -0.068640 0.099480 
#    y -0.068640 1.657170 -0.001680 
#    z 0.099480 -0.001680 1.682450 
# 
# From -- ./inp_files/80602.got.cif
#   From: 2010.05.17/outbox.cif.g08.bks.cpg/sg2_41_cif.got.tgz:80602.got - 2010.06.03 11:33:40.
