data_PCOD9026281
_publ_section_title
;
Structure prediction by ZEFSAII (Michael W. Deem and Ramdas Pophale) SiO2 
 PCOD9026281
Probable space group: P -1
;
_chemical_formula_sum "Si O2"
_cell_formula_units_Z 14
_cell_length_a 11.928016
_cell_length_b 6.986723
_cell_length_c 11.547439
_cell_angle_alpha 61.126425
_cell_angle_beta 109.714176
_cell_angle_gamma 72.584687
_cell_volume 656.901117
_symmetry_space_group_name_H-M "P -1"
_symmetry_group_IT_number 2
_symmetry_cell_setting 'triclinic'
loop_
_space_group_symop_operation_xyz
x,y,z
-x,-y,-z
loop_
_atom_site_type_symbol
_atom_site_label
_atom_site_fract_x
_atom_site_fract_y
_atom_site_fract_z
Si Si1 0.893682 0.298588 0.525348
Si Si2 0.942687 0.571030 0.273911
Si Si3 0.625811 0.911435 0.974726
Si Si4 0.075530 0.210509 0.215598
Si Si5 0.586008 0.576699 0.382168
Si Si6 0.555369 0.696528 0.604935
Si Si7 0.768493 0.580907 0.908417
O O1 0.948242 0.330472 0.412238
O O2 0.728104 0.544644 0.394762
O O3 0.983835 0.332065 0.644329
O O4 0.888644 0.051521 0.631978
O O5 0.032416 0.439613 0.227495
O O6 0.778952 0.805560 0.118368
O O7 0.674610 0.676434 0.966138
O O8 0.555497 0.164994 0.793049
O O9 0.500000 0.000000 0.000000
O O10 0.195772 0.203842 0.180828
O O11 0.926665 0.323071 0.062052
O O12 0.598860 0.586654 0.522003
O O13 0.571460 0.343430 0.402142
O O14 0.681692 0.554669 0.783867
O O15 0.500000 0.000000 0.500000
#
# Coordination Sequence:
#
# PCOD9026281 Si02
#       7
#     2   2   2   2   2   2   2
#     4  11  22  40  64  92 124 171 205 260 309 376
#     4  10  23  41  64  90 126 167 214 250 314 372
#     4  11  22  44  64  93 131 164 206 268 311 376
#     4  10  22  41  63  93 126 164 212 260 308 368
#     4  11  24  38  67  96 126 165 209 257 322 368
#     4  11  22  40  62  94 128 162 208 258 313 377
#     4  10  22  42  65  93 128 168 208 262 314 372
#
# _framework density 21.312190000000001
#
# number of rings (size 3 to 8) (size 9 to 14) (size 15 to 20)
#    0.000    1.429    2.857    2.143    4.000    0.000 
#    0.000    5.000    0.000    0.000    0.000    0.000 
#    0.000    0.000    0.000    0.000    0.000    0.000 
#
# Total GULP energy -78091.500011 kJ/mol
# GULP energy per Si atom -5577.964287 kJ/mol
# Density = 2.126368 g / cm^3
# Si number density = 21.312190 Si / 1000 Ang^3
#
#
#
# Elastic Constant Matrix: (Units=GPa)
#
#
# Indices 1 2 3 4 5 6 
#
# 1 93.6969 32.5718 34.0185 14.6839 6.6840 -16.3216
# 2 32.5718 47.3357 36.7416 16.7175 17.8401 -4.4414
# 3 34.0185 36.7416 128.7178 16.9117 23.4072 5.1923
# 4 14.6839 16.7175 16.9117 33.8151 3.0527 0.2283
# 5 6.6840 17.8401 23.4072 3.0527 29.0234 9.6735
# 6 -16.3216 -4.4414 5.1923 0.2283 9.6735 22.0290
#
#
#
# Elastic Compliance Matrix: (Units=1/GPa)
#
#
# Indices 1 2 3 4 5 6 
#
# 1 0.016535 -0.007127 -0.002247 -0.002493 -0.001338 0.011957
# 2 -0.007127 0.047859 -0.005420 -0.015469 -0.027780 0.018005
# 3 -0.002247 -0.005420 0.010894 -0.001449 -0.003532 -0.003759
# 4 -0.002493 -0.015469 -0.001449 0.038150 0.010440 -0.009604
# 5 -0.001338 -0.027780 -0.003532 0.010440 0.065068 -0.034441
# 6 0.011957 0.018005 -0.003759 -0.009604 -0.034441 0.073994
#
#
# Mechanical properties :
#
#
# Convention : Reuss Voigt Hill
#
# Bulk Modulus (GPa) = 21.88168 52.93493 37.40831
# Shear Modulus (GPa) = 16.81688 28.06808 22.44248
#
# Velocity S-wave (km/s) = 2.81209 3.63298 3.24857
# Velocity P-wave (km/s) = 4.56435 6.51842 5.62686
#
# Compressibility (1/GPa) = 0.04570033
#
# Stress axis : x y z
#
# Youngs Moduli (GPa) = 60.47707 20.89489 91.79304
#
# Poissons Ratio (x) = 0.14892 0.20627
# Poissons Ratio (y) = 0.43103 0.49747
# Poissons Ratio (z) = 0.13590 0.11324
#
# Static dielectric constant tensor:
#      x y z
#    x 1.836860 -0.016380 -0.087420 
#    y -0.016380 1.754600 -0.034970 
#    z -0.087420 -0.034970 1.922430 
# 
# From -- ./inp_files/65795.got.cif
#   From: 2010.05.17/outbox.cif.g08.bks.cpg/sg2_33_cif.got.tgz:65795.got - 2010.06.03 11:33:40.
