data_PCOD9026227
_publ_section_title
;
Structure prediction by ZEFSAII (Michael W. Deem and Ramdas Pophale) SiO2 
 PCOD9026227
Probable space group: P -1
;
_chemical_formula_sum "Si O2"
_cell_formula_units_Z 16
_cell_length_a 9.867824
_cell_length_b 9.897345
_cell_length_c 20.741232
_cell_angle_alpha 52.921418
_cell_angle_beta 53.880057
_cell_angle_gamma 28.767925
_cell_volume 767.906799
_symmetry_space_group_name_H-M "P -1"
_symmetry_group_IT_number 2
_symmetry_cell_setting 'triclinic'
loop_
_space_group_symop_operation_xyz
x,y,z
-x,-y,-z
loop_
_atom_site_type_symbol
_atom_site_label
_atom_site_fract_x
_atom_site_fract_y
_atom_site_fract_z
Si Si1 0.001853 0.872701 0.362202
Si Si2 0.954061 0.401503 0.181291
Si Si3 0.265897 0.817223 0.056714
Si Si4 0.600462 0.726613 0.541769
Si Si5 0.329617 0.463489 0.565626
Si Si6 0.328071 0.832238 0.181948
Si Si7 0.827275 0.405793 0.944416
Si Si8 0.820925 0.970537 0.647919
O O1 0.119453 0.585141 0.415183
O O2 0.128944 0.861368 0.267579
O O3 0.664661 0.158586 0.384930
O O4 0.125754 0.881383 0.384695
O O5 0.998990 0.564679 0.121426
O O6 0.630416 0.609997 0.197048
O O7 0.074873 0.227168 0.264590
O O8 0.156370 0.148931 0.143701
O O9 0.358823 0.751096 0.123311
O O10 0.206427 0.677232 0.087125
O O11 0.513250 0.692748 0.978000
O O12 0.985867 0.155494 0.023264
O O13 0.641329 0.657051 0.474786
O O14 0.500000 0.000000 0.500000
O O15 0.500000 0.500000 0.500000
O O16 0.015612 0.764122 0.591737
O O17 0.495586 0.225138 0.643706
#
# Coordination Sequence:
#
# PCOD9026227 Si02
#       8
#     2   2   2   2   2   2   2   2
#     4  11  21  41  62  82 125 158 194 253 309 358
#     4  11  23  39  62  94 126 152 201 264 298 344
#     4  10  22  41  63  89 124 168 202 231 305 374
#     4  12  25  40  58  88 121 156 202 255 301 356
#     4  12  21  38  64  86 111 160 204 247 293 368
#     4  11  23  39  65  92 119 163 204 245 306 367
#     4  10  22  41  63  89 128 161 196 254 295 352
#     4  11  21  38  63  89 116 154 204 249 305 353
#
# _framework density 20.83586
#
# number of rings (size 3 to 8) (size 9 to 14) (size 15 to 20)
#    0.000    1.000    2.500    6.000    0.000    3.000 
#    4.500    0.000    0.000    0.000    0.000    0.000 
#    0.000    0.000    0.000    0.000    0.000    0.000 
#
# Total GULP energy -89409.217550 kJ/mol
# GULP energy per Si atom -5588.076097 kJ/mol
# Density = 2.078844 g / cm^3
# Si number density = 20.835860 Si / 1000 Ang^3
#
#
#
# Elastic Constant Matrix: (Units=GPa)
#
#
# Indices 1 2 3 4 5 6 
#
# 1 69.0258 11.6711 46.0536 0.8781 4.2944 18.5554
# 2 11.6711 89.5868 9.6035 1.2788 0.4749 7.3522
# 3 46.0536 9.6035 65.4521 0.8947 7.1394 16.8878
# 4 0.8781 1.2788 0.8947 17.2020 1.1109 1.1244
# 5 4.2944 0.4749 7.1394 1.1109 23.5699 -0.2044
# 6 18.5554 7.3522 16.8878 1.1244 -0.2044 44.3373
#
#
#
# Elastic Compliance Matrix: (Units=1/GPa)
#
#
# Indices 1 2 3 4 5 6 
#
# 1 0.028321 -0.001323 -0.018612 -0.000113 0.000470 -0.004539
# 2 -0.001323 0.011489 -0.000466 -0.000698 0.000174 -0.001155
# 3 -0.018612 -0.000466 0.029990 0.000028 -0.005716 -0.003584
# 4 -0.000113 -0.000698 0.000028 0.058454 -0.002741 -0.001343
# 5 0.000470 0.000174 -0.005716 -0.002741 0.044218 0.002225
# 6 -0.004539 -0.001155 -0.003584 -0.001343 0.002225 0.026055
#
#
# Mechanical properties :
#
#
# Convention : Reuss Voigt Hill
#
# Bulk Modulus (GPa) = 34.48494 39.85790 37.17142
# Shear Modulus (GPa) = 20.08085 27.47096 23.77591
#
# Velocity S-wave (km/s) = 3.10782 3.63498 3.38169
# Velocity P-wave (km/s) = 5.42815 6.06535 5.75557
#
# Compressibility (1/GPa) = 0.02899816
#
# Stress axis : x y z
#
# Youngs Moduli (GPa) = 35.30948 87.04334 33.34426
#
# Poissons Ratio (x) = 0.11514 0.62060
# Poissons Ratio (y) = 0.04671 0.01554
# Poissons Ratio (z) = 0.65717 0.04058
#
# Static dielectric constant tensor:
#      x y z
#    x 1.749710 0.002010 -0.007370 
#    y 0.002010 1.759170 -0.020070 
#    z -0.007370 -0.020070 1.742590 
# 
# From -- ./inp_files/223955.got.cif
#   From: 2010.05.17/outbox.cif.g08.bks.cpg/sg2_112_cif.got.tgz:223955.got - 2010.06.03 11:33:40.
