data_PCOD9026590
_publ_section_title
;
Structure prediction by ZEFSAII (Michael W. Deem and Ramdas Pophale) SiO2 
 PCOD9026590
Probable space group: P -1
;
_chemical_formula_sum "Si O2"
_cell_formula_units_Z 16
_cell_length_a 25.763982
_cell_length_b 9.684526
_cell_length_c 15.742962
_cell_angle_alpha 42.650718
_cell_angle_beta 154.554205
_cell_angle_gamma 151.410621
_cell_volume 775.516801
_symmetry_space_group_name_H-M "P -1"
_symmetry_group_IT_number 2
_symmetry_cell_setting 'triclinic'
loop_
_space_group_symop_operation_xyz
x,y,z
-x,-y,-z
loop_
_atom_site_type_symbol
_atom_site_label
_atom_site_fract_x
_atom_site_fract_y
_atom_site_fract_z
Si Si1 0.113936 0.345182 0.719714
Si Si2 0.477348 0.637110 0.162904
Si Si3 0.544299 0.470849 0.171409
Si Si4 0.040913 0.642892 0.187278
Si Si5 0.668071 0.175617 0.779513
Si Si6 0.659241 0.950149 0.692157
Si Si7 0.857969 0.211076 0.537370
Si Si8 0.949211 0.831444 0.589767
O O1 0.088864 0.494063 0.546551
O O2 0.976307 0.212664 0.651879
O O3 0.315647 0.595296 0.937724
O O4 0.072784 0.082529 0.731225
O O5 0.526523 0.625147 0.145777
O O6 0.403535 0.344412 0.232493
O O7 0.652003 0.928360 0.337296
O O8 0.744828 0.634057 0.396762
O O9 0.411973 0.122298 0.157133
O O10 0.500000 0.500000 0.000000
O O11 0.102756 0.777958 0.311523
O O12 0.029104 0.382194 0.285881
O O13 0.184145 0.879395 0.220962
O O14 0.844315 0.475598 0.949247
O O15 0.510906 0.145255 0.555779
O O16 0.714703 0.158874 0.760336
O O17 0.000000 0.000000 0.500000
#
# Coordination Sequence:
#
# PCOD9026590 Si02
#       8
#     2   2   2   2   2   2   2   2
#     4  11  24  44  67  94 134 174 213 271 333 390
#     4  11  24  45  66  91 132 181 218 263 332 383
#     4  11  22  37  67 101 132 167 216 273 326 389
#     4  12  24  41  69  99 131 172 217 270 328 389
#     4  10  22  41  64  98 134 169 215 276 331 373
#     4  10  23  42  65  95 129 174 224 274 316 385
#     4  11  26  43  64  98 135 172 215 270 329 400
#     4  12  21  40  65 100 131 160 217 270 320 387
#
# _framework density 20.631402000000001
#
# number of rings (size 3 to 8) (size 9 to 14) (size 15 to 20)
#    0.000    1.000    3.750    3.750    0.000    2.500 
#    0.000    1.250    0.000    0.000    0.000    0.000 
#    0.000    0.000    0.000    0.000    0.000    0.000 
#
# Total GULP energy -89564.938779 kJ/mol
# GULP energy per Si atom -5597.808674 kJ/mol
# Density = 2.058444 g / cm^3
# Si number density = 20.631402 Si / 1000 Ang^3
#
#
#
# Elastic Constant Matrix: (Units=GPa)
#
#
# Indices 1 2 3 4 5 6 
#
# 1 82.0718 30.5543 41.2907 21.8232 -17.6904 22.2616
# 2 30.5543 36.2439 2.6992 7.6946 -13.9026 7.6294
# 3 41.2907 2.6992 128.9848 28.0559 -13.4549 11.5233
# 4 21.8232 7.6946 28.0559 38.0145 -0.5795 1.9398
# 5 -17.6904 -13.9026 -13.4549 -0.5795 33.3039 1.1977
# 6 22.2616 7.6294 11.5233 1.9398 1.1977 27.7194
#
#
#
# Elastic Compliance Matrix: (Units=1/GPa)
#
#
# Indices 1 2 3 4 5 6 
#
# 1 0.028901 -0.015841 -0.004740 -0.008931 0.007265 -0.016569
# 2 -0.015841 0.047890 0.007084 -0.005421 0.014476 -0.003650
# 3 -0.004740 0.007084 0.011379 -0.006901 0.005010 -0.002607
# 4 -0.008931 -0.005421 -0.006901 0.037001 -0.009487 0.009354
# 5 0.007265 0.014476 0.005010 -0.009487 0.042257 -0.013063
# 6 -0.016569 -0.003650 -0.002607 0.009354 -0.013063 0.051381
#
#
# Mechanical properties :
#
#
# Convention : Reuss Voigt Hill
#
# Bulk Modulus (GPa) = 16.34624 44.04321 30.19472
# Shear Modulus (GPa) = 18.78327 31.32463 25.05395
#
# Velocity S-wave (km/s) = 3.02059 3.90076 3.48855
# Velocity P-wave (km/s) = 4.48391 6.45615 5.55821
#
# Compressibility (1/GPa) = 0.06117616
#
# Stress axis : x y z
#
# Youngs Moduli (GPa) = 34.60037 20.88140 87.88461
#
# Poissons Ratio (x) = 0.33078 0.41655
# Poissons Ratio (y) = 0.54810 -0.62258
# Poissons Ratio (z) = 0.16400 -0.14793
#
# Static dielectric constant tensor:
#      x y z
#    x 1.705540 -0.006010 0.005220 
#    y -0.006010 1.724790 -0.003690 
#    z 0.005220 -0.003690 1.742330 
# 
# From -- ./inp_files/337997.got.cif
#   From: 2010.05.17/outbox.cif.g08.bks.cpg/sg2_169_cif.got.tgz:337997.got - 2010.06.03 11:33:40.
