data_PCOD9026482
_publ_section_title
;
Structure prediction by ZEFSAII (Michael W. Deem and Ramdas Pophale) SiO2 
 PCOD9026482
Probable space group: P -1
;
_chemical_formula_sum "Si O2"
_cell_formula_units_Z 12
_cell_length_a 5.432000
_cell_length_b 6.781020
_cell_length_c 17.547910
_cell_angle_alpha 70.384035
_cell_angle_beta 103.137375
_cell_angle_gamma 133.861192
_cell_volume 438.984056
_symmetry_space_group_name_H-M "P -1"
_symmetry_group_IT_number 2
_symmetry_cell_setting 'triclinic'
loop_
_space_group_symop_operation_xyz
x,y,z
-x,-y,-z
loop_
_atom_site_type_symbol
_atom_site_label
_atom_site_fract_x
_atom_site_fract_y
_atom_site_fract_z
Si Si1 0.259581 0.070591 0.095091
Si Si2 0.441025 0.800151 0.743765
Si Si3 0.430041 0.125623 0.415447
Si Si4 0.350270 0.564358 0.238327
Si Si5 0.678618 0.672997 0.408770
Si Si6 0.511870 0.346679 0.929926
O O1 0.362935 0.031032 0.188032
O O2 0.257528 0.321103 0.081726
O O3 0.515460 0.204699 0.023790
O O4 0.881766 0.792406 0.081949
O O5 0.541265 0.967157 0.651547
O O6 0.547962 0.619916 0.753333
O O7 0.047624 0.619447 0.754593
O O8 0.715125 0.460005 0.403538
O O9 0.500000 0.000000 0.500000
O O10 0.037822 0.982997 0.411987
O O11 0.519901 0.689829 0.317754
O O12 0.433139 0.716253 0.141984
O O13 0.500000 0.500000 0.500000
#
# Coordination Sequence:
#
# PCOD9026482 Si02
#       6
#     2   2   2   2   2   2
#     4   9  18  36  61  90 124 163 207 256 311 371
#     4  10  22  41  64  93 127 166 210 259 314 373
#     4  11  23  41  64  94 128 166 211 260 315 374
#     4  10  22  41  64  93 127 166 210 259 314 373
#     4  11  23  41  64  94 128 166 211 260 315 374
#     4   9  18  36  61  90 124 163 207 256 311 371
#
# _framework density 27.335846
#
# number of rings (size 3 to 8) (size 9 to 14) (size 15 to 20)
#    0.000    2.000    0.000    3.000    0.000    3.333 
#    0.000   20.000    0.000   18.000    0.000    0.000 
#    0.000    0.000    0.000    0.000    0.000    0.000 
#
# Total GULP energy -67062.618494 kJ/mol
# GULP energy per Si atom -5588.551541 kJ/mol
# Density = 2.727363 g / cm^3
# Si number density = 27.335846 Si / 1000 Ang^3
#
#
#
# Elastic Constant Matrix: (Units=GPa)
#
#
# Indices 1 2 3 4 5 6 
#
# 1 100.7256 25.0553 35.1356 11.7743 -25.9407 1.4012
# 2 25.0553 90.5329 25.9483 14.5268 -2.5273 10.6500
# 3 35.1356 25.9483 303.8406 10.2134 -30.5343 9.5528
# 4 11.7743 14.5268 10.2134 50.0288 5.0143 -9.7567
# 5 -25.9407 -2.5273 -30.5343 5.0143 53.2361 7.3205
# 6 1.4012 10.6500 9.5528 -9.7567 7.3205 53.0617
#
#
#
# Elastic Compliance Matrix: (Units=1/GPa)
#
#
# Indices 1 2 3 4 5 6 
#
# 1 0.012712 -0.002592 -0.000486 -0.002986 0.006229 -0.001136
# 2 -0.002592 0.012858 -0.000609 -0.003564 -0.000250 -0.003023
# 3 -0.000486 -0.000609 0.003664 -0.000850 0.002048 -0.000964
# 4 -0.002986 -0.003564 -0.000850 0.023586 -0.005158 0.005996
# 5 0.006229 -0.000250 0.002048 -0.005158 0.024123 -0.004759
# 6 -0.001136 -0.003023 -0.000964 0.005996 -0.004759 0.021415
#
#
# Mechanical properties :
#
#
# Convention : Reuss Voigt Hill
#
# Bulk Modulus (GPa) = 45.74632 74.15305 59.94969
# Shear Modulus (GPa) = 44.24065 58.52930 51.38497
#
# Velocity S-wave (km/s) = 4.02731 4.63224 4.34033
# Velocity P-wave (km/s) = 6.19652 7.46966 6.86268
#
# Compressibility (1/GPa) = 0.02185968
#
# Stress axis : x y z
#
# Youngs Moduli (GPa) = 78.66874 77.77247 272.91557
#
# Poissons Ratio (x) = 0.20158 0.13277
# Poissons Ratio (y) = 0.20390 0.16611
# Poissons Ratio (z) = 0.03827 0.04734
#
# Static dielectric constant tensor:
#      x y z
#    x 2.307680 -0.243630 0.034990 
#    y -0.243630 2.272210 -0.057260 
#    z 0.034990 -0.057260 2.283910 
# 
# From -- ./inp_files/5081.got.cif
#   From: 2010.05.17/outbox.cif.g08.bks.cpg/sg2_3_cif.got.tgz:5081.got - 2010.06.03 11:33:40.
