data_PCOD9026298
_publ_section_title
;
Structure prediction by ZEFSAII (Michael W. Deem and Ramdas Pophale) SiO2 
 PCOD9026298
Probable space group: P -1
;
_chemical_formula_sum "Si O2"
_cell_formula_units_Z 14
_cell_length_a 17.464164
_cell_length_b 9.701022
_cell_length_c 9.205759
_cell_angle_alpha 132.813198
_cell_angle_beta 56.278839
_cell_angle_gamma 143.967499
_cell_volume 672.961020
_symmetry_space_group_name_H-M "P -1"
_symmetry_group_IT_number 2
_symmetry_cell_setting 'triclinic'
loop_
_space_group_symop_operation_xyz
x,y,z
-x,-y,-z
loop_
_atom_site_type_symbol
_atom_site_label
_atom_site_fract_x
_atom_site_fract_y
_atom_site_fract_z
Si Si1 0.848505 0.262820 0.281108
Si Si2 0.896185 0.508099 0.957055
Si Si3 0.406107 0.220781 0.977986
Si Si4 0.214460 0.042510 0.292937
Si Si5 0.265822 0.889546 0.394896
Si Si6 0.827943 0.610787 0.390281
Si Si7 0.474432 0.918423 0.638729
O O1 0.823873 0.225674 0.451647
O O2 0.875515 0.515355 0.379922
O O3 0.964883 0.300384 0.129291
O O4 0.715013 0.005419 0.161092
O O5 0.789243 0.350785 0.828111
O O6 0.869693 0.262592 0.880187
O O7 0.871396 0.620390 0.189011
O O8 0.342601 0.217175 0.184982
O O9 0.500000 0.500000 0.000000
O O10 0.475835 0.122880 0.863331
O O11 0.141108 0.131568 0.416059
O O12 0.251739 0.054834 0.429396
O O13 0.411181 0.049569 0.403285
O O14 0.669779 0.370240 0.392978
O O15 0.500000 0.000000 0.500000
#
# Coordination Sequence:
#
# PCOD9026298 Si02
#       7
#     2   2   2   2   2   2   2
#     4  11  21  43  69  87 131 174 205 263 311 380
#     4  10  23  44  62  94 132 167 213 253 324 368
#     4  11  23  40  63  99 128 162 217 263 309 378
#     4  10  24  41  61 101 122 165 214 261 315 368
#     4  10  22  41  63  94 127 169 207 262 320 374
#     4  11  22  40  67  92 125 170 215 258 311 374
#     4  11  19  39  64  90 124 169 209 255 322 367
#
# _framework density 20.803581000000001
#
# number of rings (size 3 to 8) (size 9 to 14) (size 15 to 20)
#    0.857    0.571    5.714    1.714    0.000    3.429 
#    2.571    0.714    0.000    0.000    0.000    0.000 
#    0.000    0.000    0.000    0.000    0.000    0.000 
#
# Total GULP energy -78186.861435 kJ/mol
# GULP energy per Si atom -5584.775817 kJ/mol
# Density = 2.075623 g / cm^3
# Si number density = 20.803581 Si / 1000 Ang^3
#
#
#
# Elastic Constant Matrix: (Units=GPa)
#
#
# Indices 1 2 3 4 5 6 
#
# 1 63.2193 14.8181 20.0309 -13.7337 2.3858 5.3010
# 2 14.8181 65.2527 27.1373 -18.2952 -2.1134 4.9859
# 3 20.0309 27.1373 123.9374 -34.1766 -7.6445 -10.7721
# 4 -13.7337 -18.2952 -34.1766 44.6352 -3.9125 -3.0035
# 5 2.3858 -2.1134 -7.6445 -3.9125 35.7495 -7.4986
# 6 5.3010 4.9859 -10.7721 -3.0035 -7.4986 29.5714
#
#
#
# Elastic Compliance Matrix: (Units=1/GPa)
#
#
# Indices 1 2 3 4 5 6 
#
# 1 0.018011 -0.002246 -0.002251 0.002416 -0.002398 -0.004033
# 2 -0.002246 0.018500 -0.002611 0.004737 0.000565 -0.003043
# 3 -0.002251 -0.002611 0.012369 0.008669 0.005171 0.007541
# 4 0.002416 0.004737 0.008669 0.032818 0.007042 0.007045
# 5 -0.002398 0.000565 0.005171 0.007042 0.032380 0.011144
# 6 -0.004033 -0.003043 0.007541 0.007045 0.011144 0.041341
#
#
# Mechanical properties :
#
#
# Convention : Reuss Voigt Hill
#
# Bulk Modulus (GPa) = 28.84893 41.82023 35.33458
# Shear Modulus (GPa) = 27.59530 34.68608 31.14069
#
# Velocity S-wave (km/s) = 3.64602 4.08770 3.87316
# Velocity P-wave (km/s) = 5.62335 6.51346 6.08470
#
# Compressibility (1/GPa) = 0.03466333
#
# Stress axis : x y z
#
# Youngs Moduli (GPa) = 55.52091 54.05404 80.84698
#
# Poissons Ratio (x) = 0.12140 0.18202
# Poissons Ratio (y) = 0.12470 0.21109
# Poissons Ratio (z) = 0.12500 0.14114
#
# Static dielectric constant tensor:
#      x y z
#    x 1.749260 0.013980 -0.001190 
#    y 0.013980 1.772790 0.012930 
#    z -0.001190 0.012930 1.748900 
# 
# From -- ./inp_files/326592.got.cif
#   From: 2010.05.17/outbox.cif.g08.bks.cpg/sg2_164_cif.got.tgz:326592.got - 2010.06.03 11:33:40.
