data_PCOD9026284
_publ_section_title
;
Structure prediction by ZEFSAII (Michael W. Deem and Ramdas Pophale) SiO2 
 PCOD9026284
Probable space group: P -1
;
_chemical_formula_sum "Si O2"
_cell_formula_units_Z 16
_cell_length_a 5.234585
_cell_length_b 21.811329
_cell_length_c 5.237007
_cell_angle_alpha 81.909853
_cell_angle_beta 96.869006
_cell_angle_gamma 92.487664
_cell_volume 587.511605
_symmetry_space_group_name_H-M "P -1"
_symmetry_group_IT_number 2
_symmetry_cell_setting 'triclinic'
loop_
_space_group_symop_operation_xyz
x,y,z
-x,-y,-z
loop_
_atom_site_type_symbol
_atom_site_label
_atom_site_fract_x
_atom_site_fract_y
_atom_site_fract_z
Si Si1 0.271330 0.959959 0.364428
Si Si2 0.788149 0.809568 0.973341
Si Si3 0.722072 0.518001 0.721206
Si Si4 0.877134 0.713187 0.400596
Si Si5 0.719949 0.248493 0.205727
Si Si6 0.910318 0.071777 0.139035
Si Si7 0.915967 0.402422 0.660750
Si Si8 0.478321 0.364425 0.231703
O O1 0.186858 0.911003 0.600076
O O2 0.500000 0.000000 0.500000
O O3 0.308503 0.932200 0.103002
O O4 0.038927 0.006115 0.249122
O O5 0.532076 0.795479 0.791954
O O6 0.050405 0.778913 0.917773
O O7 0.870157 0.880746 0.960042
O O8 0.727115 0.770739 0.243502
O O9 0.500000 0.500000 0.500000
O O10 0.844861 0.451948 0.839857
O O11 0.619328 0.566890 0.887660
O O12 0.924569 0.557925 0.554205
O O13 0.148230 0.741600 0.510582
O O14 0.917860 0.657931 0.234777
O O15 0.745338 0.678783 0.644475
O O16 0.626118 0.318628 0.086402
O O17 0.667038 0.378939 0.486439
#
# Coordination Sequence:
#
# PCOD9026284 Si02
#       8
#     2   2   2   2   2   2   2   2
#     4  10  22  47  74 106 146 188 235 294 356 411
#     4  12  28  42  68 100 136 182 228 284 344 418
#     4   8  13  25  50  88 116 163 223 274 346 427
#     4  10  22  41  63  93 130 178 223 286 351 423
#     4  11  25  44  62  96 133 178 228 281 346 410
#     4  10  25  43  70 109 141 188 241 291 350 425
#     4   8  15  27  53  88 120 163 223 276 348 425
#     4   9  17  35  60  85 126 170 224 282 347 420
#
# _framework density 27.233504
#
# number of rings (size 3 to 8) (size 9 to 14) (size 15 to 20)
#    0.000    2.250    1.250    0.375    7.000    0.000 
#    0.000    0.000    0.000    1.500    0.000    0.000 
#    0.000    0.000    0.000    0.000    0.000    0.000 
#
# Total GULP energy -89458.464745 kJ/mol
# GULP energy per Si atom -5591.154047 kJ/mol
# Density = 2.717152 g / cm^3
# Si number density = 27.233504 Si / 1000 Ang^3
#
#
#
# Elastic Constant Matrix: (Units=GPa)
#
#
# Indices 1 2 3 4 5 6 
#
# 1 119.3859 22.4004 38.7084 9.9881 0.9892 14.3381
# 2 22.4004 82.5117 36.4505 -2.0332 9.3830 21.1384
# 3 38.7084 36.4505 125.8150 2.5166 8.7090 12.2727
# 4 9.9881 -2.0332 2.5166 29.1241 4.1089 6.6376
# 5 0.9892 9.3830 8.7090 4.1089 36.0326 10.5896
# 6 14.3381 21.1384 12.2727 6.6376 10.5896 53.4630
#
#
#
# Elastic Compliance Matrix: (Units=1/GPa)
#
#
# Indices 1 2 3 4 5 6 
#
# 1 0.009889 -0.001459 -0.002523 -0.003167 0.001490 -0.001398
# 2 -0.001459 0.015674 -0.003526 0.003334 -0.002102 -0.004994
# 3 -0.002523 -0.003526 0.009835 -0.000054 -0.001413 0.000100
# 4 -0.003167 0.003334 -0.000054 0.037174 -0.003734 -0.004332
# 5 0.001490 -0.002102 -0.001413 -0.003734 0.030440 -0.004810
# 6 -0.001398 -0.004994 0.000100 -0.004332 -0.004810 0.022522
#
#
# Mechanical properties :
#
#
# Convention : Reuss Voigt Hill
#
# Bulk Modulus (GPa) = 49.06593 58.09235 53.57914
# Shear Modulus (GPa) = 33.93440 39.06749 36.50095
#
# Velocity S-wave (km/s) = 3.53378 3.79164 3.66498
# Velocity P-wave (km/s) = 5.89118 6.36759 6.13401
#
# Compressibility (1/GPa) = 0.02038074
#
# Stress axis : x y z
#
# Youngs Moduli (GPa) = 101.12741 63.80018 101.67663
#
# Poissons Ratio (x) = 0.09311 0.25653
# Poissons Ratio (y) = 0.14759 0.35852
# Poissons Ratio (z) = 0.25514 0.22496
#
# Static dielectric constant tensor:
#      x y z
#    x 2.225250 -0.096420 -0.021980 
#    y -0.096420 2.151560 0.036910 
#    z -0.021980 0.036910 2.161830 
# 
# From -- ./inp_files/12353.got.cif
#   From: 2010.05.17/outbox.cif.g08.bks.cpg/sg2_7_cif.got.tgz:12353.got - 2010.06.03 11:33:40.
