data_PCOD9026894
_publ_section_title
;
Structure prediction by ZEFSAII (Michael W. Deem and Ramdas Pophale) SiO2 
 PCOD9026894
Probable space group: P -1
;
_chemical_formula_sum "Si O2"
_cell_formula_units_Z 14
_cell_length_a 8.825114
_cell_length_b 17.670964
_cell_length_c 8.889122
_cell_angle_alpha 96.886229
_cell_angle_beta 106.302018
_cell_angle_gamma 138.228839
_cell_volume 759.777255
_symmetry_space_group_name_H-M "P -1"
_symmetry_group_IT_number 2
_symmetry_cell_setting 'triclinic'
loop_
_space_group_symop_operation_xyz
x,y,z
-x,-y,-z
loop_
_atom_site_type_symbol
_atom_site_label
_atom_site_fract_x
_atom_site_fract_y
_atom_site_fract_z
Si Si1 0.567181 0.319336 0.776486
Si Si2 0.528588 0.789993 0.832370
Si Si3 0.966864 0.401808 0.155672
Si Si4 0.147715 0.812911 0.007386
Si Si5 0.227934 0.098586 0.397978
Si Si6 0.743718 0.012601 0.147936
Si Si7 0.872809 0.816237 0.152237
O O1 0.406824 0.190205 0.612909
O O2 0.349315 0.282931 0.801862
O O3 0.747926 0.441679 0.743721
O O4 0.768121 0.359008 0.961862
O O5 0.210028 0.656538 0.756208
O O6 0.596372 0.817392 0.683538
O O7 0.709565 0.797815 0.970672
O O8 0.632814 0.910454 0.964314
O O9 0.987784 0.320682 0.106216
O O10 0.008539 0.797156 0.108149
O O11 0.474396 0.928182 0.146954
O O12 0.137206 0.867460 0.877072
O O13 0.974187 0.057645 0.311412
O O14 0.100524 0.964411 0.315276
#
# Coordination Sequence:
#
# PCOD9026894 Si02
#       7
#     2   2   2   2   2   2   2
#     4  10  22  37  51  69 107 140 173 201 240 308
#     4   9  16  32  57  77  99 129 174 204 246 304
#     4   9  21  38  52  71  98 145 173 199 248 300
#     4  10  17  31  57  75 102 131 167 207 251 303
#     4  11  18  33  55  81 100 129 168 214 251 293
#     4   9  17  30  53  84 101 125 162 215 258 293
#     4  10  18  32  55  80 100 133 164 206 256 304
#
# _framework density 18.426451
#
# number of rings (size 3 to 8) (size 9 to 14) (size 15 to 20)
#    0.000    2.286    2.857    2.143    0.000    1.143 
#    0.000    3.571    0.000    0.000    0.000    0.000 
#    0.000    0.000    0.000    0.000    0.000    0.000 
#
# Total GULP energy -78117.021409 kJ/mol
# GULP energy per Si atom -5579.787243 kJ/mol
# Density = 1.838451 g / cm^3
# Si number density = 18.426451 Si / 1000 Ang^3
#
#
#
# Elastic Constant Matrix: (Units=GPa)
#
#
# Indices 1 2 3 4 5 6 
#
# 1 103.8984 28.5066 11.8139 4.7386 -17.8047 18.3542
# 2 28.5066 92.5156 4.3579 3.0547 -5.4769 15.6746
# 3 11.8139 4.3579 27.1758 0.7805 -5.8165 18.0814
# 4 4.7386 3.0547 0.7805 12.6689 3.2914 -6.1663
# 5 -17.8047 -5.4769 -5.8165 3.2914 11.1944 -6.6462
# 6 18.3542 15.6746 18.0814 -6.1663 -6.6462 29.5579
#
#
#
# Elastic Compliance Matrix: (Units=1/GPa)
#
#
# Indices 1 2 3 4 5 6 
#
# 1 0.017267 -0.001122 0.008026 -0.020538 0.029604 -0.012665
# 2 -0.001122 0.013526 0.007939 -0.010626 0.004660 -0.012502
# 3 0.008026 0.007939 0.082469 -0.049725 0.037566 -0.061569
# 4 -0.020538 -0.010626 -0.049725 0.140427 -0.067652 0.062890
# 5 0.029604 0.004660 0.037566 -0.067652 0.165841 -0.020658
# 6 -0.012665 -0.012502 -0.061569 0.062890 -0.020658 0.094465
#
#
# Mechanical properties :
#
#
# Convention : Reuss Voigt Hill
#
# Bulk Modulus (GPa) = 6.99549 34.77183 20.88366
# Shear Modulus (GPa) = 9.39925 22.61167 16.00546
#
# Velocity S-wave (km/s) = 2.26098 3.50684 2.95042
# Velocity P-wave (km/s) = 3.25894 5.94212 4.79216
#
# Compressibility (1/GPa) = 0.14294922
#
# Stress axis : x y z
#
# Youngs Moduli (GPa) = 57.91300 73.93395 12.12579
#
# Poissons Ratio (x) = 0.08296 -0.09733
# Poissons Ratio (y) = 0.06498 -0.09627
# Poissons Ratio (z) = -0.46484 -0.58699
#
# Static dielectric constant tensor:
#      x y z
#    x 1.639820 0.023100 0.010630 
#    y 0.023100 1.669850 -0.012440 
#    z 0.010630 -0.012440 1.609720 
# 
# From -- ./inp_files/163116.got.cif
#   From: 2010.05.17/outbox.cif.g08.bks.cpg/sg2_82_cif.got.tgz:163116.got - 2010.06.03 11:33:40.
