data_PCOD9026503
_publ_section_title
;
Structure prediction by ZEFSAII (Michael W. Deem and Ramdas Pophale) SiO2 
 PCOD9026503
Probable space group: P -1
;
_chemical_formula_sum "Si O2"
_cell_formula_units_Z 16
_cell_length_a 9.610648
_cell_length_b 12.244916
_cell_length_c 13.295460
_cell_angle_alpha 131.982739
_cell_angle_beta 96.652616
_cell_angle_gamma 54.187773
_cell_volume 838.868470
_symmetry_space_group_name_H-M "P -1"
_symmetry_group_IT_number 2
_symmetry_cell_setting 'triclinic'
loop_
_space_group_symop_operation_xyz
x,y,z
-x,-y,-z
loop_
_atom_site_type_symbol
_atom_site_label
_atom_site_fract_x
_atom_site_fract_y
_atom_site_fract_z
Si Si1 0.805440 0.543122 0.893770
Si Si2 0.243848 0.223207 0.763443
Si Si3 0.762727 0.519045 0.223313
Si Si4 0.863658 0.465223 0.431246
Si Si5 0.777881 0.955066 0.823373
Si Si6 0.496344 0.124141 0.296256
Si Si7 0.535016 0.417775 0.064897
Si Si8 0.807317 0.835970 0.981044
O O1 0.657362 0.517722 0.868125
O O2 0.767351 0.688502 0.891041
O O3 0.026985 0.334146 0.784812
O O4 0.772922 0.663916 0.067097
O O5 0.311701 0.283893 0.719433
O O6 0.383740 0.989996 0.661610
O O7 0.819866 0.511335 0.337409
O O8 0.615332 0.493003 0.183715
O O9 0.966551 0.322153 0.066778
O O10 0.656287 0.633796 0.568729
O O11 0.000000 0.500000 0.500000
O O12 0.004298 0.225243 0.309193
O O13 0.634726 0.929173 0.757747
O O14 0.785862 0.922205 0.923664
O O15 0.690124 0.174570 0.926020
O O16 0.655027 0.016030 0.155373
O O17 0.500000 0.500000 0.000000
#
# Coordination Sequence:
#
# PCOD9026503 Si02
#       8
#     2   2   2   2   2   2   2   2
#     4   9  17  30  51  82 115 133 175 232 271 314
#     4   9  16  31  52  82 108 137 182 224 267 316
#     4  10  20  34  54  85 112 142 181 223 275 328
#     4   9  21  36  52  79 113 143 181 228 271 319
#     4  10  19  34  55  84 110 136 184 230 273 320
#     4  10  17  31  56  81 107 141 181 228 272 314
#     4  12  21  32  55  86 117 143 171 226 286 325
#     4   9  18  32  56  83 103 138 189 232 263 311
#
# _framework density 19.073312999999999
#
# number of rings (size 3 to 8) (size 9 to 14) (size 15 to 20)
#    0.000    2.250    3.750    1.125    0.000    2.500 
#    0.000    0.000    0.000    3.750    0.000    0.000 
#    0.000    0.000    0.000    0.000    0.000    0.000 
#
# Total GULP energy -89190.067362 kJ/mol
# GULP energy per Si atom -5574.379210 kJ/mol
# Density = 1.902990 g / cm^3
# Si number density = 19.073313 Si / 1000 Ang^3
#
#
#
# Elastic Constant Matrix: (Units=GPa)
#
#
# Indices 1 2 3 4 5 6 
#
# 1 100.6307 21.9675 33.0025 11.1896 -1.4637 -5.2762
# 2 21.9675 104.5797 31.8674 22.0448 2.5841 -2.3315
# 3 33.0025 31.8674 48.5646 8.5981 -12.5001 -12.7653
# 4 11.1896 22.0448 8.5981 25.6106 -11.5074 -2.5061
# 5 -1.4637 2.5841 -12.5001 -11.5074 27.4917 6.3996
# 6 -5.2762 -2.3315 -12.7653 -2.5061 6.3996 20.2951
#
#
#
# Elastic Compliance Matrix: (Units=1/GPa)
#
#
# Indices 1 2 3 4 5 6 
#
# 1 0.014182 0.002795 -0.012766 -0.008235 -0.008187 -0.002457
# 2 0.002795 0.017941 -0.015465 -0.018835 -0.015429 -0.004400
# 3 -0.012766 -0.015465 0.048059 0.015754 0.024732 0.019279
# 4 -0.008235 -0.018835 0.015754 0.070657 0.037486 0.002509
# 5 -0.008187 -0.015429 0.024732 0.037486 0.065330 -0.004316
# 6 -0.002457 -0.004400 0.019279 0.002509 -0.004316 0.061926
#
#
# Mechanical properties :
#
#
# Convention : Reuss Voigt Hill
#
# Bulk Modulus (GPa) = 34.12034 47.49442 40.80738
# Shear Modulus (GPa) = 14.76071 25.80865 20.28468
#
# Velocity S-wave (km/s) = 2.78491 3.68248 3.26469
# Velocity P-wave (km/s) = 5.31685 6.56018 5.97096
#
# Compressibility (1/GPa) = 0.02930803
#
# Stress axis : x y z
#
# Youngs Moduli (GPa) = 70.51258 55.73822 20.80789
#
# Poissons Ratio (x) = -0.15576 0.26564
# Poissons Ratio (y) = -0.19705 0.32179
# Poissons Ratio (z) = 0.90019 0.86199
#
# Static dielectric constant tensor:
#      x y z
#    x 1.668990 -0.022280 -0.033870 
#    y -0.022280 1.690920 0.002710 
#    z -0.033870 0.002710 1.716600 
# 
# From -- ./inp_files/270305.got.cif
#   From: 2010.05.17/outbox.cif.g08.bks.cpg/sg2_136_cif.got.tgz:270305.got - 2010.06.03 11:33:40.
