data_PCOD9026751
_publ_section_title
;
Structure prediction by ZEFSAII (Michael W. Deem and Ramdas Pophale) SiO2 
 PCOD9026751
Probable space group: P -1
;
_chemical_formula_sum "Si O2"
_cell_formula_units_Z 10
_cell_length_a 9.509932
_cell_length_b 7.564255
_cell_length_c 7.701192
_cell_angle_alpha 53.552345
_cell_angle_beta 108.399076
_cell_angle_gamma 104.068008
_cell_volume 421.727350
_symmetry_space_group_name_H-M "P -1"
_symmetry_group_IT_number 2
_symmetry_cell_setting 'triclinic'
loop_
_space_group_symop_operation_xyz
x,y,z
-x,-y,-z
loop_
_atom_site_type_symbol
_atom_site_label
_atom_site_fract_x
_atom_site_fract_y
_atom_site_fract_z
Si Si1 0.077176 0.710623 0.498628
Si Si2 0.247735 0.139152 0.254341
Si Si3 0.244356 0.617208 0.945948
Si Si4 0.560325 0.785652 0.055341
Si Si5 0.781324 0.893491 0.351833
O O1 0.207747 0.640681 0.714941
O O2 0.000000 0.500000 0.500000
O O3 0.941166 0.805148 0.494804
O O4 0.142542 0.922017 0.293095
O O5 0.367931 0.164996 0.133239
O O6 0.299110 0.101787 0.495127
O O7 0.174233 0.373988 0.102035
O O8 0.416790 0.618717 0.068586
O O9 0.198112 0.854187 0.858447
O O10 0.688757 0.738525 0.269808
O O11 0.500000 0.000000 0.000000
#
# Coordination Sequence:
#
# PCOD9026751 Si02
#       5
#     2   2   2   2   2
#     4  11  25  42  64  98 130 166 221 263 311 389
#     4  11  23  42  69  92 131 174 203 269 329 357
#     4  10  22  41  65  95 129 164 215 262 310 385
#     4  10  23  42  65  98 130 164 216 261 313 390
#     4  10  24  43  65  97 129 166 218 260 312 389
#
# _framework density 23.712
#
# number of rings (size 3 to 8) (size 9 to 14) (size 15 to 20)
#    0.000    1.600    0.000    4.200    0.000   17.600 
#    0.000    0.000    0.000    0.000    0.000    0.000 
#    0.000    0.000    0.000    0.000    0.000    0.000 
#
# Total GULP energy -55733.797282 kJ/mol
# GULP energy per Si atom -5573.379728 kJ/mol
# Density = 2.365803 g / cm^3
# Si number density = 23.712000 Si / 1000 Ang^3
#
#
#
# Elastic Constant Matrix: (Units=GPa)
#
#
# Indices 1 2 3 4 5 6 
#
# 1 41.3290 25.6669 17.5340 12.0094 -17.6841 -19.7758
# 2 25.6669 189.8618 53.8832 -6.3194 3.0523 14.7005
# 3 17.5340 53.8832 81.9013 -19.3120 -6.4478 2.0388
# 4 12.0094 -6.3194 -19.3120 43.1711 3.8395 0.2532
# 5 -17.6841 3.0523 -6.4478 3.8395 25.5794 -2.7575
# 6 -19.7758 14.7005 2.0388 0.2532 -2.7575 22.3388
#
#
#
# Elastic Compliance Matrix: (Units=1/GPa)
#
#
# Indices 1 2 3 4 5 6 
#
# 1 -0.096612 0.020631 0.013646 0.044162 -0.084438 -0.111273
# 2 0.020631 0.002609 -0.007827 -0.010361 0.015615 0.019307
# 3 0.013646 -0.007827 0.015354 0.000390 0.016100 0.017813
# 4 0.044162 -0.010361 0.000390 0.006005 0.036387 0.050301
# 5 -0.084438 0.015615 0.016100 0.036387 -0.032348 -0.090901
# 6 -0.111273 0.019307 0.017813 0.050301 -0.090901 -0.079863
#
#
# Mechanical properties :
#
#
# Convention : Reuss Voigt Hill
#
# Bulk Modulus (GPa) = -38.83418 56.36226 8.76404
# Shear Modulus (GPa) = -20.29734 32.61839 6.16052
#
# Velocity S-wave (km/s) = -2.92891 3.71294 1.61360
# Velocity P-wave (km/s) = 5.27741 6.49633 2.67874
#
# Compressibility (1/GPa) = -0.02575051
#
# Stress axis : x y z
#
# Youngs Moduli (GPa) = -10.35064 383.34840 65.12884
#
# Poissons Ratio (x) = -7.90888 -0.88874
# Poissons Ratio (y) = 0.21354 0.50978
# Poissons Ratio (z) = 0.14124 3.00059
#
# Static dielectric constant tensor:
#      x y z
#    x 1.939500 0.017200 0.039470 
#    y 0.017200 1.947370 -0.015940 
#    z 0.039470 -0.015940 1.948380 
# 
# From -- ./inp_files/148791.got.cif
#   From: 2010.05.17/outbox.cif.g08.bks.cpg/sg2_75_cif.got.tgz:148791.got - 2010.06.03 11:33:40.
