data_PCOD9026985
_publ_section_title
;
Structure prediction by ZEFSAII (Michael W. Deem and Ramdas Pophale) SiO2 
 PCOD9026985
Probable space group: P -1
;
_chemical_formula_sum "Si O2"
_cell_formula_units_Z 16
_cell_length_a 26.858687
_cell_length_b 5.171528
_cell_length_c 8.807750
_cell_angle_alpha 124.220120
_cell_angle_beta 38.795837
_cell_angle_gamma 111.081855
_cell_volume 626.483445
_symmetry_space_group_name_H-M "P -1"
_symmetry_group_IT_number 2
_symmetry_cell_setting 'triclinic'
loop_
_space_group_symop_operation_xyz
x,y,z
-x,-y,-z
loop_
_atom_site_type_symbol
_atom_site_label
_atom_site_fract_x
_atom_site_fract_y
_atom_site_fract_z
Si Si1 0.445329 0.274126 0.130135
Si Si2 0.824698 0.121506 0.193216
Si Si3 0.929194 0.630188 0.999681
Si Si4 0.204927 0.838391 0.064706
Si Si5 0.248308 0.486231 0.246276
Si Si6 0.343371 0.396587 0.701547
Si Si7 0.915960 0.217055 0.435202
Si Si8 0.502317 0.875737 0.622387
O O1 0.389403 0.451997 0.451378
O O2 0.500000 0.500000 0.000000
O O3 0.500000 0.000000 0.000000
O O4 0.427274 0.070171 0.957684
O O5 0.893003 0.340711 0.063086
O O6 0.754738 0.327679 0.527139
O O7 0.865660 0.829857 0.101088
O O8 0.792352 0.067030 0.085194
O O9 0.940705 0.870791 0.189228
O O10 0.013286 0.579780 0.693578
O O11 0.115769 0.828658 0.335863
O O12 0.243850 0.112727 0.150113
O O13 0.255652 0.498910 0.868475
O O14 0.162436 0.625496 0.419677
O O15 0.317087 0.534306 0.978870
O O16 0.409394 0.108314 0.509462
O O17 0.500000 0.500000 0.500000
O O18 0.500000 0.000000 0.500000
#
# Coordination Sequence:
#
# PCOD9026985 Si02
#       8
#     2   2   2   2   2   2   2   2
#     4  10  22  43  70  95 132 172 215 261 326 394
#     4  11  25  42  64  97 128 178 228 283 324 399
#     4  10  22  41  66  93 132 171 233 280 341 384
#     4  11  24  42  67  93 137 176 225 269 337 399
#     4  10  23  44  65  93 139 176 223 270 333 405
#     4  10  25  44  66  97 133 182 207 273 332 398
#     4   9  21  40  65  94 129 182 217 286 339 389
#     4  11  24  44  71 105 134 165 221 277 324 395
#
# _framework density 25.539383000000001
#
# number of rings (size 3 to 8) (size 9 to 14) (size 15 to 20)
#    0.000    1.750    1.250    1.500   10.500    3.500 
#    2.250    0.000    0.000    0.000    0.000    0.000 
#    0.000    0.000    0.000    0.000    0.000    0.000 
#
# Total GULP energy -89156.071131 kJ/mol
# GULP energy per Si atom -5572.254446 kJ/mol
# Density = 2.548125 g / cm^3
# Si number density = 25.539383 Si / 1000 Ang^3
#
#
#
# Elastic Constant Matrix: (Units=GPa)
#
#
# Indices 1 2 3 4 5 6 
#
# 1 52.2985 20.8772 36.8315 0.4121 9.1765 -24.3756
# 2 20.8772 123.8450 44.1848 -11.3594 9.0377 -9.9305
# 3 36.8315 44.1848 181.1774 -49.8673 25.4779 -9.7420
# 4 0.4121 -11.3594 -49.8673 32.5847 -16.0494 11.3447
# 5 9.1765 9.0377 25.4779 -16.0494 39.3900 -10.1192
# 6 -24.3756 -9.9305 -9.7420 11.3447 -10.1192 35.1251
#
#
#
# Elastic Compliance Matrix: (Units=1/GPa)
#
#
# Indices 1 2 3 4 5 6 
#
# 1 0.072853 -0.002676 -0.029775 -0.074837 -0.011566 0.062381
# 2 -0.002676 0.009119 -0.001370 0.001051 -0.000167 -0.000046
# 3 -0.029775 -0.001370 0.022563 0.046473 0.004250 -0.028577
# 4 -0.074837 0.001051 0.046473 0.142577 0.025316 -0.077504
# 5 -0.011566 -0.000167 0.004250 0.025316 0.034357 -0.005174
# 6 0.062381 -0.000046 -0.028577 -0.077504 -0.005174 0.087363
#
#
# Mechanical properties :
#
#
# Convention : Reuss Voigt Hill
#
# Bulk Modulus (GPa) = 27.10532 62.34533 44.72532
# Shear Modulus (GPa) = 11.14152 38.44846 24.79499
#
# Velocity S-wave (km/s) = 2.09092 3.88423 3.11923
# Velocity P-wave (km/s) = 4.05777 6.67688 5.52477
#
# Compressibility (1/GPa) = 0.03689313
#
# Stress axis : x y z
#
# Youngs Moduli (GPa) = 13.72630 109.65763 44.31986
#
# Poissons Ratio (x) = 0.29349 1.31962
# Poissons Ratio (y) = 0.03674 0.06071
# Poissons Ratio (z) = 0.40870 0.15020
#
# Static dielectric constant tensor:
#      x y z
#    x 2.136500 0.151820 0.087600 
#    y 0.151820 2.114320 0.051050 
#    z 0.087600 0.051050 2.162830 
# 
# From -- ./inp_files/358274.got.cif
#   From: 2010.05.17/outbox.cif.g08.bks.cpg/sg2_180_cif.got.tgz:358274.got - 2010.06.03 11:33:40.
