data_PCOD9026048
_publ_section_title
;
Structure prediction by ZEFSAII (Michael W. Deem and Ramdas Pophale) SiO2 
 PCOD9026048
Probable space group: P -1
;
_chemical_formula_sum "Si O2"
_cell_formula_units_Z 16
_cell_length_a 32.062184
_cell_length_b 10.226491
_cell_length_c 16.287766
_cell_angle_alpha 136.557006
_cell_angle_beta 161.954995
_cell_angle_gamma 35.468260
_cell_volume 924.570894
_symmetry_space_group_name_H-M "P -1"
_symmetry_group_IT_number 2
_symmetry_cell_setting 'triclinic'
loop_
_space_group_symop_operation_xyz
x,y,z
-x,-y,-z
loop_
_atom_site_type_symbol
_atom_site_label
_atom_site_fract_x
_atom_site_fract_y
_atom_site_fract_z
Si Si1 0.780061 0.668525 0.248043
Si Si2 0.132806 0.097060 0.075810
Si Si3 0.588543 0.970884 0.337046
Si Si4 0.017322 0.175639 0.382422
Si Si5 0.150599 0.444168 0.483626
Si Si6 0.123940 0.434615 0.086519
Si Si7 0.398609 0.388878 0.676866
Si Si8 0.251428 0.733186 0.709943
O O1 0.876412 0.434105 0.267286
O O2 0.812505 0.596340 0.370484
O O3 0.861060 0.806100 0.440657
O O4 0.587132 0.828721 0.936946
O O5 0.143409 0.211933 0.064340
O O6 0.307539 0.956569 0.385990
O O7 0.008494 0.330165 0.002947
O O8 0.063160 0.945712 0.862671
O O9 0.709968 0.791980 0.411839
O O10 0.565733 0.820148 0.292234
O O11 0.128618 0.008195 0.590045
O O12 0.172351 0.636313 0.573834
O O13 0.967490 0.519727 0.150183
O O14 0.294812 0.403666 0.410847
O O15 0.290615 0.612902 0.637468
O O16 0.570522 0.348945 0.960613
#
# Coordination Sequence:
#
# PCOD9026048 Si02
#       8
#     2   2   2   2   2   2   2   2
#     4  11  24  36  49  76 113 148 169 203 262 316
#     4   9  16  31  56  79  99 131 179 217 254 306
#     4   9  18  34  55  78 106 134 170 221 261 302
#     4  11  21  37  54  73 107 146 180 204 246 328
#     4  10  20  34  55  80 107 131 172 227 264 295
#     4   9  15  30  54  84 103 123 167 231 270 286
#     4   9  16  28  57  83 101 125 175 223 258 298
#     4  10  17  31  55  82  97 133 179 220 253 296
#
# _framework density 17.305325
#
# number of rings (size 3 to 8) (size 9 to 14) (size 15 to 20)
#    0.000    2.250    3.750    1.875    0.000    1.000 
#    0.000    3.750    0.000    0.750    0.000    0.000 
#    0.000    0.000    0.000    0.000    0.000    0.000 
#
# Total GULP energy -89150.602295 kJ/mol
# GULP energy per Si atom -5571.912643 kJ/mol
# Density = 1.726594 g / cm^3
# Si number density = 17.305325 Si / 1000 Ang^3
#
#
#
# Elastic Constant Matrix: (Units=GPa)
#
#
# Indices 1 2 3 4 5 6 
#
# 1 27.5732 -5.8224 4.2652 12.4614 -2.7165 11.2370
# 2 -5.8224 36.7563 -19.6247 32.5207 8.8412 19.9028
# 3 4.2652 -19.6247 43.6575 56.0972 -0.8368 28.2393
# 4 12.4614 32.5207 56.0972 9.2773 1.5478 -7.8363
# 5 -2.7165 8.8412 -0.8368 1.5478 14.1177 -0.8883
# 6 11.2370 19.9028 28.2393 -7.8363 -0.8883 1.1066
#
#
#
# Elastic Compliance Matrix: (Units=1/GPa)
#
#
# Indices 1 2 3 4 5 6 
#
# 1 0.038024 -0.003163 -0.009768 0.009006 0.007069 -0.010523
# 2 -0.003163 0.014598 -0.007625 0.007322 -0.010530 0.007554
# 3 -0.009768 -0.007625 0.008826 0.000374 0.004469 0.017332
# 4 0.009006 0.007322 0.000374 0.026770 -0.008930 -0.050294
# 5 0.007069 -0.010530 0.004469 -0.008930 0.080335 0.004825
# 6 -0.010523 0.007554 0.017332 -0.050294 0.004825 0.080096
#
#
# Mechanical properties :
#
#
# Convention : Reuss Voigt Hill
#
# Bulk Modulus (GPa) = 49.17135 7.29147 28.23141
# Shear Modulus (GPa) = 16.86104 13.51158 15.18631
#
# Velocity S-wave (km/s) = 3.12481 2.79727 2.96556
# Velocity P-wave (km/s) = 6.44165 3.82825 5.29860
#
# Compressibility (1/GPa) = 0.02033704
#
# Stress axis : x y z
#
# Youngs Moduli (GPa) = 26.29886 68.50186 113.29853
#
# Poissons Ratio (x) = 0.21667 1.10665
# Poissons Ratio (y) = 0.08318 0.86394
# Poissons Ratio (z) = 0.25688 0.52235
#
# Static dielectric constant tensor:
#      x y z
#    x 1.561530 -0.004050 0.001490 
#    y -0.004050 1.585080 0.005970 
#    z 0.001490 0.005970 1.621240 
# 
# From -- ./inp_files/271630.got.cif
#   From: 2010.05.17/outbox.cif.g08.bks.cpg/sg2_136_cif.got.tgz:271630.got - 2010.06.03 11:33:40.
