data_PCOD9026494
_publ_section_title
;
Structure prediction by ZEFSAII (Michael W. Deem and Ramdas Pophale) SiO2 
 PCOD9026494
Probable space group: P -1
;
_chemical_formula_sum "Si O2"
_cell_formula_units_Z 16
_cell_length_a 8.582018
_cell_length_b 7.954878
_cell_length_c 22.722433
_cell_angle_alpha 63.577194
_cell_angle_beta 129.627272
_cell_angle_gamma 143.725754
_cell_volume 698.694691
_symmetry_space_group_name_H-M "P -1"
_symmetry_group_IT_number 2
_symmetry_cell_setting 'triclinic'
loop_
_space_group_symop_operation_xyz
x,y,z
-x,-y,-z
loop_
_atom_site_type_symbol
_atom_site_label
_atom_site_fract_x
_atom_site_fract_y
_atom_site_fract_z
Si Si1 0.162914 0.129015 0.417103
Si Si2 0.209699 0.465289 0.546555
Si Si3 0.179554 0.350029 0.681599
Si Si4 0.724780 0.203732 0.781012
Si Si5 0.203608 0.895110 0.918661
Si Si6 0.536580 0.301516 0.829882
Si Si7 0.943578 0.396173 0.315186
Si Si8 0.850578 0.802317 0.052810
O O1 0.525591 0.344377 0.467281
O O2 0.075518 0.283564 0.379499
O O3 0.999118 0.866202 0.461778
O O4 0.031978 0.962574 0.348275
O O5 0.355467 0.537796 0.635708
O O6 0.000000 0.500000 0.500000
O O7 0.397551 0.411921 0.773290
O O8 0.993659 0.394448 0.655774
O O9 0.574648 0.248229 0.782124
O O10 0.913398 0.435449 0.738387
O O11 0.948169 0.229915 0.869850
O O12 0.429689 0.884241 0.734563
O O13 0.304004 0.016121 0.857540
O O14 0.157406 0.052081 0.919670
O O15 0.884723 0.556417 0.899062
O O16 0.500000 0.000000 0.000000
O O17 0.500000 0.500000 0.000000
O O18 0.000000 0.000000 0.000000
#
# Coordination Sequence:
#
# PCOD9026494 Si02
#       8
#     2   2   2   2   2   2   2   2
#     4  10  22  41  64  93 132 162 213 256 321 367
#     4  10  22  43  69  94 135 174 210 258 321 380
#     4  10  25  38  69  94 129 167 217 263 320 380
#     4  12  24  40  63  92 125 166 209 272 331 376
#     4  12  25  41  61  89 121 168 213 261 325 386
#     4  12  23  41  64  90 124 163 213 265 319 377
#     4  12  23  41  63  97 128 163 214 268 321 375
#     4  12  24  42  60  86 123 165 214 268 324 389
#
# _framework density 22.899844000000002
#
# number of rings (size 3 to 8) (size 9 to 14) (size 15 to 20)
#    0.750    0.000    1.250    7.500    3.500    0.000 
#    0.000    1.250    0.000    0.000    0.000    0.000 
#    0.000    0.000    0.000    0.000    0.000    0.000 
#
# Total GULP energy -89475.404849 kJ/mol
# GULP energy per Si atom -5592.212803 kJ/mol
# Density = 2.284772 g / cm^3
# Si number density = 22.899844 Si / 1000 Ang^3
#
#
#
# Elastic Constant Matrix: (Units=GPa)
#
#
# Indices 1 2 3 4 5 6 
#
# 1 112.0566 27.0224 13.0934 6.5428 17.5289 -25.2537
# 2 27.0224 86.6014 22.8534 8.0203 9.2868 17.0678
# 3 13.0934 22.8534 75.7693 7.2506 24.0841 -5.4011
# 4 6.5428 8.0203 7.2506 7.1369 4.0305 17.0438
# 5 17.5289 9.2868 24.0841 4.0305 46.3170 -5.5083
# 6 -25.2537 17.0678 -5.4011 17.0438 -5.5083 32.2911
#
#
#
# Elastic Compliance Matrix: (Units=1/GPa)
#
#
# Indices 1 2 3 4 5 6 
#
# 1 0.005792 -0.000949 -0.002985 0.029632 -0.004439 -0.011865
# 2 -0.000949 0.013508 -0.001755 -0.022947 0.001049 0.004115
# 3 -0.002985 -0.001755 0.014772 0.016654 -0.008745 -0.009218
# 4 0.029632 -0.022947 0.016654 -0.101484 0.004550 0.092430
# 5 -0.004439 0.001049 -0.008745 0.004550 0.026817 -0.003316
# 6 -0.011865 0.004115 -0.009218 0.092430 -0.003316 -0.031380
#
#
# Mechanical properties :
#
#
# Convention : Reuss Voigt Hill
#
# Bulk Modulus (GPa) = 44.06385 44.48507 44.27446
# Shear Modulus (GPa) = -94.28159 31.24620 -31.51769
#
# Velocity S-wave (km/s) = -6.42345 3.69788 -3.71391
# Velocity P-wave (km/s) = 5.97750 6.14008 0.99250
#
# Compressibility (1/GPa) = 0.02269434
#
# Stress axis : x y z
#
# Youngs Moduli (GPa) = 172.65060 74.02986 67.69584
#
# Poissons Ratio (x) = 0.07029 0.20206
# Poissons Ratio (y) = 0.16392 0.11878
# Poissons Ratio (z) = 0.51533 0.12989
#
# Static dielectric constant tensor:
#      x y z
#    x 1.919790 -0.015850 0.070040 
#    y -0.015850 1.914160 0.038510 
#    z 0.070040 0.038510 1.984060 
# 
# From -- ./inp_files/51122.got.cif
#   From: 2010.05.17/outbox.cif.g08.bks.cpg/sg2_26_cif.got.tgz:51122.got - 2010.06.03 11:33:40.
