data_PCOD9026567
_publ_section_title
;
Structure prediction by ZEFSAII (Michael W. Deem and Ramdas Pophale) SiO2 
 PCOD9026567
Probable space group: P -1
;
_chemical_formula_sum "Si O2"
_cell_formula_units_Z 14
_cell_length_a 9.981893
_cell_length_b 16.680487
_cell_length_c 8.184997
_cell_angle_alpha 39.910547
_cell_angle_beta 81.293596
_cell_angle_gamma 53.439445
_cell_volume 565.574147
_symmetry_space_group_name_H-M "P -1"
_symmetry_group_IT_number 2
_symmetry_cell_setting 'triclinic'
loop_
_space_group_symop_operation_xyz
x,y,z
-x,-y,-z
loop_
_atom_site_type_symbol
_atom_site_label
_atom_site_fract_x
_atom_site_fract_y
_atom_site_fract_z
Si Si1 0.011433 0.417982 0.796861
Si Si2 0.259016 0.017800 0.240786
Si Si3 0.802200 0.776936 0.358840
Si Si4 0.239004 0.613948 0.535510
Si Si5 0.357714 0.182041 0.352850
Si Si6 0.124857 0.832377 0.548744
Si Si7 0.708029 0.240381 0.015164
O O1 0.000000 0.500000 0.500000
O O2 0.801681 0.624553 0.583497
O O3 0.092139 0.223008 0.046400
O O4 0.171312 0.353179 0.006434
O O5 0.473731 0.842132 0.567385
O O6 0.171515 0.945354 0.323926
O O7 0.319363 0.064263 0.005260
O O8 0.731074 0.844886 0.448211
O O9 0.030354 0.679869 0.445643
O O10 0.208814 0.694097 0.597433
O O11 0.461092 0.390247 0.829338
O O12 0.252759 0.704733 0.241982
O O13 0.500000 0.000000 0.500000
O O14 0.230826 0.737015 0.856418
O O15 0.873650 0.010831 0.334642
#
# Coordination Sequence:
#
# PCOD9026567 Si02
#       7
#     2   2   2   2   2   2   2
#     4   9  21  42  64  92 133 171 220 277 335 408
#     4  10  22  42  64  98 135 175 227 274 350 411
#     4  11  22  42  67  95 139 174 224 287 341 411
#     4  11  24  46  69 106 137 183 237 283 356 406
#     4  10  22  41  64  97 130 176 227 271 342 413
#     4  11  23  45  70 101 144 182 229 295 345 407
#     4  10  24  44  69 102 138 185 236 279 348 419
#
# _framework density 24.753606999999999
#
# number of rings (size 3 to 8) (size 9 to 14) (size 15 to 20)
#    0.000    1.714    1.429    1.714    2.000    4.571 
#    5.143    1.429    0.000    0.000    0.000    0.000 
#    0.000    0.000    0.000    0.000    0.000    0.000 
#
# Total GULP energy -78040.530121 kJ/mol
# GULP energy per Si atom -5574.323580 kJ/mol
# Density = 2.469727 g / cm^3
# Si number density = 24.753607 Si / 1000 Ang^3
#
#
#
# Elastic Constant Matrix: (Units=GPa)
#
#
# Indices 1 2 3 4 5 6 
#
# 1 66.0765 16.5480 5.0496 0.5957 1.5629 -6.2348
# 2 16.5480 141.0152 14.2274 10.4248 -2.0891 -13.4460
# 3 5.0496 14.2274 113.7026 31.1658 4.3377 -16.4010
# 4 0.5957 10.4248 31.1658 37.8305 -2.6827 5.8943
# 5 1.5629 -2.0891 4.3377 -2.6827 37.1250 -0.9191
# 6 -6.2348 -13.4460 -16.4010 5.8943 -0.9191 34.4768
#
#
#
# Elastic Compliance Matrix: (Units=1/GPa)
#
#
# Indices 1 2 3 4 5 6 
#
# 1 0.015774 -0.001639 -0.000145 -0.000060 -0.000691 0.002136
# 2 -0.001639 0.007796 0.000393 -0.002959 0.000333 0.003446
# 3 -0.000145 0.000393 0.013623 -0.012853 -0.002276 0.008745
# 4 -0.000060 -0.002959 -0.012853 0.040307 0.003902 -0.014066
# 5 -0.000691 0.000333 -0.002276 0.003902 0.027507 -0.001011
# 6 0.002136 0.003446 0.008745 -0.014066 -0.001011 0.037273
#
#
# Mechanical properties :
#
#
# Convention : Reuss Voigt Hill
#
# Bulk Modulus (GPa) = 29.05904 43.60492 36.33198
# Shear Modulus (GPa) = 31.94223 40.88442 36.41332
#
# Velocity S-wave (km/s) = 3.59612 4.06846 3.83956
# Velocity P-wave (km/s) = 5.38587 6.30267 5.86222
#
# Compressibility (1/GPa) = 0.03441270
#
# Stress axis : x y z
#
# Youngs Moduli (GPa) = 63.39606 128.26451 73.40322
#
# Poissons Ratio (x) = 0.21017 0.01062
# Poissons Ratio (y) = 0.10388 -0.02883
# Poissons Ratio (z) = 0.00917 -0.05038
#
# Static dielectric constant tensor:
#      x y z
#    x 1.977410 0.011830 0.002950 
#    y 0.011830 2.116410 -0.024270 
#    z 0.002950 -0.024270 2.048870 
# 
# From -- ./inp_files/276230.got.cif
#   From: 2010.05.17/outbox.cif.g08.bks.cpg/sg2_139_cif.got.tgz:276230.got - 2010.06.03 11:33:40.
