data_PCOD9026358
_publ_section_title
;
Structure prediction by ZEFSAII (Michael W. Deem and Ramdas Pophale) SiO2 
 PCOD9026358
Probable space group: P -1
;
_chemical_formula_sum "Si O2"
_cell_formula_units_Z 15
_cell_length_a 14.252577
_cell_length_b 19.309031
_cell_length_c 8.978182
_cell_angle_alpha 128.412751
_cell_angle_beta 52.466683
_cell_angle_gamma 160.788363
_cell_volume 634.635931
_symmetry_space_group_name_H-M "P -1"
_symmetry_group_IT_number 2
_symmetry_cell_setting 'triclinic'
loop_
_space_group_symop_operation_xyz
x,y,z
-x,-y,-z
loop_
_atom_site_type_symbol
_atom_site_label
_atom_site_fract_x
_atom_site_fract_y
_atom_site_fract_z
Si Si1 0.632579 0.946179 0.011898
Si Si2 0.677925 0.469577 0.707771
Si Si3 0.995307 0.704264 0.324518
Si Si4 0.816889 0.416942 0.283947
Si Si5 0.296149 0.947165 0.618312
Si Si6 0.500000 0.500000 0.500000
Si Si7 0.978788 0.335481 0.092282
Si Si8 0.861511 0.820569 0.313063
O O1 0.900175 0.070019 0.863401
O O2 0.385137 0.751482 0.879436
O O3 0.580336 0.899535 0.176178
O O4 0.713997 0.104330 0.117206
O O5 0.663774 0.367464 0.496659
O O6 0.744994 0.503524 0.862442
O O7 0.393627 0.327949 0.751333
O O8 0.970966 0.712415 0.683680
O O9 0.012552 0.622722 0.287368
O O10 0.683327 0.535600 0.423306
O O11 0.229366 0.922953 0.477772
O O12 0.031542 0.706327 0.121127
O O13 0.949672 0.420438 0.231552
O O14 0.500000 0.000000 0.500000
O O15 0.733075 0.674644 0.375201
O O16 0.000000 0.000000 0.500000
#
# Coordination Sequence:
#
# PCOD9026358 Si02
#       8
#     2   2   2   2   2   1   2   2
#     4  11  23  40  70 100 132 187 235 286 360 423
#     4  10  23  42  68  99 136 188 231 287 361 420
#     4  11  23  42  65  96 135 185 227 295 350 413
#     4  11  21  42  62  95 141 175 229 288 351 420
#     4  10  22  41  64 100 140 179 234 290 353 422
#     4  12  22  44  72 100 140 184 242 288 360 416
#     4  11  23  38  65  99 131 184 229 281 356 430
#     4  12  23  47  75 104 145 185 244 300 356 429
#
# _framework density 23.635597000000001
#
# number of rings (size 3 to 8) (size 9 to 14) (size 15 to 20)
#    0.000    1.067    5.333    2.000    0.000    5.333 
#    0.000    4.000    0.000    3.200    0.000    0.000 
#    0.000    0.000    0.000    0.000    0.000    0.000 
#
# Total GULP energy -83599.821323 kJ/mol
# GULP energy per Si atom -5573.321422 kJ/mol
# Density = 2.358180 g / cm^3
# Si number density = 23.635597 Si / 1000 Ang^3
#
#
#
# Elastic Constant Matrix: (Units=GPa)
#
#
# Indices 1 2 3 4 5 6 
#
# 1 104.4149 39.6862 28.8017 13.1000 7.3787 9.5056
# 2 39.6862 73.5183 11.8914 7.4990 0.6645 15.1492
# 3 28.8017 11.8914 115.1396 -0.7303 22.6538 1.4393
# 4 13.1000 7.4990 -0.7303 35.2760 12.6316 -1.6358
# 5 7.3787 0.6645 22.6538 12.6316 44.9100 -0.6114
# 6 9.5056 15.1492 1.4393 -1.6358 -0.6114 36.9306
#
#
#
# Elastic Compliance Matrix: (Units=1/GPa)
#
#
# Indices 1 2 3 4 5 6 
#
# 1 0.013196 -0.006092 -0.002759 -0.003843 0.000382 -0.000954
# 2 -0.006092 0.018498 -0.000662 -0.002575 0.001703 -0.006080
# 3 -0.002759 -0.000662 0.010613 0.003516 -0.005871 0.000627
# 4 -0.003843 -0.002575 0.003516 0.034389 -0.010732 0.003254
# 5 0.000382 0.001703 -0.005871 -0.010732 0.028151 -0.000577
# 6 -0.000954 -0.006080 0.000627 0.003254 -0.000577 0.029928
#
#
# Mechanical properties :
#
#
# Convention : Reuss Voigt Hill
#
# Bulk Modulus (GPa) = 42.95399 50.42572 46.68986
# Shear Modulus (GPa) = 30.94805 37.60289 34.27547
#
# Velocity S-wave (km/s) = 3.62247 3.99299 3.81223
# Velocity P-wave (km/s) = 5.97572 6.52990 6.25895
#
# Compressibility (1/GPa) = 0.02328072
#
# Stress axis : x y z
#
# Youngs Moduli (GPa) = 75.78210 54.06079 94.22135
#
# Poissons Ratio (x) = 0.32933 0.25999
# Poissons Ratio (y) = 0.46165 0.06237
# Poissons Ratio (z) = 0.20911 0.03578
#
# Static dielectric constant tensor:
#      x y z
#    x 1.948970 -0.011700 0.033440 
#    y -0.011700 1.946210 0.029670 
#    z 0.033440 0.029670 1.960880 
# 
# From -- ./inp_files/319467.got.cif
#   From: 2010.05.17/outbox.cif.g08.bks.cpg/sg2_160_cif.got.tgz:319467.got - 2010.06.03 11:33:40.
