data_PCOD9026255
_publ_section_title
;
Structure prediction by ZEFSAII (Michael W. Deem and Ramdas Pophale) SiO2 
 PCOD9026255
Probable space group: P -1
;
_chemical_formula_sum "Si O2"
_cell_formula_units_Z 12
_cell_length_a 9.509112
_cell_length_b 11.457506
_cell_length_c 8.972726
_cell_angle_alpha 41.576023
_cell_angle_beta 93.829813
_cell_angle_gamma 118.665543
_cell_volume 492.444992
_symmetry_space_group_name_H-M "P -1"
_symmetry_group_IT_number 2
_symmetry_cell_setting 'triclinic'
loop_
_space_group_symop_operation_xyz
x,y,z
-x,-y,-z
loop_
_atom_site_type_symbol
_atom_site_label
_atom_site_fract_x
_atom_site_fract_y
_atom_site_fract_z
Si Si1 0.463960 0.586850 0.771123
Si Si2 0.135526 0.977967 0.624498
Si Si3 0.350143 0.998528 0.063336
Si Si4 0.012576 0.367015 0.781228
Si Si5 0.738047 0.199093 0.442810
Si Si6 0.788432 0.758231 0.172677
O O1 0.375924 0.710911 0.678446
O O2 0.319275 0.358585 0.881298
O O3 0.672652 0.778146 0.540912
O O4 0.500000 0.500000 0.000000
O O5 0.206445 0.877651 0.617376
O O6 0.035658 0.813942 0.917719
O O7 0.000000 0.000000 0.500000
O O8 0.160704 0.764656 0.210641
O O9 0.360431 0.988927 0.251989
O O10 0.500000 0.000000 0.000000
O O11 0.342784 0.194402 0.821844
O O12 0.073428 0.582256 0.674588
O O13 0.174603 0.418435 0.636798
O O14 0.000000 0.000000 0.000000
#
# Coordination Sequence:
#
# PCOD9026255 Si02
#       6
#     2   2   2   2   2   2
#     4  11  23  41  65  94 129 173 217 268 327 386
#     4  12  24  40  65  99 133 170 215 269 329 393
#     4  11  22  39  63  93 125 166 218 271 323 386
#     4  10  22  41  63  91 127 172 217 263 323 391
#     4  11  23  42  64  92 131 172 214 270 327 387
#     4   9  21  43  64  87 129 171 212 263 321 387
#
# _framework density 24.368205
#
# number of rings (size 3 to 8) (size 9 to 14) (size 15 to 20)
#    0.000    1.333    0.000    6.500    0.000    2.667 
#    0.000   15.000    0.000    0.000    0.000    0.000 
#    0.000    0.000    0.000    0.000    0.000    0.000 
#
# Total GULP energy -66802.534855 kJ/mol
# GULP energy per Si atom -5566.877905 kJ/mol
# Density = 2.431274 g / cm^3
# Si number density = 24.368205 Si / 1000 Ang^3
#
#
#
# Elastic Constant Matrix: (Units=GPa)
#
#
# Indices 1 2 3 4 5 6 
#
# 1 187.5082 55.0912 34.1660 16.2436 18.4919 -8.1160
# 2 55.0912 139.5086 25.4004 7.1262 10.9306 7.4272
# 3 34.1660 25.4004 104.3791 21.9875 17.8031 -6.1597
# 4 16.2436 7.1262 21.9875 23.1403 9.0937 8.3201
# 5 18.4919 10.9306 17.8031 9.0937 38.9353 -4.1093
# 6 -8.1160 7.4272 -6.1597 8.3201 -4.1093 48.1984
#
#
#
# Elastic Compliance Matrix: (Units=1/GPa)
#
#
# Indices 1 2 3 4 5 6 
#
# 1 0.006637 -0.002351 -0.000505 -0.003687 -0.001194 0.001950
# 2 -0.002351 0.008518 -0.001635 0.001906 -0.001220 -0.002350
# 3 -0.000505 -0.001635 0.013332 -0.012356 -0.002108 0.003824
# 4 -0.003687 0.001906 -0.012356 0.066278 -0.010176 -0.014802
# 5 -0.001194 -0.001220 -0.002108 -0.010176 0.030363 0.004063
# 6 0.001950 -0.002350 0.003824 -0.014802 0.004063 0.024828
#
#
# Mechanical properties :
#
#
# Convention : Reuss Voigt Hill
#
# Bulk Modulus (GPa) = 51.27099 73.41232 62.34165
# Shear Modulus (GPa) = 30.22262 43.17070 36.69666
#
# Velocity S-wave (km/s) = 3.52554 4.21360 3.88483
# Velocity P-wave (km/s) = 6.13664 7.33923 6.76471
#
# Compressibility (1/GPa) = 0.01950421
#
# Stress axis : x y z
#
# Youngs Moduli (GPa) = 150.65944 117.40496 75.00974
#
# Poissons Ratio (x) = 0.27602 0.03788
# Poissons Ratio (y) = 0.35421 0.12265
# Poissons Ratio (z) = 0.07608 0.19198
#
# Static dielectric constant tensor:
#      x y z
#    x 2.105590 0.064150 -0.198910 
#    y 0.064150 2.023400 -0.199180 
#    z -0.198910 -0.199180 2.474200 
# 
# From -- ./inp_files/166654.got.cif
#   From: 2010.05.17/outbox.cif.g08.bks.cpg/sg2_84_cif.got.tgz:166654.got - 2010.06.03 11:33:40.
