data_PCOD9026599
_publ_section_title
;
Structure prediction by ZEFSAII (Michael W. Deem and Ramdas Pophale) SiO2 
 PCOD9026599
Probable space group: P -1
;
_chemical_formula_sum "Si O2"
_cell_formula_units_Z 16
_cell_length_a 9.487739
_cell_length_b 9.529783
_cell_length_c 25.016452
_cell_angle_alpha 29.765961
_cell_angle_beta 141.945629
_cell_angle_gamma 136.679230
_cell_volume 684.997656
_symmetry_space_group_name_H-M "P -1"
_symmetry_group_IT_number 2
_symmetry_cell_setting 'triclinic'
loop_
_space_group_symop_operation_xyz
x,y,z
-x,-y,-z
loop_
_atom_site_type_symbol
_atom_site_label
_atom_site_fract_x
_atom_site_fract_y
_atom_site_fract_z
Si Si1 0.587339 0.644072 0.105546
Si Si2 0.803077 0.733161 0.537035
Si Si3 0.714800 0.254998 0.914707
Si Si4 0.487496 0.956691 0.729211
Si Si5 0.583107 0.828283 0.254016
Si Si6 0.876835 0.129912 0.716604
Si Si7 0.156707 0.735674 0.880294
Si Si8 0.556711 0.224755 0.490892
O O1 0.455789 0.668527 0.114375
O O2 0.678082 0.342834 0.226641
O O3 0.387583 0.630600 0.005005
O O4 0.757283 0.932558 0.047973
O O5 0.896210 0.441006 0.645755
O O6 0.669833 0.743861 0.550370
O O7 0.618441 0.794193 0.415964
O O8 0.000000 0.000000 0.500000
O O9 0.576276 0.238032 0.823289
O O10 0.941730 0.486610 0.900400
O O11 0.545737 0.053178 0.774124
O O12 0.715373 0.923057 0.775855
O O13 0.654665 0.530606 0.393338
O O14 0.786326 0.086328 0.215783
O O15 0.741365 0.134671 0.618110
O O16 0.101452 0.988136 0.819686
O O17 0.500000 0.000000 0.500000
#
# Coordination Sequence:
#
# PCOD9026599 Si02
#       8
#     2   2   2   2   2   2   2   2
#     4  10  23  43  72  91 132 174 222 273 328 384
#     4  11  25  42  66 100 133 174 226 264 329 404
#     4  10  22  41  64  99 125 166 227 270 320 390
#     4  11  22  46  65  90 136 180 207 271 336 389
#     4  11  24  42  65  96 139 171 214 272 340 381
#     4  11  22  44  67  92 135 173 220 267 322 400
#     4  11  24  41  71 100 127 172 230 270 324 392
#     4  11  23  41  65  96 136 176 211 272 334 388
#
# _framework density 23.357742999999999
#
# number of rings (size 3 to 8) (size 9 to 14) (size 15 to 20)
#    0.000    1.250    3.750    1.875    3.500    6.500 
#    0.000    1.250    0.000    0.000    0.000    0.000 
#    0.000    0.000    0.000    0.000    0.000    0.000 
#
# Total GULP energy -89477.866418 kJ/mol
# GULP energy per Si atom -5592.366651 kJ/mol
# Density = 2.330458 g / cm^3
# Si number density = 23.357743 Si / 1000 Ang^3
#
#
#
# Elastic Constant Matrix: (Units=GPa)
#
#
# Indices 1 2 3 4 5 6 
#
# 1 63.6168 45.5977 44.7590 0.5473 -34.0940 -10.5437
# 2 45.5977 121.1532 22.9211 -40.9616 -16.9104 9.7789
# 3 44.7590 22.9211 64.5721 -66.3413 -8.6904 16.6769
# 4 0.5473 -40.9616 -66.3413 21.7172 7.4644 9.7157
# 5 -34.0940 -16.9104 -8.6904 7.4644 38.4706 -11.5483
# 6 -10.5437 9.7789 16.6769 9.7157 -11.5483 36.9352
#
#
#
# Elastic Compliance Matrix: (Units=1/GPa)
#
#
# Indices 1 2 3 4 5 6 
#
# 1 0.017981 -0.000170 0.008070 0.018341 0.014498 0.001242
# 2 -0.000170 0.008874 -0.005624 -0.002507 0.003539 0.001907
# 3 0.008070 -0.005624 0.003039 -0.007957 0.009122 0.007366
# 4 0.018341 -0.002507 -0.007957 0.004963 0.016388 0.013310
# 5 0.014498 0.003539 0.009122 0.016388 0.041616 0.007784
# 6 0.001242 0.001907 0.007366 0.013310 0.007784 0.022531
#
#
# Mechanical properties :
#
#
# Convention : Reuss Voigt Hill
#
# Bulk Modulus (GPa) = 29.02958 52.87753 40.95356
# Shear Modulus (GPa) = 47.19960 28.49554 37.84757
#
# Velocity S-wave (km/s) = 4.50013 3.49658 4.02972
# Velocity P-wave (km/s) = 6.28146 6.24410 6.26281
#
# Compressibility (1/GPa) = 0.03444762
#
# Stress axis : x y z
#
# Youngs Moduli (GPa) = 55.61518 112.68259 329.02657
#
# Poissons Ratio (x) = 0.01914 -2.65536
# Poissons Ratio (y) = 0.00945 1.85042
# Poissons Ratio (z) = -0.44883 0.63372
#
# Static dielectric constant tensor:
#      x y z
#    x 1.877240 0.033390 -0.014100 
#    y 0.033390 1.910090 -0.012950 
#    z -0.014100 -0.012950 1.903760 
# 
# From -- ./inp_files/501279.got.cif
#   From: 2010.05.17/outbox.cif.g08.bks.cpg/sg2_251_cif.got.tgz:501279.got - 2010.06.03 11:33:40.
