data_PCOD9026274
_publ_section_title
;
Structure prediction by ZEFSAII (Michael W. Deem and Ramdas Pophale) SiO2 
 PCOD9026274
Probable space group: P -1
;
_chemical_formula_sum "Si O2"
_cell_formula_units_Z 16
_cell_length_a 8.463524
_cell_length_b 12.428272
_cell_length_c 9.154651
_cell_angle_alpha 100.406511
_cell_angle_beta 64.469145
_cell_angle_gamma 126.753598
_cell_volume 692.206457
_symmetry_space_group_name_H-M "P -1"
_symmetry_group_IT_number 2
_symmetry_cell_setting 'triclinic'
loop_
_space_group_symop_operation_xyz
x,y,z
-x,-y,-z
loop_
_atom_site_type_symbol
_atom_site_label
_atom_site_fract_x
_atom_site_fract_y
_atom_site_fract_z
Si Si1 0.097612 0.853929 0.425736
Si Si2 0.443505 0.448798 0.844179
Si Si3 0.747348 0.398840 0.049439
Si Si4 0.916908 0.871562 0.103956
Si Si5 0.766031 0.274456 0.447468
Si Si6 0.725195 0.855816 0.485213
Si Si7 0.831615 0.474063 0.712420
Si Si8 0.283661 0.852192 0.044854
O O1 0.187649 0.828863 0.531409
O O2 0.174783 0.814824 0.241841
O O3 0.841145 0.792728 0.501574
O O4 0.214043 0.014712 0.415477
O O5 0.285617 0.286136 0.875126
O O6 0.670231 0.496069 0.697457
O O7 0.500000 0.500000 0.000000
O O8 0.352924 0.526684 0.828112
O O9 0.719175 0.394184 0.884911
O O10 0.670728 0.248094 0.072068
O O11 0.000000 0.500000 0.000000
O O12 0.856005 0.903630 0.291301
O O13 0.112938 0.858343 0.022750
O O14 0.000000 0.000000 0.000000
O O15 0.528767 0.223516 0.475795
O O16 0.843850 0.374961 0.579973
O O17 0.953226 0.383003 0.290597
O O18 0.500000 0.000000 0.000000
#
# Coordination Sequence:
#
# PCOD9026274 Si02
#       8
#     2   2   2   2   2   2   2   2
#     4  10  23  45  65  95 135 172 224 278 330 408
#     4  10  22  41  63  92 137 168 210 278 322 395
#     4  11  22  43  66  94 136 173 215 280 333 397
#     4  11  24  41  68 100 131 175 227 272 335 408
#     4  11  21  42  70  91 131 175 214 277 328 400
#     4  10  23  43  67  95 134 176 220 274 339 393
#     4  10  23  40  64  98 124 171 225 256 342 401
#     4  11  25  42  66  97 130 175 222 280 336 396
#
# _framework density 23.11449
#
# number of rings (size 3 to 8) (size 9 to 14) (size 15 to 20)
#    0.000    1.500    3.750    0.375    5.250    3.000 
#    6.750    1.250    0.000    0.000    0.000    0.000 
#    0.000    0.000    0.000    0.000    0.000    0.000 
#
# Total GULP energy -89114.005393 kJ/mol
# GULP energy per Si atom -5569.625337 kJ/mol
# Density = 2.306188 g / cm^3
# Si number density = 23.114490 Si / 1000 Ang^3
#
#
#
# Elastic Constant Matrix: (Units=GPa)
#
#
# Indices 1 2 3 4 5 6 
#
# 1 144.2860 49.8316 24.7737 -24.3181 -29.7657 2.3777
# 2 49.8316 125.0547 23.2516 -1.1432 -11.7094 -2.6644
# 3 24.7737 23.2516 27.5726 -2.0399 -5.2514 -13.8573
# 4 -24.3181 -1.1432 -2.0399 29.9948 9.0280 -6.8540
# 5 -29.7657 -11.7094 -5.2514 9.0280 32.9776 1.2177
# 6 2.3777 -2.6644 -13.8573 -6.8540 1.2177 41.9299
#
#
#
# Elastic Compliance Matrix: (Units=1/GPa)
#
#
# Indices 1 2 3 4 5 6 
#
# 1 0.011638 -0.002538 -0.007888 0.006172 0.006754 -0.002615
# 2 -0.002538 0.010467 -0.007696 -0.003035 0.001115 -0.002263
# 3 -0.007888 -0.007696 0.059850 0.002528 -0.001760 0.020202
# 4 0.006172 -0.003035 0.002528 0.042170 -0.006922 0.007387
# 5 0.006754 0.001115 -0.001760 -0.006922 0.038547 -0.003145
# 6 -0.002615 -0.002263 0.020202 0.007387 -0.003145 0.031829
#
#
# Mechanical properties :
#
#
# Convention : Reuss Voigt Hill
#
# Bulk Modulus (GPa) = 21.87619 54.73636 38.30628
# Shear Modulus (GPa) = 20.32655 34.25089 27.28872
#
# Velocity S-wave (km/s) = 2.96866 3.85358 3.43970
# Velocity P-wave (km/s) = 4.60819 6.59788 5.69067
#
# Compressibility (1/GPa) = 0.04571179
#
# Stress axis : x y z
#
# Youngs Moduli (GPa) = 85.92340 95.53734 16.70830
#
# Poissons Ratio (x) = 0.24245 0.13180
# Poissons Ratio (y) = 0.21806 0.12859
# Poissons Ratio (z) = 0.67778 0.73526
#
# Static dielectric constant tensor:
#      x y z
#    x 1.958570 -0.089920 -0.017070 
#    y -0.089920 1.633680 -0.129050 
#    z -0.017070 -0.129050 1.955390 
# 
# From -- ./inp_files/392680.got.cif
#   From: 2010.05.17/outbox.cif.g08.bks.cpg/sg2_197_cif.got.tgz:392680.got - 2010.06.03 11:33:40.
