data_PCOD9026115
_publ_section_title
;
Structure prediction by ZEFSAII (Michael W. Deem and Ramdas Pophale) SiO2 
 PCOD9026115
Probable space group: P -1
;
_chemical_formula_sum "Si O2"
_cell_formula_units_Z 16
_cell_length_a 17.533760
_cell_length_b 14.584778
_cell_length_c 15.861921
_cell_angle_alpha 151.742101
_cell_angle_beta 155.226500
_cell_angle_gamma 42.493506
_cell_volume 763.861297
_symmetry_space_group_name_H-M "P -1"
_symmetry_group_IT_number 2
_symmetry_cell_setting 'triclinic'
loop_
_space_group_symop_operation_xyz
x,y,z
-x,-y,-z
loop_
_atom_site_type_symbol
_atom_site_label
_atom_site_fract_x
_atom_site_fract_y
_atom_site_fract_z
Si Si1 0.395274 0.112779 0.422857
Si Si2 0.915419 0.237012 0.275027
Si Si3 0.283284 0.415297 0.678650
Si Si4 0.220038 0.119301 0.836436
Si Si5 0.721561 0.141310 0.161887
Si Si6 0.445078 0.765670 0.490572
Si Si7 0.568652 0.369950 0.311892
Si Si8 0.781233 0.442608 0.755654
O O1 0.306319 0.264061 0.506026
O O2 0.553547 0.221696 0.598713
O O3 0.500000 0.000000 0.500000
O O4 0.219657 0.950452 0.066656
O O5 0.807474 0.409909 0.300344
O O6 0.906075 0.184898 0.322673
O O7 0.127546 0.303787 0.503310
O O8 0.500000 0.500000 0.000000
O O9 0.275586 0.984640 0.853325
O O10 0.364621 0.187677 0.958220
O O11 0.251225 0.341419 0.087069
O O12 0.000000 0.000000 0.500000
O O13 0.684539 0.340839 0.322977
O O14 0.555676 0.991933 0.817534
O O15 0.552116 0.596541 0.478890
O O16 0.265350 0.682447 0.305240
O O17 0.662230 0.339972 0.470970
O O18 0.000000 0.500000 0.000000
#
# Coordination Sequence:
#
# PCOD9026115 Si02
#       8
#     2   2   2   2   2   2   2   2
#     4  11  22  43  68  96 127 168 216 267 329 378
#     4  10  24  43  67  97 127 167 216 262 323 391
#     4  11  22  45  67  92 132 165 209 272 325 382
#     4  11  22  38  59  90 124 163 210 254 302 371
#     4  11  21  40  64  93 122 164 210 253 315 371
#     4  10  22  41  62  91 126 163 212 256 307 381
#     4  11  21  41  64  84 131 169 199 256 314 366
#     4  11  22  40  59  90 127 168 207 254 310 368
#
# _framework density 20.946211000000002
#
# number of rings (size 3 to 8) (size 9 to 14) (size 15 to 20)
#    0.000    1.250    3.750    3.000    1.750    0.000 
#   11.250    1.250    0.000    0.000    0.000    0.000 
#    0.000    0.000    0.000    0.000    0.000    0.000 
#
# Total GULP energy -89237.331038 kJ/mol
# GULP energy per Si atom -5577.333190 kJ/mol
# Density = 2.089854 g / cm^3
# Si number density = 20.946211 Si / 1000 Ang^3
#
#
#
# Elastic Constant Matrix: (Units=GPa)
#
#
# Indices 1 2 3 4 5 6 
#
# 1 171.4576 35.1305 52.4869 4.9132 14.7477 -13.5373
# 2 35.1305 43.3063 8.8264 1.9761 -1.3529 -7.0453
# 3 52.4869 8.8264 84.6265 -1.7710 10.3530 -13.5602
# 4 4.9132 1.9761 -1.7710 28.5535 -8.8325 -1.1319
# 5 14.7477 -1.3529 10.3530 -8.8325 34.2050 9.1811
# 6 -13.5373 -7.0453 -13.5602 -1.1319 9.1811 34.2472
#
#
#
# Elastic Compliance Matrix: (Units=1/GPa)
#
#
# Indices 1 2 3 4 5 6 
#
# 1 0.008903 -0.006118 -0.004215 -0.002505 -0.003866 0.001545
# 2 -0.006118 0.028436 0.001008 0.000088 0.002641 0.003126
# 3 -0.004215 0.001008 0.015841 0.000509 -0.004421 0.006015
# 4 -0.002505 0.000088 0.000509 0.038994 0.011701 -0.002618
# 5 -0.003866 0.002641 -0.004421 0.011701 0.038788 -0.012747
# 6 0.001545 0.003126 0.006015 -0.002618 -0.012747 0.036166
#
#
# Mechanical properties :
#
#
# Convention : Reuss Voigt Hill
#
# Bulk Modulus (GPa) = 28.96081 54.69759 41.82920
# Shear Modulus (GPa) = 25.34384 32.93092 29.13738
#
# Velocity S-wave (km/s) = 3.48221 3.96936 3.73373
# Velocity P-wave (km/s) = 5.47941 6.86861 6.21296
#
# Compressibility (1/GPa) = 0.03452942
#
# Stress axis : x y z
#
# Youngs Moduli (GPa) = 112.32771 35.16715 63.12629
#
# Poissons Ratio (x) = 0.21515 0.26610
# Poissons Ratio (y) = 0.68720 -0.06364
# Poissons Ratio (z) = 0.47350 -0.03545
#
# Static dielectric constant tensor:
#      x y z
#    x 1.976840 -0.183850 0.025060 
#    y -0.183850 1.990640 0.032460 
#    z 0.025060 0.032460 1.770640 
# 
# From -- ./inp_files/534660.got.cif
#   From: 2010.05.17/outbox.cif.g08.bks.cpg/sg2_268_cif.got.tgz:534660.got - 2010.06.03 11:33:40.
