data_PCOD9026426
_publ_section_title
;
Structure prediction by ZEFSAII (Michael W. Deem and Ramdas Pophale) SiO2 
 PCOD9026426
Probable space group: P -1
;
_chemical_formula_sum "Si O2"
_cell_formula_units_Z 14
_cell_length_a 11.928456
_cell_length_b 21.119125
_cell_length_c 14.025000
_cell_angle_alpha 32.052830
_cell_angle_beta 20.036343
_cell_angle_gamma 31.638063
_cell_volume 612.195421
_symmetry_space_group_name_H-M "P -1"
_symmetry_group_IT_number 2
_symmetry_cell_setting 'triclinic'
loop_
_space_group_symop_operation_xyz
x,y,z
-x,-y,-z
loop_
_atom_site_type_symbol
_atom_site_label
_atom_site_fract_x
_atom_site_fract_y
_atom_site_fract_z
Si Si1 0.324100 0.051118 0.674341
Si Si2 0.117499 0.390377 0.624417
Si Si3 0.203100 0.973756 0.211022
Si Si4 0.353680 0.770893 0.731838
Si Si5 0.472988 0.505034 0.354931
Si Si6 0.978178 0.369456 0.289115
Si Si7 0.647541 0.874493 0.810833
O O1 0.370149 0.188912 0.473529
O O2 0.500000 0.000000 0.500000
O O3 0.497189 0.987518 0.714325
O O4 0.000000 0.000000 0.000000
O O5 0.438552 0.283494 0.459809
O O6 0.255928 0.443216 0.539692
O O7 0.000000 0.500000 0.500000
O O8 0.809154 0.331930 0.964915
O O9 0.989483 0.904369 0.534306
O O10 0.378399 0.882626 0.099111
O O11 0.969451 0.106228 0.186379
O O12 0.500000 0.000000 0.000000
O O13 0.679644 0.416509 0.387984
O O14 0.213589 0.623226 0.466737
O O15 0.779869 0.540316 0.011254
O O16 0.232400 0.244691 0.200864
#
# Coordination Sequence:
#
# PCOD9026426 Si02
#       7
#     2   2   2   2   2   2   2
#     4  11  23  42  66  94 132 176 211 271 336 395
#     4  12  26  44  68  96 135 183 231 274 335 402
#     4  11  24  40  65  98 131 169 211 266 345 406
#     4  11  25  44  65  99 136 170 225 277 326 401
#     4  10  23  41  62  91 126 169 221 274 331 377
#     4  10  22  41  64  91 126 165 219 279 325 388
#     4  11  23  40  63  98 127 161 226 264 327 415
#
# _framework density 22.868514000000001
#
# number of rings (size 3 to 8) (size 9 to 14) (size 15 to 20)
#    0.000    1.143    0.000    6.857    4.000    3.429 
#    0.000    0.000    0.000    0.000    0.000    0.000 
#    0.000    0.000    0.000    0.000    0.000    0.000 
#
# Total GULP energy -78156.717576 kJ/mol
# GULP energy per Si atom -5582.622684 kJ/mol
# Density = 2.281646 g / cm^3
# Si number density = 22.868514 Si / 1000 Ang^3
#
#
#
# Elastic Constant Matrix: (Units=GPa)
#
#
# Indices 1 2 3 4 5 6 
#
# 1 65.5475 15.3857 64.2747 -0.8027 -14.3321 27.9111
# 2 15.3857 62.1330 36.0322 7.3223 -3.1937 28.4455
# 3 64.2747 36.0322 156.5675 -8.0187 -19.1754 11.1691
# 4 -0.8027 7.3223 -8.0187 36.9942 20.1588 5.4273
# 5 -14.3321 -3.1937 -19.1754 20.1588 41.1347 3.1110
# 6 27.9111 28.4455 11.1691 5.4273 3.1110 38.3226
#
#
#
# Elastic Compliance Matrix: (Units=1/GPa)
#
#
# Indices 1 2 3 4 5 6 
#
# 1 0.071337 0.034354 -0.029851 -0.016232 0.026752 -0.068629
# 2 0.034354 0.045453 -0.019417 -0.014237 0.017394 -0.052495
# 3 -0.029851 -0.019417 0.020342 0.007890 -0.008546 0.029802
# 4 -0.016232 -0.014237 0.007890 0.042551 -0.025154 0.016106
# 5 0.026752 0.017394 -0.008546 -0.025154 0.045597 -0.030043
# 6 -0.068629 -0.052495 0.029802 0.016106 -0.030043 0.106516
#
#
# Mechanical properties :
#
#
# Convention : Reuss Voigt Hill
#
# Bulk Modulus (GPa) = 9.31942 57.29256 33.30599
# Shear Modulus (GPa) = 12.58198 34.52734 23.55466
#
# Velocity S-wave (km/s) = 2.34815 3.88986 3.21285
# Velocity P-wave (km/s) = 3.38169 6.72919 5.32531
#
# Compressibility (1/GPa) = 0.10730286
#
# Stress axis : x y z
#
# Youngs Moduli (GPa) = 14.01788 22.00055 49.16022
#
# Poissons Ratio (x) = -0.75580 1.46748
# Poissons Ratio (y) = -0.48156 0.95457
# Poissons Ratio (z) = 0.41845 0.42720
#
# Static dielectric constant tensor:
#      x y z
#    x 1.823780 0.005300 -0.097500 
#    y 0.005300 1.925820 -0.076410 
#    z -0.097500 -0.076410 2.004320 
# 
# From -- ./inp_files/524027.got.cif
#   From: 2010.05.17/outbox.cif.g08.bks.cpg/sg2_263_cif.got.tgz:524027.got - 2010.06.03 11:33:40.
