data_PCOD9026825
_publ_section_title
;
Structure prediction by ZEFSAII (Michael W. Deem and Ramdas Pophale) SiO2 
 PCOD9026825
Probable space group: P -1
;
_chemical_formula_sum "Si O2"
_cell_formula_units_Z 14
_cell_length_a 22.560417
_cell_length_b 11.070541
_cell_length_c 8.354122
_cell_angle_alpha 120.533228
_cell_angle_beta 46.736495
_cell_angle_gamma 151.559530
_cell_volume 696.166464
_symmetry_space_group_name_H-M "P -1"
_symmetry_group_IT_number 2
_symmetry_cell_setting 'triclinic'
loop_
_space_group_symop_operation_xyz
x,y,z
-x,-y,-z
loop_
_atom_site_type_symbol
_atom_site_label
_atom_site_fract_x
_atom_site_fract_y
_atom_site_fract_z
Si Si1 0.330955 0.781549 0.239627
Si Si2 0.574578 0.227161 0.627375
Si Si3 0.053380 0.295461 0.204721
Si Si4 0.654002 0.654904 0.250392
Si Si5 0.196746 0.302823 0.719000
Si Si6 0.529361 0.666033 0.930586
Si Si7 0.214131 0.925314 0.524761
O O1 0.335357 0.721639 0.366031
O O2 0.197639 0.521354 0.203861
O O3 0.285946 0.879497 0.395569
O O4 0.500000 0.000000 0.000000
O O5 0.684967 0.487419 0.495422
O O6 0.500000 0.000000 0.500000
O O7 0.460693 0.169861 0.888257
O O8 0.959361 0.301356 0.360171
O O9 0.113414 0.322144 0.943718
O O10 0.931402 0.999596 0.288918
O O11 0.500000 0.500000 0.500000
O O12 0.712764 0.622597 0.241793
O O13 0.611247 0.539416 0.075929
O O14 0.769221 0.951709 0.266003
O O15 0.679872 0.863206 0.676087
O O16 0.500000 0.500000 0.000000
#
# Coordination Sequence:
#
# PCOD9026825 Si02
#       7
#     2   2   2   2   2   2   2
#     4  12  24  42  67  97 132 177 221 272 341 389
#     4  12  26  39  66 102 136 170 226 280 320 392
#     4  10  22  43  68  91 132 175 221 268 335 404
#     4   9  19  36  64  90 129 164 220 265 317 386
#     4  10  22  42  65  94 131 178 218 269 332 391
#     4  11  22  38  65  98 131 174 223 274 322 390
#     4  10  22  41  65  98 128 175 217 272 337 395
#
# _framework density 20.110133000000001
#
# number of rings (size 3 to 8) (size 9 to 14) (size 15 to 20)
#    0.000    1.429    1.429    4.714    8.000    0.571 
#    0.000    5.000    0.000    0.000    0.000    0.000 
#    0.000    0.000    0.000    0.000    0.000    0.000 
#
# Total GULP energy -78117.930584 kJ/mol
# GULP energy per Si atom -5579.852185 kJ/mol
# Density = 2.006436 g / cm^3
# Si number density = 20.110133 Si / 1000 Ang^3
#
#
#
# Elastic Constant Matrix: (Units=GPa)
#
#
# Indices 1 2 3 4 5 6 
#
# 1 120.6870 30.4246 29.2923 2.5893 -15.8941 14.6827
# 2 30.4246 80.2256 28.0126 12.0313 -2.2901 35.8154
# 3 29.2923 28.0126 88.3303 14.1557 -22.5258 11.4775
# 4 2.5893 12.0313 14.1557 35.3449 0.7223 -4.1440
# 5 -15.8941 -2.2901 -22.5258 0.7223 34.8320 -3.8370
# 6 14.6827 35.8154 11.4775 -4.1440 -3.8370 28.8554
#
#
#
# Elastic Compliance Matrix: (Units=1/GPa)
#
#
# Indices 1 2 3 4 5 6 
#
# 1 0.009900 -0.003532 -0.001570 0.001105 0.003310 0.000569
# 2 -0.003532 0.039354 -0.003883 -0.017174 -0.006560 -0.048843
# 3 -0.001570 -0.003883 0.016482 -0.005413 0.009754 -0.000418
# 4 0.001105 -0.017174 -0.005413 0.039587 -0.001823 0.028350
# 5 0.003310 -0.006560 0.009754 -0.001823 0.036930 0.007227
# 6 0.000569 -0.048843 -0.000418 0.028350 0.007227 0.100189
#
#
# Mechanical properties :
#
#
# Convention : Reuss Voigt Hill
#
# Bulk Modulus (GPa) = 20.93513 51.63356 36.28434
# Shear Modulus (GPa) = 18.09410 33.24068 25.66739
#
# Velocity S-wave (km/s) = 3.00284 4.07004 3.57647
# Velocity P-wave (km/s) = 4.73873 6.91506 5.92763
#
# Compressibility (1/GPa) = 0.04776661
#
# Stress axis : x y z
#
# Youngs Moduli (GPa) = 101.00788 25.41062 60.67110
#
# Poissons Ratio (x) = 0.08974 0.09526
# Poissons Ratio (y) = 0.35671 0.23559
# Poissons Ratio (z) = 0.15859 0.09867
#
# Static dielectric constant tensor:
#      x y z
#    x 1.713160 0.000130 -0.034650 
#    y 0.000130 1.805230 0.037220 
#    z -0.034650 0.037220 1.736230 
# 
# From -- ./inp_files/345492.got.cif
#   From: 2010.05.17/outbox.cif.g08.bks.cpg/sg2_173_cif.got.tgz:345492.got - 2010.06.03 11:33:40.
