data_PCOD9026968
_publ_section_title
;
Structure prediction by ZEFSAII (Michael W. Deem and Ramdas Pophale) SiO2 
 PCOD9026968
Probable space group: P -1
;
_chemical_formula_sum "Si O2"
_cell_formula_units_Z 12
_cell_length_a 19.479052
_cell_length_b 5.167772
_cell_length_c 8.518452
_cell_angle_alpha 95.195981
_cell_angle_beta 131.497869
_cell_angle_gamma 64.597166
_cell_volume 555.872172
_symmetry_space_group_name_H-M "P -1"
_symmetry_group_IT_number 2
_symmetry_cell_setting 'triclinic'
loop_
_space_group_symop_operation_xyz
x,y,z
-x,-y,-z
loop_
_atom_site_type_symbol
_atom_site_label
_atom_site_fract_x
_atom_site_fract_y
_atom_site_fract_z
Si Si1 0.484035 0.504951 0.787974
Si Si2 0.882387 0.582975 0.383786
Si Si3 0.411516 0.095552 0.508049
Si Si4 0.870270 0.194692 0.119495
Si Si5 0.701860 0.071458 0.916053
Si Si6 0.991431 0.505168 0.170375
O O1 0.445236 0.828725 0.670594
O O2 0.595605 0.283319 0.860278
O O3 0.408154 0.374100 0.609750
O O4 0.500000 0.500000 0.000000
O O5 0.876681 0.287564 0.314530
O O6 0.892921 0.654529 0.582361
O O7 0.000000 0.500000 0.500000
O O8 0.787202 0.842704 0.157431
O O9 0.316879 0.104081 0.263471
O O10 0.500000 0.000000 0.500000
O O11 0.919533 0.362540 0.105893
O O12 0.751037 0.263086 0.926068
O O13 0.938263 0.849065 0.161967
O O14 0.000000 0.500000 0.000000
#
# Coordination Sequence:
#
# PCOD9026968 Si02
#       6
#     2   2   2   2   2   2
#     4  11  25  46  68 101 137 169 216 291 347 387
#     4  10  22  41  66  92 131 172 223 263 317 393
#     4  10  23  43  71  93 130 175 224 272 334 406
#     4  11  22  41  65  92 126 176 226 260 317 393
#     4  11  23  41  72  96 126 179 231 263 325 400
#     4  11  24  42  62  92 138 175 213 278 329 372
#
# _framework density 21.587700000000002
#
# number of rings (size 3 to 8) (size 9 to 14) (size 15 to 20)
#    0.000    1.333    3.333    3.500    9.333    0.000 
#    3.000    0.000    0.000    0.000    0.000    0.000 
#    0.000    0.000    0.000    0.000    0.000    0.000 
#
# Total GULP energy -66918.258871 kJ/mol
# GULP energy per Si atom -5576.521573 kJ/mol
# Density = 2.153857 g / cm^3
# Si number density = 21.587700 Si / 1000 Ang^3
#
#
#
# Elastic Constant Matrix: (Units=GPa)
#
#
# Indices 1 2 3 4 5 6 
#
# 1 71.9795 43.3459 66.4905 12.2339 -10.8020 26.5237
# 2 43.3459 120.2556 46.4796 14.0833 -0.9765 32.2579
# 3 66.4905 46.4796 184.8043 18.9792 -12.6307 24.7083
# 4 12.2339 14.0833 18.9792 48.2484 6.3808 9.0237
# 5 -10.8020 -0.9765 -12.6307 6.3808 45.2710 -1.8628
# 6 26.5237 32.2579 24.7083 9.0237 -1.8628 31.3193
#
#
#
# Elastic Compliance Matrix: (Units=1/GPa)
#
#
# Indices 1 2 3 4 5 6 
#
# 1 0.028828 -0.003567 -0.007097 -0.001351 0.004416 -0.014489
# 2 -0.003567 0.012341 -0.000613 -0.000619 -0.001043 -0.009090
# 3 -0.007097 -0.000613 0.008246 -0.001490 0.000829 0.000615
# 4 -0.001351 -0.000619 -0.001490 0.023127 -0.004174 -0.003955
# 5 0.004416 -0.001043 0.000829 -0.004174 0.023911 -0.000695
# 6 -0.014489 -0.009090 0.000615 -0.003955 -0.000695 0.054175
#
#
# Mechanical properties :
#
#
# Convention : Reuss Voigt Hill
#
# Bulk Modulus (GPa) = 37.22913 76.63015 56.92964
# Shear Modulus (GPa) = 27.45190 39.68262 33.56726
#
# Velocity S-wave (km/s) = 3.56988 4.29208 3.94753
# Velocity P-wave (km/s) = 5.85449 7.75479 6.87066
#
# Compressibility (1/GPa) = 0.02686068
#
# Stress axis : x y z
#
# Youngs Moduli (GPa) = 34.68803 81.03391 121.26718
#
# Poissons Ratio (x) = 0.28908 0.86066
# Poissons Ratio (y) = 0.12374 0.07430
# Poissons Ratio (z) = 0.24619 0.04965
#
# Static dielectric constant tensor:
#      x y z
#    x 1.827120 0.021630 -0.034820 
#    y 0.021630 1.848940 -0.028460 
#    z -0.034820 -0.028460 1.915580 
# 
# From -- ./inp_files/322814.got.cif
#   From: 2010.05.17/outbox.cif.g08.bks.cpg/sg2_162_cif.got.tgz:322814.got - 2010.06.03 11:33:40.
