data_PCOD9026213
_publ_section_title
;
Structure prediction by ZEFSAII (Michael W. Deem and Ramdas Pophale) SiO2 
 PCOD9026213
Probable space group: P -1
;
_chemical_formula_sum "Si O2"
_cell_formula_units_Z 16
_cell_length_a 9.426533
_cell_length_b 23.970260
_cell_length_c 5.647479
_cell_angle_alpha 120.136266
_cell_angle_beta 134.620901
_cell_angle_gamma 49.516962
_cell_volume 688.332600
_symmetry_space_group_name_H-M "P -1"
_symmetry_group_IT_number 2
_symmetry_cell_setting 'triclinic'
loop_
_space_group_symop_operation_xyz
x,y,z
-x,-y,-z
loop_
_atom_site_type_symbol
_atom_site_label
_atom_site_fract_x
_atom_site_fract_y
_atom_site_fract_z
Si Si1 0.929178 0.075574 0.331426
Si Si2 0.523445 0.665497 0.210562
Si Si3 0.199325 0.803439 0.892850
Si Si4 0.375936 0.950911 0.701129
Si Si5 0.693888 0.421849 0.479854
Si Si6 0.012434 0.457257 0.667500
Si Si7 0.202784 0.689172 0.276948
Si Si8 0.866110 0.831915 0.941687
O O1 0.792571 0.128599 0.069426
O O2 0.760869 0.059249 0.260196
O O3 0.163168 0.001628 0.388353
O O4 0.025814 0.123425 0.693300
O O5 0.773137 0.622045 0.306678
O O6 0.448470 0.653345 0.357424
O O7 0.392873 0.753021 0.199457
O O8 0.409891 0.626786 0.842783
O O9 0.217375 0.746382 0.595047
O O10 0.952224 0.833089 0.781953
O O11 0.595049 0.873330 0.731505
O O12 0.500000 0.000000 0.000000
O O13 0.500000 0.500000 0.500000
O O14 0.837839 0.372050 0.765657
O O15 0.813066 0.438582 0.439805
O O16 0.000000 0.500000 0.500000
O O17 0.000000 0.500000 0.000000
O O18 0.996258 0.745760 0.988038
#
# Coordination Sequence:
#
# PCOD9026213 Si02
#       8
#     2   2   2   2   2   2   2   2
#     4   9  18  35  56  83 116 153 194 243 302 363
#     4  10  22  41  63  88 123 160 203 260 315 376
#     4   9  19  37  59  83 116 156 200 249 306 363
#     4   9  18  34  57  83 117 154 192 244 301 359
#     4  11  22  39  64  89 121 161 203 256 320 374
#     4  12  27  42  63  95 125 162 213 261 317 387
#     4   9  20  38  60  84 118 159 203 254 310 371
#     4   9  18  36  56  82 115 152 197 248 300 363
#
# _framework density 23.244575000000001
#
# number of rings (size 3 to 8) (size 9 to 14) (size 15 to 20)
#    0.000    2.250    1.250    0.750    3.500    2.500 
#    0.000   20.625    0.000    0.000    0.000    0.000 
#    0.000    0.000    0.000    0.000    0.000    0.000 
#
# Total GULP energy -89138.970270 kJ/mol
# GULP energy per Si atom -5571.185642 kJ/mol
# Density = 2.319167 g / cm^3
# Si number density = 23.244575 Si / 1000 Ang^3
#
#
#
# Elastic Constant Matrix: (Units=GPa)
#
#
# Indices 1 2 3 4 5 6 
#
# 1 159.7336 75.5216 28.3697 -27.0012 9.1536 -7.0786
# 2 75.5216 133.9674 23.9297 -11.3217 3.5644 6.2659
# 3 28.3697 23.9297 34.1175 2.7353 4.9749 3.0788
# 4 -27.0012 -11.3217 2.7353 26.5954 -5.3451 -6.0272
# 5 9.1536 3.5644 4.9749 -5.3451 35.4033 -6.1767
# 6 -7.0786 6.2659 3.0788 -6.0272 -6.1767 59.2644
#
#
#
# Elastic Compliance Matrix: (Units=1/GPa)
#
#
# Indices 1 2 3 4 5 6 
#
# 1 0.012009 -0.004453 -0.008316 0.012185 0.000994 0.003680
# 2 -0.004453 0.010717 -0.003758 0.000185 0.000382 -0.001411
# 3 -0.008316 -0.003758 0.041669 -0.016865 -0.006777 -0.005182
# 4 0.012185 0.000185 -0.016865 0.055649 0.009160 0.008926
# 5 0.000994 0.000382 -0.006777 0.009160 0.031089 0.004602
# 6 0.003680 -0.001411 -0.005182 0.008926 0.004602 0.019119
#
#
# Mechanical properties :
#
#
# Convention : Reuss Voigt Hill
#
# Bulk Modulus (GPa) = 31.90630 64.82895 48.36762
# Shear Modulus (GPa) = 23.39159 37.58579 30.48869
#
# Velocity S-wave (km/s) = 3.17570 4.02552 3.62560
# Velocity P-wave (km/s) = 5.21564 7.03967 6.19515
#
# Compressibility (1/GPa) = 0.03134178
#
# Stress axis : x y z
#
# Youngs Moduli (GPa) = 83.27294 93.30588 23.99864
#
# Poissons Ratio (x) = 0.41549 0.19958
# Poissons Ratio (y) = 0.37081 0.09018
# Poissons Ratio (z) = 0.69251 0.35060
#
# Static dielectric constant tensor:
#      x y z
#    x 1.796580 -0.000200 0.033000 
#    y -0.000200 1.935690 0.043330 
#    z 0.033000 0.043330 1.752930 
# 
# From -- ./inp_files/55585.got.cif
#   From: 2010.05.17/outbox.cif.g08.bks.cpg/sg2_28_cif.got.tgz:55585.got - 2010.06.03 11:33:40.
