data_PCOD9026191
_publ_section_title
;
Structure prediction by ZEFSAII (Michael W. Deem and Ramdas Pophale) SiO2 
 PCOD9026191
Probable space group: P -1
;
_chemical_formula_sum "Si O2"
_cell_formula_units_Z 16
_cell_length_a 11.746483
_cell_length_b 11.886361
_cell_length_c 8.093830
_cell_angle_alpha 129.399771
_cell_angle_beta 119.021903
_cell_angle_gamma 80.097066
_cell_volume 747.989698
_symmetry_space_group_name_H-M "P -1"
_symmetry_group_IT_number 2
_symmetry_cell_setting 'triclinic'
loop_
_space_group_symop_operation_xyz
x,y,z
-x,-y,-z
loop_
_atom_site_type_symbol
_atom_site_label
_atom_site_fract_x
_atom_site_fract_y
_atom_site_fract_z
Si Si1 0.928247 0.201182 0.550076
Si Si2 0.710201 0.314664 0.654746
Si Si3 0.890627 0.360810 0.335362
Si Si4 0.353295 0.907632 0.292375
Si Si5 0.625183 0.276083 0.179977
Si Si6 0.389865 0.397790 0.208431
Si Si7 0.075273 0.913772 0.102126
Si Si8 0.846466 0.863811 0.166049
O O1 0.863079 0.302334 0.723037
O O2 0.921254 0.272998 0.435769
O O3 0.079506 0.187460 0.671651
O O4 0.835194 0.035139 0.338620
O O5 0.658890 0.218380 0.689673
O O6 0.643636 0.256080 0.372588
O O7 0.686814 0.481885 0.809808
O O8 0.749251 0.401594 0.320561
O O9 0.000000 0.500000 0.500000
O O10 0.895857 0.243012 0.085868
O O11 0.229596 0.991015 0.313742
O O12 0.500000 0.000000 0.500000
O O13 0.352700 0.853893 0.049188
O O14 0.484415 0.319185 0.088932
O O15 0.500000 0.500000 0.500000
O O16 0.282460 0.260687 0.081253
O O17 0.968685 0.878988 0.138883
O O18 0.000000 0.000000 0.000000
#
# Coordination Sequence:
#
# PCOD9026191 Si02
#       8
#     2   2   2   2   2   2   2   2
#     4  10  22  41  63 101 125 173 226 272 346 400
#     4  10  22  44  66  96 136 173 234 274 341 418
#     4  10  22  41  66  92 131 172 212 276 340 402
#     4  11  25  43  69 101 136 181 228 283 345 415
#     4   9  23  44  63  96 136 170 229 273 341 411
#     4  10  24  43  65  98 131 181 227 277 349 411
#     4  11  23  42  63 100 134 168 228 278 342 407
#     4  11  23  39  70  91 134 171 224 286 330 414
#
# _framework density 21.390668000000002
#
# number of rings (size 3 to 8) (size 9 to 14) (size 15 to 20)
#    0.000    1.750    2.500    0.000    7.000    5.500 
#    0.000    0.000    0.000    0.000    0.000    0.000 
#    0.000    0.000    0.000    0.000    0.000    0.000 
#
# Total GULP energy -89071.457179 kJ/mol
# GULP energy per Si atom -5566.966074 kJ/mol
# Density = 2.134198 g / cm^3
# Si number density = 21.390668 Si / 1000 Ang^3
#
#
#
# Elastic Constant Matrix: (Units=GPa)
#
#
# Indices 1 2 3 4 5 6 
#
# 1 145.0120 47.4447 30.3427 1.6259 13.7611 -14.8126
# 2 47.4447 91.2763 22.7701 -2.2572 9.3875 -11.7193
# 3 30.3427 22.7701 59.2929 -2.6065 21.0241 9.5904
# 4 1.6259 -2.2572 -2.6065 17.1385 8.9696 -6.5346
# 5 13.7611 9.3875 21.0241 8.9696 41.4351 0.8441
# 6 -14.8126 -11.7193 9.5904 -6.5346 0.8441 35.2173
#
#
#
# Elastic Compliance Matrix: (Units=1/GPa)
#
#
# Indices 1 2 3 4 5 6 
#
# 1 0.009228 -0.003288 -0.003979 -0.000290 -0.000316 0.003825
# 2 -0.003288 0.014644 -0.004247 0.004255 -0.001104 0.005463
# 3 -0.003979 -0.004247 0.026753 0.007187 -0.012669 -0.008735
# 4 -0.000290 0.004255 0.007187 0.076578 -0.021378 0.014058
# 5 -0.000316 -0.001104 -0.012669 -0.021378 0.035583 -0.001870
# 6 0.003825 0.005463 -0.008735 0.014058 -0.001870 0.036854
#
#
# Mechanical properties :
#
#
# Convention : Reuss Voigt Hill
#
# Bulk Modulus (GPa) = 36.23322 55.18848 45.71085
# Shear Modulus (GPa) = 21.56411 31.75974 26.66192
#
# Velocity S-wave (km/s) = 3.17852 3.85742 3.53431
# Velocity P-wave (km/s) = 5.51781 6.75987 6.17017
#
# Compressibility (1/GPa) = 0.02759899
#
# Stress axis : x y z
#
# Youngs Moduli (GPa) = 108.36364 68.28683 37.37831
#
# Poissons Ratio (x) = 0.22450 0.14874
# Poissons Ratio (y) = 0.35626 0.15873
# Poissons Ratio (z) = 0.43120 0.28998
#
# Static dielectric constant tensor:
#      x y z
#    x 1.809030 -0.049450 0.042690 
#    y -0.049450 1.852540 -0.082760 
#    z 0.042690 -0.082760 1.936970 
# 
# From -- ./inp_files/174965.got.cif
#   From: 2010.05.17/outbox.cif.g08.bks.cpg/sg2_88_cif.got.tgz:174965.got - 2010.06.03 11:33:40.
