data_PCOD9026862
_publ_section_title
;
Structure prediction by ZEFSAII (Michael W. Deem and Ramdas Pophale) SiO2 
 PCOD9026862
Probable space group: P -1
;
_chemical_formula_sum "Si O2"
_cell_formula_units_Z 14
_cell_length_a 18.571283
_cell_length_b 12.085714
_cell_length_c 17.818105
_cell_angle_alpha 147.821959
_cell_angle_beta 162.874924
_cell_angle_gamma 39.066139
_cell_volume 613.559848
_symmetry_space_group_name_H-M "P -1"
_symmetry_group_IT_number 2
_symmetry_cell_setting 'triclinic'
loop_
_space_group_symop_operation_xyz
x,y,z
-x,-y,-z
loop_
_atom_site_type_symbol
_atom_site_label
_atom_site_fract_x
_atom_site_fract_y
_atom_site_fract_z
Si Si1 0.063132 0.808273 0.907042
Si Si2 0.319061 0.815024 0.006779
Si Si3 0.358076 0.419365 0.734036
Si Si4 0.251270 0.414316 0.894965
Si Si5 0.835763 0.028435 0.212449
Si Si6 0.000787 0.390393 0.857680
Si Si7 0.514830 0.663986 0.766103
O O1 0.216575 0.654843 0.013458
O O2 0.803638 0.655071 0.541356
O O3 0.182929 0.863422 0.975018
O O4 0.000000 0.000000 0.000000
O O5 0.590928 0.789305 0.293004
O O6 0.241091 0.575216 0.758233
O O7 0.273722 0.948841 0.966525
O O8 0.609995 0.562385 0.033258
O O9 0.993310 0.243327 0.528894
O O10 0.421343 0.344840 0.088379
O O11 0.020558 0.862405 0.297398
O O12 0.612609 0.904150 0.971012
O O13 0.768391 0.420499 0.591648
O O14 0.000000 0.500000 0.000000
O O15 0.278678 0.454865 0.135058
#
# Coordination Sequence:
#
# PCOD9026862 Si02
#       7
#     2   2   2   2   2   2   2
#     4  11  25  44  64  97 138 178 231 289 355 415
#     4  10  22  41  66 100 124 180 229 286 344 412
#     4  10  23  39  72  91 140 172 236 287 344 420
#     4  11  24  42  67 103 134 179 232 286 360 406
#     4  10  24  39  71  97 137 177 235 282 346 418
#     4  10  24  44  64  98 138 186 233 279 342 419
#     4  10  25  43  70 100 145 178 232 287 348 414
#
# _framework density 22.81766
#
# number of rings (size 3 to 8) (size 9 to 14) (size 15 to 20)
#    0.857    0.857    1.429    1.286    8.000    4.000 
#    2.571    0.000    0.000    0.000    0.000    0.000 
#    0.000    0.000    0.000    0.000    0.000    0.000 
#
# Total GULP energy -78028.020103 kJ/mol
# GULP energy per Si atom -5573.430007 kJ/mol
# Density = 2.276573 g / cm^3
# Si number density = 22.817660 Si / 1000 Ang^3
#
#
#
# Elastic Constant Matrix: (Units=GPa)
#
#
# Indices 1 2 3 4 5 6 
#
# 1 114.5722 71.0085 12.6588 9.0444 -16.2472 6.9463
# 2 71.0085 122.6943 26.4901 -15.6699 -13.8165 7.4017
# 3 12.6588 26.4901 51.7018 -11.7889 -5.4581 -9.2447
# 4 9.0444 -15.6699 -11.7889 33.5921 -1.5020 -15.6482
# 5 -16.2472 -13.8165 -5.4581 -1.5020 29.6131 -3.3114
# 6 6.9463 7.4017 -9.2447 -15.6482 -3.3114 64.1668
#
#
#
# Elastic Compliance Matrix: (Units=1/GPa)
#
#
# Indices 1 2 3 4 5 6 
#
# 1 0.016849 -0.010262 -0.001775 -0.011447 0.003154 -0.003525
# 2 -0.010262 0.016163 -0.003051 0.009943 0.002002 0.001335
# 3 -0.001775 -0.003051 0.025685 0.011623 0.003739 0.007272
# 4 -0.011447 0.009943 0.011623 0.048172 0.004481 0.013746
# 5 0.003154 0.002002 0.003739 0.004481 0.037686 0.003004
# 6 -0.003525 0.001335 0.007272 0.013746 0.003004 0.020367
#
#
# Mechanical properties :
#
#
# Convention : Reuss Voigt Hill
#
# Bulk Modulus (GPa) = 35.06286 56.58703 45.82495
# Shear Modulus (GPa) = 24.43715 37.39511 30.91613
#
# Velocity S-wave (km/s) = 3.27613 4.05268 3.68492
# Velocity P-wave (km/s) = 5.45074 6.83758 6.18317
#
# Compressibility (1/GPa) = 0.02852021
#
# Stress axis : x y z
#
# Youngs Moduli (GPa) = 59.35001 61.86877 38.93313
#
# Poissons Ratio (x) = 0.63492 0.06910
# Poissons Ratio (y) = 0.60907 0.11880
# Poissons Ratio (z) = 0.10534 0.18879
#
# Static dielectric constant tensor:
#      x y z
#    x 1.872050 -0.004200 0.041310 
#    y -0.004200 1.913130 -0.056850 
#    z 0.041310 -0.056850 1.881730 
# 
# From -- ./inp_files/576021.got.cif
#   From: 2010.05.17/outbox.cif.g08.bks.cpg/sg2_289_cif.got.tgz:576021.got - 2010.06.03 11:33:40.
