data_PCOD9026754
_publ_section_title
;
Structure prediction by ZEFSAII (Michael W. Deem and Ramdas Pophale) SiO2 
 PCOD9026754
Probable space group: P -1
;
_chemical_formula_sum "Si O2"
_cell_formula_units_Z 14
_cell_length_a 10.700713
_cell_length_b 9.617654
_cell_length_c 27.514659
_cell_angle_alpha 152.477791
_cell_angle_beta 151.358771
_cell_angle_gamma 40.729655
_cell_volume 624.498779
_symmetry_space_group_name_H-M "P -1"
_symmetry_group_IT_number 2
_symmetry_cell_setting 'triclinic'
loop_
_space_group_symop_operation_xyz
x,y,z
-x,-y,-z
loop_
_atom_site_type_symbol
_atom_site_label
_atom_site_fract_x
_atom_site_fract_y
_atom_site_fract_z
Si Si1 0.352041 0.296516 0.045836
Si Si2 0.903048 0.258149 0.633967
Si Si3 0.004493 0.776233 0.186674
Si Si4 0.832222 0.177975 0.340085
Si Si5 0.261811 0.361936 0.220372
Si Si6 0.530666 0.059364 0.677681
Si Si7 0.937634 0.907386 0.842106
O O1 0.225931 0.348982 0.966789
O O2 0.500272 0.596626 0.211076
O O3 0.114957 0.186250 0.967382
O O4 0.500000 0.000000 0.000000
O O5 0.710561 0.370539 0.645691
O O6 0.044409 0.581800 0.765871
O O7 0.731244 0.102423 0.484258
O O8 0.085913 0.035728 0.653988
O O9 0.120155 0.517583 0.177221
O O10 0.239786 0.928918 0.281013
O O11 0.897466 0.009971 0.260576
O O12 0.531454 0.242728 0.260170
O O13 0.000000 0.500000 0.500000
O O14 0.093901 0.107430 0.115591
O O15 0.655365 0.904625 0.718691
#
# Coordination Sequence:
#
# PCOD9026754 Si02
#       7
#     2   2   2   2   2   2   2
#     4  11  26  44  68  95 129 176 228 262 320 402
#     4   9  21  39  67 102 128 166 214 273 326 377
#     4  10  22  41  65  95 130 173 219 262 321 392
#     4  11  21  36  67 105 131 168 221 266 324 387
#     4   9  21  40  68  95 134 166 213 275 324 377
#     4  11  21  43  68  91 137 177 211 270 329 386
#     4   9  21  44  64  95 135 169 214 272 331 378
#
# _framework density 22.417978000000002
#
# number of rings (size 3 to 8) (size 9 to 14) (size 15 to 20)
#    0.857    1.143    0.000    3.857    4.000    3.429 
#    0.000    5.000    0.000    0.000    0.000    0.000 
#    0.000    0.000    0.000    0.000    0.000    0.000 
#
# Total GULP energy -78239.372682 kJ/mol
# GULP energy per Si atom -5588.526620 kJ/mol
# Density = 2.236695 g / cm^3
# Si number density = 22.417978 Si / 1000 Ang^3
#
#
#
# Elastic Constant Matrix: (Units=GPa)
#
#
# Indices 1 2 3 4 5 6 
#
# 1 70.5799 47.4932 14.8825 -5.7694 -15.8646 -6.4728
# 2 47.4932 162.3764 27.8702 9.5637 -17.9876 -2.9018
# 3 14.8825 27.8702 85.5130 20.7261 -21.8716 0.7028
# 4 -5.7694 9.5637 20.7261 29.4886 4.3608 -5.7287
# 5 -15.8646 -17.9876 -21.8716 4.3608 20.6643 2.9290
# 6 -6.4728 -2.9018 0.7028 -5.7287 2.9290 49.9575
#
#
#
# Elastic Compliance Matrix: (Units=1/GPa)
#
#
# Indices 1 2 3 4 5 6 
#
# 1 0.020473 -0.005145 -0.001109 0.005685 0.008508 0.002522
# 2 -0.005145 0.008436 0.000942 -0.005472 0.005708 -0.001152
# 3 -0.001109 0.000942 0.026413 -0.025150 0.033989 -0.005337
# 4 0.005685 -0.005472 -0.025150 0.062665 -0.041717 0.010404
# 5 0.008508 0.005708 0.033989 -0.041717 0.106095 -0.010048
# 6 0.002522 -0.001152 -0.005337 0.010404 -0.010048 0.022134
#
#
# Mechanical properties :
#
#
# Convention : Reuss Voigt Hill
#
# Bulk Modulus (GPa) = 22.37255 55.44012 38.90634
# Shear Modulus (GPa) = 18.40000 35.23698 26.81849
#
# Velocity S-wave (km/s) = 2.86802 3.96892 3.46250
# Velocity P-wave (km/s) = 4.57917 6.76661 5.77736
#
# Compressibility (1/GPa) = 0.04469762
#
# Stress axis : x y z
#
# Youngs Moduli (GPa) = 48.84569 118.54286 37.86032
#
# Poissons Ratio (x) = 0.60990 0.04198
# Poissons Ratio (y) = 0.25131 -0.03566
# Poissons Ratio (z) = 0.05416 -0.11165
#
# Static dielectric constant tensor:
#      x y z
#    x 1.869000 -0.011970 0.003730 
#    y -0.011970 1.817020 0.022330 
#    z 0.003730 0.022330 1.832860 
# 
# From -- ./inp_files/618238.got.cif
#   From: 2010.05.17/outbox.cif.g08.bks.cpg/sg2_310_cif.got.tgz:618238.got - 2010.06.03 11:33:40.
