data_PCOD9026197
_publ_section_title
;
Structure prediction by ZEFSAII (Michael W. Deem and Ramdas Pophale) SiO2 
 PCOD9026197
Probable space group: P -1
;
_chemical_formula_sum "Si O2"
_cell_formula_units_Z 16
_cell_length_a 8.819308
_cell_length_b 12.660462
_cell_length_c 12.244291
_cell_angle_alpha 42.292310
_cell_angle_beta 49.514629
_cell_angle_gamma 58.567104
_cell_volume 697.433767
_symmetry_space_group_name_H-M "P -1"
_symmetry_group_IT_number 2
_symmetry_cell_setting 'triclinic'
loop_
_space_group_symop_operation_xyz
x,y,z
-x,-y,-z
loop_
_atom_site_type_symbol
_atom_site_label
_atom_site_fract_x
_atom_site_fract_y
_atom_site_fract_z
Si Si1 0.643897 0.378545 0.915025
Si Si2 0.586529 0.883792 0.450728
Si Si3 0.259162 0.710764 0.829349
Si Si4 0.770626 0.043077 0.040226
Si Si5 0.936059 0.619339 0.537704
Si Si6 0.735922 0.492785 0.379580
Si Si7 0.755812 0.560695 0.081039
Si Si8 0.156449 0.186460 0.995499
O O1 0.788755 0.516219 0.753395
O O2 0.610880 0.325449 0.095016
O O3 0.452561 0.430836 0.893615
O O4 0.743416 0.230023 0.916367
O O5 0.404719 0.770112 0.624176
O O6 0.624569 0.974032 0.251603
O O7 0.796560 0.777569 0.455059
O O8 0.500000 0.000000 0.500000
O O9 0.133650 0.563885 0.960555
O O10 0.077743 0.833184 0.860032
O O11 0.742056 0.966699 0.993244
O O12 0.000000 0.000000 0.000000
O O13 0.000000 0.500000 0.500000
O O14 0.135349 0.625767 0.511680
O O15 0.500000 0.500000 0.500000
O O16 0.811982 0.670403 0.215200
O O17 0.762294 0.459494 0.265546
O O18 0.769349 0.739239 0.982570
#
# Coordination Sequence:
#
# PCOD9026197 Si02
#       8
#     2   2   2   2   2   2   2   2
#     4  12  22  41  70 100 128 186 235 288 342 422
#     4  12  26  43  71 110 141 180 232 304 355 417
#     4  12  22  43  67  99 136 182 235 284 355 418
#     4  12  23  44  69  99 145 177 231 292 357 420
#     4  12  24  42  74 108 135 183 248 291 345 424
#     4  10  22  41  63 103 141 179 232 293 353 410
#     4  10  24  38  66  99 135 180 232 285 354 408
#     4  10  23  41  65  99 137 184 223 292 358 415
#
# _framework density 22.941244999999999
#
# number of rings (size 3 to 8) (size 9 to 14) (size 15 to 20)
#    0.750    0.000    5.000    3.000    1.750    0.500 
#    0.000    0.000    0.000    1.500    0.000    0.000 
#    0.000    0.000    0.000    0.000    0.000    0.000 
#
# Total GULP energy -89155.755005 kJ/mol
# GULP energy per Si atom -5572.234688 kJ/mol
# Density = 2.288903 g / cm^3
# Si number density = 22.941245 Si / 1000 Ang^3
#
#
#
# Elastic Constant Matrix: (Units=GPa)
#
#
# Indices 1 2 3 4 5 6 
#
# 1 59.3858 23.3785 24.3722 19.6880 5.6702 31.5565
# 2 23.3785 145.6448 3.0272 10.9780 4.3069 19.6644
# 3 24.3722 3.0272 81.5868 14.0513 -16.2041 -6.6774
# 4 19.6880 10.9780 14.0513 37.6761 -3.3775 -6.9303
# 5 5.6702 4.3069 -16.2041 -3.3775 26.4757 2.4324
# 6 31.5565 19.6644 -6.6774 -6.9303 2.4324 32.0797
#
#
#
# Elastic Compliance Matrix: (Units=1/GPa)
#
#
# Indices 1 2 3 4 5 6 
#
# 1 -0.514198 -0.038433 0.190691 0.343720 0.219358 0.626687
# 2 -0.038433 0.005044 0.013775 0.022408 0.014906 0.041292
# 3 0.190691 0.013775 -0.055876 -0.131774 -0.072903 -0.230596
# 4 0.343720 0.022408 -0.131774 -0.199153 -0.145530 -0.411268
# 5 0.219358 0.014906 -0.072903 -0.145530 -0.050221 -0.267724
# 6 0.626687 0.041292 -0.230596 -0.411268 -0.267724 -0.727153
#
#
# Mechanical properties :
#
#
# Convention : Reuss Voigt Hill
#
# Bulk Modulus (GPa) = -4.29249 43.13034 19.41893
# Shear Modulus (GPa) = -2.56242 34.96893 16.20325
#
# Velocity S-wave (km/s) = -1.05801 3.90844 2.66050
# Velocity P-wave (km/s) = 1.83511 6.26171 4.23329
#
# Compressibility (1/GPa) = -0.23296522
#
# Stress axis : x y z
#
# Youngs Moduli (GPa) = -1.94477 198.25849 -17.89671
#
# Poissons Ratio (x) = 7.61969 3.41274
# Poissons Ratio (y) = -0.07474 0.24652
# Poissons Ratio (z) = 0.37085 -2.73093
#
# Static dielectric constant tensor:
#      x y z
#    x 1.929910 0.018980 -0.062580 
#    y 0.018980 2.120570 -0.044220 
#    z -0.062580 -0.044220 1.897250 
# 
# From -- ./inp_files/391947.got.cif
#   From: 2010.05.17/outbox.cif.g08.bks.cpg/sg2_196_cif.got.tgz:391947.got - 2010.06.03 11:33:40.
