data_PCOD9026409
_publ_section_title
;
Structure prediction by ZEFSAII (Michael W. Deem and Ramdas Pophale) SiO2 
 PCOD9026409
Probable space group: P -1
;
_chemical_formula_sum "Si O2"
_cell_formula_units_Z 16
_cell_length_a 9.949352
_cell_length_b 8.435039
_cell_length_c 11.907467
_cell_angle_alpha 118.640564
_cell_angle_beta 84.583098
_cell_angle_gamma 60.717564
_cell_volume 690.791876
_symmetry_space_group_name_H-M "P -1"
_symmetry_group_IT_number 2
_symmetry_cell_setting 'triclinic'
loop_
_space_group_symop_operation_xyz
x,y,z
-x,-y,-z
loop_
_atom_site_type_symbol
_atom_site_label
_atom_site_fract_x
_atom_site_fract_y
_atom_site_fract_z
Si Si1 0.704349 0.871005 0.105611
Si Si2 0.140021 0.556494 0.183651
Si Si3 0.648391 0.525916 0.468516
Si Si4 0.462644 0.694076 0.891129
Si Si5 0.140473 0.411036 0.365230
Si Si6 0.583663 0.246483 0.613742
Si Si7 0.848293 0.041189 0.324877
Si Si8 0.626009 0.100271 0.812368
O O1 0.761642 0.951857 0.229947
O O2 0.550608 0.866428 0.152250
O O3 0.631720 0.063867 0.080599
O O4 0.852873 0.619378 0.960602
O O5 0.338114 0.426421 0.149367
O O6 0.063775 0.560744 0.310832
O O7 0.041879 0.816318 0.242643
O O8 0.500000 0.500000 0.500000
O O9 0.708102 0.593460 0.592701
O O10 0.559466 0.723570 0.448155
O O11 0.810474 0.263333 0.343206
O O12 0.471406 0.513134 0.750558
O O13 0.385717 0.734723 0.035914
O O14 0.000000 0.500000 0.500000
O O15 0.224186 0.151964 0.244658
O O16 0.642656 0.126414 0.688548
O O17 0.751663 0.134859 0.484943
#
# Coordination Sequence:
#
# PCOD9026409 Si02
#       8
#     2   2   2   2   2   2   2   2
#     4  11  21  42  69  88 122 179 227 259 308 398
#     4  11  22  39  63  95 125 169 220 267 320 385
#     4  10  22  41  64  90 126 178 219 257 316 399
#     4  11  21  42  69  88 122 179 227 259 308 398
#     4  12  24  38  62  96 139 167 207 275 340 377
#     4  11  23  38  65  95 127 163 215 272 326 381
#     4  11  23  38  65  95 127 163 215 272 326 381
#     4  11  22  39  63  95 125 169 220 267 320 385
#
# _framework density 23.161825
#
# number of rings (size 3 to 8) (size 9 to 14) (size 15 to 20)
#    0.000    1.000    3.750    5.250    0.000    6.000 
#    0.000    0.000    0.000    4.500    0.000    0.000 
#    0.000    0.000    0.000    0.000    0.000    0.000 
#
# Total GULP energy -89333.743071 kJ/mol
# GULP energy per Si atom -5583.358942 kJ/mol
# Density = 2.310911 g / cm^3
# Si number density = 23.161825 Si / 1000 Ang^3
#
#
#
# Elastic Constant Matrix: (Units=GPa)
#
#
# Indices 1 2 3 4 5 6 
#
# 1 24.2615 -1.9606 16.2917 -8.9938 -4.7626 -8.1255
# 2 -1.9606 84.0123 8.5035 9.8330 0.8342 -13.9700
# 3 16.2917 8.5035 123.0202 1.3244 7.8465 -7.6428
# 4 -8.9938 9.8330 1.3244 45.0174 0.7190 -0.8220
# 5 -4.7626 0.8342 7.8465 0.7190 21.3087 -2.5213
# 6 -8.1255 -13.9700 -7.6428 -0.8220 -2.5213 15.6162
#
#
#
# Elastic Compliance Matrix: (Units=1/GPa)
#
#
# Indices 1 2 3 4 5 6 
#
# 1 0.073118 0.008417 -0.009120 0.013484 0.024329 0.045750
# 2 0.008417 0.015352 -0.001291 -0.001367 0.003937 0.018045
# 3 -0.009120 -0.001291 0.009676 -0.001773 -0.005749 -0.002186
# 4 0.013484 -0.001367 -0.001773 0.025325 0.003676 0.006852
# 5 0.024329 0.003937 -0.005749 0.003676 0.056897 0.022747
# 6 0.045750 0.018045 -0.002186 0.006852 0.022747 0.106946
#
#
# Mechanical properties :
#
#
# Convention : Reuss Voigt Hill
#
# Bulk Modulus (GPa) = 10.62041 30.77369 20.69705
# Shear Modulus (GPa) = 15.49485 30.28577 22.89031
#
# Velocity S-wave (km/s) = 2.58928 3.61996 3.14710
# Velocity P-wave (km/s) = 3.67891 5.54864 4.70753
#
# Compressibility (1/GPa) = 0.09415831
#
# Stress axis : x y z
#
# Youngs Moduli (GPa) = 13.67643 65.13988 103.35190
#
# Poissons Ratio (x) = -0.54829 0.94253
# Poissons Ratio (y) = -0.11512 0.13345
# Poissons Ratio (z) = 0.12472 0.08411
#
# Static dielectric constant tensor:
#      x y z
#    x 1.911270 0.011080 0.025490 
#    y 0.011080 1.928340 -0.004350 
#    z 0.025490 -0.004350 1.914310 
# 
# From -- ./inp_files/259688.got.cif
#   From: 2010.05.17/outbox.cif.g08.bks.cpg/sg2_130_cif.got.tgz:259688.got - 2010.06.03 11:33:40.
