data_PCOD9026995
_publ_section_title
;
Structure prediction by ZEFSAII (Michael W. Deem and Ramdas Pophale) SiO2 
 PCOD9026995
Probable space group: P -1
;
_chemical_formula_sum "Si O2"
_cell_formula_units_Z 14
_cell_length_a 5.184224
_cell_length_b 17.615017
_cell_length_c 16.847761
_cell_angle_alpha 147.782747
_cell_angle_beta 48.805225
_cell_angle_gamma 122.205010
_cell_volume 616.082960
_symmetry_space_group_name_H-M "P -1"
_symmetry_group_IT_number 2
_symmetry_cell_setting 'triclinic'
loop_
_space_group_symop_operation_xyz
x,y,z
-x,-y,-z
loop_
_atom_site_type_symbol
_atom_site_label
_atom_site_fract_x
_atom_site_fract_y
_atom_site_fract_z
Si Si1 0.558895 0.613031 0.903529
Si Si2 0.770669 0.370602 0.313417
Si Si3 0.780578 0.813021 0.818527
Si Si4 0.251008 0.929439 0.688323
Si Si5 0.516803 0.328845 0.854127
Si Si6 0.661790 0.101061 0.875638
Si Si7 0.705007 0.699278 0.297546
O O1 0.365569 0.467634 0.822248
O O2 0.930210 0.580456 0.761087
O O3 0.603056 0.685191 0.043893
O O4 0.365115 0.731889 0.992753
O O5 0.500000 0.500000 0.500000
O O6 0.552825 0.253417 0.210869
O O7 0.964480 0.304225 0.292639
O O8 0.994548 0.879136 0.763866
O O9 0.620821 0.913815 0.009925
O O10 0.422604 0.797306 0.487955
O O11 0.539934 0.012767 0.747640
O O12 0.023982 0.035120 0.772125
O O13 0.325729 0.272738 0.766197
O O14 0.916707 0.275025 0.724958
O O15 0.500000 0.500000 0.000000
#
# Coordination Sequence:
#
# PCOD9026995 Si02
#       7
#     2   2   2   2   2   2   2
#     4  10  23  43  67  92 127 165 208 262 310 373
#     4  11  23  38  62 100 130 160 206 262 316 361
#     4  11  23  40  62  90 128 174 210 244 306 391
#     4  12  24  43  64  93 131 167 208 262 310 367
#     4  10  22  41  66  94 122 164 213 256 312 379
#     4  11  24  41  64  94 126 170 210 251 315 378
#     4  11  24  42  67  95 122 164 215 261 312 369
#
# _framework density 22.724212000000001
#
# number of rings (size 3 to 8) (size 9 to 14) (size 15 to 20)
#    0.000    1.143    0.000    7.286    0.000   13.714 
#    0.000    4.286    0.000    0.000    0.000    0.000 
#    0.000    0.000    0.000    0.000    0.000    0.000 
#
# Total GULP energy -78400.442485 kJ/mol
# GULP energy per Si atom -5600.031606 kJ/mol
# Density = 2.267249 g / cm^3
# Si number density = 22.724212 Si / 1000 Ang^3
#
#
#
# Elastic Constant Matrix: (Units=GPa)
#
#
# Indices 1 2 3 4 5 6 
#
# 1 112.0741 20.6246 29.1276 -5.5851 -20.7744 -9.0638
# 2 20.6246 58.6978 25.8990 -13.8183 -9.9329 -12.8423
# 3 29.1276 25.8990 118.9178 -8.2563 -9.0520 -16.2728
# 4 -5.5851 -13.8183 -8.2563 19.4268 2.3993 2.1848
# 5 -20.7744 -9.9329 -9.0520 2.3993 35.9644 1.6001
# 6 -9.0638 -12.8423 -16.2728 2.1848 1.6001 32.0863
#
#
#
# Elastic Compliance Matrix: (Units=1/GPa)
#
#
# Indices 1 2 3 4 5 6 
#
# 1 0.010771 -0.001838 -0.001657 0.000307 0.005224 0.001185
# 2 -0.001838 0.024354 -0.002647 0.014453 0.003735 0.006715
# 3 -0.001657 -0.002647 0.010003 0.001436 0.000582 0.003419
# 4 0.000307 0.014453 0.001436 0.062155 0.000279 0.002353
# 5 0.005224 0.003735 0.000582 0.000279 0.031909 0.001656
# 6 0.001185 0.006715 0.003419 0.002353 0.001656 0.035680
#
#
# Mechanical properties :
#
#
# Convention : Reuss Voigt Hill
#
# Bulk Modulus (GPa) = 30.44660 48.99913 39.72286
# Shear Modulus (GPa) = 25.23930 31.76472 28.50201
#
# Velocity S-wave (km/s) = 3.33630 3.74282 3.54539
# Velocity P-wave (km/s) = 5.31682 6.34725 5.85475
#
# Compressibility (1/GPa) = 0.03284440
#
# Stress axis : x y z
#
# Youngs Moduli (GPa) = 92.84216 41.06090 99.96684
#
# Poissons Ratio (x) = 0.07547 0.16563
# Poissons Ratio (y) = 0.17065 0.26462
# Poissons Ratio (z) = 0.15382 0.10869
#
# Static dielectric constant tensor:
#      x y z
#    x 1.844170 -0.001110 0.024510 
#    y -0.001110 1.863880 0.002140 
#    z 0.024510 0.002140 1.809240 
# 
# From -- ./inp_files/532090.got.cif
#   From: 2010.05.17/outbox.cif.g08.bks.cpg/sg2_267_cif.got.tgz:532090.got - 2010.06.03 11:33:40.
