data_PCOD9026343
_publ_section_title
;
Structure prediction by ZEFSAII (Michael W. Deem and Ramdas Pophale) SiO2 
 PCOD9026343
Probable space group: P -1
;
_chemical_formula_sum "Si O2"
_cell_formula_units_Z 12
_cell_length_a 13.929956
_cell_length_b 5.329567
_cell_length_c 16.188711
_cell_angle_alpha 98.595866
_cell_angle_beta 26.530272
_cell_angle_gamma 103.082347
_cell_volume 519.000436
_symmetry_space_group_name_H-M "P -1"
_symmetry_group_IT_number 2
_symmetry_cell_setting 'triclinic'
loop_
_space_group_symop_operation_xyz
x,y,z
-x,-y,-z
loop_
_atom_site_type_symbol
_atom_site_label
_atom_site_fract_x
_atom_site_fract_y
_atom_site_fract_z
Si Si1 0.095158 0.019939 0.620710
Si Si2 0.590839 0.509792 0.570881
Si Si3 0.017397 0.096854 0.874577
Si Si4 0.725568 0.309175 0.293801
Si Si5 0.465627 0.144371 0.787349
Si Si6 0.600431 0.792858 0.964309
O O1 0.062164 0.996262 0.743273
O O2 0.301003 0.921019 0.419391
O O3 0.175012 0.333308 0.567902
O O4 0.864025 0.880118 0.754227
O O5 0.621673 0.307149 0.465815
O O6 0.470618 0.699333 0.620128
O O7 0.454543 0.386470 0.748112
O O8 0.130632 0.907496 0.833797
O O9 0.128372 0.398943 0.813787
O O10 0.755968 0.059854 0.074546
O O11 0.453921 0.191013 0.895882
O O12 0.500000 0.500000 0.000000
O O13 0.500000 0.000000 0.000000
#
# Coordination Sequence:
#
# PCOD9026343 Si02
#       6
#     2   2   2   2   2   2
#     4  10  24  44  69  97 137 169 221 275 336 392
#     4  10  23  39  69  98 136 184 222 266 326 379
#     4  10  23  41  63  96 141 184 218 272 314 374
#     4  10  22  41  63  97 145 180 226 267 308 378
#     4  11  25  42  72  97 133 177 222 268 339 393
#     4  11  29  51  72  99 131 167 216 283 347 406
#
# _framework density 23.121366999999999
#
# number of rings (size 3 to 8) (size 9 to 14) (size 15 to 20)
#    0.000    1.667    1.667    0.000    9.333    7.333 
#    0.000    0.000    0.000    0.000    0.000    0.000 
#    0.000    0.000    0.000    0.000    0.000    0.000 
#
# Total GULP energy -67098.207312 kJ/mol
# GULP energy per Si atom -5591.517276 kJ/mol
# Density = 2.306874 g / cm^3
# Si number density = 23.121367 Si / 1000 Ang^3
#
#
#
# Elastic Constant Matrix: (Units=GPa)
#
#
# Indices 1 2 3 4 5 6 
#
# 1 114.8572 59.4528 63.9444 -16.5210 -0.8976 3.3519
# 2 59.4528 101.2317 52.7263 -4.4969 -10.0746 -7.9733
# 3 63.9444 52.7263 178.8595 1.4107 -23.3305 9.0362
# 4 -16.5210 -4.4969 1.4107 50.7202 11.0963 -2.2112
# 5 -0.8976 -10.0746 -23.3305 11.0963 46.8991 -6.1865
# 6 3.3519 -7.9733 9.0362 -2.2112 -6.1865 37.6641
#
#
#
# Elastic Compliance Matrix: (Units=1/GPa)
#
#
# Indices 1 2 3 4 5 6 
#
# 1 0.015639 -0.007595 -0.003908 0.005493 -0.004912 -0.002546
# 2 -0.007595 0.015921 -0.001771 -0.001544 0.003411 0.004941
# 3 -0.003908 -0.001771 0.008128 -0.002597 0.004008 -0.001471
# 4 0.005493 -0.001544 -0.002597 0.022962 -0.006949 0.000014
# 5 -0.004912 0.003411 0.004008 -0.006949 0.026138 0.004083
# 6 -0.002546 0.004941 -0.001471 0.000014 0.004083 0.028847
#
#
# Mechanical properties :
#
#
# Convention : Reuss Voigt Hill
#
# Bulk Modulus (GPa) = 76.09457 83.02171 79.55814
# Shear Modulus (GPa) = 33.65601 41.64500 37.65051
#
# Velocity S-wave (km/s) = 3.81940 4.24860 4.03970
# Velocity P-wave (km/s) = 7.24105 7.74934 7.49950
#
# Compressibility (1/GPa) = 0.01314154
#
# Stress axis : x y z
#
# Youngs Moduli (GPa) = 63.94130 62.80992 123.03683
#
# Poissons Ratio (x) = 0.47704 0.48079
# Poissons Ratio (y) = 0.48563 0.21785
# Poissons Ratio (z) = 0.24986 0.11121
#
# Static dielectric constant tensor:
#      x y z
#    x 1.846410 -0.021410 0.030220 
#    y -0.021410 1.938000 -0.006850 
#    z 0.030220 -0.006850 1.924900 
# 
# From -- ./inp_files/36011.got.cif
#   From: 2010.05.17/outbox.cif.g08.bks.cpg/sg2_19_cif.got.tgz:36011.got - 2010.06.03 11:33:40.
