data_PCOD9026004
_publ_section_title
;
Structure prediction by ZEFSAII (Michael W. Deem and Ramdas Pophale) SiO2 
 PCOD9026004
Probable space group: P -1
;
_chemical_formula_sum "Si O2"
_cell_formula_units_Z 14
_cell_length_a 19.614947
_cell_length_b 5.396717
_cell_length_c 5.360452
_cell_angle_alpha 77.811944
_cell_angle_beta 85.514355
_cell_angle_gamma 72.831233
_cell_volume 529.855498
_symmetry_space_group_name_H-M "P -1"
_symmetry_group_IT_number 2
_symmetry_cell_setting 'triclinic'
loop_
_space_group_symop_operation_xyz
x,y,z
-x,-y,-z
loop_
_atom_site_type_symbol
_atom_site_label
_atom_site_fract_x
_atom_site_fract_y
_atom_site_fract_z
Si Si1 0.323612 0.628886 0.089268
Si Si2 0.457080 0.371969 0.839242
Si Si3 0.802536 0.357162 0.175416
Si Si4 0.136497 0.117284 0.450712
Si Si5 0.076189 0.048563 0.982502
Si Si6 0.273523 0.257252 0.535557
Si Si7 0.592511 0.138523 0.620162
O O1 0.286457 0.512603 0.343323
O O2 0.361810 0.825860 0.160445
O O3 0.384740 0.383126 0.003825
O O4 0.263130 0.747844 0.878548
O O5 0.515094 0.125158 0.744622
O O6 0.428106 0.583488 0.581917
O O7 0.500000 0.500000 0.000000
O O8 0.841156 0.199467 0.439357
O O9 0.762588 0.652272 0.205209
O O10 0.864969 0.241945 0.985883
O O11 0.090879 0.184383 0.202069
O O12 0.211674 0.181920 0.414344
O O13 0.093222 0.206089 0.702566
O O14 0.000000 0.000000 0.000000
O O15 0.353254 0.061446 0.535050
#
# Coordination Sequence:
#
# PCOD9026004 Si02
#       7
#     2   2   2   2   2   2   2
#     4  11  22  39  63  89 130 166 219 267 332 378
#     4   9  20  40  61  85 119 175 214 276 320 390
#     4  10  24  39  65  94 132 165 219 260 331 383
#     4  10  24  43  69  98 132 172 218 262 325 385
#     4  10  22  46  72  95 132 175 214 265 323 386
#     4  12  23  37  63  99 127 167 216 272 320 392
#     4  10  22  41  61  86 128 165 226 266 334 375
#
# _framework density 26.422297
#
# number of rings (size 3 to 8) (size 9 to 14) (size 15 to 20)
#    0.857    0.857    0.000    4.714    2.000    2.857 
#    0.000   11.429    0.000    0.000    0.000    0.000 
#    0.000    0.000    0.000    0.000    0.000    0.000 
#
# Total GULP energy -78205.231136 kJ/mol
# GULP energy per Si atom -5586.087938 kJ/mol
# Density = 2.636216 g / cm^3
# Si number density = 26.422297 Si / 1000 Ang^3
#
#
#
# Elastic Constant Matrix: (Units=GPa)
#
#
# Indices 1 2 3 4 5 6 
#
# 1 138.8612 -5.2896 42.0074 -0.5530 -2.2260 -7.7882
# 2 -5.2896 30.5874 1.6454 9.2978 4.2102 4.0880
# 3 42.0074 1.6454 148.1836 3.6474 10.6585 -4.3923
# 4 -0.5530 9.2978 3.6474 19.6392 1.8418 -5.0302
# 5 -2.2260 4.2102 10.6585 1.8418 45.7317 1.8769
# 6 -7.7882 4.0880 -4.3923 -5.0302 1.8769 23.0894
#
#
#
# Elastic Compliance Matrix: (Units=1/GPa)
#
#
# Indices 1 2 3 4 5 6 
#
# 1 0.008072 0.000900 -0.002302 0.000731 0.000726 0.002225
# 2 0.000900 0.041575 -0.000349 -0.022402 -0.002315 -0.011816
# 3 -0.002302 -0.000349 0.007580 -0.000965 -0.001835 0.000666
# 4 0.000731 -0.022402 -0.000965 0.066601 -0.001124 0.018630
# 5 0.000726 -0.002315 -0.001835 -0.001124 0.022661 -0.001781
# 6 0.002225 -0.011816 0.000666 0.018630 -0.001781 0.050483
#
#
# Mechanical properties :
#
#
# Convention : Reuss Voigt Hill
#
# Bulk Modulus (GPa) = 18.61337 43.81760 31.21549
# Shear Modulus (GPa) = 22.89555 36.31001 29.60278
#
# Velocity S-wave (km/s) = 2.94687 3.71107 3.35083
# Velocity P-wave (km/s) = 4.31724 5.91458 5.17788
#
# Compressibility (1/GPa) = 0.05372481
#
# Stress axis : x y z
#
# Youngs Moduli (GPa) = 123.89138 24.05280 131.91860
#
# Poissons Ratio (x) = -0.02166 0.30373
# Poissons Ratio (y) = -0.11154 0.04606
# Poissons Ratio (z) = 0.28524 0.00840
#
# Static dielectric constant tensor:
#      x y z
#    x 2.001530 0.040620 -0.050620 
#    y 0.040620 2.188000 -0.025180 
#    z -0.050620 -0.025180 2.164480 
# 
# From -- ./inp_files/114206.got.cif
#   From: 2010.05.17/outbox.cif.g08.bks.cpg/sg2_58_cif.got.tgz:114206.got - 2010.06.03 11:33:40.
