data_PCOD9026080
_publ_section_title
;
Structure prediction by ZEFSAII (Michael W. Deem and Ramdas Pophale) SiO2 
 PCOD9026080
Probable space group: P -1
;
_chemical_formula_sum "Si O2"
_cell_formula_units_Z 14
_cell_length_a 9.526058
_cell_length_b 9.877177
_cell_length_c 10.441105
_cell_angle_alpha 123.024871
_cell_angle_beta 116.606452
_cell_angle_gamma 45.820351
_cell_volume 586.918602
_symmetry_space_group_name_H-M "P -1"
_symmetry_group_IT_number 2
_symmetry_cell_setting 'triclinic'
loop_
_space_group_symop_operation_xyz
x,y,z
-x,-y,-z
loop_
_atom_site_type_symbol
_atom_site_label
_atom_site_fract_x
_atom_site_fract_y
_atom_site_fract_z
Si Si1 0.980557 0.939079 0.819821
Si Si2 0.449264 0.457751 0.096006
Si Si3 0.723300 0.536641 0.332507
Si Si4 0.612345 0.999540 0.923679
Si Si5 0.723758 0.869868 0.567748
Si Si6 0.758356 0.789927 0.276573
Si Si7 0.011301 0.260217 0.906650
O O1 0.769324 0.984519 0.741869
O O2 0.116519 0.701936 0.727755
O O3 0.014456 0.063154 0.800529
O O4 0.000000 0.000000 0.000000
O O5 0.522964 0.557431 0.270675
O O6 0.500000 0.500000 0.000000
O O7 0.219610 0.560690 0.075708
O O8 0.767113 0.655842 0.510296
O O9 0.738633 0.625821 0.250519
O O10 0.578375 0.214511 0.033595
O O11 0.837385 0.803015 0.944210
O O12 0.463103 0.029195 0.767882
O O13 0.500000 0.000000 0.000000
O O14 0.826921 0.845161 0.459301
O O15 0.500000 0.000000 0.500000
O O16 0.900295 0.718348 0.175667
#
# Coordination Sequence:
#
# PCOD9026080 Si02
#       7
#     2   2   2   2   2   2   2
#     4  12  25  41  72 109 134 185 243 292 353 423
#     4  12  21  40  63 101 143 183 242 292 347 423
#     4  10  22  44  68  98 143 181 238 295 348 429
#     4  10  22  41  62 100 143 183 230 295 349 425
#     4  10  23  44  72 100 143 186 236 293 361 426
#     4   9  23  44  66  97 143 189 232 287 362 428
#     4  11  25  40  68 101 140 189 233 296 358 412
#
# _framework density 23.853393000000001
#
# number of rings (size 3 to 8) (size 9 to 14) (size 15 to 20)
#    0.857    0.571    2.857    2.143    2.000    2.857 
#    0.000    0.000    0.000    1.714    0.000    0.000 
#    0.000    0.000    0.000    0.000    0.000    0.000 
#
# Total GULP energy -78067.522780 kJ/mol
# GULP energy per Si atom -5576.251627 kJ/mol
# Density = 2.379910 g / cm^3
# Si number density = 23.853393 Si / 1000 Ang^3
#
#
#
# Elastic Constant Matrix: (Units=GPa)
#
#
# Indices 1 2 3 4 5 6 
#
# 1 128.9408 34.1875 33.3267 2.6930 9.7628 -2.9684
# 2 34.1875 123.4264 14.4608 -3.6318 3.6879 -11.6343
# 3 33.3267 14.4608 137.6352 -7.2702 25.1307 0.7107
# 4 2.6930 -3.6318 -7.2702 31.5335 1.9944 14.4564
# 5 9.7628 3.6879 25.1307 1.9944 38.0451 0.6608
# 6 -2.9684 -11.6343 0.7107 14.4564 0.6608 54.4072
#
#
#
# Elastic Compliance Matrix: (Units=1/GPa)
#
#
# Indices 1 2 3 4 5 6 
#
# 1 0.008936 -0.002235 -0.001879 -0.001623 -0.000759 0.000475
# 2 -0.002235 0.008938 -0.000370 0.000362 -0.000097 0.001699
# 3 -0.001879 -0.000370 0.008931 0.002997 -0.005521 -0.001028
# 4 -0.001623 0.000362 0.002997 0.037352 -0.003384 -0.009934
# 5 -0.000759 -0.000097 -0.005521 -0.003384 0.030303 0.000541
# 6 0.000475 0.001699 -0.001028 -0.009934 0.000541 0.021415
#
#
# Mechanical properties :
#
#
# Convention : Reuss Voigt Hill
#
# Bulk Modulus (GPa) = 56.06089 61.55025 58.80557
# Shear Modulus (GPa) = 38.22950 45.33233 41.78092
#
# Velocity S-wave (km/s) = 4.00770 4.36415 4.18972
# Velocity P-wave (km/s) = 6.70588 7.15919 6.93624
#
# Compressibility (1/GPa) = 0.01783775
#
# Stress axis : x y z
#
# Youngs Moduli (GPa) = 111.90668 111.87911 111.97028
#
# Poissons Ratio (x) = 0.25010 0.21034
# Poissons Ratio (y) = 0.25016 0.04140
# Poissons Ratio (z) = 0.21022 0.04137
#
# Static dielectric constant tensor:
#      x y z
#    x 2.946040 -0.747050 -1.731460 
#    y -0.747050 2.498140 1.142930 
#    z -1.731460 1.142930 5.208620 
# 
# From -- ./inp_files/283949.got.cif
#   From: 2010.05.17/outbox.cif.g08.bks.cpg/sg2_142_cif.got.tgz:283949.got - 2010.06.03 11:33:40.
