data_PCOD9026781
_publ_section_title
;
Structure prediction by ZEFSAII (Michael W. Deem and Ramdas Pophale) SiO2 
 PCOD9026781
Probable space group: P -1
;
_chemical_formula_sum "Si O2"
_cell_formula_units_Z 14
_cell_length_a 9.290199
_cell_length_b 9.983718
_cell_length_c 12.324240
_cell_angle_alpha 87.424952
_cell_angle_beta 120.152118
_cell_angle_gamma 134.999433
_cell_volume 602.267786
_symmetry_space_group_name_H-M "P -1"
_symmetry_group_IT_number 2
_symmetry_cell_setting 'triclinic'
loop_
_space_group_symop_operation_xyz
x,y,z
-x,-y,-z
loop_
_atom_site_type_symbol
_atom_site_label
_atom_site_fract_x
_atom_site_fract_y
_atom_site_fract_z
Si Si1 0.380918 0.574222 0.451833
Si Si2 0.260783 0.576182 0.066155
Si Si3 0.671492 0.680683 0.898606
Si Si4 0.648821 0.907101 0.736320
Si Si5 0.132850 0.703567 0.613993
Si Si6 0.835470 0.640853 0.163741
Si Si7 0.266063 0.076113 0.611914
O O1 0.500000 0.500000 0.500000
O O2 0.499496 0.723891 0.596374
O O3 0.504972 0.729094 0.391599
O O4 0.056751 0.383599 0.351860
O O5 0.231345 0.402275 0.105238
O O6 0.558504 0.811731 0.213359
O O7 0.243614 0.538542 0.931656
O O8 0.000000 0.500000 0.000000
O O9 0.766424 0.867968 0.861162
O O10 0.338232 0.469397 0.788696
O O11 0.744289 0.711587 0.052728
O O12 0.444319 0.857242 0.738286
O O13 0.842567 0.131726 0.734395
O O14 0.000000 0.500000 0.500000
O O15 0.158920 0.859753 0.555340
O O16 0.000000 0.000000 0.500000
#
# Coordination Sequence:
#
# PCOD9026781 Si02
#       7
#     2   2   2   2   2   2   2
#     4  11  24  42  64  99 134 177 223 276 340 407
#     4  10  22  41  65  96 132 166 226 274 329 400
#     4   9  21  39  63  90 129 169 216 277 327 395
#     4  11  22  39  67  93 132 168 229 275 335 394
#     4  10  25  41  61  96 132 170 228 273 322 403
#     4   9  21  39  63  92 123 176 221 265 337 398
#     4  12  25  43  72  97 137 184 216 277 347 393
#
# _framework density 23.245474000000002
#
# number of rings (size 3 to 8) (size 9 to 14) (size 15 to 20)
#    0.857    0.857    1.429    2.143    4.000    4.571 
#    0.000    0.000    0.000    4.286    0.000    0.000 
#    0.000    0.000    0.000    0.000    0.000    0.000 
#
# Total GULP energy -77987.822486 kJ/mol
# GULP energy per Si atom -5570.558749 kJ/mol
# Density = 2.319257 g / cm^3
# Si number density = 23.245474 Si / 1000 Ang^3
#
#
#
# Elastic Constant Matrix: (Units=GPa)
#
#
# Indices 1 2 3 4 5 6 
#
# 1 167.8001 50.5288 30.1431 15.2884 27.0678 -1.6849
# 2 50.5288 119.4647 1.9139 5.1105 7.8274 4.8580
# 3 30.1431 1.9139 71.1147 13.6492 13.9168 -7.0511
# 4 15.2884 5.1105 13.6492 20.0498 6.9070 4.3578
# 5 27.0678 7.8274 13.9168 6.9070 25.2438 2.5480
# 6 -1.6849 4.8580 -7.0511 4.3578 2.5480 47.0193
#
#
#
# Elastic Compliance Matrix: (Units=1/GPa)
#
#
# Indices 1 2 3 4 5 6 
#
# 1 0.008486 -0.003059 -0.001636 -0.002491 -0.006665 0.000967
# 2 -0.003059 0.009716 0.001088 -0.000672 -0.000059 -0.000885
# 3 -0.001636 0.001088 0.018284 -0.010153 -0.006274 0.003852
# 4 -0.002491 -0.000672 -0.010153 0.063162 -0.008103 -0.006957
# 5 -0.006665 -0.000059 -0.006274 -0.008103 0.052785 -0.003283
# 6 0.000967 -0.000885 0.003852 -0.006957 -0.003283 0.022794
#
#
# Mechanical properties :
#
#
# Convention : Reuss Voigt Hill
#
# Bulk Modulus (GPa) = 34.16332 58.17234 46.16783
# Shear Modulus (GPa) = 26.01443 36.84882 31.43162
#
# Velocity S-wave (km/s) = 3.34895 3.98578 3.68116
# Velocity P-wave (km/s) = 5.44818 6.80158 6.16215
#
# Compressibility (1/GPa) = 0.02927116
#
# Stress axis : x y z
#
# Youngs Moduli (GPa) = 117.83448 102.92535 54.69127
#
# Poissons Ratio (x) = 0.31488 0.08950
# Poissons Ratio (y) = 0.36049 -0.05950
# Poissons Ratio (z) = 0.19283 -0.11198
#
# Static dielectric constant tensor:
#      x y z
#    x 1.944350 0.048190 0.057490 
#    y 0.048190 1.864510 0.066120 
#    z 0.057490 0.066120 2.159990 
# 
# From -- ./inp_files/493051.got.cif
#   From: 2010.05.17/outbox.cif.g08.bks.cpg/sg2_247_cif.got.tgz:493051.got - 2010.06.03 11:33:40.
