data_PCOD9026081
_publ_section_title
;
Structure prediction by ZEFSAII (Michael W. Deem and Ramdas Pophale) SiO2 
 PCOD9026081
Probable space group: P -1
;
_chemical_formula_sum "Si O2"
_cell_formula_units_Z 14
_cell_length_a 17.226607
_cell_length_b 9.211350
_cell_length_c 10.367178
_cell_angle_alpha 117.373621
_cell_angle_beta 155.559314
_cell_angle_gamma 51.553083
_cell_volume 503.585940
_symmetry_space_group_name_H-M "P -1"
_symmetry_group_IT_number 2
_symmetry_cell_setting 'triclinic'
loop_
_space_group_symop_operation_xyz
x,y,z
-x,-y,-z
loop_
_atom_site_type_symbol
_atom_site_label
_atom_site_fract_x
_atom_site_fract_y
_atom_site_fract_z
Si Si1 0.019512 0.883676 0.113119
Si Si2 0.586620 0.181175 0.838271
Si Si3 0.214062 0.977893 0.666556
Si Si4 0.385598 0.223007 0.293659
Si Si5 0.723956 0.711314 0.211626
Si Si6 0.889140 0.612045 0.703048
Si Si7 0.508237 0.600536 0.682002
O O1 0.022047 0.988781 0.290415
O O2 0.270689 0.690002 0.422654
O O3 0.878178 0.788945 0.836840
O O4 0.000000 0.000000 0.000000
O O5 0.548286 0.233795 0.649434
O O6 0.343683 0.360212 0.598020
O O7 0.609945 0.973097 0.777874
O O8 0.753451 0.129340 0.191001
O O9 0.184233 0.188533 0.701233
O O10 0.461852 0.852529 0.920557
O O11 0.483318 0.225622 0.303908
O O12 0.128703 0.408858 0.001495
O O13 0.865098 0.657622 0.533952
O O14 0.710972 0.533465 0.059572
O O15 0.500000 0.500000 0.500000
#
# Coordination Sequence:
#
# PCOD9026081 Si02
#       7
#     2   2   2   2   2   2   2
#     4  11  20  33  59  89 116 150 187 247 301 335
#     4  10  22  41  62  80 119 161 199 233 279 360
#     4   9  17  34  57  83 114 157 192 232 293 343
#     4  11  22  38  63  85 115 160 199 232 290 350
#     4   9  18  33  58  83 115 150 191 239 293 345
#     4  11  21  38  62  90 114 150 201 244 289 342
#     4  11  21  37  55  87 121 144 187 248 297 340
#
# _framework density 27.800616999999999
#
# number of rings (size 3 to 8) (size 9 to 14) (size 15 to 20)
#    0.000    1.714    4.286    1.286    0.000    0.571 
#    2.571    0.714    3.143    2.571    0.000    0.000 
#    0.000    0.000    0.000    0.000    0.000    0.000 
#
# Total GULP energy -78130.372216 kJ/mol
# GULP energy per Si atom -5580.740873 kJ/mol
# Density = 2.773734 g / cm^3
# Si number density = 27.800617 Si / 1000 Ang^3
#
#
#
# Elastic Constant Matrix: (Units=GPa)
#
#
# Indices 1 2 3 4 5 6 
#
# 1 49.4921 -14.9343 27.3966 -14.8144 -30.7076 0.2130
# 2 -14.9343 77.5809 49.4255 6.1892 5.8043 -8.0379
# 3 27.3966 49.4255 215.2573 4.8072 -21.9624 -10.7063
# 4 -14.8144 6.1892 4.8072 58.6070 -19.5780 -6.7431
# 5 -30.7076 5.8043 -21.9624 -19.5780 52.5595 -9.4225
# 6 0.2130 -8.0379 -10.7063 -6.7431 -9.4225 28.9634
#
#
#
# Elastic Compliance Matrix: (Units=1/GPa)
#
#
# Indices 1 2 3 4 5 6 
#
# 1 0.086788 0.015509 -0.006723 0.048518 0.070611 0.035448
# 2 0.015509 0.018859 -0.005225 0.005978 0.008328 0.007289
# 3 -0.006723 -0.005225 0.006615 -0.002133 -0.001363 0.000105
# 4 0.048518 0.005978 -0.002133 0.048822 0.050028 0.028156
# 5 0.070611 0.008328 -0.001363 0.050028 0.084684 0.040485
# 6 0.035448 0.007289 0.000105 0.028156 0.040485 0.056053
#
#
# Mechanical properties :
#
#
# Convention : Reuss Voigt Hill
#
# Bulk Modulus (GPa) = 8.37640 51.78955 30.08298
# Shear Modulus (GPa) = 14.94791 46.72214 30.83502
#
# Velocity S-wave (km/s) = 2.32131 4.10398 3.33400
# Velocity P-wave (km/s) = 3.19441 6.41297 5.06609
#
# Compressibility (1/GPa) = 0.11938296
#
# Stress axis : x y z
#
# Youngs Moduli (GPa) = 11.52238 53.02377 151.17410
#
# Poissons Ratio (x) = -0.82234 1.01633
# Poissons Ratio (y) = -0.17870 0.78995
# Poissons Ratio (z) = 0.07746 0.27707
#
# Static dielectric constant tensor:
#      x y z
#    x 2.318000 -0.070070 -0.034100 
#    y -0.070070 2.264610 0.061310 
#    z -0.034100 0.061310 2.309780 
# 
# From -- ./inp_files/164683.got.cif
#   From: 2010.05.17/outbox.cif.g08.bks.cpg/sg2_83_cif.got.tgz:164683.got - 2010.06.03 11:33:40.
