data_PCOD9026065
_publ_section_title
;
Structure prediction by ZEFSAII (Michael W. Deem and Ramdas Pophale) SiO2 
 PCOD9026065
Probable space group: P -1
;
_chemical_formula_sum "Si O2"
_cell_formula_units_Z 16
_cell_length_a 17.472621
_cell_length_b 7.720804
_cell_length_c 8.515647
_cell_angle_alpha 74.868815
_cell_angle_beta 79.848753
_cell_angle_gamma 129.884684
_cell_volume 753.836487
_symmetry_space_group_name_H-M "P -1"
_symmetry_group_IT_number 2
_symmetry_cell_setting 'triclinic'
loop_
_space_group_symop_operation_xyz
x,y,z
-x,-y,-z
loop_
_atom_site_type_symbol
_atom_site_label
_atom_site_fract_x
_atom_site_fract_y
_atom_site_fract_z
Si Si1 0.265437 0.079868 0.296447
Si Si2 0.803627 0.441018 0.018806
Si Si3 0.987151 0.776132 0.120130
Si Si4 0.627527 0.746588 0.448681
Si Si5 0.764830 0.981397 0.030916
Si Si6 0.798626 0.442945 0.512186
Si Si7 0.628033 0.173955 0.374413
Si Si8 0.877166 0.823649 0.649482
O O1 0.343234 0.258794 0.379138
O O2 0.159230 0.032471 0.370627
O O3 0.232135 0.815085 0.383022
O O4 0.296828 0.163324 0.080135
O O5 0.864672 0.702400 0.845724
O O6 0.774383 0.214214 0.986052
O O7 0.690456 0.341134 0.155229
O O8 0.893358 0.529230 0.098110
O O9 0.921676 0.658836 0.336726
O O10 0.108202 0.884152 0.051690
O O11 0.000000 0.000000 0.000000
O O12 0.500000 0.500000 0.500000
O O13 0.705203 0.817073 0.254457
O O14 0.641525 0.983629 0.396866
O O15 0.707350 0.365871 0.441566
O O16 0.795949 0.568997 0.629991
O O17 0.500000 0.000000 0.500000
O O18 0.000000 0.000000 0.500000
#
# Coordination Sequence:
#
# PCOD9026065 Si02
#       8
#     2   2   2   2   2   2   2   2
#     4  11  25  44  66  98 134 178 222 269 349 391
#     4  10  22  41  61  96 133 171 226 268 334 404
#     4  11  23  38  63  99 128 178 223 267 336 399
#     4  10  25  43  68  99 126 174 230 278 336 400
#     4  11  23  43  66  91 139 177 215 281 336 396
#     4  10  23  43  62  95 139 168 217 282 324 401
#     4   9  21  42  69  90 123 176 218 275 347 384
#     4  12  25  38  66 100 132 179 222 268 332 404
#
# _framework density 21.224764
#
# number of rings (size 3 to 8) (size 9 to 14) (size 15 to 20)
#    0.000    1.500    1.250    3.375    7.000    3.500 
#    0.000    1.875    0.000    0.000    0.000    0.000 
#    0.000    0.000    0.000    0.000    0.000    0.000 
#
# Total GULP energy -89221.355328 kJ/mol
# GULP energy per Si atom -5576.334708 kJ/mol
# Density = 2.117646 g / cm^3
# Si number density = 21.224764 Si / 1000 Ang^3
#
#
#
# Elastic Constant Matrix: (Units=GPa)
#
#
# Indices 1 2 3 4 5 6 
#
# 1 82.6612 17.8075 41.7883 8.1344 -17.8173 9.1837
# 2 17.8075 100.0607 35.6840 25.7677 -2.0734 19.5111
# 3 41.7883 35.6840 109.0748 16.4391 -16.1711 23.6095
# 4 8.1344 25.7677 16.4391 38.7877 1.7906 3.3376
# 5 -17.8173 -2.0734 -16.1711 1.7906 30.8995 -9.2928
# 6 9.1837 19.5111 23.6095 3.3376 -9.2928 34.5912
#
#
#
# Elastic Compliance Matrix: (Units=1/GPa)
#
#
# Indices 1 2 3 4 5 6 
#
# 1 0.016367 -0.001012 -0.005070 -0.001099 0.007308 0.001756
# 2 -0.001012 0.014000 -0.002045 -0.007603 -0.002097 -0.006062
# 3 -0.005070 -0.002045 0.013932 -0.003085 0.002601 -0.006013
# 4 -0.001099 -0.007603 -0.003085 0.032332 -0.003873 0.002526
# 5 0.007308 -0.002097 0.002601 -0.003873 0.040657 0.008764
# 6 0.001756 -0.006062 -0.006013 0.002526 0.008764 0.038076
#
#
# Mechanical properties :
#
#
# Convention : Reuss Voigt Hill
#
# Bulk Modulus (GPa) = 35.65926 53.59514 44.62720
# Shear Modulus (GPa) = 27.62927 33.95682 30.79304
#
# Velocity S-wave (km/s) = 3.61189 4.00417 3.81308
# Velocity P-wave (km/s) = 5.85077 6.83256 6.36064
#
# Compressibility (1/GPa) = 0.02804320
#
# Stress axis : x y z
#
# Youngs Moduli (GPa) = 61.09793 71.42884 71.77941
#
# Poissons Ratio (x) = 0.07232 0.36393
# Poissons Ratio (y) = 0.06186 0.14680
# Poissons Ratio (z) = 0.30977 0.14608
#
# Static dielectric constant tensor:
#      x y z
#    x 1.722050 0.030800 0.022890 
#    y 0.030800 1.839180 0.041330 
#    z 0.022890 0.041330 1.857150 
# 
# From -- ./inp_files/245096.got.cif
#   From: 2010.05.17/outbox.cif.g08.bks.cpg/sg2_123_cif.got.tgz:245096.got - 2010.06.03 11:33:40.
