data_PCOD9026514
_publ_section_title
;
Structure prediction by ZEFSAII (Michael W. Deem and Ramdas Pophale) SiO2 
 PCOD9026514
Probable space group: P -1
;
_chemical_formula_sum "Si O2"
_cell_formula_units_Z 14
_cell_length_a 14.620830
_cell_length_b 5.332299
_cell_length_c 23.966751
_cell_angle_alpha 130.292836
_cell_angle_beta 158.557435
_cell_angle_gamma 53.162551
_cell_volume 520.990908
_symmetry_space_group_name_H-M "P -1"
_symmetry_group_IT_number 2
_symmetry_cell_setting 'triclinic'
loop_
_space_group_symop_operation_xyz
x,y,z
-x,-y,-z
loop_
_atom_site_type_symbol
_atom_site_label
_atom_site_fract_x
_atom_site_fract_y
_atom_site_fract_z
Si Si1 0.370907 0.687921 0.323458
Si Si2 0.696736 0.839388 0.367038
Si Si3 0.160903 0.354531 0.354143
Si Si4 0.256224 0.945790 0.703288
Si Si5 0.361848 0.984684 0.977529
Si Si6 0.827936 0.056513 0.856643
Si Si7 0.984965 0.471732 0.162029
O O1 0.660537 0.612912 0.486838
O O2 0.260836 0.649108 0.194096
O O3 0.218328 0.479239 0.252885
O O4 0.313430 0.066958 0.364735
O O5 0.708141 0.447702 0.328543
O O6 0.453533 0.972714 0.279063
O O7 0.964519 0.993980 0.561058
O O8 0.697043 0.916698 0.312178
O O9 0.093367 0.602192 0.300799
O O10 0.887590 0.233361 0.198725
O O11 0.449574 0.106650 0.879886
O O12 0.241904 0.344724 0.967037
O O13 0.500000 0.000000 0.000000
O O14 0.038978 0.915663 0.909265
O O15 0.000000 0.000000 0.000000
#
# Coordination Sequence:
#
# PCOD9026514 Si02
#       7
#     2   2   2   2   2   2   2
#     4   9  20  38  61  90 132 164 213 274 340 407
#     4  10  24  46  72  96 137 183 227 281 337 406
#     4   9  20  40  61  90 126 170 214 274 338 400
#     4  10  24  47  69  98 137 181 230 279 334 407
#     4  11  25  41  66  94 133 176 224 278 340 408
#     4  11  24  37  66  98 128 171 222 279 342 400
#     4  10  22  41  64  94 129 171 219 285 338 410
#
# _framework density 26.871867999999999
#
# number of rings (size 3 to 8) (size 9 to 14) (size 15 to 20)
#    0.000    2.000    0.000    1.286   12.000    2.286 
#    0.000    0.000    0.000    0.000    0.000    0.000 
#    0.000    0.000    0.000    0.000    0.000    0.000 
#
# Total GULP energy -78084.425195 kJ/mol
# GULP energy per Si atom -5577.458943 kJ/mol
# Density = 2.681071 g / cm^3
# Si number density = 26.871868 Si / 1000 Ang^3
#
#
#
# Elastic Constant Matrix: (Units=GPa)
#
#
# Indices 1 2 3 4 5 6 
#
# 1 140.1775 17.2492 63.6243 -28.1241 16.1011 11.9193
# 2 17.2492 87.6946 18.2437 -23.1886 -2.2992 30.9841
# 3 63.6243 18.2437 218.3279 -45.1246 0.8825 1.3068
# 4 -28.1241 -23.1886 -45.1246 46.0147 1.7291 9.8985
# 5 16.1011 -2.2992 0.8825 1.7291 72.4307 -34.7125
# 6 11.9193 30.9841 1.3068 9.8985 -34.7125 86.7151
#
#
#
# Elastic Compliance Matrix: (Units=1/GPa)
#
#
# Indices 1 2 3 4 5 6 
#
# 1 0.009805 0.001443 -0.001659 0.006173 -0.004306 -0.004267
# 2 0.001443 0.017794 0.000866 0.013035 -0.004875 -0.010009
# 3 -0.001659 0.000866 0.006173 0.005685 -0.000259 -0.000927
# 4 0.006173 0.013035 0.005685 0.040916 -0.008566 -0.013691
# 5 -0.004306 -0.004875 -0.000259 -0.008566 0.020300 0.011441
# 6 -0.004267 -0.010009 -0.000927 -0.013691 0.011441 0.021852
#
#
# Mechanical properties :
#
#
# Convention : Reuss Voigt Hill
#
# Bulk Modulus (GPa) = 28.51161 71.60381 50.05771
# Shear Modulus (GPa) = 39.29873 64.17095 51.73484
#
# Velocity S-wave (km/s) = 3.82835 4.89205 4.39252
# Velocity P-wave (km/s) = 5.49317 7.65597 6.66291
#
# Compressibility (1/GPa) = 0.03507343
#
# Stress axis : x y z
#
# Youngs Moduli (GPa) = 101.98724 56.19737 161.99485
#
# Poissons Ratio (x) = -0.08112 0.26879
# Poissons Ratio (y) = -0.14721 -0.14032
# Poissons Ratio (z) = 0.16922 -0.04868
#
# Static dielectric constant tensor:
#      x y z
#    x 2.054230 0.073170 -0.019780 
#    y 0.073170 1.890450 0.025790 
#    z -0.019780 0.025790 2.130310 
# 
# From -- ./inp_files/82915.got.cif
#   From: 2010.05.17/outbox.cif.g08.bks.cpg/sg2_42_cif.got.tgz:82915.got - 2010.06.03 11:33:40.
