data_PCOD9026965
_publ_section_title
;
Structure prediction by ZEFSAII (Michael W. Deem and Ramdas Pophale) SiO2 
 PCOD9026965
Probable space group: P -1
;
_chemical_formula_sum "Si O2"
_cell_formula_units_Z 16
_cell_length_a 9.257738
_cell_length_b 9.310188
_cell_length_c 21.090615
_cell_angle_alpha 116.345608
_cell_angle_beta 27.380334
_cell_angle_gamma 114.908493
_cell_volume 747.554628
_symmetry_space_group_name_H-M "P -1"
_symmetry_group_IT_number 2
_symmetry_cell_setting 'triclinic'
loop_
_space_group_symop_operation_xyz
x,y,z
-x,-y,-z
loop_
_atom_site_type_symbol
_atom_site_label
_atom_site_fract_x
_atom_site_fract_y
_atom_site_fract_z
Si Si1 0.345900 0.157226 0.114609
Si Si2 0.093819 0.895348 0.840364
Si Si3 0.661150 0.577158 0.645195
Si Si4 0.745843 0.537804 0.466796
Si Si5 0.739239 0.817746 0.084299
Si Si6 0.783101 0.902089 0.515814
Si Si7 0.788621 0.939496 0.709477
Si Si8 0.541725 0.519058 0.818259
O O1 0.210294 0.103223 0.225573
O O2 0.561455 0.320047 0.076044
O O3 0.116888 0.178464 0.148884
O O4 0.500000 0.000000 0.000000
O O5 0.435415 0.898285 0.677010
O O6 0.086344 0.078891 0.906672
O O7 0.986265 0.799469 0.927223
O O8 0.559707 0.527734 0.604258
O O9 0.710915 0.769597 0.671014
O O10 0.472747 0.517792 0.769478
O O11 0.000000 0.500000 0.500000
O O12 0.500000 0.500000 0.500000
O O13 0.873670 0.721115 0.444336
O O14 0.072968 0.451311 0.321789
O O15 0.590414 0.646800 0.132044
O O16 0.469362 0.932695 0.184831
O O17 0.000000 0.000000 0.500000
O O18 0.872719 0.986088 0.431135
#
# Coordination Sequence:
#
# PCOD9026965 Si02
#       8
#     2   2   2   2   2   2   2   2
#     4  11  24  45  65  94 138 176 209 277 334 381
#     4  11  24  40  68  96 135 167 221 274 323 384
#     4   9  20  36  61  94 130 170 209 264 323 386
#     4  11  20  36  62 100 134 160 213 280 323 372
#     4  11  22  43  68  96 125 177 226 262 321 402
#     4  12  21  39  70  97 125 173 220 261 324 397
#     4  11  21  41  71  91 128 179 216 258 334 391
#     4  10  22  41  66  92 129 177 219 259 330 397
#
# _framework density 21.403117999999999
#
# number of rings (size 3 to 8) (size 9 to 14) (size 15 to 20)
#    0.000    1.250    5.000    0.750    1.750    1.000 
#    2.250    0.625    0.000    0.000    0.000    0.000 
#    0.000    0.000    0.000    0.000    0.000    0.000 
#
# Total GULP energy -89240.287318 kJ/mol
# GULP energy per Si atom -5577.517957 kJ/mol
# Density = 2.135440 g / cm^3
# Si number density = 21.403118 Si / 1000 Ang^3
#
#
#
# Elastic Constant Matrix: (Units=GPa)
#
#
# Indices 1 2 3 4 5 6 
#
# 1 121.1910 43.2358 21.8304 -3.1662 38.6737 8.5746
# 2 43.2358 135.1012 42.2606 -4.1554 19.4713 -17.6728
# 3 21.8304 42.2606 84.8028 -12.0954 26.1943 -7.2122
# 4 -3.1662 -4.1554 -12.0954 29.3363 0.7929 10.4360
# 5 38.6737 19.4713 26.1943 0.7929 27.2933 -1.1859
# 6 8.5746 -17.6728 -7.2122 10.4360 -1.1859 31.0443
#
#
#
# Elastic Compliance Matrix: (Units=1/GPa)
#
#
# Indices 1 2 3 4 5 6 
#
# 1 0.020765 -0.005552 0.008490 0.010013 -0.034405 -0.011604
# 2 -0.005552 0.011090 -0.005952 -0.004580 0.006160 0.008239
# 3 0.008490 -0.005952 0.023421 0.012594 -0.030875 -0.005705
# 4 0.010013 -0.004580 0.012594 0.047258 -0.025219 -0.019297
# 5 -0.034405 0.006160 -0.030875 -0.025219 0.112168 0.018599
# 6 -0.011604 0.008239 -0.005705 -0.019297 0.018599 0.045979
#
#
# Mechanical properties :
#
#
# Convention : Reuss Voigt Hill
#
# Bulk Modulus (GPa) = 20.30632 61.74986 41.02809
# Shear Modulus (GPa) = 17.66007 33.11933 25.38970
#
# Velocity S-wave (km/s) = 2.87560 3.93798 3.44795
# Velocity P-wave (km/s) = 4.53140 7.04204 5.92132
#
# Compressibility (1/GPa) = 0.04924576
#
# Stress axis : x y z
#
# Youngs Moduli (GPa) = 48.15882 90.17287 42.69745
#
# Poissons Ratio (x) = 0.50067 -0.36250
# Poissons Ratio (y) = 0.26739 0.25415
# Poissons Ratio (z) = -0.40887 0.53674
#
# Static dielectric constant tensor:
#      x y z
#    x 1.726240 -0.063030 -0.000700 
#    y -0.063030 1.769900 0.054590 
#    z -0.000700 0.054590 1.866050 
# 
# From -- ./inp_files/223877.got.cif
#   From: 2010.05.17/outbox.cif.g08.bks.cpg/sg2_112_cif.got.tgz:223877.got - 2010.06.03 11:33:40.
