data_PCOD9026104
_publ_section_title
;
Structure prediction by ZEFSAII (Michael W. Deem and Ramdas Pophale) SiO2 
 PCOD9026104
Probable space group: P -1
;
_chemical_formula_sum "Si O2"
_cell_formula_units_Z 14
_cell_length_a 12.763360
_cell_length_b 10.051057
_cell_length_c 5.342096
_cell_angle_alpha 55.866583
_cell_angle_beta 90.501327
_cell_angle_gamma 77.170782
_cell_volume 545.493446
_symmetry_space_group_name_H-M "P -1"
_symmetry_group_IT_number 2
_symmetry_cell_setting 'triclinic'
loop_
_space_group_symop_operation_xyz
x,y,z
-x,-y,-z
loop_
_atom_site_type_symbol
_atom_site_label
_atom_site_fract_x
_atom_site_fract_y
_atom_site_fract_z
Si Si1 0.113248 0.366479 0.839320
Si Si2 0.763876 0.113306 0.862033
Si Si3 0.592649 0.686795 0.833309
Si Si4 0.036071 0.859562 0.862984
Si Si5 0.381533 0.132600 0.852613
Si Si6 0.875275 0.516999 0.785227
Si Si7 0.660184 0.295335 0.171859
O O1 0.284814 0.045248 0.977614
O O2 0.173495 0.419408 0.551553
O O3 0.001711 0.518686 0.728708
O O4 0.168631 0.365261 0.108636
O O5 0.538418 0.278521 0.227535
O O6 0.735689 0.198085 0.501200
O O7 0.697211 0.226051 0.969275
O O8 0.888530 0.091889 0.974607
O O9 0.625193 0.789654 0.502399
O O10 0.616128 0.745204 0.046017
O O11 0.646988 0.491632 0.989825
O O12 0.112217 0.677519 0.959875
O O13 0.933702 0.793011 0.018053
O O14 0.000000 0.000000 0.500000
O O15 0.500000 0.000000 0.000000
#
# Coordination Sequence:
#
# PCOD9026104 Si02
#       7
#     2   2   2   2   2   2   2
#     4   8  16  35  59  81 103 151 201 240 309 367
#     4  12  25  40  63  97 131 172 215 264 323 379
#     4  11  22  41  68  94 130 171 210 259 323 384
#     4  10  22  41  62  90 126 164 213 270 317 371
#     4  12  21  39  65 100 134 173 205 254 330 387
#     4   8  16  35  59  81 103 151 201 240 309 367
#     4  11  23  42  65  96 124 168 221 266 309 386
#
# _framework density 25.664833999999999
#
# number of rings (size 3 to 8) (size 9 to 14) (size 15 to 20)
#    0.857    0.857    2.857    2.143    0.000    4.571 
#    0.000   15.000    0.000    0.000    0.000    0.000 
#    0.000    0.000    0.000    0.000    0.000    0.000 
#
# Total GULP energy -78397.502858 kJ/mol
# GULP energy per Si atom -5599.821633 kJ/mol
# Density = 2.560642 g / cm^3
# Si number density = 25.664834 Si / 1000 Ang^3
#
#
#
# Elastic Constant Matrix: (Units=GPa)
#
#
# Indices 1 2 3 4 5 6 
#
# 1 146.9510 20.3005 43.9311 -21.4910 18.5560 7.7455
# 2 20.3005 96.6397 16.3116 1.7164 12.7100 8.9282
# 3 43.9311 16.3116 157.6488 -11.5127 8.0837 9.1400
# 4 -21.4910 1.7164 -11.5127 34.6748 6.6131 -0.3797
# 5 18.5560 12.7100 8.0837 6.6131 51.3772 4.5537
# 6 7.7455 8.9282 9.1400 -0.3797 4.5537 54.3460
#
#
#
# Elastic Compliance Matrix: (Units=1/GPa)
#
#
# Indices 1 2 3 4 5 6 
#
# 1 0.008720 -0.001170 -0.001713 0.005510 -0.003260 -0.000451
# 2 -0.001170 0.011120 -0.000730 -0.001163 -0.001941 -0.001383
# 3 -0.001713 -0.000730 0.007065 0.001392 -0.000422 -0.000779
# 4 0.005510 -0.001163 0.001392 0.033973 -0.006289 -0.000064
# 5 -0.003260 -0.001941 -0.000422 -0.006289 0.022090 -0.001040
# 6 -0.000451 -0.001383 -0.000779 -0.000064 -0.001040 0.018910
#
#
# Mechanical properties :
#
#
# Convention : Reuss Voigt Hill
#
# Bulk Modulus (GPa) = 50.81565 62.48067 56.64816
# Shear Modulus (GPa) = 43.22893 49.45934 46.34414
#
# Velocity S-wave (km/s) = 4.10855 4.39467 4.25402
# Velocity P-wave (km/s) = 6.50766 7.08156 6.80067
#
# Compressibility (1/GPa) = 0.01967898
#
# Stress axis : x y z
#
# Youngs Moduli (GPa) = 114.67816 89.92471 141.55092
#
# Poissons Ratio (x) = 0.10522 0.24251
# Poissons Ratio (y) = 0.13418 0.10330
# Poissons Ratio (z) = 0.19647 0.06562
#
# Static dielectric constant tensor:
#      x y z
#    x 2.087670 -0.096690 0.062540 
#    y -0.096690 2.109470 -0.030220 
#    z 0.062540 -0.030220 2.009520 
# 
# From -- ./inp_files/94598.got.cif
#   From: 2010.05.17/outbox.cif.g08.bks.cpg/sg2_48_cif.got.tgz:94598.got - 2010.06.03 11:33:40.
