data_PCOD9026047
_publ_section_title
;
Structure prediction by ZEFSAII (Michael W. Deem and Ramdas Pophale) SiO2 
 PCOD9026047
Probable space group: P -1
;
_chemical_formula_sum "Si O2"
_cell_formula_units_Z 12
_cell_length_a 16.470014
_cell_length_b 7.627518
_cell_length_c 5.577409
_cell_angle_alpha 89.738447
_cell_angle_beta 96.992936
_cell_angle_gamma 42.897317
_cell_volume 468.804718
_symmetry_space_group_name_H-M "P -1"
_symmetry_group_IT_number 2
_symmetry_cell_setting 'triclinic'
loop_
_space_group_symop_operation_xyz
x,y,z
-x,-y,-z
loop_
_atom_site_type_symbol
_atom_site_label
_atom_site_fract_x
_atom_site_fract_y
_atom_site_fract_z
Si Si1 0.686196 0.586667 0.677786
Si Si2 0.535961 0.132403 0.728306
Si Si3 0.034201 0.348089 0.262031
Si Si4 0.664091 0.399794 0.061876
Si Si5 0.283610 0.000649 0.574081
Si Si6 0.826641 0.455751 0.327236
O O1 0.586680 0.753720 0.429358
O O2 0.814887 0.423547 0.606297
O O3 0.632122 0.827232 0.823200
O O4 0.672814 0.416496 0.782914
O O5 0.475395 0.333451 0.921017
O O6 0.600078 0.144549 0.546914
O O7 0.000000 0.500000 0.500000
O O8 0.956486 0.293461 0.261227
O O9 0.177695 0.113650 0.349498
O O10 0.000000 0.500000 0.000000
O O11 0.700167 0.170895 0.217167
O O12 0.762461 0.394885 0.173581
O O13 0.242322 0.246629 0.688322
#
# Coordination Sequence:
#
# PCOD9026047 Si02
#       6
#     2   2   2   2   2   2
#     4   9  19  37  60  89 126 166 210 258 324 382
#     4   9  19  37  56  89 130 164 210 258 322 388
#     4  10  23  45  69  97 128 175 222 268 330 391
#     4  11  21  37  64  94 122 167 212 263 324 385
#     4  10  22  41  61  94 125 164 217 264 322 383
#     4   9  22  41  62  86 127 165 207 267 317 386
#
# _framework density 25.597011999999999
#
# number of rings (size 3 to 8) (size 9 to 14) (size 15 to 20)
#    0.000    2.333    0.000    2.000    7.000    1.333 
#   15.000    0.833    0.000    0.000    0.000    0.000 
#    0.000    0.000    0.000    0.000    0.000    0.000 
#
# Total GULP energy -66993.508391 kJ/mol
# GULP energy per Si atom -5582.792366 kJ/mol
# Density = 2.553875 g / cm^3
# Si number density = 25.597012 Si / 1000 Ang^3
#
#
#
# Elastic Constant Matrix: (Units=GPa)
#
#
# Indices 1 2 3 4 5 6 
#
# 1 158.0268 33.8609 33.4087 -16.0079 -16.4461 -10.6784
# 2 33.8609 52.6366 27.5387 -5.3370 -6.9589 9.3952
# 3 33.4087 27.5387 118.4635 -26.7501 -31.3538 5.2349
# 4 -16.0079 -5.3370 -26.7501 25.2848 12.2974 -10.1453
# 5 -16.4461 -6.9589 -31.3538 12.2974 52.2164 -5.5076
# 6 -10.6784 9.3952 5.2349 -10.1453 -5.5076 36.8539
#
#
#
# Elastic Compliance Matrix: (Units=1/GPa)
#
#
# Indices 1 2 3 4 5 6 
#
# 1 0.008743 -0.006136 0.000534 0.006571 0.001345 0.006032
# 2 -0.006136 0.027078 -0.006331 -0.008391 -0.001233 -0.010276
# 3 0.000534 -0.006331 0.013803 0.012797 0.005029 0.004082
# 4 0.006571 -0.008391 0.012797 0.065651 -0.004760 0.019587
# 5 0.001345 -0.001233 0.005029 -0.004760 0.023787 0.002234
# 6 0.006032 -0.010276 0.004082 0.019587 0.002234 0.036647
#
#
# Mechanical properties :
#
#
# Convention : Reuss Voigt Hill
#
# Bulk Modulus (GPa) = 38.82392 57.63818 48.23105
# Shear Modulus (GPa) = 24.01963 38.49226 31.25595
#
# Velocity S-wave (km/s) = 3.06662 3.88207 3.49818
# Velocity P-wave (km/s) = 5.26680 6.53149 5.93294
#
# Compressibility (1/GPa) = 0.02575731
#
# Stress axis : x y z
#
# Youngs Moduli (GPa) = 114.37412 36.92967 72.44842
#
# Poissons Ratio (x) = 0.22662 -0.03869
# Poissons Ratio (y) = 0.70185 0.45870
# Poissons Ratio (z) = -0.06109 0.23381
#
# Static dielectric constant tensor:
#      x y z
#    x 2.073720 0.050950 0.060290 
#    y 0.050950 2.128790 0.123910 
#    z 0.060290 0.123910 2.235680 
# 
# From -- ./inp_files/24472.got.cif
#   From: 2010.05.17/outbox.cif.g08.bks.cpg/sg2_13_cif.got.tgz:24472.got - 2010.06.03 11:33:40.
