data_PCOD9026832
_publ_section_title
;
Structure prediction by ZEFSAII (Michael W. Deem and Ramdas Pophale) SiO2 
 PCOD9026832
Probable space group: P -1
;
_chemical_formula_sum "Si O2"
_cell_formula_units_Z 16
_cell_length_a 19.229630
_cell_length_b 11.420029
_cell_length_c 9.139658
_cell_angle_alpha 40.022625
_cell_angle_beta 47.496372
_cell_angle_gamma 31.439188
_cell_volume 671.757779
_symmetry_space_group_name_H-M "P -1"
_symmetry_group_IT_number 2
_symmetry_cell_setting 'triclinic'
loop_
_space_group_symop_operation_xyz
x,y,z
-x,-y,-z
loop_
_atom_site_type_symbol
_atom_site_label
_atom_site_fract_x
_atom_site_fract_y
_atom_site_fract_z
Si Si1 0.395096 0.511075 0.223774
Si Si2 0.569247 0.373465 0.367820
Si Si3 0.333077 0.190831 0.854224
Si Si4 0.178912 0.085266 0.029938
Si Si5 0.257604 0.205092 0.254974
Si Si6 0.941910 0.271250 0.376672
Si Si7 0.384105 0.302642 0.168449
Si Si8 0.974034 0.483834 0.382233
O O1 0.459874 0.423193 0.374440
O O2 0.250266 0.800353 0.162089
O O3 0.383270 0.351017 0.293753
O O4 0.500000 0.500000 0.000000
O O5 0.500000 0.500000 0.500000
O O6 0.687982 0.066086 0.514602
O O7 0.611505 0.509404 0.105115
O O8 0.211558 0.483863 0.689483
O O9 0.482624 0.993980 0.770645
O O10 0.340712 0.179955 0.028731
O O11 0.285496 0.055542 0.998277
O O12 0.045825 0.252065 0.154450
O O13 0.145719 0.235601 0.783993
O O14 0.263893 0.340276 0.248814
O O15 0.113367 0.373539 0.230274
O O16 0.958199 0.310354 0.486928
O O17 0.000000 0.000000 0.500000
O O18 0.000000 0.500000 0.500000
#
# Coordination Sequence:
#
# PCOD9026832 Si02
#       8
#     2   2   2   2   2   2   2   2
#     4  10  22  41  65  98 133 175 225 283 340 405
#     4  11  23  39  67  98 131 177 227 280 336 401
#     4  11  20  44  68  96 136 176 229 280 344 408
#     4  11  20  46  72  90 134 183 227 281 348 406
#     4  12  24  43  66 104 138 179 228 279 348 411
#     4  11  25  44  73 100 130 187 239 286 344 423
#     4  11  25  42  68 101 142 182 220 284 352 411
#     4  11  26  44  70  99 138 184 228 295 353 409
#
# _framework density 23.818109
#
# number of rings (size 3 to 8) (size 9 to 14) (size 15 to 20)
#    0.000    1.000    6.250    1.125    3.500    3.500 
#    0.000    1.250    0.000    0.000    0.000    0.000 
#    0.000    0.000    0.000    0.000    0.000    0.000 
#
# Total GULP energy -89417.546168 kJ/mol
# GULP energy per Si atom -5588.596635 kJ/mol
# Density = 2.376390 g / cm^3
# Si number density = 23.818109 Si / 1000 Ang^3
#
#
#
# Elastic Constant Matrix: (Units=GPa)
#
#
# Indices 1 2 3 4 5 6 
#
# 1 153.4444 27.2027 39.1143 -7.8458 18.2107 22.4184
# 2 27.2027 97.5158 21.1947 -13.9948 4.8936 19.0538
# 3 39.1143 21.1947 79.7758 -8.5041 6.4283 25.2345
# 4 -7.8458 -13.9948 -8.5041 31.0788 13.5691 0.8418
# 5 18.2107 4.8936 6.4283 13.5691 42.7185 7.4400
# 6 22.4184 19.0538 25.2345 0.8418 7.4400 49.1966
#
#
#
# Elastic Compliance Matrix: (Units=1/GPa)
#
#
# Indices 1 2 3 4 5 6 
#
# 1 0.008123 -0.000850 -0.002744 0.002477 -0.003482 -0.001481
# 2 -0.000850 0.012417 -0.000849 0.006232 -0.002258 -0.003751
# 3 -0.002744 -0.000849 0.016882 0.004366 -0.001453 -0.006935
# 4 0.002477 0.006232 0.004366 0.043722 -0.015588 -0.004173
# 5 -0.003482 -0.002258 -0.001453 -0.015588 0.030521 -0.001143
# 6 -0.001481 -0.003751 -0.006935 -0.004173 -0.001143 0.026256
#
#
# Mechanical properties :
#
#
# Convention : Reuss Voigt Hill
#
# Bulk Modulus (GPa) = 35.04313 56.19548 45.61930
# Shear Modulus (GPa) = 31.98567 40.81373 36.39970
#
# Velocity S-wave (km/s) = 3.66855 4.14401 3.91351
# Velocity P-wave (km/s) = 5.71744 6.82216 6.29408
#
# Compressibility (1/GPa) = 0.02853626
#
# Stress axis : x y z
#
# Youngs Moduli (GPa) = 123.10086 80.53371 59.23333
#
# Poissons Ratio (x) = 0.06846 0.16254
# Poissons Ratio (y) = 0.10465 0.05030
# Poissons Ratio (z) = 0.33779 0.06839
#
# Static dielectric constant tensor:
#      x y z
#    x 1.882120 0.015200 -0.074270 
#    y 0.015200 1.924960 0.071820 
#    z -0.074270 0.071820 2.064880 
# 
# From -- ./inp_files/273323.got.cif
#   From: 2010.05.17/outbox.cif.g08.bks.cpg/sg2_137_cif.got.tgz:273323.got - 2010.06.03 11:33:40.
