data_PCOD9026666
_publ_section_title
;
Structure prediction by ZEFSAII (Michael W. Deem and Ramdas Pophale) SiO2 
 PCOD9026666
Probable space group: P -1
;
_chemical_formula_sum "Si O2"
_cell_formula_units_Z 16
_cell_length_a 9.171477
_cell_length_b 6.103176
_cell_length_c 16.205509
_cell_angle_alpha 113.643267
_cell_angle_beta 58.727073
_cell_angle_gamma 129.199030
_cell_volume 597.172825
_symmetry_space_group_name_H-M "P -1"
_symmetry_group_IT_number 2
_symmetry_cell_setting 'triclinic'
loop_
_space_group_symop_operation_xyz
x,y,z
-x,-y,-z
loop_
_atom_site_type_symbol
_atom_site_label
_atom_site_fract_x
_atom_site_fract_y
_atom_site_fract_z
Si Si1 0.379805 0.118515 0.193487
Si Si2 0.372086 0.987549 0.784377
Si Si3 0.430380 0.961847 0.421633
Si Si4 0.013947 0.445158 0.750476
Si Si5 0.857202 0.602256 0.668038
Si Si6 0.224992 0.715123 0.007603
Si Si7 0.149789 0.125111 0.552407
Si Si8 0.773150 0.793390 0.003473
O O1 0.440055 0.034885 0.248417
O O2 0.325133 0.347633 0.260801
O O3 0.575934 0.205176 0.094761
O O4 0.160429 0.836327 0.193788
O O5 0.400075 0.028640 0.684909
O O6 0.165951 0.680092 0.805230
O O7 0.361188 0.201081 0.881076
O O8 0.362089 0.185681 0.467232
O O9 0.500000 0.000000 0.500000
O O10 0.229439 0.664431 0.407816
O O11 0.912959 0.557517 0.735937
O O12 0.137508 0.367088 0.639569
O O13 0.049721 0.873208 0.611383
O O14 0.254844 0.515702 0.036634
O O15 0.248802 0.030492 0.038673
O O16 0.000000 0.500000 0.000000
O O17 0.000000 0.000000 0.500000
O O18 0.000000 0.000000 0.000000
#
# Coordination Sequence:
#
# PCOD9026666 Si02
#       8
#     2   2   2   2   2   2   2   2
#     4  10  22  41  65  91 127 171 222 274 331 404
#     4  11  23  42  65  96 128 171 225 275 337 407
#     4  12  24  36  60  93 124 173 224 275 331 400
#     4  11  24  42  61  91 127 173 224 274 334 394
#     4  11  22  42  59  84 129 171 220 280 333 388
#     4   9  18  35  68 101 128 170 215 271 340 408
#     4  11  23  40  58  81 121 174 221 274 338 389
#     4   9  19  39  68 101 130 170 219 275 340 407
#
# _framework density 26.792912999999999
#
# number of rings (size 3 to 8) (size 9 to 14) (size 15 to 20)
#    0.000    1.500    2.500    2.625    5.250    0.500 
#    9.000    0.000    0.000   13.500    0.000    0.000 
#    0.000    0.000    0.000    0.000    0.000    0.000 
#
# Total GULP energy -89388.586014 kJ/mol
# GULP energy per Si atom -5586.786626 kJ/mol
# Density = 2.673193 g / cm^3
# Si number density = 26.792913 Si / 1000 Ang^3
#
#
#
# Elastic Constant Matrix: (Units=GPa)
#
#
# Indices 1 2 3 4 5 6 
#
# 1 120.9249 27.7363 32.9564 7.6014 -8.8015 -16.5533
# 2 27.7363 107.8598 35.0842 7.1892 6.0311 -7.7884
# 3 32.9564 35.0842 127.5559 6.4104 -19.1509 -32.0520
# 4 7.6014 7.1892 6.4104 60.3990 -10.5334 -8.2648
# 5 -8.8015 6.0311 -19.1509 -10.5334 52.1783 -3.2688
# 6 -16.5533 -7.7884 -32.0520 -8.2648 -3.2688 58.0765
#
#
#
# Elastic Compliance Matrix: (Units=1/GPa)
#
#
# Indices 1 2 3 4 5 6 
#
# 1 0.009417 -0.001953 -0.001220 -0.000334 0.001411 0.001781
# 2 -0.001953 0.011010 -0.003240 -0.001443 -0.003161 -0.001252
# 3 -0.001220 -0.003240 0.011180 0.000990 0.004835 0.005801
# 4 -0.000334 -0.001443 0.000990 0.017824 0.004262 0.003034
# 5 0.001411 -0.003161 0.004835 0.004262 0.022687 0.004530
# 6 0.001781 -0.001252 0.005801 0.003034 0.004530 0.021447
#
#
# Mechanical properties :
#
#
# Convention : Reuss Voigt Hill
#
# Bulk Modulus (GPa) = 53.24496 60.87716 57.06106
# Shear Modulus (GPa) = 44.38446 51.50168 47.94307
#
# Velocity S-wave (km/s) = 4.07452 4.38906 4.23471
# Velocity P-wave (km/s) = 6.48472 6.96102 6.72709
#
# Compressibility (1/GPa) = 0.01878112
#
# Stress axis : x y z
#
# Youngs Moduli (GPa) = 106.18580 90.82587 89.44536
#
# Poissons Ratio (x) = 0.17738 0.10912
# Poissons Ratio (y) = 0.20738 0.28983
# Poissons Ratio (z) = 0.12954 0.29431
#
# Static dielectric constant tensor:
#      x y z
#    x 2.057110 -0.006010 0.022200 
#    y -0.006010 2.184030 -0.027440 
#    z 0.022200 -0.027440 2.205200 
# 
# From -- ./inp_files/120090.got.cif
#   From: 2010.05.17/outbox.cif.g08.bks.cpg/sg2_61_cif.got.tgz:120090.got - 2010.06.03 11:33:40.
