data_PCOD9026417
_publ_section_title
;
Structure prediction by ZEFSAII (Michael W. Deem and Ramdas Pophale) SiO2 
 PCOD9026417
Probable space group: P -1
;
_chemical_formula_sum "Si O2"
_cell_formula_units_Z 16
_cell_length_a 24.468795
_cell_length_b 10.676124
_cell_length_c 27.148358
_cell_angle_alpha 25.053678
_cell_angle_beta 162.492306
_cell_angle_gamma 155.860173
_cell_volume 835.135308
_symmetry_space_group_name_H-M "P -1"
_symmetry_group_IT_number 2
_symmetry_cell_setting 'triclinic'
loop_
_space_group_symop_operation_xyz
x,y,z
-x,-y,-z
loop_
_atom_site_type_symbol
_atom_site_label
_atom_site_fract_x
_atom_site_fract_y
_atom_site_fract_z
Si Si1 0.289678 0.791311 0.415752
Si Si2 0.672518 0.566070 0.976300
Si Si3 0.171760 0.867316 0.887367
Si Si4 0.993968 0.885313 0.978524
Si Si5 0.264334 0.501303 0.603498
Si Si6 0.936325 0.185588 0.299417
Si Si7 0.408349 0.674062 0.897759
Si Si8 0.028428 0.387439 0.618682
O O1 0.308117 0.692683 0.522415
O O2 0.155922 0.453569 0.395410
O O3 0.500000 0.000000 0.500000
O O4 0.160606 0.005567 0.221879
O O5 0.458557 0.470325 0.803261
O O6 0.791110 0.354073 0.133998
O O7 0.652077 0.517709 0.034552
O O8 0.799924 0.920838 0.939828
O O9 0.121874 0.916248 0.770609
O O10 0.086790 0.079796 0.772071
O O11 0.072179 0.492660 0.945262
O O12 0.408769 0.996908 0.050693
O O13 0.000000 0.000000 0.000000
O O14 0.165726 0.668904 0.496909
O O15 0.109226 0.137340 0.594258
O O16 0.210778 0.659045 0.706692
O O17 0.500000 0.500000 0.000000
O O18 0.000000 0.500000 0.500000
#
# Coordination Sequence:
#
# PCOD9026417 Si02
#       8
#     2   2   2   2   2   2   2   2
#     4  11  25  39  61  96 133 166 202 266 327 365
#     4  11  22  40  66  93 128 168 212 255 315 383
#     4  11  22  42  68  92 123 172 216 252 312 383
#     4  11  22  42  63  90 132 171 208 252 315 389
#     4  12  23  40  63  96 130 162 212 269 316 363
#     4  11  22  40  65  96 124 167 213 261 318 375
#     4  10  22  41  64  91 121 169 215 251 306 377
#     4  11  22  42  64  95 130 161 206 272 314 362
#
# _framework density 19.158571999999999
#
# number of rings (size 3 to 8) (size 9 to 14) (size 15 to 20)
#    0.000    1.000    5.000    3.750    0.000    1.000 
#    0.000    6.250    0.000    0.000    0.000    0.000 
#    0.000    0.000    0.000    0.000    0.000    0.000 
#
# Total GULP energy -89351.703562 kJ/mol
# GULP energy per Si atom -5584.481473 kJ/mol
# Density = 1.911497 g / cm^3
# Si number density = 19.158572 Si / 1000 Ang^3
#
#
#
# Elastic Constant Matrix: (Units=GPa)
#
#
# Indices 1 2 3 4 5 6 
#
# 1 117.9323 63.6824 40.4987 7.6764 -6.7406 11.0622
# 2 63.6824 142.9461 42.4474 2.5972 5.2466 23.9630
# 3 40.4987 42.4474 78.4724 12.1233 -4.8068 3.8830
# 4 7.6764 2.5972 12.1233 37.7328 2.0397 -5.1027
# 5 -6.7406 5.2466 -4.8068 2.0397 37.3026 1.9795
# 6 11.0622 23.9630 3.8830 -5.1027 1.9795 33.8699
#
#
#
# Elastic Compliance Matrix: (Units=1/GPa)
#
#
# Indices 1 2 3 4 5 6 
#
# 1 0.012395 -0.004361 -0.003639 -0.001308 0.002503 -0.000890
# 2 -0.004361 0.011089 -0.003726 0.000683 -0.002560 -0.005741
# 3 -0.003639 -0.003726 0.017439 -0.004596 0.002312 0.000998
# 4 -0.001308 0.000683 -0.004596 0.029025 -0.002777 0.005006
# 5 0.002503 -0.002560 0.002312 -0.002777 0.028141 -0.001334
# 6 -0.000890 -0.005741 0.000998 0.005006 -0.001334 0.034595
#
#
# Mechanical properties :
#
#
# Convention : Reuss Voigt Hill
#
# Bulk Modulus (GPa) = 57.23342 70.28976 63.76159
# Shear Modulus (GPa) = 30.87193 34.62920 32.75056
#
# Velocity S-wave (km/s) = 4.01857 4.25609 4.13903
# Velocity P-wave (km/s) = 7.17428 7.80515 7.49635
#
# Compressibility (1/GPa) = 0.01747231
#
# Stress axis : x y z
#
# Youngs Moduli (GPa) = 80.67514 90.18183 57.34216
#
# Poissons Ratio (x) = 0.39324 0.20867
# Poissons Ratio (y) = 0.35179 0.21365
# Poissons Ratio (z) = 0.29358 0.33601
#
# Static dielectric constant tensor:
#      x y z
#    x 1.686100 0.016160 0.002520 
#    y 0.016160 1.709060 0.022830 
#    z 0.002520 0.022830 1.686960 
# 
# From -- ./inp_files/347387.got.cif
#   From: 2010.05.17/outbox.cif.g08.bks.cpg/sg2_174_cif.got.tgz:347387.got - 2010.06.03 11:33:40.
