data_PCOD9026661
_publ_section_title
;
Structure prediction by ZEFSAII (Michael W. Deem and Ramdas Pophale) SiO2 
 PCOD9026661
Probable space group: P -1
;
_chemical_formula_sum "Si O2"
_cell_formula_units_Z 12
_cell_length_a 13.031090
_cell_length_b 7.761107
_cell_length_c 11.052217
_cell_angle_alpha 132.262636
_cell_angle_beta 146.558018
_cell_angle_gamma 64.788330
_cell_volume 430.093234
_symmetry_space_group_name_H-M "P -1"
_symmetry_group_IT_number 2
_symmetry_cell_setting 'triclinic'
loop_
_space_group_symop_operation_xyz
x,y,z
-x,-y,-z
loop_
_atom_site_type_symbol
_atom_site_label
_atom_site_fract_x
_atom_site_fract_y
_atom_site_fract_z
Si Si1 0.327927 0.943692 0.621962
Si Si2 0.163104 0.780958 0.055611
Si Si3 0.209037 0.401019 0.213767
Si Si4 0.704117 0.258921 0.232832
Si Si5 0.983011 0.109819 0.297623
Si Si6 0.549551 0.672448 0.372322
O O1 0.256602 0.684518 0.359889
O O2 0.303568 0.870097 0.705535
O O3 0.199864 0.112909 0.543542
O O4 0.558706 0.087677 0.908630
O O5 0.320351 0.640915 0.119796
O O6 0.310103 0.044804 0.375283
O O7 0.973427 0.659641 0.897101
O O8 0.069207 0.839619 0.866433
O O9 0.395867 0.385344 0.465109
O O10 0.142147 0.184650 0.947630
O O11 0.623656 0.483987 0.278764
O O12 0.916670 0.287349 0.404121
#
# Coordination Sequence:
#
# PCOD9026661 Si02
#       6
#     2   2   2   2   2   2
#     4  10  23  42  61  88 126 164 202 249 303 365
#     4  10  22  41  66  91 120 161 206 252 302 359
#     4  10  22  41  65  91 122 162 204 250 303 361
#     4  10  23  40  61  91 125 161 202 250 309 361
#     4  11  22  38  65  95 120 158 207 255 302 356
#     4   9  20  40  61  86 122 161 199 246 300 358
#
# _framework density 27.900928
#
# number of rings (size 3 to 8) (size 9 to 14) (size 15 to 20)
#    0.000    2.000    0.000    3.000    0.000   13.333 
#    0.000   10.000    0.000    3.000    0.000    0.000 
#    0.000    0.000    0.000    0.000    0.000    0.000 
#
# Total GULP energy -67330.073863 kJ/mol
# GULP energy per Si atom -5610.839489 kJ/mol
# Density = 2.783742 g / cm^3
# Si number density = 27.900928 Si / 1000 Ang^3
#
#
#
# Elastic Constant Matrix: (Units=GPa)
#
#
# Indices 1 2 3 4 5 6 
#
# 1 105.5806 85.0984 22.9372 -2.8235 10.0181 -27.9053
# 2 85.0984 177.9748 48.7712 -42.7918 13.9561 -32.8471
# 3 22.9372 48.7712 108.1825 -28.0999 7.9607 -3.8305
# 4 -2.8235 -42.7918 -28.0999 55.2771 -16.0597 8.7951
# 5 10.0181 13.9561 7.9607 -16.0597 27.5330 -0.4961
# 6 -27.9053 -32.8471 -3.8305 8.7951 -0.4961 50.7649
#
#
#
# Elastic Compliance Matrix: (Units=1/GPa)
#
#
# Indices 1 2 3 4 5 6 
#
# 1 0.019922 -0.009868 -0.001782 -0.010823 -0.007932 0.006229
# 2 -0.009868 0.013029 -0.001492 0.009484 0.002972 0.001280
# 3 -0.001782 -0.001492 0.011503 0.005234 0.001096 -0.001973
# 4 -0.010823 0.009484 0.005234 0.033255 0.016924 -0.005014
# 5 -0.007932 0.002972 0.001096 0.016924 0.047167 -0.004826
# 6 0.006229 0.001280 -0.001973 -0.005014 -0.004826 0.024623
#
#
# Mechanical properties :
#
#
# Convention : Reuss Voigt Hill
#
# Bulk Modulus (GPa) = 55.03394 78.37238 66.70316
# Shear Modulus (GPa) = 27.49674 42.37708 34.93691
#
# Velocity S-wave (km/s) = 3.14269 3.90146 3.54245
# Velocity P-wave (km/s) = 5.73902 6.96029 6.37895
#
# Compressibility (1/GPa) = 0.01817060
#
# Stress axis : x y z
#
# Youngs Moduli (GPa) = 50.19677 76.75100 86.93386
#
# Poissons Ratio (x) = 0.75736 0.15493
# Poissons Ratio (y) = 0.49533 0.12968
# Poissons Ratio (z) = 0.08946 0.11449
#
# Static dielectric constant tensor:
#      x y z
#    x 2.150810 0.037500 0.011580 
#    y 0.037500 2.150530 0.061360 
#    z 0.011580 0.061360 2.163020 
# 
# From -- ./inp_files/448288.got.cif
#   From: 2010.05.17/outbox.cif.g08.bks.cpg/sg2_225_cif.got.tgz:448288.got - 2010.06.03 11:33:40.
