data_PCOD9026813
_publ_section_title
;
Structure prediction by ZEFSAII (Michael W. Deem and Ramdas Pophale) SiO2 
 PCOD9026813
Probable space group: P -1
;
_chemical_formula_sum "Si O2"
_cell_formula_units_Z 16
_cell_length_a 8.161365
_cell_length_b 22.681396
_cell_length_c 9.425383
_cell_angle_alpha 143.099705
_cell_angle_beta 62.445874
_cell_angle_gamma 130.765835
_cell_volume 786.586401
_symmetry_space_group_name_H-M "P -1"
_symmetry_group_IT_number 2
_symmetry_cell_setting 'triclinic'
loop_
_space_group_symop_operation_xyz
x,y,z
-x,-y,-z
loop_
_atom_site_type_symbol
_atom_site_label
_atom_site_fract_x
_atom_site_fract_y
_atom_site_fract_z
Si Si1 0.171373 0.986819 0.999439
Si Si2 0.944270 0.248145 0.525565
Si Si3 0.571091 0.527639 0.189490
Si Si4 0.415084 0.873695 0.353669
Si Si5 0.785180 0.407270 0.828034
Si Si6 0.201595 0.001295 0.349507
Si Si7 0.370834 0.832996 0.985663
Si Si8 0.214784 0.576744 0.470149
O O1 0.195417 0.019993 0.219236
O O2 0.406170 0.066765 0.984411
O O3 0.084486 0.851271 0.758434
O O4 0.000000 0.000000 0.000000
O O5 0.825977 0.185386 0.599034
O O6 0.793399 0.293583 0.616439
O O7 0.191562 0.353906 0.656136
O O8 0.398136 0.546923 0.376493
O O9 0.500000 0.500000 0.000000
O O10 0.597953 0.418925 0.001343
O O11 0.585974 0.899413 0.459338
O O12 0.500000 0.000000 0.500000
O O13 0.409582 0.810353 0.090127
O O14 0.819665 0.447692 0.730189
O O15 0.000000 0.500000 0.000000
O O16 0.000000 0.000000 0.500000
O O17 0.213824 0.885043 0.140934
O O18 0.290743 0.710835 0.710801
O O19 0.000000 0.500000 0.500000
#
# Coordination Sequence:
#
# PCOD9026813 Si02
#       8
#     2   2   2   2   2   2   2   2
#     4  12  24  40  69  98 133 176 214 272 332 396
#     4  11  21  41  71  91 133 170 220 271 328 396
#     4   9  21  42  65  96 120 167 220 262 324 389
#     4  10  22  41  65  97 134 174 218 267 334 386
#     4   9  21  41  66  91 122 169 218 265 327 389
#     4  11  24  42  63 100 140 170 223 265 328 400
#     4  11  24  43  64  95 136 174 218 268 336 392
#     4  11  24  43  65  95 129 167 221 275 327 389
#
# _framework density 20.341058
#
# number of rings (size 3 to 8) (size 9 to 14) (size 15 to 20)
#    0.000    1.500    2.500    2.625    8.750    0.000 
#    2.250    2.500    0.000    0.000    0.000    0.000 
#    0.000    0.000    0.000    0.000    0.000    0.000 
#
# Total GULP energy -89139.285246 kJ/mol
# GULP energy per Si atom -5571.205328 kJ/mol
# Density = 2.029476 g / cm^3
# Si number density = 20.341058 Si / 1000 Ang^3
#
#
#
# Elastic Constant Matrix: (Units=GPa)
#
#
# Indices 1 2 3 4 5 6 
#
# 1 128.6906 48.5580 71.3676 -6.6583 -17.8446 6.9157
# 2 48.5580 81.4572 36.3521 -16.8812 -6.0266 14.4548
# 3 71.3676 36.3521 121.2681 -14.5531 -10.1668 4.2205
# 4 -6.6583 -16.8812 -14.5531 36.1649 -11.6923 0.0792
# 5 -17.8446 -6.0266 -10.1668 -11.6923 55.4811 -7.2198
# 6 6.9157 14.4548 4.2205 0.0792 -7.2198 34.8582
#
#
#
# Elastic Compliance Matrix: (Units=1/GPa)
#
#
# Indices 1 2 3 4 5 6 
#
# 1 0.013622 -0.005665 -0.006394 -0.001969 0.002297 0.000901
# 2 -0.005665 0.018942 -0.001140 0.007610 0.000791 -0.006446
# 3 -0.006394 -0.001140 0.012881 0.003807 0.001033 0.000387
# 4 -0.001969 0.007610 0.003807 0.034979 0.008049 -0.001638
# 5 0.002297 0.000791 0.001033 0.008049 0.021185 0.003461
# 6 0.000901 -0.006446 0.000387 -0.001638 0.003461 0.031856
#
#
# Mechanical properties :
#
#
# Convention : Reuss Voigt Hill
#
# Bulk Modulus (GPa) = 52.50225 71.55237 62.02731
# Shear Modulus (GPa) = 30.08245 36.97672 33.52959
#
# Velocity S-wave (km/s) = 3.84982 4.26824 4.06442
# Velocity P-wave (km/s) = 6.75489 7.71642 7.25161
#
# Compressibility (1/GPa) = 0.01904680
#
# Stress axis : x y z
#
# Youngs Moduli (GPa) = 73.41098 52.79359 77.63563
#
# Poissons Ratio (x) = 0.29907 0.49637
# Poissons Ratio (y) = 0.41587 0.08853
# Poissons Ratio (z) = 0.46936 0.06020
#
# Static dielectric constant tensor:
#      x y z
#    x 1.806440 -0.041760 -0.016650 
#    y -0.041760 1.724910 0.003260 
#    z -0.016650 0.003260 1.778110 
# 
# From -- ./inp_files/224212.got.cif
#   From: 2010.05.17/outbox.cif.g08.bks.cpg/sg2_113_cif.got.tgz:224212.got - 2010.06.03 11:33:40.
