data_PCOD9026477
_publ_section_title
;
Structure prediction by ZEFSAII (Michael W. Deem and Ramdas Pophale) SiO2 
 PCOD9026477
Probable space group: P -1
;
_chemical_formula_sum "Si O2"
_cell_formula_units_Z 14
_cell_length_a 5.960954
_cell_length_b 9.111576
_cell_length_c 19.030365
_cell_angle_alpha 38.252608
_cell_angle_beta 113.496414
_cell_angle_gamma 107.421327
_cell_volume 586.707065
_symmetry_space_group_name_H-M "P -1"
_symmetry_group_IT_number 2
_symmetry_cell_setting 'triclinic'
loop_
_space_group_symop_operation_xyz
x,y,z
-x,-y,-z
loop_
_atom_site_type_symbol
_atom_site_label
_atom_site_fract_x
_atom_site_fract_y
_atom_site_fract_z
Si Si1 0.152734 0.561360 0.738205
Si Si2 0.727697 0.675666 0.534458
Si Si3 0.642188 0.786393 0.898707
Si Si4 0.795462 0.309713 0.566458
Si Si5 0.137997 0.919171 0.713901
Si Si6 0.592802 0.429797 0.915326
Si Si7 0.922170 0.982965 0.077046
O O1 0.056415 0.681054 0.754142
O O2 0.445551 0.586586 0.779612
O O3 0.958147 0.669350 0.617901
O O4 0.163297 0.282993 0.826045
O O5 0.719075 0.422249 0.588741
O O6 0.440956 0.702737 0.509627
O O7 0.779129 0.894332 0.406137
O O8 0.374164 0.873507 0.808478
O O9 0.735360 0.603998 0.919091
O O10 0.837509 0.983232 0.859869
O O11 0.602556 0.667845 0.014740
O O12 0.000000 0.500000 0.500000
O O13 0.925394 0.054935 0.678136
O O14 0.737478 0.201050 0.990216
O O15 0.000000 0.000000 0.000000
#
# Coordination Sequence:
#
# PCOD9026477 Si02
#       7
#     2   2   2   2   2   2   2
#     4  11  24  42  63  94 131 165 211 267 321 375
#     4  10  22  41  64  93 126 166 213 257 320 382
#     4  10  23  42  68  91 127 172 216 262 323 382
#     4   9  21  40  63  90 126 164 211 258 310 378
#     4  10  23  43  63  94 128 166 211 261 319 384
#     4  10  23  46  63  92 130 170 215 268 319 382
#     4  12  25  41  64  98 131 168 218 265 323 381
#
# _framework density 23.861993999999999
#
# number of rings (size 3 to 8) (size 9 to 14) (size 15 to 20)
#    0.000    1.714    1.429    1.286    8.000    0.571 
#    7.714    0.000    0.000    0.000    0.000    0.000 
#    0.000    0.000    0.000    0.000    0.000    0.000 
#
# Total GULP energy -78063.032440 kJ/mol
# GULP energy per Si atom -5575.930889 kJ/mol
# Density = 2.380768 g / cm^3
# Si number density = 23.861994 Si / 1000 Ang^3
#
#
#
# Elastic Constant Matrix: (Units=GPa)
#
#
# Indices 1 2 3 4 5 6 
#
# 1 65.3081 38.0509 47.2862 4.8762 30.3532 -3.0662
# 2 38.0509 147.1749 43.4183 -4.4215 29.1378 -8.4423
# 3 47.2862 43.4183 137.9217 19.3384 40.9944 -5.7393
# 4 4.8762 -4.4215 19.3384 46.5828 0.6651 21.2060
# 5 30.3532 29.1378 40.9944 0.6651 44.7304 -9.3332
# 6 -3.0662 -8.4423 -5.7393 21.2060 -9.3332 32.1888
#
#
#
# Elastic Compliance Matrix: (Units=1/GPa)
#
#
# Indices 1 2 3 4 5 6 
#
# 1 0.025763 -0.003133 -0.004456 0.000318 -0.011954 -0.002838
# 2 -0.003133 0.008453 -0.001107 0.001654 -0.002404 -0.000066
# 3 -0.004456 -0.001107 0.012073 -0.006228 -0.006462 0.003667
# 4 0.000318 0.001654 -0.006228 0.035194 -0.001151 -0.024166
# 5 -0.011954 -0.002404 -0.006462 -0.001151 0.039939 0.009417
# 6 -0.002838 -0.000066 0.003667 -0.024166 0.009417 0.050084
#
#
# Mechanical properties :
#
#
# Convention : Reuss Voigt Hill
#
# Bulk Modulus (GPa) = 34.60487 67.54618 51.07552
# Shear Modulus (GPa) = 25.18511 39.47700 32.33106
#
# Velocity S-wave (km/s) = 3.25229 4.07183 3.68492
# Velocity P-wave (km/s) = 5.35133 7.10457 6.28934
#
# Compressibility (1/GPa) = 0.02889767
#
# Stress axis : x y z
#
# Youngs Moduli (GPa) = 38.81582 118.29995 82.82707
#
# Poissons Ratio (x) = 0.37059 0.36908
# Poissons Ratio (y) = 0.12160 0.09169
# Poissons Ratio (z) = 0.17297 0.13096
#
# Static dielectric constant tensor:
#      x y z
#    x 1.963410 -0.011120 0.007420 
#    y -0.011120 1.912840 -0.000960 
#    z 0.007420 -0.000960 1.969250 
# 
# From -- ./inp_files/46157.got.cif
#   From: 2010.05.17/outbox.cif.g08.bks.cpg/sg2_24_cif.got.tgz:46157.got - 2010.06.03 11:33:40.
