data_PCOD9026722
_publ_section_title
;
Structure prediction by ZEFSAII (Michael W. Deem and Ramdas Pophale) SiO2 
 PCOD9026722
Probable space group: P -1
;
_chemical_formula_sum "Si O2"
_cell_formula_units_Z 16
_cell_length_a 28.568452
_cell_length_b 6.831491
_cell_length_c 5.403088
_cell_angle_alpha 45.804950
_cell_angle_beta 123.728474
_cell_angle_gamma 123.626127
_cell_volume 603.712502
_symmetry_space_group_name_H-M "P -1"
_symmetry_group_IT_number 2
_symmetry_cell_setting 'triclinic'
loop_
_space_group_symop_operation_xyz
x,y,z
-x,-y,-z
loop_
_atom_site_type_symbol
_atom_site_label
_atom_site_fract_x
_atom_site_fract_y
_atom_site_fract_z
Si Si1 0.953944 0.200339 0.483024
Si Si2 0.166904 0.741340 0.962429
Si Si3 0.344245 0.823428 0.690590
Si Si4 0.731547 0.781164 0.920717
Si Si5 0.569949 0.934129 0.887950
Si Si6 0.930041 0.831103 0.245284
Si Si7 0.550702 0.359980 0.083391
Si Si8 0.808360 0.757638 0.762330
O O1 0.903202 0.345711 0.132993
O O2 0.023433 0.350030 0.513300
O O3 0.942572 0.964118 0.436730
O O4 0.943375 0.045837 0.856394
O O5 0.175728 0.924008 0.573975
O O6 0.188669 0.464038 0.248420
O O7 0.207453 0.980211 0.047746
O O8 0.402274 0.743584 0.842266
O O9 0.317313 0.062461 0.293526
O O10 0.293678 0.532656 0.772870
O O11 0.365933 0.955287 0.906942
O O12 0.745564 0.707087 0.746256
O O13 0.517873 0.770531 0.066948
O O14 0.555109 0.210324 0.492963
O O15 0.566524 0.694771 0.880326
O O16 0.860117 0.704822 0.134025
#
# Coordination Sequence:
#
# PCOD9026722 Si02
#       8
#     2   2   2   2   2   2   2   2
#     4   9  18  37  65  97 132 172 224 286 351 417
#     4  11  24  43  65  89 128 171 216 273 332 398
#     4  12  25  40  66  92 129 164 216 266 314 388
#     4  12  26  42  60  94 124 170 220 260 320 388
#     4  10  22  41  65  94 127 163 206 259 323 386
#     4   9  18  37  65  97 132 172 224 286 351 417
#     4  10  22  41  65  94 127 163 206 259 323 386
#     4  11  24  43  65  89 128 171 216 273 332 398
#
# _framework density 26.502680999999999
#
# number of rings (size 3 to 8) (size 9 to 14) (size 15 to 20)
#    0.000    1.500    1.250    3.375    0.000    6.500 
#    0.000    5.000    0.000    7.500    0.000    0.000 
#    0.000    0.000    0.000    0.000    0.000    0.000 
#
# Total GULP energy -89309.851440 kJ/mol
# GULP energy per Si atom -5581.865715 kJ/mol
# Density = 2.644236 g / cm^3
# Si number density = 26.502681 Si / 1000 Ang^3
#
#
#
# Elastic Constant Matrix: (Units=GPa)
#
#
# Indices 1 2 3 4 5 6 
#
# 1 111.3972 29.3309 17.9463 -13.3695 22.7290 -21.3631
# 2 29.3309 118.0059 46.9204 -14.0976 9.6422 17.2384
# 3 17.9463 46.9204 62.8211 -7.8106 10.5712 3.7421
# 4 -13.3695 -14.0976 -7.8106 43.7548 -0.4662 15.6070
# 5 22.7290 9.6422 10.5712 -0.4662 33.9436 2.0777
# 6 -21.3631 17.2384 3.7421 15.6070 2.0777 30.5372
#
#
#
# Elastic Compliance Matrix: (Units=1/GPa)
#
#
# Indices 1 2 3 4 5 6 
#
# 1 0.015115 -0.005782 0.000289 -0.002997 -0.009589 0.015987
# 2 -0.005782 0.016780 -0.009440 0.007917 0.003171 -0.016622
# 3 0.000289 -0.009440 0.023581 0.000169 -0.005031 0.002897
# 4 -0.002997 0.007917 0.000169 0.032928 0.001597 -0.023525
# 5 -0.009589 0.003171 -0.005031 0.001597 0.037257 -0.011233
# 6 0.015987 -0.016622 0.002897 -0.023525 -0.011233 0.065747
#
#
# Mechanical properties :
#
#
# Convention : Reuss Voigt Hill
#
# Bulk Modulus (GPa) = 39.04640 53.40215 46.22427
# Shear Modulus (GPa) = 21.75710 34.84888 28.30299
#
# Velocity S-wave (km/s) = 2.86831 3.63011 3.27146
# Velocity P-wave (km/s) = 5.07293 6.14522 5.63464
#
# Compressibility (1/GPa) = 0.02561056
#
# Stress axis : x y z
#
# Youngs Moduli (GPa) = 66.15821 59.59621 42.40655
#
# Poissons Ratio (x) = 0.34458 -0.01225
# Poissons Ratio (y) = 0.38252 0.40031
# Poissons Ratio (z) = -0.01911 0.56258
#
# Static dielectric constant tensor:
#      x y z
#    x 2.166770 -0.009350 0.034320 
#    y -0.009350 2.112740 0.117170 
#    z 0.034320 0.117170 2.039010 
# 
# From -- ./inp_files/14477.got.cif
#   From: 2010.05.17/outbox.cif.g08.bks.cpg/sg2_8_cif.got.tgz:14477.got - 2010.06.03 11:33:40.
