data_PCOD9026176
_publ_section_title
;
Structure prediction by ZEFSAII (Michael W. Deem and Ramdas Pophale) SiO2 
 PCOD9026176
Probable space group: P -1
;
_chemical_formula_sum "Si O2"
_cell_formula_units_Z 13
_cell_length_a 12.088865
_cell_length_b 10.841076
_cell_length_c 10.792516
_cell_angle_alpha 135.892123
_cell_angle_beta 143.072916
_cell_angle_gamma 42.824098
_cell_volume 546.773724
_symmetry_space_group_name_H-M "P -1"
_symmetry_group_IT_number 2
_symmetry_cell_setting 'triclinic'
loop_
_space_group_symop_operation_xyz
x,y,z
-x,-y,-z
loop_
_atom_site_type_symbol
_atom_site_label
_atom_site_fract_x
_atom_site_fract_y
_atom_site_fract_z
Si Si1 0.218626 0.550906 0.673188
Si Si2 0.500000 0.500000 0.500000
Si Si3 0.868770 0.790037 0.699148
Si Si4 0.792908 0.163963 0.793625
Si Si5 0.666927 0.788917 0.982751
Si Si6 0.924971 0.176646 0.652832
Si Si7 0.412730 0.412839 0.013619
O O1 0.208858 0.376638 0.456711
O O2 0.348337 0.670995 0.832723
O O3 0.005751 0.696494 0.633710
O O4 0.329399 0.447114 0.824994
O O5 0.578056 0.666591 0.731733
O O6 0.734022 0.356943 0.568407
O O7 0.731377 0.004939 0.691249
O O8 0.017936 0.818493 0.953944
O O9 0.850192 0.116211 0.669720
O O10 0.632561 0.379399 0.814127
O O11 0.688997 0.696023 0.072820
O O12 0.879347 0.776229 0.115729
O O13 0.500000 0.000000 0.000000
O O14 0.000000 0.000000 0.500000
#
# Coordination Sequence:
#
# PCOD9026176 Si02
#       7
#     2   1   2   2   2   2   2
#     4   9  20  39  65  97 130 176 228 285 357 440
#     4  12  26  50  72 102 146 194 256 298 362 436
#     4   9  20  39  66  99 130 178 226 285 370 425
#     4  10  22  41  63  99 138 175 231 296 355 436
#     4  12  27  47  72 109 147 198 245 304 374 438
#     4  12  27  48  72 107 149 197 250 304 366 439
#     4  10  22  41  62  97 140 174 231 295 354 434
#
# _framework density 23.775831
#
# number of rings (size 3 to 8) (size 9 to 14) (size 15 to 20)
#    0.000    1.538    3.077    0.462    4.308    1.846 
#    2.769    0.000    0.000    0.000    0.000    0.000 
#    0.000    0.000    0.000    0.000    0.000    0.000 
#
# Total GULP energy -72403.232786 kJ/mol
# GULP energy per Si atom -5569.479445 kJ/mol
# Density = 2.372172 g / cm^3
# Si number density = 23.775831 Si / 1000 Ang^3
#
#
#
# Elastic Constant Matrix: (Units=GPa)
#
#
# Indices 1 2 3 4 5 6 
#
# 1 30.3468 1.6230 4.0447 -8.2652 -2.4729 -5.7902
# 2 1.6230 102.8025 25.1361 12.6592 -1.5596 -23.9406
# 3 4.0447 25.1361 118.0201 19.6484 5.9371 -20.9302
# 4 -8.2652 12.6592 19.6484 29.8854 -21.6702 4.4516
# 5 -2.4729 -1.5596 5.9371 -21.6702 34.2519 -0.9761
# 6 -5.7902 -23.9406 -20.9302 4.4516 -0.9761 34.2927
#
#
#
# Elastic Compliance Matrix: (Units=1/GPa)
#
#
# Indices 1 2 3 4 5 6 
#
# 1 0.053721 -0.006862 -0.015088 0.062207 0.045204 -0.011717
# 2 -0.006862 0.015098 0.004796 -0.025600 -0.016403 0.015165
# 3 -0.015088 0.004796 0.020848 -0.047227 -0.033831 0.018693
# 4 0.062207 -0.025600 -0.047227 0.200253 0.136545 -0.058301
# 5 0.045204 -0.016403 -0.033831 0.136545 0.122862 -0.038695
# 6 -0.011717 0.015165 0.018693 -0.058301 -0.038695 0.055645
#
#
# Mechanical properties :
#
#
# Convention : Reuss Voigt Hill
#
# Bulk Modulus (GPa) = 18.06385 34.75300 26.40842
# Shear Modulus (GPa) = 9.59346 34.37705 21.98525
#
# Velocity S-wave (km/s) = 2.01090 3.80660 3.04417
# Velocity P-wave (km/s) = 3.60634 5.82829 4.84637
#
# Compressibility (1/GPa) = 0.05535920
#
# Stress axis : x y z
#
# Youngs Moduli (GPa) = 18.61469 66.23286 47.96584
#
# Poissons Ratio (x) = 0.45450 0.72371
# Poissons Ratio (y) = 0.12774 -0.23005
# Poissons Ratio (z) = 0.28086 -0.31766
#
# Static dielectric constant tensor:
#      x y z
#    x 2.122170 0.151470 -0.074240 
#    y 0.151470 1.933560 0.011730 
#    z -0.074240 0.011730 1.880950 
# 
# From -- ./inp_files/424623.got.cif
#   From: 2010.05.17/outbox.cif.g08.bks.cpg/sg2_213_cif.got.tgz:424623.got - 2010.06.03 11:33:40.
