data_PCOD9026507
_publ_section_title
;
Structure prediction by ZEFSAII (Michael W. Deem and Ramdas Pophale) SiO2 
 PCOD9026507
Probable space group: P -1
;
_chemical_formula_sum "Si O2"
_cell_formula_units_Z 16
_cell_length_a 8.556597
_cell_length_b 11.753124
_cell_length_c 16.381293
_cell_angle_alpha 27.129805
_cell_angle_beta 69.093015
_cell_angle_gamma 72.494406
_cell_volume 701.227703
_symmetry_space_group_name_H-M "P -1"
_symmetry_group_IT_number 2
_symmetry_cell_setting 'triclinic'
loop_
_space_group_symop_operation_xyz
x,y,z
-x,-y,-z
loop_
_atom_site_type_symbol
_atom_site_label
_atom_site_fract_x
_atom_site_fract_y
_atom_site_fract_z
Si Si1 0.126294 0.527936 0.121895
Si Si2 0.142052 0.482748 0.345627
Si Si3 0.275171 0.003723 0.709164
Si Si4 0.531325 0.852324 0.257599
Si Si5 0.221587 0.686383 0.654361
Si Si6 0.224239 0.535983 0.571197
Si Si7 0.519679 0.380459 0.839675
Si Si8 0.591247 0.794765 0.697005
O O1 0.126016 0.535506 0.216860
O O2 0.285320 0.369820 0.166892
O O3 0.952699 0.384811 0.224258
O O4 0.151966 0.801482 0.905156
O O5 0.316261 0.631620 0.240575
O O6 0.960205 0.540013 0.378702
O O7 0.179308 0.201708 0.546613
O O8 0.413866 0.859574 0.724975
O O9 0.389367 0.139276 0.671441
O O10 0.355093 0.699354 0.388527
O O11 0.672335 0.709732 0.273153
O O12 0.508820 0.129894 0.053458
O O13 0.196262 0.699836 0.552887
O O14 0.345815 0.459793 0.785236
O O15 0.304946 0.946668 0.502271
O O16 0.560521 0.621075 0.735671
#
# Coordination Sequence:
#
# PCOD9026507 Si02
#       8
#     2   2   2   2   2   2   2   2
#     4  10  24  39  61  98 126 169 213 253 312 383
#     4  10  22  41  64  94 127 163 213 258 317 374
#     4  12  22  41  66  92 131 169 210 258 317 375
#     4  11  23  43  65  93 127 166 219 257 314 382
#     4  11  22  42  63  92 131 168 207 263 320 366
#     4  10  24  43  65  92 127 168 208 270 316 368
#     4  11  23  40  66  97 126 168 213 258 312 388
#     4  11  21  40  65  91 131 170 206 258 317 376
#
# _framework density 22.817125999999998
#
# number of rings (size 3 to 8) (size 9 to 14) (size 15 to 20)
#    0.000    1.250    5.000    1.125    3.500    1.500 
#    0.000    0.625    0.000    0.000    0.000    0.000 
#    0.000    0.000    0.000    0.000    0.000    0.000 
#
# Total GULP energy -89324.118167 kJ/mol
# GULP energy per Si atom -5582.757385 kJ/mol
# Density = 2.276519 g / cm^3
# Si number density = 22.817126 Si / 1000 Ang^3
#
#
#
# Elastic Constant Matrix: (Units=GPa)
#
#
# Indices 1 2 3 4 5 6 
#
# 1 25.1982 -9.6154 -17.5391 26.4968 10.1262 -16.5300
# 2 -9.6154 38.7467 -28.8091 11.4281 3.4131 6.1959
# 3 -17.5391 -28.8091 71.5746 29.6471 21.7266 10.6549
# 4 26.4968 11.4281 29.6471 16.5314 -8.2919 -9.2336
# 5 10.1262 3.4131 21.7266 -8.2919 20.7929 -4.2697
# 6 -16.5300 6.1959 10.6549 -9.2336 -4.2697 37.0727
#
#
#
# Elastic Compliance Matrix: (Units=1/GPa)
#
#
# Indices 1 2 3 4 5 6 
#
# 1 0.020949 -0.011600 -0.011749 0.012914 0.013108 0.019382
# 2 -0.011600 0.018332 -0.001797 0.010881 0.008018 -0.004086
# 3 -0.011749 -0.001797 0.005374 0.010459 0.003868 -0.003432
# 4 0.012914 0.010881 0.010459 0.005217 -0.016864 0.000291
# 5 0.013108 0.008018 0.003868 -0.016864 0.030175 0.002668
# 6 0.019382 -0.004086 -0.003432 0.000291 0.002668 0.037665
#
#
# Mechanical properties :
#
#
# Convention : Reuss Voigt Hill
#
# Bulk Modulus (GPa) = -177.39482 2.62136 -87.38673
# Shear Modulus (GPa) = 30.09799 27.64495 28.87147
#
# Velocity S-wave (km/s) = 3.63588 3.48456 3.56102
# Velocity P-wave (km/s) = 7.76460 4.16424 4.63401
#
# Compressibility (1/GPa) = -0.00563714
#
# Stress axis : x y z
#
# Youngs Moduli (GPa) = 47.73593 54.54985 186.08507
#
# Poissons Ratio (x) = 0.63278 2.18633
# Poissons Ratio (y) = 0.55374 0.33433
# Poissons Ratio (z) = 0.56085 0.09801
#
# Static dielectric constant tensor:
#      x y z
#    x 1.929310 0.010950 0.006650 
#    y 0.010950 1.914240 0.018510 
#    z 0.006650 0.018510 1.812060 
# 
# From -- ./inp_files/237583.got.cif
#   From: 2010.05.17/outbox.cif.g08.bks.cpg/sg2_119_cif.got.tgz:237583.got - 2010.06.03 11:33:40.
