data_PCOD9026493
_publ_section_title
;
Structure prediction by ZEFSAII (Michael W. Deem and Ramdas Pophale) SiO2 
 PCOD9026493
Probable space group: P -1
;
_chemical_formula_sum "Si O2"
_cell_formula_units_Z 12
_cell_length_a 11.719590
_cell_length_b 9.927064
_cell_length_c 9.727998
_cell_angle_alpha 152.858356
_cell_angle_beta 116.652984
_cell_angle_gamma 64.192709
_cell_volume 459.621946
_symmetry_space_group_name_H-M "P -1"
_symmetry_group_IT_number 2
_symmetry_cell_setting 'triclinic'
loop_
_space_group_symop_operation_xyz
x,y,z
-x,-y,-z
loop_
_atom_site_type_symbol
_atom_site_label
_atom_site_fract_x
_atom_site_fract_y
_atom_site_fract_z
Si Si1 0.310075 0.665076 0.507484
Si Si2 0.791566 0.436289 0.351812
Si Si3 0.436392 0.215649 0.979788
Si Si4 0.009037 0.750580 0.920338
Si Si5 0.546128 0.771303 0.434924
Si Si6 0.969811 0.223493 0.564174
O O1 0.294814 0.684795 0.681911
O O2 0.168783 0.604934 0.325739
O O3 0.331772 0.976677 0.729807
O O4 0.411248 0.396932 0.272149
O O5 0.689862 0.624781 0.372254
O O6 0.878226 0.222098 0.103140
O O7 0.891542 0.628118 0.660613
O O8 0.542264 0.974148 0.754593
O O9 0.452191 0.504601 0.154316
O O10 0.969295 0.027649 0.246817
O O11 0.056886 0.483756 0.809272
O O12 0.500000 0.000000 0.500000
O O13 0.000000 0.000000 0.500000
#
# Coordination Sequence:
#
# PCOD9026493 Si02
#       6
#     2   2   2   2   2   2
#     4  10  22  41  64  93 131 171 215 270 328 391
#     4  10  24  43  68  97 136 176 221 275 328 395
#     4  10  24  42  64  93 127 171 220 265 329 392
#     4  10  24  42  66  98 131 176 221 266 334 394
#     4  11  25  43  65  96 132 173 222 272 326 390
#     4  11  23  41  66  98 132 170 221 275 329 392
#
# _framework density 26.108415000000001
#
# number of rings (size 3 to 8) (size 9 to 14) (size 15 to 20)
#    0.000    1.667    0.000    3.000    0.000   20.667 
#    0.000    0.000    0.000    0.000    0.000    0.000 
#    0.000    0.000    0.000    0.000    0.000    0.000 
#
# Total GULP energy -66941.302170 kJ/mol
# GULP energy per Si atom -5578.441847 kJ/mol
# Density = 2.604899 g / cm^3
# Si number density = 26.108415 Si / 1000 Ang^3
#
#
#
# Elastic Constant Matrix: (Units=GPa)
#
#
# Indices 1 2 3 4 5 6 
#
# 1 128.1777 20.4026 58.5558 -3.7008 -15.7694 7.4994
# 2 20.4026 99.8817 11.9247 10.5824 7.8874 10.7299
# 3 58.5558 11.9247 137.9087 27.5700 -23.9355 12.6315
# 4 -3.7008 10.5824 27.5700 34.0790 20.6489 10.0039
# 5 -15.7694 7.8874 -23.9355 20.6489 37.6433 18.1764
# 6 7.4994 10.7299 12.6315 10.0039 18.1764 32.8371
#
#
#
# Elastic Compliance Matrix: (Units=1/GPa)
#
#
# Indices 1 2 3 4 5 6 
#
# 1 0.011945 -0.002420 -0.011516 0.018660 -0.014338 0.004744
# 2 -0.002420 0.011076 0.002820 -0.007557 0.004773 -0.004491
# 3 -0.011516 0.002820 0.050055 -0.087745 0.095683 -0.043778
# 4 0.018660 -0.007557 -0.087745 0.198814 -0.193301 0.078390
# 5 -0.014338 0.004773 0.095683 -0.193301 0.238755 -0.108361
# 6 0.004744 -0.004491 -0.043778 0.078390 -0.108361 0.083777
#
#
# Mechanical properties :
#
#
# Convention : Reuss Voigt Hill
#
# Bulk Modulus (GPa) = 19.66784 60.85938 40.26361
# Shear Modulus (GPa) = 7.89140 39.25088 23.57114
#
# Velocity S-wave (km/s) = 1.74043 3.88155 3.00795
# Velocity P-wave (km/s) = 3.40416 6.59162 5.24584
#
# Compressibility (1/GPa) = 0.05084442
#
# Stress axis : x y z
#
# Youngs Moduli (GPa) = 83.71787 90.28856 19.97799
#
# Poissons Ratio (x) = 0.21845 0.23007
# Poissons Ratio (y) = 0.20256 -0.05634
# Poissons Ratio (z) = 0.96410 -0.25461
#
# Static dielectric constant tensor:
#      x y z
#    x 2.082230 0.054930 0.061110 
#    y 0.054930 2.151130 -0.024450 
#    z 0.061110 -0.024450 2.035950 
# 
# From -- ./inp_files/434704.got.cif
#   From: 2010.05.17/outbox.cif.g08.bks.cpg/sg2_218_cif.got.tgz:434704.got - 2010.06.03 11:33:40.
