data_PCOD9026372
_publ_section_title
;
Structure prediction by ZEFSAII (Michael W. Deem and Ramdas Pophale) SiO2 
 PCOD9026372
Probable space group: P -1
;
_chemical_formula_sum "Si O2"
_cell_formula_units_Z 16
_cell_length_a 12.615780
_cell_length_b 5.730021
_cell_length_c 15.495989
_cell_angle_alpha 82.686143
_cell_angle_beta 41.609079
_cell_angle_gamma 60.249569
_cell_volume 585.265422
_symmetry_space_group_name_H-M "P -1"
_symmetry_group_IT_number 2
_symmetry_cell_setting 'triclinic'
loop_
_space_group_symop_operation_xyz
x,y,z
-x,-y,-z
loop_
_atom_site_type_symbol
_atom_site_label
_atom_site_fract_x
_atom_site_fract_y
_atom_site_fract_z
Si Si1 0.194598 0.380750 0.715208
Si Si2 0.587154 0.866206 0.581837
Si Si3 0.259291 0.239011 0.986188
Si Si4 0.110718 0.663997 0.918552
Si Si5 0.901764 0.957747 0.422573
Si Si6 0.803024 0.151031 0.888558
Si Si7 0.571814 0.196686 0.875143
Si Si8 0.217226 0.601710 0.376456
O O1 0.282383 0.347234 0.568953
O O2 0.192764 0.598852 0.774324
O O3 0.962642 0.501027 0.848071
O O4 0.358550 0.068222 0.678037
O O5 0.688950 0.028925 0.530092
O O6 0.624843 0.705489 0.656766
O O7 0.212872 0.002660 0.011268
O O8 0.279643 0.431925 0.895128
O O9 0.486275 0.037426 0.895356
O O10 0.000000 0.500000 0.000000
O O11 0.000000 0.000000 0.000000
O O12 0.997693 0.934463 0.273390
O O13 0.058203 0.653581 0.397938
O O14 0.890153 0.186141 0.484563
O O15 0.727337 0.038591 0.865110
O O16 0.636847 0.500762 0.978629
O O17 0.668995 0.290760 0.746139
#
# Coordination Sequence:
#
# PCOD9026372 Si02
#       8
#     2   2   2   2   2   2   2   2
#     4  10  25  45  67 106 139 195 253 301 367 458
#     4  11  23  46  69 100 148 193 243 305 376 441
#     4  11  23  41  71  92 141 190 229 303 370 436
#     4  10  25  47  72 106 142 194 256 312 374 449
#     4  10  22  43  70 101 140 191 237 308 372 449
#     4  10  22  41  64 102 137 173 246 295 377 442
#     4  10  23  38  66 103 135 180 232 313 364 446
#     4  10  23  41  69 104 139 184 249 299 374 455
#
# _framework density 27.338024000000001
#
# number of rings (size 3 to 8) (size 9 to 14) (size 15 to 20)
#    0.000    1.750    0.000    2.250    7.000    1.000 
#    4.500   10.625    0.000    0.000    0.000    0.000 
#    0.000    0.000    0.000    0.000    0.000    0.000 
#
# Total GULP energy -89226.811798 kJ/mol
# GULP energy per Si atom -5576.675737 kJ/mol
# Density = 2.727580 g / cm^3
# Si number density = 27.338024 Si / 1000 Ang^3
#
#
#
# Elastic Constant Matrix: (Units=GPa)
#
#
# Indices 1 2 3 4 5 6 
#
# 1 124.2821 22.7322 32.1756 4.7105 -2.1006 -8.1311
# 2 22.7322 95.5071 15.5097 -13.0030 12.9054 -23.0192
# 3 32.1756 15.5097 115.8419 1.4950 7.2157 0.5581
# 4 4.7105 -13.0030 1.4950 36.8086 0.1740 4.0425
# 5 -2.1006 12.9054 7.2157 0.1740 58.9931 8.0306
# 6 -8.1311 -23.0192 0.5581 4.0425 8.0306 39.2128
#
#
#
# Elastic Compliance Matrix: (Units=1/GPa)
#
#
# Indices 1 2 3 4 5 6 
#
# 1 0.009147 -0.002004 -0.002311 -0.001872 0.000950 0.000752
# 2 -0.002004 0.014354 -0.001200 0.004470 -0.004226 0.008433
# 3 -0.002311 -0.001200 0.009497 -0.000388 -0.000829 -0.001109
# 4 -0.001872 0.004470 -0.000388 0.029067 -0.001008 -0.000549
# 5 0.000950 -0.004226 -0.000829 -0.001008 0.018834 -0.006025
# 6 0.000752 0.008433 -0.001109 -0.000549 -0.006025 0.031914
#
#
# Mechanical properties :
#
#
# Convention : Reuss Voigt Hill
#
# Bulk Modulus (GPa) = 45.52064 52.94069 49.23066
# Shear Modulus (GPa) = 38.11935 44.68381 41.40158
#
# Velocity S-wave (km/s) = 3.73818 4.04727 3.89579
# Velocity P-wave (km/s) = 5.94299 6.42245 6.18736
#
# Compressibility (1/GPa) = 0.02196806
#
# Stress axis : x y z
#
# Youngs Moduli (GPa) = 109.32289 69.66541 105.29560
#
# Poissons Ratio (x) = 0.13960 0.24334
# Poissons Ratio (y) = 0.21907 0.12639
# Poissons Ratio (z) = 0.25265 0.08362
#
# Static dielectric constant tensor:
#      x y z
#    x 2.702730 -0.118190 0.171210 
#    y -0.118190 2.259100 0.028990 
#    z 0.171210 0.028990 2.174280 
# 
# From -- ./inp_files/571666.got.cif
#   From: 2010.05.17/outbox.cif.g08.bks.cpg/sg2_286_cif.got.tgz:571666.got - 2010.06.03 11:33:40.
