data_PCOD9026046
_publ_section_title
;
Structure prediction by ZEFSAII (Michael W. Deem and Ramdas Pophale) SiO2 
 PCOD9026046
Probable space group: P -1
;
_chemical_formula_sum "Si O2"
_cell_formula_units_Z 14
_cell_length_a 7.142475
_cell_length_b 10.597450
_cell_length_c 14.491311
_cell_angle_alpha 42.270988
_cell_angle_beta 75.163112
_cell_angle_gamma 103.967594
_cell_volume 534.143566
_symmetry_space_group_name_H-M "P -1"
_symmetry_group_IT_number 2
_symmetry_cell_setting 'triclinic'
loop_
_space_group_symop_operation_xyz
x,y,z
-x,-y,-z
loop_
_atom_site_type_symbol
_atom_site_label
_atom_site_fract_x
_atom_site_fract_y
_atom_site_fract_z
Si Si1 0.726003 0.480459 0.307383
Si Si2 0.937438 0.877666 0.209337
Si Si3 0.465231 0.400646 0.874717
Si Si4 0.064424 0.330495 0.208391
Si Si5 0.747003 0.083669 0.555606
Si Si6 0.207438 0.823155 0.863359
Si Si7 0.215072 0.326578 0.478825
O O1 0.879383 0.748754 0.188743
O O2 0.672694 0.496784 0.198607
O O3 0.830501 0.355688 0.399344
O O4 0.428343 0.300831 0.476108
O O5 0.840664 0.664417 0.413548
O O6 0.789728 0.982905 0.182629
O O7 0.235793 0.107595 0.072064
O O8 0.636682 0.452625 0.734903
O O9 0.666584 0.574387 0.835624
O O10 0.828615 0.105357 0.425984
O O11 0.993853 0.260887 0.148575
O O12 0.122179 0.592699 0.062411
O O13 0.947993 0.102438 0.584127
O O14 0.463143 0.908900 0.730257
#
# Coordination Sequence:
#
# PCOD9026046 Si02
#       7
#     2   2   2   2   2   2   2
#     4  10  22  41  61  94 124 159 201 246 308 361
#     4  12  21  40  61  92 128 158 201 248 306 367
#     4   9  21  39  58  86 125 157 201 251 292 356
#     4  10  23  43  59  93 120 157 217 246 297 366
#     4  11  21  43  64  89 126 159 199 256 301 357
#     4  11  23  38  67  87 122 167 195 257 308 347
#     4   9  22  38  59  92 122 159 202 240 301 364
#
# _framework density 26.210182
#
# number of rings (size 3 to 8) (size 9 to 14) (size 15 to 20)
#    0.857    0.857    1.429    3.000    0.000    1.143 
#    2.571   10.000    0.000    0.000    0.000    0.000 
#    0.000    0.000    0.000    0.000    0.000    0.000 
#
# Total GULP energy -78076.120063 kJ/mol
# GULP energy per Si atom -5576.865719 kJ/mol
# Density = 2.615053 g / cm^3
# Si number density = 26.210182 Si / 1000 Ang^3
#
#
#
# Elastic Constant Matrix: (Units=GPa)
#
#
# Indices 1 2 3 4 5 6 
#
# 1 75.7335 22.6862 35.5782 0.2520 -27.4096 9.1190
# 2 22.6862 79.8445 31.0215 -5.4677 -14.7526 2.1212
# 3 35.5782 31.0215 125.8017 16.1586 -17.7835 7.4528
# 4 0.2520 -5.4677 16.1586 42.8258 2.2464 6.5253
# 5 -27.4096 -14.7526 -17.7835 2.2464 37.6123 -7.4296
# 6 9.1190 2.1212 7.4528 6.5253 -7.4296 27.6975
#
#
#
# Elastic Compliance Matrix: (Units=1/GPa)
#
#
# Indices 1 2 3 4 5 6 
#
# 1 0.019916 -0.002081 -0.003427 0.000693 0.011532 -0.002545
# 2 -0.002081 0.015035 -0.003118 0.002892 0.002822 0.000448
# 3 -0.003427 -0.003118 0.010463 -0.004402 0.001487 -0.000012
# 4 0.000693 0.002892 -0.004402 0.026524 -0.003290 -0.006396
# 5 0.011532 0.002822 0.001487 -0.003290 0.038309 0.006638
# 6 -0.002545 0.000448 -0.000012 -0.006396 0.006638 0.040199
#
#
# Mechanical properties :
#
#
# Convention : Reuss Voigt Hill
#
# Bulk Modulus (GPa) = 35.50981 51.10573 43.30777
# Shear Modulus (GPa) = 28.23511 34.43339 31.33425
#
# Velocity S-wave (km/s) = 3.28572 3.62849 3.46135
# Velocity P-wave (km/s) = 5.28887 6.09059 5.70383
#
# Compressibility (1/GPa) = 0.02816123
#
# Stress axis : x y z
#
# Youngs Moduli (GPa) = 50.21176 66.51335 95.57034
#
# Poissons Ratio (x) = 0.13843 0.32754
# Poissons Ratio (y) = 0.10450 0.29798
# Poissons Ratio (z) = 0.17208 0.20738
#
# Static dielectric constant tensor:
#      x y z
#    x 2.065490 -0.089560 -0.031850 
#    y -0.089560 2.045950 0.018360 
#    z -0.031850 0.018360 2.159150 
# 
# From -- ./inp_files/312933.got.cif
#   From: 2010.05.17/outbox.cif.g08.bks.cpg/sg2_157_cif.got.tgz:312933.got - 2010.06.03 11:33:40.
