data_PCOD9026675
_publ_section_title
;
Structure prediction by ZEFSAII (Michael W. Deem and Ramdas Pophale) SiO2 
 PCOD9026675
Probable space group: P -1
;
_chemical_formula_sum "Si O2"
_cell_formula_units_Z 16
_cell_length_a 9.231053
_cell_length_b 14.254874
_cell_length_c 14.762381
_cell_angle_alpha 29.926800
_cell_angle_beta 89.172310
_cell_angle_gamma 109.415959
_cell_volume 700.008302
_symmetry_space_group_name_H-M "P -1"
_symmetry_group_IT_number 2
_symmetry_cell_setting 'triclinic'
loop_
_space_group_symop_operation_xyz
x,y,z
-x,-y,-z
loop_
_atom_site_type_symbol
_atom_site_label
_atom_site_fract_x
_atom_site_fract_y
_atom_site_fract_z
Si Si1 0.026187 0.344152 0.064495
Si Si2 0.298006 0.250205 0.162807
Si Si3 0.114226 0.794736 0.277419
Si Si4 0.350866 0.096272 0.847193
Si Si5 0.653510 0.138717 0.469050
Si Si6 0.643685 0.090641 0.182008
Si Si7 0.489104 0.297212 0.950422
Si Si8 0.710628 0.577533 0.534879
O O1 0.119891 0.237770 0.192091
O O2 0.814960 0.129792 0.197871
O O3 0.175833 0.562327 0.806496
O O4 0.000000 0.500000 0.000000
O O5 0.267823 0.004581 0.396508
O O6 0.500000 0.500000 0.000000
O O7 0.358153 0.308760 0.007113
O O8 0.000000 0.500000 0.500000
O O9 0.944025 0.745277 0.380064
O O10 0.183543 0.938017 0.059148
O O11 0.321698 0.002242 0.157648
O O12 0.571029 0.292894 0.726492
O O13 0.329316 0.270102 0.647604
O O14 0.338144 0.933879 0.903944
O O15 0.500000 0.000000 0.500000
O O16 0.549979 0.116340 0.581011
O O17 0.645767 0.320250 0.991471
O O18 0.614834 0.504613 0.696092
#
# Coordination Sequence:
#
# PCOD9026675 Si02
#       8
#     2   2   2   2   2   2   2   2
#     4  12  25  45  68  99 134 179 228 279 342 409
#     4  11  24  44  72 100 137 179 227 287 338 407
#     4  11  22  40  68  95 134 177 227 276 339 407
#     4  10  23  39  61  99 130 175 218 281 334 397
#     4  11  23  46  68  96 137 176 224 283 343 401
#     4  11  24  42  64  98 132 171 226 277 332 410
#     4  10  24  43  65 100 134 175 231 278 341 407
#     4  10  22  41  65  91 136 172 221 276 336 409
#
# _framework density 22.856873
#
# number of rings (size 3 to 8) (size 9 to 14) (size 15 to 20)
#    0.000    1.250    2.500    2.625    3.500    7.500 
#    0.000    0.000    0.000    0.000    0.000    0.000 
#    0.000    0.000    0.000    0.000    0.000    0.000 
#
# Total GULP energy -89291.068255 kJ/mol
# GULP energy per Si atom -5580.691766 kJ/mol
# Density = 2.280485 g / cm^3
# Si number density = 22.856873 Si / 1000 Ang^3
#
#
#
# Elastic Constant Matrix: (Units=GPa)
#
#
# Indices 1 2 3 4 5 6 
#
# 1 142.1552 22.0446 31.9056 -0.7767 0.8995 9.2294
# 2 22.0446 71.8853 6.2347 18.0960 -8.4357 -9.8127
# 3 31.9056 6.2347 112.9551 22.6586 -6.0405 3.9083
# 4 -0.7767 18.0960 22.6586 38.4910 -3.7880 -1.7518
# 5 0.8995 -8.4357 -6.0405 -3.7880 26.5570 2.2280
# 6 9.2294 -9.8127 3.9083 -1.7518 2.2280 27.4260
#
#
#
# Elastic Compliance Matrix: (Units=1/GPa)
#
#
# Indices 1 2 3 4 5 6 
#
# 1 0.008520 -0.003853 -0.002817 0.003346 -0.001381 -0.003518
# 2 -0.003853 0.018719 0.001924 -0.009248 0.004628 0.006753
# 3 -0.002817 0.001924 0.011155 -0.007334 0.002248 -0.000604
# 4 0.003346 -0.009248 -0.007334 0.034691 0.000330 -0.001200
# 5 -0.001381 0.004628 0.002248 0.000330 0.039849 -0.001416
# 6 -0.003518 0.006753 -0.000604 -0.001200 -0.001416 0.040186
#
#
# Mechanical properties :
#
#
# Convention : Reuss Voigt Hill
#
# Bulk Modulus (GPa) = 34.60014 49.70725 42.15370
# Shear Modulus (GPa) = 29.02842 36.28220 32.65531
#
# Velocity S-wave (km/s) = 3.56758 3.98850 3.78390
# Velocity P-wave (km/s) = 5.66929 6.55784 6.12968
#
# Compressibility (1/GPa) = 0.02890161
#
# Stress axis : x y z
#
# Youngs Moduli (GPa) = 117.37437 53.42265 89.64606
#
# Poissons Ratio (x) = 0.20583 0.25254
# Poissons Ratio (y) = 0.45223 -0.17248
# Poissons Ratio (z) = 0.33065 -0.10279
#
# Static dielectric constant tensor:
#      x y z
#    x 1.979290 -0.068670 0.002060 
#    y -0.068670 1.988140 -0.008990 
#    z 0.002060 -0.008990 1.829200 
# 
# From -- ./inp_files/505032.got.cif
#   From: 2010.05.17/outbox.cif.g08.bks.cpg/sg2_253_cif.got.tgz:505032.got - 2010.06.03 11:33:40.
