data_PCOD9026865
_publ_section_title
;
Structure prediction by ZEFSAII (Michael W. Deem and Ramdas Pophale) SiO2 
 PCOD9026865
Probable space group: P -1
;
_chemical_formula_sum "Si O2"
_cell_formula_units_Z 14
_cell_length_a 10.976377
_cell_length_b 7.715164
_cell_length_c 8.892063
_cell_angle_alpha 76.434467
_cell_angle_beta 125.938989
_cell_angle_gamma 120.297552
_cell_volume 524.362018
_symmetry_space_group_name_H-M "P -1"
_symmetry_group_IT_number 2
_symmetry_cell_setting 'triclinic'
loop_
_space_group_symop_operation_xyz
x,y,z
-x,-y,-z
loop_
_atom_site_type_symbol
_atom_site_label
_atom_site_fract_x
_atom_site_fract_y
_atom_site_fract_z
Si Si1 0.678582 0.642548 0.317629
Si Si2 0.333657 0.941473 0.213914
Si Si3 0.040299 0.271903 0.139409
Si Si4 0.384983 0.166886 0.503748
Si Si5 0.565188 0.269960 0.101871
Si Si6 0.901957 0.508970 0.144653
Si Si7 0.035889 0.889538 0.380029
O O1 0.627928 0.654387 0.451352
O O2 0.634053 0.425829 0.261702
O O3 0.877990 0.804691 0.400588
O O4 0.558508 0.694716 0.110980
O O5 0.333937 0.097396 0.308756
O O6 0.445288 0.058909 0.129478
O O7 0.430129 0.818832 0.362807
O O8 0.142800 0.806952 0.056139
O O9 0.036317 0.426896 0.226371
O O10 0.037212 0.073817 0.245756
O O11 0.156369 0.402386 0.059296
O O12 0.238926 0.977755 0.533538
O O13 0.736205 0.322428 0.127318
O O14 0.979138 0.691682 0.278405
#
# Coordination Sequence:
#
# PCOD9026865 Si02
#       7
#     2   2   2   2   2   2   2
#     4  10  22  41  66 100 130 172 224 277 326 396
#     4  11  24  44  67  95 133 182 216 274 332 397
#     4  11  22  42  73  98 128 184 226 265 334 389
#     4  11  25  41  64  97 141 170 218 274 342 393
#     4  10  22  42  68  98 129 173 229 273 321 396
#     4  10  23  39  66 105 132 164 232 281 310 398
#     4  11  22  43  69  98 136 176 218 281 327 397
#
# _framework density 26.699110999999998
#
# number of rings (size 3 to 8) (size 9 to 14) (size 15 to 20)
#    0.000    1.429    2.857    1.714    2.000    1.714 
#    2.571    1.429    0.000    0.000    0.000    0.000 
#    0.000    0.000    0.000    0.000    0.000    0.000 
#
# Total GULP energy -78298.415922 kJ/mol
# GULP energy per Si atom -5592.743994 kJ/mol
# Density = 2.663834 g / cm^3
# Si number density = 26.699111 Si / 1000 Ang^3
#
#
#
# Elastic Constant Matrix: (Units=GPa)
#
#
# Indices 1 2 3 4 5 6 
#
# 1 129.3215 19.1192 34.7264 5.4202 -16.4817 6.5868
# 2 19.1192 88.5802 25.4960 3.0576 -5.9797 8.4268
# 3 34.7264 25.4960 46.6930 15.8708 -0.7075 0.7471
# 4 5.4202 3.0576 15.8708 35.9128 -1.3774 -5.3502
# 5 -16.4817 -5.9797 -0.7075 -1.3774 41.3350 4.2647
# 6 6.5868 8.4268 0.7471 -5.3502 4.2647 51.1828
#
#
#
# Elastic Compliance Matrix: (Units=1/GPa)
#
#
# Indices 1 2 3 4 5 6 
#
# 1 0.010558 0.000629 -0.008860 0.002218 0.004374 -0.001466
# 2 0.000629 0.013992 -0.008848 0.002388 0.002431 -0.002208
# 3 -0.008860 -0.008848 0.037722 -0.014626 -0.004749 0.000913
# 4 0.002218 0.002388 -0.014626 0.034282 0.001816 0.002967
# 5 0.004374 0.002431 -0.004749 0.001816 0.026569 -0.002918
# 6 -0.001466 -0.002208 0.000913 0.002967 -0.002918 0.020630
#
#
# Mechanical properties :
#
#
# Convention : Reuss Voigt Hill
#
# Bulk Modulus (GPa) = 35.56807 47.03090 41.29948
# Shear Modulus (GPa) = 26.69794 38.03631 32.36712
#
# Velocity S-wave (km/s) = 3.16564 3.77852 3.48558
# Velocity P-wave (km/s) = 5.16841 6.05720 5.63037
#
# Compressibility (1/GPa) = 0.02811511
#
# Stress axis : x y z
#
# Youngs Moduli (GPa) = 94.71541 71.47088 26.51001
#
# Poissons Ratio (x) = -0.04499 0.23488
# Poissons Ratio (y) = -0.05962 0.23455
# Poissons Ratio (z) = 0.83917 0.63235
#
# Static dielectric constant tensor:
#      x y z
#    x 2.129760 -0.047590 -0.013230 
#    y -0.047590 2.067830 0.008360 
#    z -0.013230 0.008360 2.122200 
# 
# From -- ./inp_files/222437.got.cif
#   From: 2010.05.17/outbox.cif.g08.bks.cpg/sg2_112_cif.got.tgz:222437.got - 2010.06.03 11:33:40.
