data_PCOD9026784
_publ_section_title
;
Structure prediction by ZEFSAII (Michael W. Deem and Ramdas Pophale) SiO2 
 PCOD9026784
Probable space group: P -1
;
_chemical_formula_sum "Si O2"
_cell_formula_units_Z 16
_cell_length_a 18.142426
_cell_length_b 12.424912
_cell_length_c 8.808143
_cell_angle_alpha 40.157190
_cell_angle_beta 98.597134
_cell_angle_gamma 128.356658
_cell_volume 769.601396
_symmetry_space_group_name_H-M "P -1"
_symmetry_group_IT_number 2
_symmetry_cell_setting 'triclinic'
loop_
_space_group_symop_operation_xyz
x,y,z
-x,-y,-z
loop_
_atom_site_type_symbol
_atom_site_label
_atom_site_fract_x
_atom_site_fract_y
_atom_site_fract_z
Si Si1 0.365794 0.050866 0.150128
Si Si2 0.425470 0.701702 0.832570
Si Si3 0.030265 0.508580 0.324505
Si Si4 0.778204 0.501457 0.835655
Si Si5 0.319825 0.959367 0.885858
Si Si6 0.006203 0.948854 0.229283
Si Si7 0.130264 0.477173 0.858451
Si Si8 0.535763 0.480426 0.194488
O O1 0.490590 0.232285 0.082221
O O2 0.254266 0.758734 0.510756
O O3 0.366900 0.021229 0.004706
O O4 0.360652 0.238891 0.982647
O O5 0.413262 0.598880 0.774170
O O6 0.500000 0.000000 0.500000
O O7 0.295195 0.498482 0.087051
O O8 0.980721 0.231404 0.572113
O O9 0.000000 0.500000 0.500000
O O10 0.967601 0.548917 0.170631
O O11 0.177610 0.765209 0.065418
O O12 0.875947 0.749145 0.485027
O O13 0.845654 0.503905 0.976463
O O14 0.685982 0.224221 0.009526
O O15 0.414500 0.240305 0.517253
O O16 0.000000 0.000000 0.000000
O O17 0.094212 0.233493 0.038956
O O18 0.500000 0.500000 0.000000
#
# Coordination Sequence:
#
# PCOD9026784 Si02
#       8
#     2   2   2   2   2   2   2   2
#     4  11  23  40  68  96 134 174 218 279 335 395
#     4  11  21  44  66  93 130 172 218 271 335 394
#     4  11  23  44  70  99 133 178 220 279 344 394
#     4  11  24  43  69  98 137 178 223 279 334 401
#     4  11  22  42  66  96 135 170 221 279 331 399
#     4  11  24  44  69 101 138 176 226 283 334 401
#     4  12  23  44  68  99 140 177 226 277 336 403
#     4  10  22  41  65  96 133 173 220 275 331 402
#
# _framework density 20.789981999999998
#
# number of rings (size 3 to 8) (size 9 to 14) (size 15 to 20)
#    0.000    1.000    5.000    2.250    0.000    5.500 
#    0.000    0.000    0.000    0.000    0.000    0.000 
#    0.000    0.000    0.000    0.000    0.000    0.000 
#
# Total GULP energy -89252.501961 kJ/mol
# GULP energy per Si atom -5578.281373 kJ/mol
# Density = 2.074266 g / cm^3
# Si number density = 20.789982 Si / 1000 Ang^3
#
#
#
# Elastic Constant Matrix: (Units=GPa)
#
#
# Indices 1 2 3 4 5 6 
#
# 1 79.3257 21.2614 20.2182 -1.7931 -4.6590 -7.2086
# 2 21.2614 132.6117 44.4092 5.1344 14.0919 -17.8263
# 3 20.2182 44.4092 150.8202 1.5615 -13.6913 -19.9323
# 4 -1.7931 5.1344 1.5615 46.1035 -16.2610 9.2121
# 5 -4.6590 14.0919 -13.6913 -16.2610 33.2668 -3.4316
# 6 -7.2086 -17.8263 -19.9323 9.2121 -3.4316 38.7928
#
#
#
# Elastic Compliance Matrix: (Units=1/GPa)
#
#
# Indices 1 2 3 4 5 6 
#
# 1 0.013751 -0.002284 -0.000729 0.001890 0.003620 0.001002
# 2 -0.002284 0.010338 -0.002980 -0.004530 -0.007811 0.003180
# 3 -0.000729 -0.002980 0.008506 0.001406 0.005661 0.003032
# 4 0.001890 -0.004530 0.001406 0.029314 0.016419 -0.006516
# 5 0.003620 -0.007811 0.005661 0.016419 0.044232 0.000006
# 6 0.001002 0.003180 0.003032 -0.006516 0.000006 0.030531
#
#
# Mechanical properties :
#
#
# Convention : Reuss Voigt Hill
#
# Bulk Modulus (GPa) = 48.52352 59.39281 53.95816
# Shear Modulus (GPa) = 32.14895 42.09053 37.11974
#
# Velocity S-wave (km/s) = 3.93665 4.50439 4.23006
# Velocity P-wave (km/s) = 6.63728 7.46209 7.06174
#
# Compressibility (1/GPa) = 0.02060856
#
# Stress axis : x y z
#
# Youngs Moduli (GPa) = 72.72373 96.73351 117.56845
#
# Poissons Ratio (x) = 0.22089 0.08576
# Poissons Ratio (y) = 0.16607 0.35033
# Poissons Ratio (z) = 0.05305 0.28825
#
# Static dielectric constant tensor:
#      x y z
#    x 1.981770 -0.022650 0.086900 
#    y -0.022650 1.721510 -0.020980 
#    z 0.086900 -0.020980 1.759860 
# 
# From -- ./inp_files/332742.got.cif
#   From: 2010.05.17/outbox.cif.g08.bks.cpg/sg2_167_cif.got.tgz:332742.got - 2010.06.03 11:33:40.
