data_PCOD9026956
_publ_section_title
;
Structure prediction by ZEFSAII (Michael W. Deem and Ramdas Pophale) SiO2 
 PCOD9026956
Probable space group: P -1
;
_chemical_formula_sum "Si O2"
_cell_formula_units_Z 14
_cell_length_a 14.967256
_cell_length_b 23.761798
_cell_length_c 6.216918
_cell_angle_alpha 91.421846
_cell_angle_beta 77.009475
_cell_angle_gamma 21.646986
_cell_volume 603.749643
_symmetry_space_group_name_H-M "P -1"
_symmetry_group_IT_number 2
_symmetry_cell_setting 'triclinic'
loop_
_space_group_symop_operation_xyz
x,y,z
-x,-y,-z
loop_
_atom_site_type_symbol
_atom_site_label
_atom_site_fract_x
_atom_site_fract_y
_atom_site_fract_z
Si Si1 0.334863 0.519849 0.667878
Si Si2 0.880131 0.561422 0.832417
Si Si3 0.960372 0.976124 0.203086
Si Si4 0.475959 0.850553 0.770695
Si Si5 0.506070 0.681676 0.193367
Si Si6 0.231881 0.652680 0.346005
Si Si7 0.281751 0.074674 0.680444
O O1 0.350715 0.446228 0.724848
O O2 0.283139 0.566507 0.453010
O O3 0.668715 0.354829 0.548980
O O4 0.024446 0.727838 0.984320
O O5 0.578017 0.780723 0.955440
O O6 0.223088 0.364161 0.502910
O O7 0.749483 0.574593 0.906373
O O8 0.000000 0.500000 0.000000
O O9 0.843790 0.990066 0.138554
O O10 0.703515 0.150652 0.535664
O O11 0.282299 0.779915 0.154094
O O12 0.000000 0.000000 0.000000
O O13 0.481607 0.909899 0.686786
O O14 0.882647 0.855086 0.438397
O O15 0.500000 0.500000 0.000000
O O16 0.500000 0.000000 0.500000
#
# Coordination Sequence:
#
# PCOD9026956 Si02
#       7
#     2   2   2   2   2   2   2
#     4  10  22  41  66  92 126 167 209 263 315 375
#     4  11  23  42  63  91 125 169 205 254 322 372
#     4  11  23  40  63  96 127 164 209 262 313 367
#     4  11  24  42  64  92 129 164 210 263 309 378
#     4  11  23  40  64  96 125 163 214 255 315 381
#     4   9  21  42  61  91 122 168 212 253 320 364
#     4  11  24  41  64  96 127 166 212 259 318 378
#
# _framework density 23.188417999999999
#
# number of rings (size 3 to 8) (size 9 to 14) (size 15 to 20)
#    0.000    1.429    2.857    1.714    0.000    8.571 
#    0.000    0.000    0.000    0.000    0.000    0.000 
#    0.000    0.000    0.000    0.000    0.000    0.000 
#
# Total GULP energy -78187.489374 kJ/mol
# GULP energy per Si atom -5584.820670 kJ/mol
# Density = 2.313564 g / cm^3
# Si number density = 23.188418 Si / 1000 Ang^3
#
#
#
# Elastic Constant Matrix: (Units=GPa)
#
#
# Indices 1 2 3 4 5 6 
#
# 1 73.5505 55.9702 14.4398 -6.2474 -28.7057 4.5022
# 2 55.9702 146.8997 21.0800 -32.9059 -18.0896 -0.8375
# 3 14.4398 21.0800 66.2115 -11.7211 -16.6105 -0.8372
# 4 -6.2474 -32.9059 -11.7211 35.8193 10.5439 -14.9688
# 5 -28.7057 -18.0896 -16.6105 10.5439 41.8251 -9.7095
# 6 4.5022 -0.8375 -0.8372 -14.9688 -9.7095 39.1174
#
#
#
# Elastic Compliance Matrix: (Units=1/GPa)
#
#
# Indices 1 2 3 4 5 6 
#
# 1 0.027772 -0.011260 -0.000652 -0.012158 0.016040 -0.004122
# 2 -0.011260 0.013921 -0.000363 0.014458 -0.004078 0.006107
# 3 -0.000652 -0.000363 0.017872 0.005271 0.006087 0.003978
# 4 -0.012158 0.014458 0.005271 0.051396 -0.008453 0.019391
# 5 0.016040 -0.004078 0.006087 -0.008453 0.038766 0.004585
# 6 -0.004122 0.006107 0.003978 0.019391 0.004585 0.034813
#
#
# Mechanical properties :
#
#
# Convention : Reuss Voigt Hill
#
# Bulk Modulus (GPa) = 28.55939 52.18243 40.37091
# Shear Modulus (GPa) = 22.64892 36.36380 29.50636
#
# Velocity S-wave (km/s) = 3.12866 3.96433 3.57103
# Velocity P-wave (km/s) = 5.03928 6.59599 5.86947
#
# Compressibility (1/GPa) = 0.03501476
#
# Stress axis : x y z
#
# Youngs Moduli (GPa) = 36.00729 71.83525 55.95491
#
# Poissons Ratio (x) = 0.80883 0.03651
# Poissons Ratio (y) = 0.40542 0.02030
# Poissons Ratio (z) = 0.02349 0.02607
#
# Static dielectric constant tensor:
#      x y z
#    x 2.540510 0.742030 -0.940830 
#    y 0.742030 3.124810 -1.466770 
#    z -0.940830 -1.466770 3.634670 
# 
# From -- ./inp_files/36747.got.cif
#   From: 2010.05.17/outbox.cif.g08.bks.cpg/sg2_19_cif.got.tgz:36747.got - 2010.06.03 11:33:40.
