data_PCOD9026734
_publ_section_title
;
Structure prediction by ZEFSAII (Michael W. Deem and Ramdas Pophale) SiO2 
 PCOD9026734
Probable space group: P -1
;
_chemical_formula_sum "Si O2"
_cell_formula_units_Z 16
_cell_length_a 14.327359
_cell_length_b 15.993412
_cell_length_c 14.913815
_cell_angle_alpha 136.578436
_cell_angle_beta 159.967197
_cell_angle_gamma 40.231349
_cell_volume 755.464894
_symmetry_space_group_name_H-M "P -1"
_symmetry_group_IT_number 2
_symmetry_cell_setting 'triclinic'
loop_
_space_group_symop_operation_xyz
x,y,z
-x,-y,-z
loop_
_atom_site_type_symbol
_atom_site_label
_atom_site_fract_x
_atom_site_fract_y
_atom_site_fract_z
Si Si1 0.255773 0.817190 0.429378
Si Si2 0.158838 0.587519 0.256527
Si Si3 0.659183 0.587116 0.261160
Si Si4 0.674014 0.092429 0.254587
Si Si5 0.134618 0.892504 0.746836
Si Si6 0.840238 0.551383 0.105845
Si Si7 0.443650 0.386818 0.602372
Si Si8 0.631595 0.775890 0.231157
O O1 0.109037 0.719158 0.261250
O O2 0.433472 0.833086 0.691136
O O3 0.428322 0.743342 0.441337
O O4 0.045237 0.957660 0.319487
O O5 0.500000 0.500000 0.500000
O O6 0.996873 0.617224 0.228575
O O7 0.000000 0.500000 0.000000
O O8 0.551718 0.620469 0.291792
O O9 0.604713 0.719388 0.259792
O O10 0.000000 0.500000 0.500000
O O11 0.500000 0.500000 0.000000
O O12 0.697510 0.164897 0.239999
O O13 0.000000 0.000000 0.500000
O O14 0.500000 0.000000 0.000000
O O15 0.909555 0.820370 0.510415
O O16 0.353700 0.882113 0.018309
O O17 0.111951 0.447962 0.319941
O O18 0.672539 0.654970 0.108069
O O19 0.629159 0.480608 0.820150
#
# Coordination Sequence:
#
# PCOD9026734 Si02
#       8
#     2   2   2   2   2   2   2   2
#     4  11  25  45  69  99 150 181 233 278 346 415
#     4  12  24  40  63  99 142 183 224 275 344 411
#     4  12  23  45  73 102 133 176 230 295 358 416
#     4  10  22  41  65  94 131 185 233 265 319 403
#     4  11  25  43  66  99 135 193 225 278 342 411
#     4  12  23  42  65 101 137 174 227 286 340 406
#     4  12  24  43  70 103 134 176 226 287 362 405
#     4  12  24  43  70  98 137 172 243 284 339 414
#
# _framework density 21.179013000000001
#
# number of rings (size 3 to 8) (size 9 to 14) (size 15 to 20)
#    0.000    0.500    5.000    3.750    0.000    8.000 
#    0.000    1.250    0.000    0.000    0.000    0.000 
#    0.000    0.000    0.000    0.000    0.000    0.000 
#
# Total GULP energy -89478.585244 kJ/mol
# GULP energy per Si atom -5592.411578 kJ/mol
# Density = 2.113081 g / cm^3
# Si number density = 21.179013 Si / 1000 Ang^3
#
#
#
# Elastic Constant Matrix: (Units=GPa)
#
#
# Indices 1 2 3 4 5 6 
#
# 1 152.5978 40.9639 22.1335 7.5229 -12.3143 13.6142
# 2 40.9639 73.5250 12.1896 -0.9476 -1.2359 -1.2577
# 3 22.1335 12.1896 135.6324 4.4938 9.0832 -0.3700
# 4 7.5229 -0.9476 4.4938 35.4328 1.7409 -7.7931
# 5 -12.3143 -1.2359 9.0832 1.7409 28.0526 9.5602
# 6 13.6142 -1.2577 -0.3700 -7.7931 9.5602 39.1342
#
#
#
# Elastic Compliance Matrix: (Units=1/GPa)
#
#
# Indices 1 2 3 4 5 6 
#
# 1 0.009295 -0.004980 -0.001402 -0.003497 0.006469 -0.005683
# 2 -0.004980 0.016516 -0.000571 0.002440 -0.002574 0.003372
# 3 -0.001402 -0.000571 0.007910 -0.000235 -0.003662 0.001392
# 4 -0.003497 0.002440 -0.000235 0.031377 -0.006401 0.009105
# 5 0.006469 -0.002574 -0.003662 -0.006401 0.044939 -0.014621
# 6 -0.005683 0.003372 0.001392 0.009105 -0.014621 0.033037
#
#
# Mechanical properties :
#
#
# Convention : Reuss Voigt Hill
#
# Bulk Modulus (GPa) = 50.46705 56.92547 53.69626
# Shear Modulus (GPa) = 30.56559 39.62181 35.09370
#
# Velocity S-wave (km/s) = 3.80307 4.32997 4.07505
# Velocity P-wave (km/s) = 6.57001 7.20658 6.89564
#
# Compressibility (1/GPa) = 0.01981491
#
# Stress axis : x y z
#
# Youngs Moduli (GPa) = 107.58836 60.54862 126.42582
#
# Poissons Ratio (x) = 0.30151 0.17726
# Poissons Ratio (y) = 0.53574 0.07218
# Poissons Ratio (z) = 0.15085 0.03457
#
# Static dielectric constant tensor:
#      x y z
#    x 1.825260 0.003760 -0.013040 
#    y 0.003760 1.780740 -0.030840 
#    z -0.013040 -0.030840 1.745240 
# 
# From -- ./inp_files/534479.got.cif
#   From: 2010.05.17/outbox.cif.g08.bks.cpg/sg2_268_cif.got.tgz:534479.got - 2010.06.03 11:33:40.
