data_PCOD9026027
_publ_section_title
;
Structure prediction by ZEFSAII (Michael W. Deem and Ramdas Pophale) SiO2 
 PCOD9026027
Probable space group: P -1
;
_chemical_formula_sum "Si O2"
_cell_formula_units_Z 14
_cell_length_a 13.030953
_cell_length_b 10.140597
_cell_length_c 11.044948
_cell_angle_alpha 89.909365
_cell_angle_beta 157.256970
_cell_angle_gamma 89.985787
_cell_volume 564.233766
_symmetry_space_group_name_H-M "P -1"
_symmetry_group_IT_number 2
_symmetry_cell_setting 'triclinic'
loop_
_space_group_symop_operation_xyz
x,y,z
-x,-y,-z
loop_
_atom_site_type_symbol
_atom_site_label
_atom_site_fract_x
_atom_site_fract_y
_atom_site_fract_z
Si Si1 0.572851 0.896005 0.970498
Si Si2 0.283612 0.456042 0.447899
Si Si3 0.732818 0.095897 0.792469
Si Si4 0.607858 0.730294 0.214892
Si Si5 0.246523 0.375882 0.139992
Si Si6 0.852098 0.132747 0.169386
Si Si7 0.903516 0.140208 0.733754
O O1 0.329091 0.873992 0.615113
O O2 0.646007 0.756560 0.112526
O O3 0.500000 0.000000 0.000000
O O4 0.802236 0.980668 0.153141
O O5 0.347034 0.393034 0.647965
O O6 0.291287 0.364826 0.334419
O O7 0.499062 0.566530 0.649828
O O8 0.990936 0.518331 0.134404
O O9 0.790099 0.186613 0.741293
O O10 0.500000 0.000000 0.500000
O O11 0.684429 0.165239 0.866269
O O12 0.978448 0.002287 0.100630
O O13 0.845862 0.826792 0.517739
O O14 0.304461 0.777178 0.905029
O O15 0.139488 0.241012 0.965936
#
# Coordination Sequence:
#
# PCOD9026027 Si02
#       7
#     2   2   2   2   2   2   2
#     4  10  22  41  61  91 129 169 206 248 305 381
#     4  10  22  42  62  92 116 163 211 262 309 361
#     4  11  23  36  61  93 128 157 200 253 317 384
#     4  11  23  40  66  88 125 169 211 254 305 368
#     4  10  23  40  65  87 125 156 209 263 314 358
#     4  11  22  39  62  93 127 163 205 255 313 377
#     4  11  24  41  60  95 130 167 202 257 316 368
#
# _framework density 24.812412999999999
#
# number of rings (size 3 to 8) (size 9 to 14) (size 15 to 20)
#    0.000    1.429    1.429    3.857    6.000    2.286 
#    0.000    1.429    0.000    0.000    0.000    0.000 
#    0.000    0.000    0.000    0.000    0.000    0.000 
#
# Total GULP energy -78221.442726 kJ/mol
# GULP energy per Si atom -5587.245909 kJ/mol
# Density = 2.475594 g / cm^3
# Si number density = 24.812413 Si / 1000 Ang^3
#
#
#
# Elastic Constant Matrix: (Units=GPa)
#
#
# Indices 1 2 3 4 5 6 
#
# 1 64.9817 26.3155 26.9906 -3.3531 -10.9462 30.5703
# 2 26.3155 93.7859 51.9347 -9.8309 -7.9969 29.4436
# 3 26.9906 51.9347 128.4592 -1.9338 -19.4642 31.3244
# 4 -3.3531 -9.8309 -1.9338 64.0652 10.5388 -7.1354
# 5 -10.9462 -7.9969 -19.4642 10.5388 42.8183 -5.0667
# 6 30.5703 29.4436 31.3244 -7.1354 -5.0667 34.0046
#
#
#
# Elastic Compliance Matrix: (Units=1/GPa)
#
#
# Indices 1 2 3 4 5 6 
#
# 1 0.027766 -0.000241 0.001255 -0.002245 0.005145 -0.025614
# 2 -0.000241 0.016204 -0.004162 0.001328 -0.000409 -0.009762
# 3 0.001255 -0.004162 0.011833 -0.001850 0.004413 -0.008156
# 4 -0.002245 0.001328 -0.001850 0.017021 -0.004712 0.005442
# 5 0.005145 -0.000409 0.004413 -0.004712 0.027134 -0.005282
# 6 -0.025614 -0.009762 -0.008156 0.005442 -0.005282 0.068755
#
#
# Mechanical properties :
#
#
# Convention : Reuss Voigt Hill
#
# Bulk Modulus (GPa) = 20.19924 55.30094 37.75009
# Shear Modulus (GPa) = 26.10807 40.31001 33.20904
#
# Velocity S-wave (km/s) = 3.24731 4.03499 3.66239
# Velocity P-wave (km/s) = 4.71365 6.63658 5.75598
#
# Compressibility (1/GPa) = 0.04950682
#
# Stress axis : x y z
#
# Youngs Moduli (GPa) = 36.01533 61.71268 84.50895
#
# Poissons Ratio (x) = 0.01490 -0.10608
# Poissons Ratio (y) = 0.00869 0.35173
# Poissons Ratio (z) = -0.04521 0.25685
#
# Static dielectric constant tensor:
#      x y z
#    x 2.229900 -0.061240 0.005240 
#    y -0.061240 2.022780 -0.038420 
#    z 0.005240 -0.038420 1.925810 
# 
# From -- ./inp_files/77898.got.cif
#   From: 2010.05.17/outbox.cif.g08.bks.cpg/sg2_39_cif.got.tgz:77898.got - 2010.06.03 11:33:40.
