data_PCOD9026413
_publ_section_title
;
Structure prediction by ZEFSAII (Michael W. Deem and Ramdas Pophale) SiO2 
 PCOD9026413
Probable space group: P -1
;
_chemical_formula_sum "Si O2"
_cell_formula_units_Z 16
_cell_length_a 21.379298
_cell_length_b 10.109813
_cell_length_c 18.328074
_cell_angle_alpha 59.115594
_cell_angle_beta 18.734044
_cell_angle_gamma 47.907426
_cell_volume 812.222519
_symmetry_space_group_name_H-M "P -1"
_symmetry_group_IT_number 2
_symmetry_cell_setting 'triclinic'
loop_
_space_group_symop_operation_xyz
x,y,z
-x,-y,-z
loop_
_atom_site_type_symbol
_atom_site_label
_atom_site_fract_x
_atom_site_fract_y
_atom_site_fract_z
Si Si1 0.027524 0.866587 0.817817
Si Si2 0.447417 0.435284 0.866925
Si Si3 0.546309 0.916158 0.554941
Si Si4 0.970923 0.176409 0.685489
Si Si5 0.374917 0.441285 0.482807
Si Si6 0.736386 0.138720 0.299344
Si Si7 0.479027 0.058394 0.921390
Si Si8 0.037642 0.060919 0.363415
O O1 0.134337 0.675566 0.702831
O O2 0.206948 0.789400 0.712981
O O3 0.038875 0.020328 0.718672
O O4 0.732992 0.982893 0.132768
O O5 0.429637 0.560053 0.782364
O O6 0.408238 0.277281 0.934492
O O7 0.753219 0.280338 0.595858
O O8 0.251555 0.594174 0.101776
O O9 0.700077 0.674453 0.444885
O O10 0.500000 0.000000 0.500000
O O11 0.673114 0.995349 0.431598
O O12 0.237980 0.113650 0.380283
O O13 0.885823 0.110371 0.731410
O O14 0.514289 0.318025 0.439226
O O15 0.000000 0.000000 0.000000
O O16 0.259292 0.071803 0.122497
O O17 0.500000 0.000000 0.000000
O O18 0.000000 0.000000 0.500000
#
# Coordination Sequence:
#
# PCOD9026413 Si02
#       8
#     2   2   2   2   2   2   2   2
#     4  12  22  44  65  94 134 171 218 268 320 380
#     4  11  23  45  67  99 136 171 218 273 326 387
#     4  10  22  41  64  90 130 171 216 266 317 374
#     4  11  24  43  70  98 137 169 219 278 321 387
#     4  11  22  44  65  93 134 173 211 272 318 378
#     4  11  22  42  65  93 133 172 218 264 319 379
#     4  11  23  46  69  97 133 168 217 274 331 396
#     4  11  23  46  68  94 135 171 213 273 331 398
#
# _framework density 19.699034999999999
#
# number of rings (size 3 to 8) (size 9 to 14) (size 15 to 20)
#    0.000    1.000    8.750    0.375    0.000    5.000 
#    6.750    0.000    0.000    0.000    0.000    0.000 
#    0.000    0.000    0.000    0.000    0.000    0.000 
#
# Total GULP energy -89340.806065 kJ/mol
# GULP energy per Si atom -5583.800379 kJ/mol
# Density = 1.965420 g / cm^3
# Si number density = 19.699035 Si / 1000 Ang^3
#
#
#
# Elastic Constant Matrix: (Units=GPa)
#
#
# Indices 1 2 3 4 5 6 
#
# 1 74.2472 28.1948 42.1667 -5.1054 4.2725 15.0649
# 2 28.1948 94.2060 38.1352 -6.8751 0.2120 27.3627
# 3 42.1667 38.1352 117.2971 -11.2323 5.5050 33.6686
# 4 -5.1054 -6.8751 -11.2323 41.0777 8.6090 9.7010
# 5 4.2725 0.2120 5.5050 8.6090 39.2704 -7.1887
# 6 15.0649 27.3627 33.6686 9.7010 -7.1887 36.6457
#
#
#
# Elastic Compliance Matrix: (Units=1/GPa)
#
#
# Indices 1 2 3 4 5 6 
#
# 1 0.017778 -0.002895 -0.004923 0.001019 -0.001676 -0.001223
# 2 -0.002895 0.015613 0.000607 0.006371 -0.003711 -0.013440
# 3 -0.004923 0.000607 0.016299 0.009497 -0.007000 -0.017291
# 4 0.001019 0.006371 0.009497 0.037492 -0.014581 -0.026687
# 5 -0.001676 -0.003711 -0.007000 -0.014581 0.033567 0.020336
# 6 -0.001223 -0.013440 -0.017291 -0.026687 0.020336 0.064767
#
#
# Mechanical properties :
#
#
# Convention : Reuss Voigt Hill
#
# Bulk Modulus (GPa) = 28.35411 55.86040 42.10725
# Shear Modulus (GPa) = 23.61903 35.21568 29.41735
#
# Velocity S-wave (km/s) = 3.46641 4.23269 3.86857
# Velocity P-wave (km/s) = 5.51781 7.23229 6.43243
#
# Compressibility (1/GPa) = 0.03526826
#
# Stress axis : x y z
#
# Youngs Moduli (GPa) = 56.24909 64.05005 61.35346
#
# Poissons Ratio (x) = 0.18541 0.30202
# Poissons Ratio (y) = 0.16283 -0.03722
# Poissons Ratio (z) = 0.27689 -0.03885
#
# Static dielectric constant tensor:
#      x y z
#    x 1.827330 0.099620 -0.025350 
#    y 0.099620 1.799730 -0.028680 
#    z -0.025350 -0.028680 1.675920 
# 
# From -- ./inp_files/577303.got.cif
#   From: 2010.05.17/outbox.cif.g08.bks.cpg/sg2_289_cif.got.tgz:577303.got - 2010.06.03 11:33:40.
