data_PCOD9026545
_publ_section_title
;
Structure prediction by ZEFSAII (Michael W. Deem and Ramdas Pophale) SiO2 
 PCOD9026545
Probable space group: P -1
;
_chemical_formula_sum "Si O2"
_cell_formula_units_Z 16
_cell_length_a 12.302824
_cell_length_b 8.772209
_cell_length_c 14.936469
_cell_angle_alpha 56.575892
_cell_angle_beta 132.353804
_cell_angle_gamma 146.747554
_cell_volume 652.886587
_symmetry_space_group_name_H-M "P -1"
_symmetry_group_IT_number 2
_symmetry_cell_setting 'triclinic'
loop_
_space_group_symop_operation_xyz
x,y,z
-x,-y,-z
loop_
_atom_site_type_symbol
_atom_site_label
_atom_site_fract_x
_atom_site_fract_y
_atom_site_fract_z
Si Si1 0.046498 0.267669 0.354696
Si Si2 0.358690 0.352503 0.730966
Si Si3 0.497467 0.328724 0.985564
Si Si4 0.963354 0.683950 0.329515
Si Si5 0.617091 0.493734 0.673651
Si Si6 0.959765 0.607855 0.162029
Si Si7 0.202799 0.885974 0.570117
Si Si8 0.988973 0.274902 0.050865
O O1 0.056596 0.492639 0.261365
O O2 0.998636 0.209594 0.452950
O O3 0.252104 0.351411 0.397282
O O4 0.821807 0.973914 0.283882
O O5 0.536111 0.438111 0.871766
O O6 0.226910 0.375771 0.709228
O O7 0.477910 0.505660 0.653410
O O8 0.500000 0.500000 0.000000
O O9 0.689076 0.359911 0.100329
O O10 0.250448 0.018265 0.954341
O O11 0.030869 0.788988 0.231082
O O12 0.857521 0.382882 0.365324
O O13 0.171261 0.889740 0.446184
O O14 0.816505 0.622019 0.810486
O O15 0.436463 0.168125 0.650754
O O16 0.011613 0.746243 0.050693
O O17 0.000000 0.500000 0.000000
#
# Coordination Sequence:
#
# PCOD9026545 Si02
#       8
#     2   2   2   2   2   2   2   2
#     4  10  22  41  64  96 127 166 226 263 315 393
#     4  11  22  40  64  92 134 166 208 273 330 385
#     4  12  25  41  61  98 141 175 211 269 339 391
#     4  10  22  46  65  95 128 172 214 273 334 392
#     4  11  22  40  65  95 126 168 218 268 314 386
#     4  11  23  41  68  95 133 179 215 268 327 395
#     4   9  23  45  71  87 127 171 223 271 325 390
#     4  12  25  39  67  99 135 174 225 264 320 403
#
# _framework density 24.506553
#
# number of rings (size 3 to 8) (size 9 to 14) (size 15 to 20)
#    0.000    1.250    5.000    0.000    5.250    3.500 
#    2.250   10.625    0.000    0.000    0.000    0.000 
#    0.000    0.000    0.000    0.000    0.000    0.000 
#
# Total GULP energy -89424.765977 kJ/mol
# GULP energy per Si atom -5589.047874 kJ/mol
# Density = 2.445077 g / cm^3
# Si number density = 24.506553 Si / 1000 Ang^3
#
#
#
# Elastic Constant Matrix: (Units=GPa)
#
#
# Indices 1 2 3 4 5 6 
#
# 1 138.3871 22.1844 38.2517 -5.0841 -40.5239 10.9014
# 2 22.1844 75.4634 14.4458 11.9017 -10.7344 5.3168
# 3 38.2517 14.4458 111.0068 4.7465 -44.0355 12.3808
# 4 -5.0841 11.9017 4.7465 25.5899 3.3315 -3.1377
# 5 -40.5239 -10.7344 -44.0355 3.3315 59.2337 -8.1180
# 6 10.9014 5.3168 12.3808 -3.1377 -8.1180 39.8761
#
#
#
# Elastic Compliance Matrix: (Units=1/GPa)
#
#
# Indices 1 2 3 4 5 6 
#
# 1 0.009496 -0.002186 -0.000956 0.002314 0.005153 -0.000777
# 2 -0.002186 0.015514 -0.000172 -0.008016 0.001397 -0.001764
# 3 -0.000956 -0.000172 0.013457 -0.004094 0.009229 -0.002337
# 4 0.002314 -0.008016 -0.004094 0.045183 -0.004869 0.004271
# 5 0.005153 0.001397 0.009229 -0.004869 0.027911 0.000838
# 6 -0.000777 -0.001764 -0.002337 0.004271 0.000838 0.026758
#
#
# Mechanical properties :
#
#
# Convention : Reuss Voigt Hill
#
# Bulk Modulus (GPa) = 31.40706 52.73568 42.07137
# Shear Modulus (GPa) = 32.14208 41.60497 36.87352
#
# Velocity S-wave (km/s) = 3.62549 4.12480 3.88318
# Velocity P-wave (km/s) = 5.51082 6.65214 6.10820
#
# Compressibility (1/GPa) = 0.03183998
#
# Stress axis : x y z
#
# Youngs Moduli (GPa) = 105.30815 64.45674 74.31056
#
# Poissons Ratio (x) = 0.14090 0.07103
# Poissons Ratio (y) = 0.23019 0.01277
# Poissons Ratio (z) = 0.10066 0.01108
#
# Static dielectric constant tensor:
#      x y z
#    x 1.988480 0.008780 -0.017370 
#    y 0.008780 1.881780 -0.019920 
#    z -0.017370 -0.019920 1.991480 
# 
# From -- ./inp_files/515424.got.cif
#   From: 2010.05.17/outbox.cif.g08.bks.cpg/sg2_258_cif.got.tgz:515424.got - 2010.06.03 11:33:40.
