data_PCOD9026846
_publ_section_title
;
Structure prediction by ZEFSAII (Michael W. Deem and Ramdas Pophale) SiO2 
 PCOD9026846
Probable space group: P -1
;
_chemical_formula_sum "Si O2"
_cell_formula_units_Z 12
_cell_length_a 10.394265
_cell_length_b 7.289798
_cell_length_c 11.087004
_cell_angle_alpha 56.446429
_cell_angle_beta 100.396436
_cell_angle_gamma 136.625390
_cell_volume 443.408513
_symmetry_space_group_name_H-M "P -1"
_symmetry_group_IT_number 2
_symmetry_cell_setting 'triclinic'
loop_
_space_group_symop_operation_xyz
x,y,z
-x,-y,-z
loop_
_atom_site_type_symbol
_atom_site_label
_atom_site_fract_x
_atom_site_fract_y
_atom_site_fract_z
Si Si1 0.901500 0.649519 0.746510
Si Si2 0.384226 0.630976 0.733113
Si Si3 0.059125 0.518438 0.638126
Si Si4 0.154938 0.200130 0.084925
Si Si5 0.539302 0.449193 0.656387
Si Si6 0.520432 0.945539 0.874897
O O1 0.974364 0.833313 0.821789
O O2 0.772898 0.672032 0.644095
O O3 0.048403 0.705491 0.662626
O O4 0.719094 0.236047 0.881042
O O5 0.280313 0.691854 0.619361
O O6 0.463779 0.536564 0.702476
O O7 0.554131 0.931306 0.745771
O O8 0.200844 0.321888 0.908698
O O9 0.000000 0.500000 0.500000
O O10 0.903979 0.125453 0.793376
O O11 0.379685 0.568293 0.035314
O O12 0.500000 0.500000 0.500000
O O13 0.426068 0.068741 0.796386
#
# Coordination Sequence:
#
# PCOD9026846 Si02
#       6
#     2   2   2   2   2   2
#     4  10  24  41  70  98 131 167 227 271 332 379
#     4  10  24  43  70  94 134 176 222 264 334 390
#     4  12  27  44  65  98 135 177 222 273 331 391
#     4  10  24  43  70  96 136 172 223 273 328 394
#     4  10  22  41  65  99 135 170 215 268 328 393
#     4   8  23  40  68  99 124 171 219 271 320 391
#
# _framework density 27.063078999999998
#
# number of rings (size 3 to 8) (size 9 to 14) (size 15 to 20)
#    2.000    0.000    0.000    2.000    4.667    6.000 
#    0.000    0.000    0.000    0.000    0.000    0.000 
#    0.000    0.000    0.000    0.000    0.000    0.000 
#
# Total GULP energy -67016.496976 kJ/mol
# GULP energy per Si atom -5584.708081 kJ/mol
# Density = 2.700148 g / cm^3
# Si number density = 27.063079 Si / 1000 Ang^3
#
#
#
# Elastic Constant Matrix: (Units=GPa)
#
#
# Indices 1 2 3 4 5 6 
#
# 1 228.3172 80.2784 55.7290 41.4586 -4.6899 -37.3949
# 2 80.2784 87.2091 61.3787 27.0440 2.1311 -40.8996
# 3 55.7290 61.3787 149.6367 24.0772 17.1055 -20.6457
# 4 41.4586 27.0440 24.0772 67.1235 -8.9296 -14.4137
# 5 -4.6899 2.1311 17.1055 -8.9296 19.5417 17.5258
# 6 -37.3949 -40.8996 -20.6457 -14.4137 17.5258 58.0638
#
#
#
# Elastic Compliance Matrix: (Units=1/GPa)
#
#
# Indices 1 2 3 4 5 6 
#
# 1 0.006774 -0.006507 -0.000264 -0.001372 0.003465 -0.001701
# 2 -0.006507 0.035556 -0.004152 -0.006975 -0.028546 0.026263
# 3 -0.000264 -0.004152 0.011447 -0.003291 -0.015462 0.004826
# 4 -0.001372 -0.006975 -0.003291 0.020691 0.019757 -0.007794
# 5 0.003465 -0.028546 -0.015462 0.019757 0.129227 -0.057475
# 6 -0.001701 0.026263 0.004826 -0.007794 -0.057475 0.051756
#
#
# Mechanical properties :
#
#
# Convention : Reuss Voigt Hill
#
# Bulk Modulus (GPa) = 31.31649 95.54837 63.43243
# Shear Modulus (GPa) = 17.36472 46.79759 32.08116
#
# Velocity S-wave (km/s) = 2.53581 4.16288 3.44673
# Velocity P-wave (km/s) = 4.49116 7.64778 6.27133
#
# Compressibility (1/GPa) = 0.03193206
#
# Stress axis : x y z
#
# Youngs Moduli (GPa) = 147.62787 28.12431 87.35750
#
# Poissons Ratio (x) = 0.18300 0.02304
# Poissons Ratio (y) = 0.96057 0.36273
# Poissons Ratio (z) = 0.03894 0.11678
#
# Static dielectric constant tensor:
#      x y z
#    x 2.221140 0.073270 -0.160910 
#    y 0.073270 2.248690 -0.005010 
#    z -0.160910 -0.005010 2.229690 
# 
# From -- ./inp_files/175988.got.cif
#   From: 2010.05.17/outbox.cif.g08.bks.cpg/sg2_88_cif.got.tgz:175988.got - 2010.06.03 11:33:40.
