data_PCOD9026738
_publ_section_title
;
Structure prediction by ZEFSAII (Michael W. Deem and Ramdas Pophale) SiO2 
 PCOD9026738
Probable space group: P -1
;
_chemical_formula_sum "Si O2"
_cell_formula_units_Z 14
_cell_length_a 10.177569
_cell_length_b 14.675900
_cell_length_c 7.414054
_cell_angle_alpha 127.835755
_cell_angle_beta 120.160845
_cell_angle_gamma 40.180937
_cell_volume 563.049466
_symmetry_space_group_name_H-M "P -1"
_symmetry_group_IT_number 2
_symmetry_cell_setting 'triclinic'
loop_
_space_group_symop_operation_xyz
x,y,z
-x,-y,-z
loop_
_atom_site_type_symbol
_atom_site_label
_atom_site_fract_x
_atom_site_fract_y
_atom_site_fract_z
Si Si1 0.142809 0.502355 0.226566
Si Si2 0.628963 0.759175 0.667911
Si Si3 0.456766 0.615217 0.265743
Si Si4 0.753496 0.940298 0.031988
Si Si5 0.600031 0.339847 0.253900
Si Si6 0.019052 0.810827 0.419973
Si Si7 0.133778 0.878633 0.154852
O O1 0.185137 0.403114 0.309058
O O2 0.369919 0.407532 0.184464
O O3 0.036519 0.680483 0.380296
O O4 0.000000 0.500000 0.000000
O O5 0.542942 0.701263 0.410502
O O6 0.446403 0.885456 0.836867
O O7 0.699464 0.851650 0.778295
O O8 0.568825 0.489840 0.352236
O O9 0.215243 0.760780 0.240467
O O10 0.500000 0.500000 0.000000
O O11 0.871116 0.851497 0.193891
O O12 0.915245 0.934915 0.029658
O O13 0.750596 0.258214 0.430936
O O14 0.716909 0.219111 0.024334
O O15 0.888522 0.982104 0.620271
#
# Coordination Sequence:
#
# PCOD9026738 Si02
#       7
#     2   2   2   2   2   2   2
#     4  12  25  42  67  99 132 172 225 273 336 396
#     4  11  23  43  66  99 137 174 222 273 339 390
#     4  10  22  41  65  94 133 175 218 268 328 397
#     4  11  24  40  71 100 133 176 223 280 326 400
#     4  11  25  42  66  97 136 173 217 283 333 389
#     4  12  22  40  71 103 127 175 230 274 322 400
#     4  11  24  43  65 101 133 173 225 272 335 395
#
# _framework density 24.864602999999999
#
# number of rings (size 3 to 8) (size 9 to 14) (size 15 to 20)
#    0.000    0.857    4.286    3.000    4.000    0.000 
#    0.000    6.429    0.000    0.000    0.000    0.000 
#    0.000    0.000    0.000    0.000    0.000    0.000 
#
# Total GULP energy -77993.622185 kJ/mol
# GULP energy per Si atom -5570.973013 kJ/mol
# Density = 2.480801 g / cm^3
# Si number density = 24.864603 Si / 1000 Ang^3
#
#
#
# Elastic Constant Matrix: (Units=GPa)
#
#
# Indices 1 2 3 4 5 6 
#
# 1 50.2887 11.9994 57.4972 8.4390 24.3638 -3.6188
# 2 11.9994 165.2318 47.1220 10.1226 -4.7048 24.6185
# 3 57.4972 47.1220 186.4139 24.4799 24.1941 9.2886
# 4 8.4390 10.1226 24.4799 56.1740 7.4399 12.4395
# 5 24.3638 -4.7048 24.1941 7.4399 60.1666 -9.0365
# 6 -3.6188 24.6185 9.2886 12.4395 -9.0365 38.5993
#
#
#
# Elastic Compliance Matrix: (Units=1/GPa)
#
#
# Indices 1 2 3 4 5 6 
#
# 1 0.036824 -0.000694 -0.009974 -0.000606 -0.010266 0.004087
# 2 -0.000694 0.007166 -0.001532 0.000301 0.000792 -0.004178
# 3 -0.009974 -0.001532 0.009117 -0.001908 0.000267 -0.001475
# 4 -0.000606 0.000301 -0.001908 0.020563 -0.002561 -0.007016
# 5 -0.010266 0.000792 0.000267 -0.002561 0.021706 0.004374
# 6 0.004087 -0.004178 -0.001475 -0.007016 0.004374 0.032595
#
#
# Mechanical properties :
#
#
# Convention : Reuss Voigt Hill
#
# Bulk Modulus (GPa) = 34.83329 70.57464 52.70396
# Shear Modulus (GPa) = 30.87561 50.00903 40.44232
#
# Velocity S-wave (km/s) = 3.52767 4.48957 4.03737
# Velocity P-wave (km/s) = 5.53464 7.43775 6.55562
#
# Compressibility (1/GPa) = 0.02870817
#
# Stress axis : x y z
#
# Youngs Moduli (GPa) = 27.15599 139.54879 109.68153
#
# Poissons Ratio (x) = 0.09683 1.09400
# Poissons Ratio (y) = 0.01884 0.16798
# Poissons Ratio (z) = 0.27086 0.21373
#
# Static dielectric constant tensor:
#      x y z
#    x 2.285220 -0.030040 -0.214230 
#    y -0.030040 2.005000 -0.021430 
#    z -0.214230 -0.021430 2.072560 
# 
# From -- ./inp_files/280155.got.cif
#   From: 2010.05.17/outbox.cif.g08.bks.cpg/sg2_141_cif.got.tgz:280155.got - 2010.06.03 11:33:40.
