data_PCOD9026325
_publ_section_title
;
Structure prediction by ZEFSAII (Michael W. Deem and Ramdas Pophale) SiO2 
 PCOD9026325
Probable space group: P -1
;
_chemical_formula_sum "Si O2"
_cell_formula_units_Z 14
_cell_length_a 9.097302
_cell_length_b 8.752276
_cell_length_c 12.223257
_cell_angle_alpha 44.631514
_cell_angle_beta 69.981285
_cell_angle_gamma 85.404089
_cell_volume 622.418884
_symmetry_space_group_name_H-M "P -1"
_symmetry_group_IT_number 2
_symmetry_cell_setting 'triclinic'
loop_
_space_group_symop_operation_xyz
x,y,z
-x,-y,-z
loop_
_atom_site_type_symbol
_atom_site_label
_atom_site_fract_x
_atom_site_fract_y
_atom_site_fract_z
Si Si1 0.447959 0.820578 0.700523
Si Si2 0.868027 0.558761 0.082049
Si Si3 0.371147 0.595346 0.411415
Si Si4 0.875383 0.009888 0.929336
Si Si5 0.691603 0.560201 0.734905
Si Si6 0.028490 0.497900 0.666483
Si Si7 0.415644 0.939815 0.886664
O O1 0.304869 0.609346 0.808847
O O2 0.606853 0.731504 0.729368
O O3 0.388436 0.923513 0.771658
O O4 0.500000 0.000000 0.500000
O O5 0.923561 0.535753 0.203578
O O6 0.000000 0.500000 0.000000
O O7 0.868598 0.820083 0.938619
O O8 0.500000 0.500000 0.500000
O O9 0.360138 0.467169 0.364527
O O10 0.198477 0.561934 0.529971
O O11 0.424404 0.863870 0.239231
O O12 0.930711 0.267639 0.749356
O O13 0.708443 0.963670 0.059510
O O14 0.000000 0.000000 0.000000
O O15 0.886594 0.627644 0.648484
O O16 0.617998 0.316493 0.933564
#
# Coordination Sequence:
#
# PCOD9026325 Si02
#       7
#     2   2   2   2   2   2   2
#     4  12  25  43  66  96 131 173 218 270 328 387
#     4  11  22  39  64  96 131 171 214 261 323 393
#     4  12  23  41  68  98 130 169 217 270 324 388
#     4   9  18  36  61  89 126 169 210 259 315 383
#     4  11  24  43  65  92 130 174 216 271 329 387
#     4  10  22  41  63  96 130 167 216 270 321 380
#     4  11  23  41  64  95 130 171 219 265 319 388
#
# _framework density 22.492891
#
# number of rings (size 3 to 8) (size 9 to 14) (size 15 to 20)
#    0.000    1.143    0.000    9.000    0.000    2.286 
#    0.000    4.286    0.000    0.000    0.000    0.000 
#    0.000    0.000    0.000    0.000    0.000    0.000 
#
# Total GULP energy -78224.638527 kJ/mol
# GULP energy per Si atom -5587.474181 kJ/mol
# Density = 2.244170 g / cm^3
# Si number density = 22.492891 Si / 1000 Ang^3
#
#
#
# Elastic Constant Matrix: (Units=GPa)
#
#
# Indices 1 2 3 4 5 6 
#
# 1 83.0497 12.3708 37.6445 4.3442 -27.1223 -7.9079
# 2 12.3708 102.5868 28.6800 11.9914 -29.3925 -15.7686
# 3 37.6445 28.6800 117.0697 26.1382 -36.7976 -17.6337
# 4 4.3442 11.9914 26.1382 25.5182 5.3378 4.0400
# 5 -27.1223 -29.3925 -36.7976 5.3378 47.1528 4.0592
# 6 -7.9079 -15.7686 -17.6337 4.0400 4.0592 34.6221
#
#
#
# Elastic Compliance Matrix: (Units=1/GPa)
#
#
# Indices 1 2 3 4 5 6 
#
# 1 0.016190 0.002911 0.000042 -0.007311 0.011597 0.004539
# 2 0.002911 0.018219 0.009286 -0.025387 0.021939 0.014082
# 3 0.000042 0.009286 0.029255 -0.044262 0.031883 0.020566
# 4 -0.007311 -0.025387 -0.044262 0.117795 -0.064293 -0.041983
# 5 0.011597 0.021939 0.031883 -0.064293 0.071301 0.028022
# 6 0.004539 0.014082 0.020566 -0.041983 0.028022 0.048422
#
#
# Mechanical properties :
#
#
# Convention : Reuss Voigt Hill
#
# Bulk Modulus (GPa) = 11.34533 51.12187 31.23360
# Shear Modulus (GPa) = 16.33531 36.39268 26.36400
#
# Velocity S-wave (km/s) = 2.69781 4.02676 3.42731
# Velocity P-wave (km/s) = 3.84177 6.66311 5.43858
#
# Compressibility (1/GPa) = 0.08814198
#
# Stress axis : x y z
#
# Youngs Moduli (GPa) = 61.76564 54.88860 34.18183
#
# Poissons Ratio (x) = -0.15977 -0.00144
# Poissons Ratio (y) = -0.17979 -0.31742
# Poissons Ratio (z) = -0.00259 -0.50970
#
# Static dielectric constant tensor:
#      x y z
#    x 1.851440 -0.025610 0.041860 
#    y -0.025610 1.853160 -0.045280 
#    z 0.041860 -0.045280 1.844370 
# 
# From -- ./inp_files/158603.got.cif
#   From: 2010.05.17/outbox.cif.g08.bks.cpg/sg2_80_cif.got.tgz:158603.got - 2010.06.03 11:33:40.
