data_PCOD9026537
_publ_section_title
;
Structure prediction by ZEFSAII (Michael W. Deem and Ramdas Pophale) SiO2 
 PCOD9026537
Probable space group: P -1
;
_chemical_formula_sum "Si O2"
_cell_formula_units_Z 14
_cell_length_a 13.888015
_cell_length_b 5.254729
_cell_length_c 9.070351
_cell_angle_alpha 104.062596
_cell_angle_beta 95.309226
_cell_angle_gamma 107.232754
_cell_volume 603.526090
_symmetry_space_group_name_H-M "P -1"
_symmetry_group_IT_number 2
_symmetry_cell_setting 'triclinic'
loop_
_space_group_symop_operation_xyz
x,y,z
-x,-y,-z
loop_
_atom_site_type_symbol
_atom_site_label
_atom_site_fract_x
_atom_site_fract_y
_atom_site_fract_z
Si Si1 0.709603 0.694422 0.845575
Si Si2 0.392022 0.359948 0.881646
Si Si3 0.805157 0.527927 0.206979
Si Si4 0.935065 0.703127 0.520204
Si Si5 0.493226 0.702205 0.393956
Si Si6 0.167583 0.712950 0.109152
Si Si7 0.000115 0.938855 0.163072
O O1 0.613746 0.469711 0.723060
O O2 0.785814 0.522067 0.868327
O O3 0.756431 0.977715 0.802070
O O4 0.672863 0.794673 0.008690
O O5 0.314838 0.522513 0.840723
O O6 0.421977 0.245479 0.717662
O O7 0.500000 0.500000 0.000000
O O8 0.835403 0.553119 0.386599
O O9 0.885641 0.818577 0.195174
O O10 0.837578 0.320296 0.074690
O O11 0.000000 0.500000 0.500000
O O12 0.931140 0.795250 0.699424
O O13 0.000000 0.000000 0.500000
O O14 0.500000 0.500000 0.500000
O O15 0.500000 0.000000 0.500000
O O16 0.059386 0.713340 0.156480
O O17 0.000000 0.000000 0.000000
#
# Coordination Sequence:
#
# PCOD9026537 Si02
#       7
#     2   2   2   2   2   2   2
#     4  10  23  42  65  94 131 173 218 264 328 396
#     4   9  21  43  68  94 128 173 220 269 327 396
#     4  10  22  41  64  95 132 177 221 270 330 392
#     4  10  23  40  59  88 127 167 212 264 320 383
#     4  11  24  43  67  98 130 165 216 278 333 387
#     4  11  22  39  65  96 127 170 219 270 319 387
#     4  11  22  40  66  97 133 175 222 271 322 391
#
# _framework density 23.197009999999999
#
# number of rings (size 3 to 8) (size 9 to 14) (size 15 to 20)
#    0.000    1.714    0.000    3.857    0.000   10.286 
#    0.000   10.000    0.000    0.000    0.000    0.000 
#    0.000    0.000    0.000    0.000    0.000    0.000 
#
# Total GULP energy -78037.409857 kJ/mol
# GULP energy per Si atom -5574.100704 kJ/mol
# Density = 2.314421 g / cm^3
# Si number density = 23.197010 Si / 1000 Ang^3
#
#
#
# Elastic Constant Matrix: (Units=GPa)
#
#
# Indices 1 2 3 4 5 6 
#
# 1 137.4404 33.8808 55.2253 5.4374 -2.9410 -9.2092
# 2 33.8808 102.9451 32.4221 6.0357 -8.6495 -2.8096
# 3 55.2253 32.4221 169.0677 10.9372 -2.2486 -14.3572
# 4 5.4374 6.0357 10.9372 39.4701 -2.7227 -0.0131
# 5 -2.9410 -8.6495 -2.2486 -2.7227 48.4559 4.7614
# 6 -9.2092 -2.8096 -14.3572 -0.0131 4.7614 27.7864
#
#
#
# Elastic Compliance Matrix: (Units=1/GPa)
#
#
# Indices 1 2 3 4 5 6 
#
# 1 0.008850 -0.002130 -0.002338 -0.000253 -0.000116 0.001530
# 2 -0.002130 0.011039 -0.001392 -0.000886 0.001787 -0.000616
# 3 -0.002338 -0.001392 0.007286 -0.001512 -0.000424 0.002921
# 4 -0.000253 -0.000886 -0.001512 0.026017 0.001333 -0.001171
# 5 -0.000116 0.001787 -0.000424 0.001333 0.021372 -0.003739
# 6 0.001530 -0.000616 0.002921 -0.001171 -0.003739 0.038583
#
#
# Mechanical properties :
#
#
# Convention : Reuss Voigt Hill
#
# Bulk Modulus (GPa) = 64.70468 72.50107 68.60287
# Shear Modulus (GPa) = 38.45644 42.33748 40.39696
#
# Velocity S-wave (km/s) = 4.07605 4.27678 4.17762
# Velocity P-wave (km/s) = 7.07858 7.46393 7.27381
#
# Compressibility (1/GPa) = 0.01545483
#
# Stress axis : x y z
#
# Youngs Moduli (GPa) = 112.99126 90.59077 137.25587
#
# Poissons Ratio (x) = 0.19293 0.32087
# Poissons Ratio (y) = 0.24063 0.19112
# Poissons Ratio (z) = 0.26415 0.12614
#
# Static dielectric constant tensor:
#      x y z
#    x 1.909500 0.037400 0.003510 
#    y 0.037400 1.887150 -0.025210 
#    z 0.003510 -0.025210 1.952930 
# 
# From -- ./inp_files/288143.got.cif
#   From: 2010.05.17/outbox.cif.g08.bks.cpg/sg2_145_cif.got.tgz:288143.got - 2010.06.03 11:33:40.
