data_PCOD9026290
_publ_section_title
;
Structure prediction by ZEFSAII (Michael W. Deem and Ramdas Pophale) SiO2 
 PCOD9026290
Probable space group: P -1
;
_chemical_formula_sum "Si O2"
_cell_formula_units_Z 14
_cell_length_a 8.995284
_cell_length_b 16.545744
_cell_length_c 15.493884
_cell_angle_alpha 151.572577
_cell_angle_beta 110.262983
_cell_angle_gamma 51.241741
_cell_volume 714.851422
_symmetry_space_group_name_H-M "P -1"
_symmetry_group_IT_number 2
_symmetry_cell_setting 'triclinic'
loop_
_space_group_symop_operation_xyz
x,y,z
-x,-y,-z
loop_
_atom_site_type_symbol
_atom_site_label
_atom_site_fract_x
_atom_site_fract_y
_atom_site_fract_z
Si Si1 0.331630 0.187507 0.566192
Si Si2 0.799581 0.952418 0.750380
Si Si3 0.411036 0.820223 0.532320
Si Si4 0.417274 0.438085 0.185854
Si Si5 0.661367 0.521162 0.590726
Si Si6 0.097766 0.389975 0.011229
Si Si7 0.273484 0.285499 0.360431
O O1 0.460882 0.229092 0.575706
O O2 0.101886 0.434646 0.794535
O O3 0.500000 0.000000 0.500000
O O4 0.271358 0.085274 0.388805
O O5 0.697219 0.916478 0.774844
O O6 0.672788 0.227175 0.999920
O O7 0.073055 0.740590 0.610337
O O8 0.318570 0.701887 0.400044
O O9 0.600663 0.685541 0.519977
O O10 0.223037 0.111968 0.782549
O O11 0.399911 0.414117 0.261192
O O12 0.275591 0.403430 0.076504
O O13 0.500000 0.500000 0.500000
O O14 0.638704 0.714967 0.714615
O O15 0.000000 0.500000 0.000000
O O16 0.000000 0.500000 0.500000
#
# Coordination Sequence:
#
# PCOD9026290 Si02
#       7
#     2   2   2   2   2   2   2
#     4  11  21  44  69  92 130 171 215 276 334 390
#     4  10  22  41  63  93 134 175 217 269 330 389
#     4  11  24  43  65 100 133 169 228 266 331 397
#     4  12  24  42  68  99 135 173 220 279 321 398
#     4  11  22  39  63  96 137 173 226 266 325 391
#     4  12  24  46  72  94 130 176 219 277 337 394
#     4   9  19  40  61  89 134 173 215 263 316 389
#
# _framework density 19.584489000000001
#
# number of rings (size 3 to 8) (size 9 to 14) (size 15 to 20)
#    0.000    1.143    7.143    0.000    0.000    2.857 
#    0.000    1.429    0.000    0.000    0.000    0.000 
#    0.000    0.000    0.000    0.000    0.000    0.000 
#
# Total GULP energy -78082.526659 kJ/mol
# GULP energy per Si atom -5577.323333 kJ/mol
# Density = 1.953991 g / cm^3
# Si number density = 19.584489 Si / 1000 Ang^3
#
#
#
# Elastic Constant Matrix: (Units=GPa)
#
#
# Indices 1 2 3 4 5 6 
#
# 1 79.8144 49.8528 59.0233 -5.2092 -9.9279 3.4158
# 2 49.8528 134.8325 47.9659 1.3921 2.2246 2.2472
# 3 59.0233 47.9659 146.8293 -1.3856 -6.2852 -0.4525
# 4 -5.2092 1.3921 -1.3856 19.8410 2.1764 -7.1998
# 5 -9.9279 2.2246 -6.2852 2.1764 36.0777 -4.9681
# 6 3.4158 2.2472 -0.4525 -7.1998 -4.9681 35.6272
#
#
#
# Elastic Compliance Matrix: (Units=1/GPa)
#
#
# Indices 1 2 3 4 5 6 
#
# 1 0.022160 -0.005942 -0.006705 0.005188 0.004970 -0.000094
# 2 -0.005942 0.010058 -0.001026 -0.002399 -0.002413 -0.000899
# 3 -0.006705 -0.001026 0.009839 -0.000759 0.000073 0.000689
# 4 0.005188 -0.002399 -0.000759 0.055872 -0.000430 0.010875
# 5 0.004970 -0.002413 0.000073 -0.000430 0.029789 0.003744
# 6 -0.000094 -0.000899 0.000689 0.010875 0.003744 0.030863
#
#
# Mechanical properties :
#
#
# Convention : Reuss Voigt Hill
#
# Bulk Modulus (GPa) = 67.97717 75.01780 71.49748
# Shear Modulus (GPa) = 26.20124 31.95146 29.07635
#
# Velocity S-wave (km/s) = 3.66164 4.04353 3.85731
# Velocity P-wave (km/s) = 7.25685 7.75809 7.51165
#
# Compressibility (1/GPa) = 0.01471082
#
# Stress axis : x y z
#
# Youngs Moduli (GPa) = 45.12619 99.42216 101.63277
#
# Poissons Ratio (x) = 0.59077 0.68150
# Poissons Ratio (y) = 0.26814 0.10426
# Poissons Ratio (z) = 0.30259 0.10199
#
# Static dielectric constant tensor:
#      x y z
#    x 1.656890 0.009760 -0.003020 
#    y 0.009760 1.712420 0.036880 
#    z -0.003020 0.036880 1.706020 
# 
# From -- ./inp_files/504683.got.cif
#   From: 2010.05.17/outbox.cif.g08.bks.cpg/sg2_253_cif.got.tgz:504683.got - 2010.06.03 11:33:40.
