data_PCOD9026998
_publ_section_title
;
Structure prediction by ZEFSAII (Michael W. Deem and Ramdas Pophale) SiO2 
 PCOD9026998
Probable space group: P -1
;
_chemical_formula_sum "Si O2"
_cell_formula_units_Z 16
_cell_length_a 10.283618
_cell_length_b 11.471322
_cell_length_c 12.346279
_cell_angle_alpha 112.446112
_cell_angle_beta 117.994826
_cell_angle_gamma 35.905153
_cell_volume 754.182771
_symmetry_space_group_name_H-M "P -1"
_symmetry_group_IT_number 2
_symmetry_cell_setting 'triclinic'
loop_
_space_group_symop_operation_xyz
x,y,z
-x,-y,-z
loop_
_atom_site_type_symbol
_atom_site_label
_atom_site_fract_x
_atom_site_fract_y
_atom_site_fract_z
Si Si1 0.386679 0.095020 0.156690
Si Si2 0.859952 0.200222 0.580327
Si Si3 0.339141 0.469843 0.530889
Si Si4 0.457343 0.230727 0.039387
Si Si5 0.890830 0.296122 0.266419
Si Si6 0.335029 0.175962 0.410811
Si Si7 0.013231 0.049044 0.819781
Si Si8 0.141827 0.656734 0.973025
O O1 0.401129 0.207655 0.125828
O O2 0.438326 0.089394 0.299484
O O3 0.124490 0.215326 0.091178
O O4 0.546217 0.882189 0.088315
O O5 0.598512 0.324011 0.539816
O O6 0.837392 0.343073 0.553416
O O7 0.000000 0.000000 0.500000
O O8 0.966966 0.146530 0.721810
O O9 0.296828 0.562988 0.663230
O O10 0.306461 0.342667 0.480638
O O11 0.717799 0.110738 0.102777
O O12 0.288673 0.452988 0.017225
O O13 0.023964 0.074946 0.251125
O O14 0.783796 0.372574 0.131973
O O15 0.083928 0.275958 0.349040
O O16 0.500000 0.000000 0.500000
O O17 0.863004 0.212414 0.912884
#
# Coordination Sequence:
#
# PCOD9026998 Si02
#       8
#     2   2   2   2   2   2   2   2
#     4   9  22  42  60  96 130 166 219 273 319 390
#     4  11  25  46  69  99 135 170 219 283 326 391
#     4  11  26  44  70  98 131 179 222 264 340 393
#     4  10  22  41  66  94 126 172 221 268 331 378
#     4  11  24  46  62  98 139 169 226 270 324 397
#     4  11  25  42  69  95 137 178 219 270 333 391
#     4  11  24  41  67  97 132 170 218 273 329 389
#     4  10  23  41  67  93 129 175 215 273 325 390
#
# _framework density 21.215015999999999
#
# number of rings (size 3 to 8) (size 9 to 14) (size 15 to 20)
#    0.000    1.500    1.250    1.875    7.000    0.500 
#    6.750    0.000    0.000    0.000    0.000    0.000 
#    0.000    0.000    0.000    0.000    0.000    0.000 
#
# Total GULP energy -89529.255390 kJ/mol
# GULP energy per Si atom -5595.578462 kJ/mol
# Density = 2.116673 g / cm^3
# Si number density = 21.215016 Si / 1000 Ang^3
#
#
#
# Elastic Constant Matrix: (Units=GPa)
#
#
# Indices 1 2 3 4 5 6 
#
# 1 62.1820 44.1113 29.3290 11.0892 -16.4258 25.5008
# 2 44.1113 129.2317 69.2696 14.5234 -8.9041 31.7800
# 3 29.3290 69.2696 124.7932 5.3586 -22.6884 17.1687
# 4 11.0892 14.5234 5.3586 19.8685 4.2518 -0.2244
# 5 -16.4258 -8.9041 -22.6884 4.2518 29.1788 2.4042
# 6 25.5008 31.7800 17.1687 -0.2244 2.4042 36.8120
#
#
#
# Elastic Compliance Matrix: (Units=1/GPa)
#
#
# Indices 1 2 3 4 5 6 
#
# 1 0.044132 -0.003244 0.003160 -0.030611 0.033376 -0.031611
# 2 -0.003244 0.014858 -0.006174 -0.007390 -0.000380 -0.007720
# 3 0.003160 -0.006174 0.013385 -0.003279 0.011098 -0.003846
# 4 -0.030611 -0.007390 -0.003279 0.081898 -0.036608 0.032005
# 5 0.033376 -0.000380 0.011098 -0.036608 0.069605 -0.032737
# 6 -0.031611 -0.007720 -0.003846 0.032005 -0.032737 0.059855
#
#
# Mechanical properties :
#
#
# Convention : Reuss Voigt Hill
#
# Bulk Modulus (GPa) = 16.70617 66.84741 41.77679
# Shear Modulus (GPa) = 15.81269 28.73833 22.27551
#
# Velocity S-wave (km/s) = 2.73308 3.68451 3.24387
# Velocity P-wave (km/s) = 4.22509 7.04831 5.81077
#
# Compressibility (1/GPa) = 0.05985814
#
# Stress axis : x y z
#
# Youngs Moduli (GPa) = 22.65938 67.30470 74.70834
#
# Poissons Ratio (x) = 0.21836 -0.23610
# Poissons Ratio (y) = 0.07351 0.46128
# Poissons Ratio (z) = -0.07161 0.41557
#
# Static dielectric constant tensor:
#      x y z
#    x 1.770520 -0.004700 -0.004710 
#    y -0.004700 1.730530 0.002200 
#    z -0.004710 0.002200 1.766860 
# 
# From -- ./inp_files/427228.got.cif
#   From: 2010.05.17/outbox.cif.g08.bks.cpg/sg2_214_cif.got.tgz:427228.got - 2010.06.03 11:33:40.
