data_PCOD9026606
_publ_section_title
;
Structure prediction by ZEFSAII (Michael W. Deem and Ramdas Pophale) SiO2 
 PCOD9026606
Probable space group: P -1
;
_chemical_formula_sum "Si O2"
_cell_formula_units_Z 16
_cell_length_a 15.122582
_cell_length_b 7.413288
_cell_length_c 8.396387
_cell_angle_alpha 79.418959
_cell_angle_beta 47.141857
_cell_angle_gamma 83.936763
_cell_volume 678.036936
_symmetry_space_group_name_H-M "P -1"
_symmetry_group_IT_number 2
_symmetry_cell_setting 'triclinic'
loop_
_space_group_symop_operation_xyz
x,y,z
-x,-y,-z
loop_
_atom_site_type_symbol
_atom_site_label
_atom_site_fract_x
_atom_site_fract_y
_atom_site_fract_z
Si Si1 0.804499 0.526963 0.731685
Si Si2 0.730583 0.925588 0.465580
Si Si3 0.324452 0.401281 0.830721
Si Si4 0.428333 0.729757 0.483440
Si Si5 0.095756 0.289800 0.941866
Si Si6 0.044679 0.957150 0.630571
Si Si7 0.612434 0.520614 0.739294
Si Si8 0.976440 0.313501 0.767243
O O1 0.724769 0.433894 0.708480
O O2 0.862963 0.392514 0.807038
O O3 0.911391 0.634856 0.494543
O O4 0.719225 0.644439 0.930138
O O5 0.828471 0.864692 0.223937
O O6 0.816168 0.004435 0.493854
O O7 0.655535 0.734972 0.627402
O O8 0.643001 0.085377 0.488521
O O9 0.381467 0.606705 0.709368
O O10 0.426575 0.258763 0.679382
O O11 0.208979 0.399707 0.858751
O O12 0.409620 0.593490 0.375864
O O13 0.013527 0.368122 0.889435
O O14 0.009146 0.233285 0.205062
O O15 0.968266 0.096785 0.806993
O O16 0.000000 0.000000 0.500000
O O17 0.500000 0.500000 0.000000
#
# Coordination Sequence:
#
# PCOD9026606 Si02
#       8
#     2   2   2   2   2   2   2   2
#     4  11  22  40  69  96 141 177 232 290 345 418
#     4  11  25  48  71 100 143 185 239 290 350 425
#     4  11  24  45  67 103 140 182 243 287 343 429
#     4  11  26  46  71 101 139 191 236 287 356 411
#     4  11  23  44  72  98 146 185 226 294 352 416
#     4  11  24  42  67 104 142 181 237 290 348 425
#     4  12  24  49  71  99 144 186 232 301 346 412
#     4  10  22  41  64  99 135 185 227 283 360 411
#
# _framework density 23.597535000000001
#
# number of rings (size 3 to 8) (size 9 to 14) (size 15 to 20)
#    0.000    1.000    5.000    2.250    5.250    1.500 
#    2.250    0.000    0.000    0.000    0.000    0.000 
#    0.000    0.000    0.000    0.000    0.000    0.000 
#
# Total GULP energy -89346.458293 kJ/mol
# GULP energy per Si atom -5584.153643 kJ/mol
# Density = 2.354383 g / cm^3
# Si number density = 23.597535 Si / 1000 Ang^3
#
#
#
# Elastic Constant Matrix: (Units=GPa)
#
#
# Indices 1 2 3 4 5 6 
#
# 1 131.7812 32.5543 17.7289 -8.6431 -3.7128 -22.0265
# 2 32.5543 80.1982 13.9344 -8.8185 -1.0479 -18.8569
# 3 17.7289 13.9344 128.2239 -15.7348 4.4699 1.1868
# 4 -8.6431 -8.8185 -15.7348 22.9025 -0.6533 3.9565
# 5 -3.7128 -1.0479 4.4699 -0.6533 38.1429 2.1761
# 6 -22.0265 -18.8569 1.1868 3.9565 2.1761 43.0695
#
#
#
# Elastic Compliance Matrix: (Units=1/GPa)
#
#
# Indices 1 2 3 4 5 6 
#
# 1 0.009003 -0.002568 -0.000869 0.001254 0.000738 0.003351
# 2 -0.002568 0.015239 -0.000935 0.003382 0.000047 0.005071
# 3 -0.000869 -0.000935 0.008751 0.005567 -0.000952 -0.001558
# 4 0.001254 0.003382 0.005567 0.049734 0.000564 -0.002629
# 5 0.000738 0.000047 -0.000952 0.000564 0.026467 -0.000965
# 6 0.003351 0.005071 -0.001558 -0.002629 -0.000965 0.027486
#
#
# Mechanical properties :
#
#
# Convention : Reuss Voigt Hill
#
# Bulk Modulus (GPa) = 41.23619 52.07094 46.65356
# Shear Modulus (GPa) = 32.57238 39.22201 35.89720
#
# Velocity S-wave (km/s) = 3.71931 4.08134 3.90452
# Velocity P-wave (km/s) = 5.99642 6.65762 6.33565
#
# Compressibility (1/GPa) = 0.02425055
#
# Stress axis : x y z
#
# Youngs Moduli (GPa) = 111.07721 65.62206 114.26991
#
# Poissons Ratio (x) = 0.16852 0.09925
# Poissons Ratio (y) = 0.28525 0.10679
# Poissons Ratio (z) = 0.09648 0.06133
#
# Static dielectric constant tensor:
#      x y z
#    x 1.931590 0.022320 -0.001540 
#    y 0.022320 2.004430 0.009510 
#    z -0.001540 0.009510 1.929370 
# 
# From -- ./inp_files/297783.got.cif
#   From: 2010.05.17/outbox.cif.g08.bks.cpg/sg2_149_cif.got.tgz:297783.got - 2010.06.03 11:33:40.
