data_PCOD9026066
_publ_section_title
;
Structure prediction by ZEFSAII (Michael W. Deem and Ramdas Pophale) SiO2 
 PCOD9026066
Probable space group: P -1
;
_chemical_formula_sum "Si O2"
_cell_formula_units_Z 16
_cell_length_a 8.720977
_cell_length_b 6.518260
_cell_length_c 20.484570
_cell_angle_alpha 138.734087
_cell_angle_beta 116.989460
_cell_angle_gamma 71.915741
_cell_volume 683.443237
_symmetry_space_group_name_H-M "P -1"
_symmetry_group_IT_number 2
_symmetry_cell_setting 'triclinic'
loop_
_space_group_symop_operation_xyz
x,y,z
-x,-y,-z
loop_
_atom_site_type_symbol
_atom_site_label
_atom_site_fract_x
_atom_site_fract_y
_atom_site_fract_z
Si Si1 0.630804 0.191172 0.614904
Si Si2 0.748684 0.155688 0.763483
Si Si3 0.459048 0.833285 0.711769
Si Si4 0.136874 0.680975 0.522058
Si Si5 0.019575 0.620615 0.861912
Si Si6 0.331099 0.277691 0.903421
Si Si7 0.949701 0.849761 0.087350
Si Si8 0.021359 0.673030 0.356021
O O1 0.659323 0.023851 0.649232
O O2 0.565942 0.543860 0.688907
O O3 0.806441 0.179059 0.607152
O O4 0.500000 0.000000 0.500000
O O5 0.844756 0.465575 0.822864
O O6 0.911119 0.028259 0.802373
O O7 0.593351 0.100622 0.771805
O O8 0.321818 0.696031 0.598287
O O9 0.364040 0.000188 0.792792
O O10 0.085470 0.546581 0.407951
O O11 0.000000 0.500000 0.500000
O O12 0.105853 0.048334 0.593007
O O13 0.181024 0.486105 0.896641
O O14 0.046110 0.523688 0.766741
O O15 0.020165 0.982666 0.934984
O O16 0.243314 0.146187 0.921548
O O17 0.500000 0.500000 0.000000
O O18 0.000000 0.500000 0.000000
#
# Coordination Sequence:
#
# PCOD9026066 Si02
#       8
#     2   2   2   2   2   2   2   2
#     4  11  24  41  66  99 141 187 237 283 346 414
#     4  10  23  42  69  97 138 179 235 289 345 416
#     4  12  25  43  67 108 141 187 235 297 353 417
#     4  11  24  39  67  96 143 185 229 281 352 410
#     4  10  23  44  71  98 135 186 235 289 353 419
#     4  11  26  45  70 104 144 179 235 294 359 421
#     4  11  25  46  74 101 135 183 236 290 358 426
#     4  10  22  41  61  96 133 181 232 276 335 414
#
# _framework density 23.410869000000002
#
# number of rings (size 3 to 8) (size 9 to 14) (size 15 to 20)
#    0.000    1.250    1.250    3.750    1.750   10.500 
#    0.000    0.000    0.000    0.000    0.000    0.000 
#    0.000    0.000    0.000    0.000    0.000    0.000 
#
# Total GULP energy -89236.185019 kJ/mol
# GULP energy per Si atom -5577.261564 kJ/mol
# Density = 2.335758 g / cm^3
# Si number density = 23.410869 Si / 1000 Ang^3
#
#
#
# Elastic Constant Matrix: (Units=GPa)
#
#
# Indices 1 2 3 4 5 6 
#
# 1 100.6875 31.5965 24.7716 0.4779 10.5235 20.0834
# 2 31.5965 121.0109 31.7799 -10.7875 -1.4243 10.6337
# 3 24.7716 31.7799 87.8163 -13.3284 6.0735 -3.0908
# 4 0.4779 -10.7875 -13.3284 43.7340 -2.8371 1.9127
# 5 10.5235 -1.4243 6.0735 -2.8371 45.7048 -8.6409
# 6 20.0834 10.6337 -3.0908 1.9127 -8.6409 47.1317
#
#
#
# Elastic Compliance Matrix: (Units=1/GPa)
#
#
# Indices 1 2 3 4 5 6 
#
# 1 0.012965 -0.002267 -0.003021 -0.001616 -0.003861 -0.005854
# 2 -0.002267 0.009871 -0.002789 0.001736 0.001058 -0.001320
# 3 -0.003021 -0.002789 0.013898 0.003433 -0.000535 0.002591
# 4 -0.001616 0.001736 0.003433 0.024461 0.001450 -0.000205
# 5 -0.003861 0.001058 -0.000535 0.001450 0.024044 0.005721
# 6 -0.005854 -0.001320 0.002591 -0.000205 0.005721 0.025236
#
#
# Mechanical properties :
#
#
# Convention : Reuss Voigt Hill
#
# Bulk Modulus (GPa) = 48.58996 53.97896 51.28446
# Shear Modulus (GPa) = 37.45588 42.07189 39.76388
#
# Velocity S-wave (km/s) = 4.00426 4.24383 4.12578
# Velocity P-wave (km/s) = 6.49455 6.86446 6.68206
#
# Compressibility (1/GPa) = 0.02058039
#
# Stress axis : x y z
#
# Youngs Moduli (GPa) = 77.12939 101.30322 71.95205
#
# Poissons Ratio (x) = 0.22965 0.21738
# Poissons Ratio (y) = 0.17485 0.20068
# Poissons Ratio (z) = 0.23302 0.28254
#
# Static dielectric constant tensor:
#      x y z
#    x 1.865190 0.016450 -0.052380 
#    y 0.016450 1.945360 0.011580 
#    z -0.052380 0.011580 2.091510 
# 
# From -- ./inp_files/585957.got.cif
#   From: 2010.05.17/outbox.cif.g08.bks.cpg/sg2_293_cif.got.tgz:585957.got - 2010.06.03 11:33:40.
