data_PCOD9026241
_publ_section_title
;
Structure prediction by ZEFSAII (Michael W. Deem and Ramdas Pophale) SiO2 
 PCOD9026241
Probable space group: P -1
;
_chemical_formula_sum "Si O2"
_cell_formula_units_Z 16
_cell_length_a 12.110799
_cell_length_b 14.615835
_cell_length_c 11.448778
_cell_angle_alpha 86.341070
_cell_angle_beta 140.117090
_cell_angle_gamma 61.354487
_cell_volume 731.595076
_symmetry_space_group_name_H-M "P -1"
_symmetry_group_IT_number 2
_symmetry_cell_setting 'triclinic'
loop_
_space_group_symop_operation_xyz
x,y,z
-x,-y,-z
loop_
_atom_site_type_symbol
_atom_site_label
_atom_site_fract_x
_atom_site_fract_y
_atom_site_fract_z
Si Si1 0.349441 0.455374 0.718717
Si Si2 0.142922 0.221640 0.811804
Si Si3 0.724893 0.190945 0.679973
Si Si4 0.217747 0.845018 0.021216
Si Si5 0.130163 0.675443 0.174601
Si Si6 0.175286 0.497947 0.065598
Si Si7 0.510452 0.120279 0.909986
Si Si8 0.040065 0.551586 0.682126
O O1 0.672532 0.299788 0.930218
O O2 0.127647 0.470890 0.486314
O O3 0.178121 0.622964 0.528890
O O4 0.325113 0.447362 0.836705
O O5 0.387278 0.172887 0.938486
O O6 0.053851 0.283678 0.867204
O O7 0.286022 0.057920 0.933854
O O8 0.587876 0.227387 0.693761
O O9 0.930330 0.189154 0.884431
O O10 0.517295 0.324915 0.400250
O O11 0.893983 0.026990 0.783750
O O12 0.303140 0.874384 0.981596
O O13 0.500000 0.500000 0.500000
O O14 0.058607 0.647030 0.006169
O O15 0.000000 0.500000 0.000000
O O16 0.131793 0.509691 0.892974
O O17 0.208019 0.261906 0.571920
#
# Coordination Sequence:
#
# PCOD9026241 Si02
#       8
#     2   2   2   2   2   2   2   2
#     4   9  17  31  57  79 107 148 190 236 273 349
#     4  10  17  31  55  89 110 144 194 239 290 330
#     4  10  21  35  59  84 117 156 192 237 286 358
#     4  10  18  35  58  84 110 154 205 231 283 343
#     4  10  20  35  57  86 115 152 191 233 288 352
#     4  11  21  35  58  86 119 151 189 244 295 345
#     4   9  18  31  57  85 114 144 193 250 278 337
#     4   9  18  33  52  82 110 144 190 232 288 332
#
# _framework density 21.870021999999999
#
# number of rings (size 3 to 8) (size 9 to 14) (size 15 to 20)
#    0.000    2.250    1.250    4.500    0.000    0.000 
#    0.000    1.250    5.500   18.750    0.000    0.000 
#    0.000    0.000    0.000    0.000    0.000    0.000 
#
# Total GULP energy -89069.449479 kJ/mol
# GULP energy per Si atom -5566.840592 kJ/mol
# Density = 2.182024 g / cm^3
# Si number density = 21.870022 Si / 1000 Ang^3
#
#
#
# Elastic Constant Matrix: (Units=GPa)
#
#
# Indices 1 2 3 4 5 6 
#
# 1 86.8335 48.3237 24.1243 1.9799 -26.0857 -21.5188
# 2 48.3237 110.4350 55.3560 -13.9694 -18.3246 -31.0820
# 3 24.1243 55.3560 65.9071 -5.0396 -32.8036 -4.6048
# 4 1.9799 -13.9694 -5.0396 43.3422 -3.6151 -8.2211
# 5 -26.0857 -18.3246 -32.8036 -3.6151 27.7672 0.8310
# 6 -21.5188 -31.0820 -4.6048 -8.2211 0.8310 42.9918
#
#
#
# Elastic Compliance Matrix: (Units=1/GPa)
#
#
# Indices 1 2 3 4 5 6 
#
# 1 0.030578 -0.019349 0.032599 0.001472 0.054541 0.004036
# 2 -0.019349 0.038843 -0.048701 0.006515 -0.049690 0.015388
# 3 0.032599 -0.048701 0.105312 0.003606 0.123647 -0.009313
# 4 0.001472 0.006515 0.003606 0.028737 0.013353 0.011070
# 5 0.054541 -0.049690 0.123647 0.013353 0.202175 0.003264
# 6 0.004036 0.015388 -0.009313 0.011070 0.003264 0.037462
#
#
# Mechanical properties :
#
#
# Convention : Reuss Voigt Hill
#
# Bulk Modulus (GPa) = 9.63086 57.64263 33.63675
# Shear Modulus (GPa) = 9.11380 31.84501 20.47941
#
# Velocity S-wave (km/s) = 2.04360 3.82003 3.06341
# Velocity P-wave (km/s) = 3.15937 6.77281 5.28454
#
# Compressibility (1/GPa) = 0.10383285
#
# Stress axis : x y z
#
# Youngs Moduli (GPa) = 32.70275 25.74469 9.49560
#
# Poissons Ratio (x) = 0.49813 -0.30955
# Poissons Ratio (y) = 0.63276 0.46244
# Poissons Ratio (z) = -1.06608 1.25378
#
# Static dielectric constant tensor:
#      x y z
#    x 1.925410 -0.001630 0.048700 
#    y -0.001630 1.839840 -0.055730 
#    z 0.048700 -0.055730 1.927420 
# 
# From -- ./inp_files/279423.got.cif
#   From: 2010.05.17/outbox.cif.g08.bks.cpg/sg2_140_cif.got.tgz:279423.got - 2010.06.03 11:33:40.
