data_PCOD9026074
_publ_section_title
;
Structure prediction by ZEFSAII (Michael W. Deem and Ramdas Pophale) SiO2 
 PCOD9026074
Probable space group: P -1
;
_chemical_formula_sum "Si O2"
_cell_formula_units_Z 16
_cell_length_a 15.864254
_cell_length_b 12.770127
_cell_length_c 9.908968
_cell_angle_alpha 56.962614
_cell_angle_beta 55.742993
_cell_angle_gamma 25.651112
_cell_volume 714.238280
_symmetry_space_group_name_H-M "P -1"
_symmetry_group_IT_number 2
_symmetry_cell_setting 'triclinic'
loop_
_space_group_symop_operation_xyz
x,y,z
-x,-y,-z
loop_
_atom_site_type_symbol
_atom_site_label
_atom_site_fract_x
_atom_site_fract_y
_atom_site_fract_z
Si Si1 0.047539 0.594330 0.907447
Si Si2 0.169655 0.098128 0.345387
Si Si3 0.060996 0.567753 0.456416
Si Si4 0.772012 0.052723 0.206731
Si Si5 0.315568 0.707771 0.623783
Si Si6 0.450285 0.235057 0.203836
Si Si7 0.136937 0.683656 0.972916
Si Si8 0.472599 0.090756 0.813457
O O1 0.070415 0.618543 0.021224
O O2 0.264193 0.380006 0.798225
O O3 0.872622 0.852531 0.809319
O O4 0.000000 0.500000 0.000000
O O5 0.992007 0.360318 0.391259
O O6 0.178006 0.950106 0.497385
O O7 0.359861 0.979321 0.301296
O O8 0.000000 0.500000 0.500000
O O9 0.287221 0.361989 0.369550
O O10 0.916256 0.814486 0.333990
O O11 0.653303 0.261037 0.277337
O O12 0.624112 0.127858 0.195443
O O13 0.937005 0.946537 0.038054
O O14 0.500000 0.500000 0.500000
O O15 0.209756 0.691294 0.776711
O O16 0.516642 0.038075 0.206839
O O17 0.323400 0.458111 0.060384
O O18 0.500000 0.000000 0.000000
#
# Coordination Sequence:
#
# PCOD9026074 Si02
#       8
#     2   2   2   2   2   2   2   2
#     4  12  24  39  68 102 134 176 224 275 345 406
#     4  11  25  44  64  99 139 176 226 280 339 408
#     4  10  22  41  61  97 142 175 213 277 345 410
#     4  10  25  44  70 100 130 183 234 275 345 409
#     4  11  26  48  71  95 138 181 235 291 339 401
#     4  11  23  41  70 101 136 177 225 279 342 410
#     4  11  24  45  69  98 138 179 230 287 335 402
#     4  12  22  38  65  99 141 171 218 279 335 401
#
# _framework density 22.401485999999998
#
# number of rings (size 3 to 8) (size 9 to 14) (size 15 to 20)
#    0.000    1.000    3.750    1.875    3.500    4.500 
#    0.000    3.750    0.000    0.000    0.000    0.000 
#    0.000    0.000    0.000    0.000    0.000    0.000 
#
# Total GULP energy -89373.593409 kJ/mol
# GULP energy per Si atom -5585.849588 kJ/mol
# Density = 2.235050 g / cm^3
# Si number density = 22.401486 Si / 1000 Ang^3
#
#
#
# Elastic Constant Matrix: (Units=GPa)
#
#
# Indices 1 2 3 4 5 6 
#
# 1 110.5001 46.9460 14.5566 11.5949 10.1992 -8.9610
# 2 46.9460 85.2944 19.6019 33.0795 5.0036 -2.6476
# 3 14.5566 19.6019 62.5958 18.4352 -11.1319 -4.9291
# 4 11.5949 33.0795 18.4352 42.0535 -1.3716 2.3661
# 5 10.1992 5.0036 -11.1319 -1.3716 41.7987 -2.2176
# 6 -8.9610 -2.6476 -4.9291 2.3661 -2.2176 29.1321
#
#
#
# Elastic Compliance Matrix: (Units=1/GPa)
#
#
# Indices 1 2 3 4 5 6 
#
# 1 0.012543 -0.007426 -0.001675 0.002900 -0.002391 0.002482
# 2 -0.007426 0.021899 -0.000984 -0.014832 -0.001525 0.000628
# 3 -0.001675 -0.000984 0.020291 -0.007686 0.005885 0.003901
# 4 0.002900 -0.014832 -0.007686 0.038290 0.000019 -0.004865
# 5 -0.002391 -0.001525 0.005885 0.000019 0.026371 0.002128
# 6 0.002482 0.000628 0.003901 -0.004865 0.002128 0.036364
#
#
# Mechanical properties :
#
#
# Convention : Reuss Voigt Hill
#
# Bulk Modulus (GPa) = 28.93374 46.73325 37.83350
# Shear Modulus (GPa) = 26.67384 34.41592 30.54488
#
# Velocity S-wave (km/s) = 3.45442 3.92385 3.69659
# Velocity P-wave (km/s) = 5.37166 6.43706 5.92834
#
# Compressibility (1/GPa) = 0.03456173
#
# Stress axis : x y z
#
# Youngs Moduli (GPa) = 79.72506 45.66481 49.28339
#
# Poissons Ratio (x) = 0.33911 0.08256
# Poissons Ratio (y) = 0.59204 0.04851
# Poissons Ratio (z) = 0.13355 0.04495
#
# Static dielectric constant tensor:
#      x y z
#    x 1.856820 -0.039230 0.064250 
#    y -0.039230 1.961630 -0.034180 
#    z 0.064250 -0.034180 1.958420 
# 
# From -- ./inp_files/306961.got.cif
#   From: 2010.05.17/outbox.cif.g08.bks.cpg/sg2_154_cif.got.tgz:306961.got - 2010.06.03 11:33:40.
