data_PCOD9026556
_publ_section_title
;
Structure prediction by ZEFSAII (Michael W. Deem and Ramdas Pophale) SiO2 
 PCOD9026556
Probable space group: P -1
;
_chemical_formula_sum "Si O2"
_cell_formula_units_Z 16
_cell_length_a 23.499820
_cell_length_b 5.382582
_cell_length_c 7.755239
_cell_angle_alpha 110.354967
_cell_angle_beta 50.516984
_cell_angle_gamma 126.538142
_cell_volume 607.566081
_symmetry_space_group_name_H-M "P -1"
_symmetry_group_IT_number 2
_symmetry_cell_setting 'triclinic'
loop_
_space_group_symop_operation_xyz
x,y,z
-x,-y,-z
loop_
_atom_site_type_symbol
_atom_site_label
_atom_site_fract_x
_atom_site_fract_y
_atom_site_fract_z
Si Si1 0.643602 0.648713 0.686845
Si Si2 0.889969 0.776009 0.947869
Si Si3 0.408601 0.456969 0.630290
Si Si4 0.169077 0.840577 0.656039
Si Si5 0.036710 0.686379 0.649071
Si Si6 0.757198 0.159799 0.128144
Si Si7 0.647730 0.258926 0.896806
Si Si8 0.160441 0.200574 0.305887
O O1 0.607353 0.514603 0.534540
O O2 0.623618 0.395175 0.810297
O O3 0.747398 0.872850 0.523786
O O4 0.616735 0.898948 0.850776
O O5 0.903888 0.845977 0.736962
O O6 0.953191 0.677295 0.882612
O O7 0.790175 0.494135 0.069369
O O8 0.890710 0.044634 0.114643
O O9 0.500000 0.500000 0.500000
O O10 0.340445 0.103331 0.732192
O O11 0.388995 0.668524 0.844047
O O12 0.096732 0.587984 0.609382
O O13 0.208108 0.763105 0.724576
O O14 0.000000 0.500000 0.500000
O O15 0.106449 0.034499 0.538981
O O16 0.800527 0.009024 0.893350
O O17 0.753232 0.464592 0.750798
#
# Coordination Sequence:
#
# PCOD9026556 Si02
#       8
#     2   2   2   2   2   2   2   2
#     4  11  26  49  79 113 148 204 252 301 376 458
#     4  11  23  41  65  92 134 181 244 296 368 428
#     4  10  25  49  78 117 154 190 246 315 376 448
#     4  10  24  42  62  95 133 186 238 299 352 433
#     4  12  23  39  61  95 136 180 238 299 363 421
#     4   9  21  43  68  93 129 186 231 289 367 439
#     4  11  26  47  82 108 151 202 252 300 376 451
#     4  10  22  41  64  96 134 185 236 299 355 431
#
# _framework density 26.334585000000001
#
# number of rings (size 3 to 8) (size 9 to 14) (size 15 to 20)
#    0.000    1.500    2.500    1.500    8.750    2.500 
#    2.250    1.250    0.000    0.000    0.000    0.000 
#    0.000    0.000    0.000    0.000    0.000    0.000 
#
# Total GULP energy -89620.224351 kJ/mol
# GULP energy per Si atom -5601.264022 kJ/mol
# Density = 2.627465 g / cm^3
# Si number density = 26.334585 Si / 1000 Ang^3
#
#
#
# Elastic Constant Matrix: (Units=GPa)
#
#
# Indices 1 2 3 4 5 6 
#
# 1 146.2800 39.6222 59.0091 -5.0037 5.8922 12.0276
# 2 39.6222 48.3014 28.3701 5.5773 -2.2169 -5.3962
# 3 59.0091 28.3701 109.6388 14.9308 0.8556 15.5761
# 4 -5.0037 5.5773 14.9308 34.7160 7.0193 -1.5900
# 5 5.8922 -2.2169 0.8556 7.0193 41.0232 -4.3746
# 6 12.0276 -5.3962 15.5761 -1.5900 -4.3746 35.5489
#
#
#
# Elastic Compliance Matrix: (Units=1/GPa)
#
#
# Indices 1 2 3 4 5 6 
#
# 1 0.011252 -0.007858 -0.004237 0.005201 -0.003195 -0.003304
# 2 -0.007858 0.031870 -0.004837 -0.004689 0.004820 0.009999
# 3 -0.004237 -0.004837 0.014341 -0.006372 0.000519 -0.005806
# 4 0.005201 -0.004689 -0.006372 0.034441 -0.006649 0.001043
# 5 -0.003195 0.004820 0.000519 -0.006649 0.026710 0.004575
# 6 -0.003304 0.009999 -0.005806 0.001043 0.004575 0.033919
#
#
# Mechanical properties :
#
#
# Convention : Reuss Voigt Hill
#
# Bulk Modulus (GPa) = 42.37271 62.02477 52.19874
# Shear Modulus (GPa) = 25.73814 34.07221 29.90517
#
# Velocity S-wave (km/s) = 3.12965 3.60087 3.37350
# Velocity P-wave (km/s) = 5.40229 6.39469 5.91932
#
# Compressibility (1/GPa) = 0.02360010
#
# Stress axis : x y z
#
# Youngs Moduli (GPa) = 88.87365 31.37723 69.72909
#
# Poissons Ratio (x) = 0.24656 0.29541
# Poissons Ratio (y) = 0.69837 0.33729
# Poissons Ratio (z) = 0.37652 0.15177
#
# Static dielectric constant tensor:
#      x y z
#    x 2.108270 0.009230 0.047030 
#    y 0.009230 2.081300 0.080650 
#    z 0.047030 0.080650 2.137620 
# 
# From -- ./inp_files/351080.got.cif
#   From: 2010.05.17/outbox.cif.g08.bks.cpg/sg2_176_cif.got.tgz:351080.got - 2010.06.03 11:33:40.
