data_PCOD9026957
_publ_section_title
;
Structure prediction by ZEFSAII (Michael W. Deem and Ramdas Pophale) SiO2 
 PCOD9026957
Probable space group: P -1
;
_chemical_formula_sum "Si O2"
_cell_formula_units_Z 16
_cell_length_a 6.747701
_cell_length_b 9.275328
_cell_length_c 18.023191
_cell_angle_alpha 133.855106
_cell_angle_beta 81.813895
_cell_angle_gamma 88.805309
_cell_volume 793.755673
_symmetry_space_group_name_H-M "P -1"
_symmetry_group_IT_number 2
_symmetry_cell_setting 'triclinic'
loop_
_space_group_symop_operation_xyz
x,y,z
-x,-y,-z
loop_
_atom_site_type_symbol
_atom_site_label
_atom_site_fract_x
_atom_site_fract_y
_atom_site_fract_z
Si Si1 0.192654 0.594611 0.994945
Si Si2 0.694719 0.889867 0.994643
Si Si3 0.932878 0.147094 0.664299
Si Si4 0.286116 0.127614 0.531447
Si Si5 0.611829 0.448490 0.876814
Si Si6 0.702237 0.581323 0.500237
Si Si7 0.989934 0.963034 0.882834
Si Si8 0.044603 0.186313 0.334258
O O1 0.308202 0.643079 0.080910
O O2 0.113670 0.800158 0.029117
O O3 0.369107 0.452841 0.888442
O O4 0.000000 0.500000 0.000000
O O5 0.645698 0.681487 0.955600
O O6 0.876884 0.852423 0.911555
O O7 0.779137 0.028011 0.101899
O O8 0.500000 0.000000 0.000000
O O9 0.759886 0.328004 0.765425
O O10 0.132960 0.201057 0.633454
O O11 0.825159 0.020895 0.565595
O O12 0.997466 0.997980 0.677254
O O13 0.310575 0.310359 0.540309
O O14 0.500000 0.000000 0.500000
O O15 0.500000 0.500000 0.500000
O O16 0.755839 0.741808 0.615896
O O17 0.875050 0.384317 0.421835
O O18 0.954572 0.877360 0.773696
#
# Coordination Sequence:
#
# PCOD9026957 Si02
#       8
#     2   2   2   2   2   2   2   2
#     4  11  22  41  65  92 127 166 217 268 316 386
#     4  11  24  42  61  90 135 167 214 270 321 387
#     4  10  22  41  66  92 127 163 215 266 320 384
#     4  10  22  42  63  94 130 165 207 266 324 387
#     4  11  23  40  65  93 125 171 213 271 325 379
#     4  10  22  42  65  95 127 164 212 266 320 389
#     4  11  23  42  64  91 127 174 213 269 325 385
#     4  10  22  42  66  89 123 168 213 264 320 380
#
# _framework density 20.157336000000001
#
# number of rings (size 3 to 8) (size 9 to 14) (size 15 to 20)
#    0.000    1.500    3.750    0.750    1.750    3.000 
#    6.750    0.000    0.000    0.000    0.000    0.000 
#    0.000    0.000    0.000    0.000    0.000    0.000 
#
# Total GULP energy -89307.907615 kJ/mol
# GULP energy per Si atom -5581.744226 kJ/mol
# Density = 2.011146 g / cm^3
# Si number density = 20.157336 Si / 1000 Ang^3
#
#
#
# Elastic Constant Matrix: (Units=GPa)
#
#
# Indices 1 2 3 4 5 6 
#
# 1 121.9507 61.4461 36.3483 -9.0444 -18.9425 11.4578
# 2 61.4461 98.1597 27.2826 -11.6341 5.4377 13.4628
# 3 36.3483 27.2826 87.8041 -19.4074 -11.8545 8.5229
# 4 -9.0444 -11.6341 -19.4074 27.7675 -6.1137 -3.5495
# 5 -18.9425 5.4377 -11.8545 -6.1137 27.5753 -5.9402
# 6 11.4578 13.4628 8.5229 -3.5495 -5.9402 40.1770
#
#
#
# Elastic Compliance Matrix: (Units=1/GPa)
#
#
# Indices 1 2 3 4 5 6 
#
# 1 0.015841 -0.010192 -0.000952 0.003383 0.013534 0.001399
# 2 -0.010192 0.018707 -0.003224 -0.001294 -0.013391 -0.004772
# 3 -0.000952 -0.003224 0.016838 0.012364 0.010039 0.000356
# 4 0.003383 -0.001294 0.012364 0.050140 0.019920 0.004221
# 5 0.013534 -0.013391 0.010039 0.019920 0.058864 0.008961
# 6 0.001399 -0.004772 0.000356 0.004221 0.008961 0.027712
#
#
# Mechanical properties :
#
#
# Convention : Reuss Voigt Hill
#
# Bulk Modulus (GPa) = 44.14998 62.00760 53.07879
# Shear Modulus (GPa) = 22.28293 31.29312 26.78803
#
# Velocity S-wave (km/s) = 3.32844 3.94438 3.64943
# Velocity P-wave (km/s) = 6.05983 7.18142 6.64433
#
# Compressibility (1/GPa) = 0.02265006
#
# Stress axis : x y z
#
# Youngs Moduli (GPa) = 63.12852 53.45696 59.38892
#
# Poissons Ratio (x) = 0.54484 0.05651
# Poissons Ratio (y) = 0.64342 0.19147
# Poissons Ratio (z) = 0.06007 0.17234
#
# Static dielectric constant tensor:
#      x y z
#    x 1.757150 0.001620 -0.002270 
#    y 0.001620 1.693770 -0.014280 
#    z -0.002270 -0.014280 1.724900 
# 
# From -- ./inp_files/109396.got.cif
#   From: 2010.05.17/outbox.cif.g08.bks.cpg/sg2_55_cif.got.tgz:109396.got - 2010.06.03 11:33:40.
