data_PCOD9026422
_publ_section_title
;
Structure prediction by ZEFSAII (Michael W. Deem and Ramdas Pophale) SiO2 
 PCOD9026422
Probable space group: P -1
;
_chemical_formula_sum "Si O2"
_cell_formula_units_Z 16
_cell_length_a 16.459453
_cell_length_b 22.452495
_cell_length_c 10.082171
_cell_angle_alpha 135.215441
_cell_angle_beta 137.220978
_cell_angle_gamma 19.365534
_cell_volume 836.631082
_symmetry_space_group_name_H-M "P -1"
_symmetry_group_IT_number 2
_symmetry_cell_setting 'triclinic'
loop_
_space_group_symop_operation_xyz
x,y,z
-x,-y,-z
loop_
_atom_site_type_symbol
_atom_site_label
_atom_site_fract_x
_atom_site_fract_y
_atom_site_fract_z
Si Si1 0.057850 0.076318 0.557725
Si Si2 0.219957 0.906198 0.201463
Si Si3 0.421097 0.713070 0.557724
Si Si4 0.792544 0.828214 0.036306
Si Si5 0.416802 0.457044 0.798537
Si Si6 0.167365 0.201717 0.279616
Si Si7 0.470657 0.160263 0.720386
Si Si8 0.845819 0.533423 0.963691
O O1 0.107945 0.142670 0.751354
O O2 0.780380 0.219620 0.499999
O O3 0.100903 0.026692 0.377368
O O4 0.261017 0.893275 0.595135
O O5 0.410541 0.715733 0.184013
O O6 0.374640 0.875653 0.249248
O O7 0.000000 0.000000 0.000000
O O8 0.532105 0.595488 0.377366
O O9 0.643164 0.607450 0.751350
O O10 0.959631 0.651242 0.024229
O O11 0.816077 0.807795 0.873885
O O12 0.500000 0.000000 0.000000
O O13 0.122719 0.626988 0.750751
O O14 0.500000 0.500000 0.000000
O O15 0.289909 0.210091 0.500002
O O16 0.332241 0.020925 0.248179
O O17 0.305528 0.318346 0.873891
O O18 0.000000 0.500000 0.000000
#
# Coordination Sequence:
#
# PCOD9026422 Si02
#       8
#     2   2   2   2   2   2   2   2
#     4  10  22  41  64  91 125 163 203 250 304 361
#     4  11  23  39  63  93 126 164 205 252 304 362
#     4  10  22  41  64  91 125 163 203 250 304 361
#     4  12  25  41  64  92 124 161 203 252 305 364
#     4  11  23  39  63  93 126 164 205 252 304 362
#     4  11  24  42  64  90 123 162 205 254 306 362
#     4  11  24  42  64  90 123 162 205 254 306 362
#     4  12  25  41  64  92 124 161 203 252 305 364
#
# _framework density 19.124320999999998
#
# number of rings (size 3 to 8) (size 9 to 14) (size 15 to 20)
#    0.000    1.000    0.000    6.750    0.000   10.500 
#    0.000    0.000    0.000    0.000    0.000    0.000 
#    0.000    0.000    0.000    0.000    0.000    0.000 
#
# Total GULP energy -89575.560134 kJ/mol
# GULP energy per Si atom -5598.472508 kJ/mol
# Density = 1.908079 g / cm^3
# Si number density = 19.124321 Si / 1000 Ang^3
#
#
#
# Elastic Constant Matrix: (Units=GPa)
#
#
# Indices 1 2 3 4 5 6 
#
# 1 206.6643 109.4640 130.0574 4.2761 -0.5937 -23.2592
# 2 109.4640 167.2179 130.8115 -1.5968 -1.8311 -26.1083
# 3 130.0574 130.8115 197.8552 1.5922 -2.3423 0.6951
# 4 4.2761 -1.5968 1.5922 34.2998 -1.7465 -0.4089
# 5 -0.5937 -1.8311 -2.3423 -1.7465 35.5348 3.0738
# 6 -23.2592 -26.1083 0.6951 -0.4089 3.0738 35.9170
#
#
#
# Elastic Compliance Matrix: (Units=1/GPa)
#
#
# Indices 1 2 3 4 5 6 
#
# 1 0.009580 -0.000950 -0.005691 -0.000948 -0.000802 0.005681
# 2 -0.000950 0.016562 -0.010387 0.001471 -0.000788 0.011709
# 3 -0.005691 -0.010387 0.015725 -0.000572 0.001387 -0.011666
# 4 -0.000948 0.001471 -0.000572 0.029448 0.001411 0.000681
# 5 -0.000802 -0.000788 0.001387 0.001411 0.028555 -0.003546
# 6 0.005681 0.011709 -0.011666 0.000681 -0.003546 0.040569
#
#
# Mechanical properties :
#
#
# Convention : Reuss Voigt Hill
#
# Bulk Modulus (GPa) = 128.05159 145.82259 136.93709
# Shear Modulus (GPa) = 28.23279 34.57727 31.40503
#
# Velocity S-wave (km/s) = 3.84640 4.25670 4.05674
# Velocity P-wave (km/s) = 9.31822 10.02869 9.67998
#
# Compressibility (1/GPa) = 0.00780935
#
# Stress axis : x y z
#
# Youngs Moduli (GPa) = 104.38149 60.38053 63.59401
#
# Poissons Ratio (x) = 0.05737 0.36192
# Poissons Ratio (y) = 0.09918 0.66058
# Poissons Ratio (z) = 0.59404 0.62720
#
# Static dielectric constant tensor:
#      x y z
#    x 1.628750 0.008210 -0.002860 
#    y 0.008210 1.635380 0.001750 
#    z -0.002860 0.001750 1.625710 
# 
# From -- ./inp_files/278979.got.cif
#   From: 2010.05.17/outbox.cif.g08.bks.cpg/sg2_140_cif.got.tgz:278979.got - 2010.06.03 11:33:40.
