data_PCOD9026538
_publ_section_title
;
Structure prediction by ZEFSAII (Michael W. Deem and Ramdas Pophale) SiO2 
 PCOD9026538
Probable space group: P -1
;
_chemical_formula_sum "Si O2"
_cell_formula_units_Z 16
_cell_length_a 11.670645
_cell_length_b 20.212497
_cell_length_c 8.118709
_cell_angle_alpha 56.726481
_cell_angle_beta 35.715707
_cell_angle_gamma 41.422749
_cell_volume 730.639450
_symmetry_space_group_name_H-M "P -1"
_symmetry_group_IT_number 2
_symmetry_cell_setting 'triclinic'
loop_
_space_group_symop_operation_xyz
x,y,z
-x,-y,-z
loop_
_atom_site_type_symbol
_atom_site_label
_atom_site_fract_x
_atom_site_fract_y
_atom_site_fract_z
Si Si1 0.738789 0.934729 0.190469
Si Si2 0.782287 0.407303 0.246680
Si Si3 0.898395 0.570824 0.366515
Si Si4 0.238856 0.885621 0.706515
Si Si5 0.712689 0.040118 0.762050
Si Si6 0.288259 0.234585 0.486133
Si Si7 0.724145 0.729913 0.925958
Si Si8 0.439308 0.682945 0.543616
O O1 0.822822 0.823426 0.269681
O O2 0.500000 0.000000 0.500000
O O3 0.948739 0.943140 0.998290
O O4 0.704708 0.966628 0.993444
O O5 0.500000 0.500000 0.500000
O O6 0.744873 0.338883 0.270946
O O7 0.003326 0.331222 0.222852
O O8 0.884904 0.461188 0.968220
O O9 0.811469 0.678388 0.384719
O O10 0.657373 0.593441 0.529678
O O11 0.000000 0.500000 0.500000
O O12 0.303395 0.946007 0.436438
O O13 0.414497 0.842268 0.718853
O O14 0.313958 0.789286 0.638499
O O15 0.478933 0.151137 0.950601
O O16 0.000000 0.000000 0.500000
O O17 0.240263 0.275616 0.302670
O O18 0.589227 0.685053 0.213440
#
# Coordination Sequence:
#
# PCOD9026538 Si02
#       8
#     2   2   2   2   2   2   2   2
#     4  11  21  38  60  94 132 164 214 264 316 385
#     4  11  25  42  67  97 124 171 221 266 328 395
#     4  10  24  43  66  93 126 167 213 270 331 379
#     4   9  21  40  63  87 127 173 211 257 324 380
#     4   9  19  41  64  90 128 175 218 254 316 389
#     4  11  23  40  65  93 131 169 213 273 323 382
#     4  10  22  41  64  95 134 168 212 270 324 379
#     4   9  21  43  64  86 127 168 214 259 321 390
#
# _framework density 21.898627000000001
#
# number of rings (size 3 to 8) (size 9 to 14) (size 15 to 20)
#    0.000    2.000    1.250    1.500    3.500    3.500 
#    2.250    2.500    0.000    0.000    0.000    0.000 
#    0.000    0.000    0.000    0.000    0.000    0.000 
#
# Total GULP energy -89264.883040 kJ/mol
# GULP energy per Si atom -5579.055190 kJ/mol
# Density = 2.184878 g / cm^3
# Si number density = 21.898627 Si / 1000 Ang^3
#
#
#
# Elastic Constant Matrix: (Units=GPa)
#
#
# Indices 1 2 3 4 5 6 
#
# 1 103.0367 18.5947 45.7712 -5.7356 -16.1355 -31.2660
# 2 18.5947 54.6842 17.8969 10.9656 -3.7236 -14.8163
# 3 45.7712 17.8969 115.9069 17.7049 -11.7058 -16.1132
# 4 -5.7356 10.9656 17.7049 41.0851 -1.9119 4.8279
# 5 -16.1355 -3.7236 -11.7058 -1.9119 31.9630 -1.7601
# 6 -31.2660 -14.8163 -16.1132 4.8279 -1.7601 42.1744
#
#
#
# Elastic Compliance Matrix: (Units=1/GPa)
#
#
# Indices 1 2 3 4 5 6 
#
# 1 0.016360 -0.001744 -0.004764 0.004012 0.007076 0.009532
# 2 -0.001744 0.022491 -0.000594 -0.006768 0.001515 0.007220
# 3 -0.004764 -0.000594 0.011845 -0.005713 0.001605 0.001506
# 4 0.004012 -0.006768 -0.005713 0.029782 0.000652 -0.004969
# 5 0.007076 0.001515 0.001605 0.000652 0.036092 0.007823
# 6 0.009532 0.007220 0.001506 -0.004969 0.007823 0.034784
#
#
# Mechanical properties :
#
#
# Convention : Reuss Voigt Hill
#
# Bulk Modulus (GPa) = 27.40335 48.68371 38.04353
# Shear Modulus (GPa) = 28.13381 35.80216 31.96798
#
# Velocity S-wave (km/s) = 3.58820 4.04778 3.82490
# Velocity P-wave (km/s) = 5.45049 6.64272 6.07592
#
# Compressibility (1/GPa) = 0.03649189
#
# Stress axis : x y z
#
# Youngs Moduli (GPa) = 61.12398 44.46319 84.42500
#
# Poissons Ratio (x) = 0.07754 0.40223
# Poissons Ratio (y) = 0.10659 0.05011
# Poissons Ratio (z) = 0.29122 0.02639
#
# Static dielectric constant tensor:
#      x y z
#    x 1.821310 0.017640 0.001990 
#    y 0.017640 1.896570 0.045400 
#    z 0.001990 0.045400 1.806130 
# 
# From -- ./inp_files/282821.got.cif
#   From: 2010.05.17/outbox.cif.g08.bks.cpg/sg2_142_cif.got.tgz:282821.got - 2010.06.03 11:33:40.
