data_PCOD9026603
_publ_section_title
;
Structure prediction by ZEFSAII (Michael W. Deem and Ramdas Pophale) SiO2 
 PCOD9026603
Probable space group: P -1
;
_chemical_formula_sum "Si O2"
_cell_formula_units_Z 16
_cell_length_a 5.477435
_cell_length_b 10.263741
_cell_length_c 14.329534
_cell_angle_alpha 109.934864
_cell_angle_beta 122.508250
_cell_angle_gamma 84.119922
_cell_volume 635.335005
_symmetry_space_group_name_H-M "P -1"
_symmetry_group_IT_number 2
_symmetry_cell_setting 'triclinic'
loop_
_space_group_symop_operation_xyz
x,y,z
-x,-y,-z
loop_
_atom_site_type_symbol
_atom_site_label
_atom_site_fract_x
_atom_site_fract_y
_atom_site_fract_z
Si Si1 0.501486 0.783638 0.829776
Si Si2 0.484223 0.157144 0.722879
Si Si3 0.138661 0.345316 0.274060
Si Si4 0.196349 0.420851 0.947427
Si Si5 0.916655 0.874729 0.077131
Si Si6 0.119051 0.971226 0.706679
Si Si7 0.243820 0.652108 0.325616
Si Si8 0.453390 0.144637 0.428525
O O1 0.734723 0.689439 0.810245
O O2 0.358501 0.864394 0.735409
O O3 0.210352 0.699222 0.795177
O O4 0.718976 0.903639 0.955587
O O5 0.522225 0.284739 0.690750
O O6 0.752736 0.164360 0.854203
O O7 0.204912 0.122902 0.720106
O O8 0.486057 0.006986 0.634567
O O9 0.246758 0.507818 0.346737
O O10 0.306892 0.253650 0.358331
O O11 0.256537 0.273115 0.967232
O O12 0.024783 0.387543 0.808053
O O13 0.500000 0.500000 0.000000
O O14 0.000000 0.500000 0.000000
O O15 0.918268 0.996161 0.182887
O O16 0.835620 0.902523 0.581009
O O17 0.290255 0.772135 0.442059
#
# Coordination Sequence:
#
# PCOD9026603 Si02
#       8
#     2   2   2   2   2   2   2   2
#     4  11  23  43  69  98 137 179 221 278 339 395
#     4  10  22  42  64  96 139 170 230 279 333 394
#     4  11  24  45  67 101 136 173 228 282 330 396
#     4  11  25  45  64  96 138 171 216 273 329 401
#     4  10  23  37  66  94 133 176 227 273 334 398
#     4  10  22  41  64  99 133 179 223 285 326 396
#     4  11  24  43  71  98 131 182 223 271 345 400
#     4  10  22  46  64  97 134 176 227 282 330 397
#
# _framework density 25.183567
#
# number of rings (size 3 to 8) (size 9 to 14) (size 15 to 20)
#    0.000    1.500    1.250    2.625    5.250    1.000 
#    9.000    1.875    0.000    0.000    0.000    0.000 
#    0.000    0.000    0.000    0.000    0.000    0.000 
#
# Total GULP energy -89150.077812 kJ/mol
# GULP energy per Si atom -5571.879863 kJ/mol
# Density = 2.512625 g / cm^3
# Si number density = 25.183567 Si / 1000 Ang^3
#
#
#
# Elastic Constant Matrix: (Units=GPa)
#
#
# Indices 1 2 3 4 5 6 
#
# 1 106.6326 34.2624 52.3086 17.5490 15.7511 12.5327
# 2 34.2624 112.4615 26.8112 20.3292 17.0942 19.3912
# 3 52.3086 26.8112 158.6861 18.2077 33.9182 -2.7805
# 4 17.5490 20.3292 18.2077 41.1156 1.2877 9.1921
# 5 15.7511 17.0942 33.9182 1.2877 17.7182 2.2150
# 6 12.5327 19.3912 -2.7805 9.1921 2.2150 27.4239
#
#
#
# Elastic Compliance Matrix: (Units=1/GPa)
#
#
# Indices 1 2 3 4 5 6 
#
# 1 0.012695 -0.001528 -0.003000 -0.002341 -0.003402 -0.003966
# 2 -0.001528 0.012749 0.001537 -0.004688 -0.012848 -0.005551
# 3 -0.003000 0.001537 0.012818 -0.005617 -0.023616 0.005374
# 4 -0.002341 -0.004688 -0.005617 0.031414 0.016076 -0.008013
# 5 -0.003402 -0.012848 -0.023616 0.016076 0.116720 -0.006571
# 6 -0.003966 -0.005551 0.005374 -0.008013 -0.006571 0.045963
#
#
# Mechanical properties :
#
#
# Convention : Reuss Voigt Hill
#
# Bulk Modulus (GPa) = 30.98165 67.17162 49.07663
# Shear Modulus (GPa) = 20.07213 34.87807 27.47510
#
# Velocity S-wave (km/s) = 2.82624 3.72553 3.30660
# Velocity P-wave (km/s) = 4.79366 6.72583 5.84021
#
# Compressibility (1/GPa) = 0.03227718
#
# Stress axis : x y z
#
# Youngs Moduli (GPa) = 78.77368 78.43913 78.01811
#
# Poissons Ratio (x) = 0.11988 0.23407
# Poissons Ratio (y) = 0.12039 -0.11989
# Poissons Ratio (z) = 0.23634 -0.12053
#
# Static dielectric constant tensor:
#      x y z
#    x 2.299050 0.045290 -0.022360 
#    y 0.045290 2.079670 -0.063160 
#    z -0.022360 -0.063160 2.028970 
# 
# From -- ./inp_files/364134.got.cif
#   From: 2010.05.17/outbox.cif.g08.bks.cpg/sg2_183_cif.got.tgz:364134.got - 2010.06.03 11:33:40.
