data_PCOD9026656
_publ_section_title
;
Structure prediction by ZEFSAII (Michael W. Deem and Ramdas Pophale) SiO2 
 PCOD9026656
Probable space group: P -1
;
_chemical_formula_sum "Si O2"
_cell_formula_units_Z 14
_cell_length_a 16.996586
_cell_length_b 7.497548
_cell_length_c 8.653769
_cell_angle_alpha 90.138140
_cell_angle_beta 58.801745
_cell_angle_gamma 50.504758
_cell_volume 629.225267
_symmetry_space_group_name_H-M "P -1"
_symmetry_group_IT_number 2
_symmetry_cell_setting 'triclinic'
loop_
_space_group_symop_operation_xyz
x,y,z
-x,-y,-z
loop_
_atom_site_type_symbol
_atom_site_label
_atom_site_fract_x
_atom_site_fract_y
_atom_site_fract_z
Si Si1 0.780541 0.368519 0.295636
Si Si2 0.377360 0.057940 0.065351
Si Si3 0.164436 0.442622 0.024251
Si Si4 0.719734 0.029207 0.582629
Si Si5 0.069790 0.984834 0.577763
Si Si6 0.499626 0.394161 0.287683
Si Si7 0.786785 0.981587 0.171302
O O1 0.789879 0.525452 0.179091
O O2 0.625565 0.538760 0.508062
O O3 0.833033 0.119817 0.142053
O O4 0.871737 0.240117 0.357373
O O5 0.285106 0.132616 0.303954
O O6 0.287352 0.274697 0.022788
O O7 0.500000 0.000000 0.000000
O O8 0.443865 0.786934 0.920469
O O9 0.138347 0.271582 0.012128
O O10 0.038888 0.730172 0.225883
O O11 0.567760 0.322430 0.694898
O O12 0.787314 0.909120 0.345953
O O13 0.800215 0.073062 0.587564
O O14 0.000000 0.000000 0.500000
O O15 0.629480 0.218664 0.269157
#
# Coordination Sequence:
#
# PCOD9026656 Si02
#       7
#     2   2   2   2   2   2   2
#     4  10  22  41  68  93 125 171 210 265 319 373
#     4  11  26  36  61 101 129 168 208 259 329 378
#     4  11  25  40  65  94 128 169 214 263 312 382
#     4  10  22  41  65  90 129 171 209 266 317 374
#     4  10  24  44  67  94 124 171 220 258 320 376
#     4   9  20  39  62  91 127 166 209 259 325 378
#     4   9  21  39  64  95 125 166 212 261 327 372
#
# _framework density 22.249583000000001
#
# number of rings (size 3 to 8) (size 9 to 14) (size 15 to 20)
#    0.000    2.286    0.000    2.571   10.000    6.286 
#    0.000    1.429    0.000    0.000    0.000    0.000 
#    0.000    0.000    0.000    0.000    0.000    0.000 
#
# Total GULP energy -78236.202756 kJ/mol
# GULP energy per Si atom -5588.300197 kJ/mol
# Density = 2.219894 g / cm^3
# Si number density = 22.249583 Si / 1000 Ang^3
#
#
#
# Elastic Constant Matrix: (Units=GPa)
#
#
# Indices 1 2 3 4 5 6 
#
# 1 106.4156 40.2920 13.3701 -21.3634 17.2059 -33.0736
# 2 40.2920 109.1692 18.9907 -14.0117 -0.4408 -23.9163
# 3 13.3701 18.9907 29.0876 4.6371 2.7633 -8.3449
# 4 -21.3634 -14.0117 4.6371 32.8536 6.2370 4.3185
# 5 17.2059 -0.4408 2.7633 6.2370 24.0759 -8.1583
# 6 -33.0736 -23.9163 -8.3449 4.3185 -8.1583 35.4720
#
#
#
# Elastic Compliance Matrix: (Units=1/GPa)
#
#
# Indices 1 2 3 4 5 6 
#
# 1 0.018732 -0.002141 -0.005130 0.013054 -0.012729 0.010298
# 2 -0.002141 0.012781 -0.006724 0.003653 0.003412 0.005379
# 3 -0.005130 -0.006724 0.043941 -0.013442 0.003126 0.003377
# 4 0.013054 0.003653 -0.013442 0.045805 -0.019074 0.001509
# 5 -0.012729 0.003412 0.003126 -0.019074 0.057557 0.006727
# 6 0.010298 0.005379 0.003377 0.001509 0.006727 0.043578
#
#
# Mechanical properties :
#
#
# Convention : Reuss Voigt Hill
#
# Bulk Modulus (GPa) = 21.06794 43.33089 32.19942
# Shear Modulus (GPa) = 18.78261 29.94828 24.36545
#
# Velocity S-wave (km/s) = 2.90863 3.67279 3.31281
# Velocity P-wave (km/s) = 4.55737 6.12397 5.39781
#
# Compressibility (1/GPa) = 0.04746548
#
# Stress axis : x y z
#
# Youngs Moduli (GPa) = 53.38549 78.24106 22.75772
#
# Poissons Ratio (x) = 0.16751 0.11674
# Poissons Ratio (y) = 0.11430 0.15301
# Poissons Ratio (z) = 0.27385 0.52606
#
# Static dielectric constant tensor:
#      x y z
#    x 1.829300 -0.001130 0.008610 
#    y -0.001130 1.819670 0.025850 
#    z 0.008610 0.025850 1.834340 
# 
# From -- ./inp_files/265757.got.cif
#   From: 2010.05.17/outbox.cif.g08.bks.cpg/sg2_133_cif.got.tgz:265757.got - 2010.06.03 11:33:40.
