data_PCOD9026655
_publ_section_title
;
Structure prediction by ZEFSAII (Michael W. Deem and Ramdas Pophale) SiO2 
 PCOD9026655
Probable space group: P -1
;
_chemical_formula_sum "Si O2"
_cell_formula_units_Z 14
_cell_length_a 12.665207
_cell_length_b 9.406350
_cell_length_c 12.927147
_cell_angle_alpha 33.823441
_cell_angle_beta 56.788339
_cell_angle_gamma 51.637602
_cell_volume 670.345122
_symmetry_space_group_name_H-M "P -1"
_symmetry_group_IT_number 2
_symmetry_cell_setting 'triclinic'
loop_
_space_group_symop_operation_xyz
x,y,z
-x,-y,-z
loop_
_atom_site_type_symbol
_atom_site_label
_atom_site_fract_x
_atom_site_fract_y
_atom_site_fract_z
Si Si1 0.065324 0.730508 0.057388
Si Si2 0.531695 0.194258 0.711463
Si Si3 0.488997 0.378177 0.191767
Si Si4 0.229704 0.765430 0.750396
Si Si5 0.350297 0.889843 0.073921
Si Si6 0.885243 0.607577 0.082118
Si Si7 0.291747 0.175721 0.333406
O O1 0.195438 0.487363 0.178929
O O2 0.958999 0.585226 0.166599
O O3 0.120698 0.813827 0.870529
O O4 0.000000 0.000000 0.000000
O O5 0.500000 0.500000 0.500000
O O6 0.572504 0.184751 0.814509
O O7 0.653690 0.982377 0.707639
O O8 0.411956 0.068282 0.858175
O O9 0.625766 0.323105 0.215566
O O10 0.372600 0.609799 0.175104
O O11 0.429847 0.144011 0.340143
O O12 0.500000 0.500000 0.000000
O O13 0.216735 0.542674 0.809211
O O14 0.212807 0.028386 0.532540
O O15 0.199296 0.072951 0.070959
O O16 0.000000 0.500000 0.000000
#
# Coordination Sequence:
#
# PCOD9026655 Si02
#       7
#     2   2   2   2   2   2   2
#     4  11  24  44  69  94 128 179 224 262 324 388
#     4  11  22  37  64  96 124 163 210 267 334 391
#     4  12  22  41  67  94 132 176 210 270 343 387
#     4  11  24  43  63  97 133 167 218 273 326 391
#     4  11  21  39  61  89 128 163 214 268 319 388
#     4  10  22  41  65  90 128 175 217 265 317 383
#     4  12  24  42  67  95 133 169 216 276 330 386
#
# _framework density 20.884764000000001
#
# number of rings (size 3 to 8) (size 9 to 14) (size 15 to 20)
#    0.000    0.857    2.857    6.429    0.000    1.143 
#    0.000    4.286    0.000    0.000    0.000    0.000 
#    0.000    0.000    0.000    0.000    0.000    0.000 
#
# Total GULP energy -78090.904367 kJ/mol
# GULP energy per Si atom -5577.921740 kJ/mol
# Density = 2.083723 g / cm^3
# Si number density = 20.884764 Si / 1000 Ang^3
#
#
#
# Elastic Constant Matrix: (Units=GPa)
#
#
# Indices 1 2 3 4 5 6 
#
# 1 107.9603 15.4452 13.8469 0.3359 7.9990 23.2256
# 2 15.4452 144.4500 34.8126 0.4799 10.2181 14.1141
# 3 13.8469 34.8126 95.2337 10.6189 2.2517 2.6968
# 4 0.3359 0.4799 10.6189 18.0504 -1.8244 3.8541
# 5 7.9990 10.2181 2.2517 -1.8244 16.6062 -4.1277
# 6 23.2256 14.1141 2.6968 3.8541 -4.1277 34.7752
#
#
#
# Elastic Compliance Matrix: (Units=1/GPa)
#
#
# Indices 1 2 3 4 5 6 
#
# 1 0.011980 0.000601 -0.001727 0.001950 -0.007998 -0.009277
# 2 0.000601 0.008473 -0.003135 0.001969 -0.005987 -0.004526
# 3 -0.001727 -0.003135 0.012678 -0.007776 0.000783 0.002397
# 4 0.001950 0.001969 -0.007776 0.061956 0.003742 -0.007920
# 5 -0.007998 -0.005987 0.000783 0.003742 0.071997 0.015842
# 6 -0.009277 -0.004526 0.002397 -0.007920 0.015842 0.039361
#
#
# Mechanical properties :
#
#
# Convention : Reuss Voigt Hill
#
# Bulk Modulus (GPa) = 40.63365 52.87261 46.75313
# Shear Modulus (GPa) = 22.40436 32.78899 27.59667
#
# Velocity S-wave (km/s) = 3.27886 3.96662 3.63902
# Velocity P-wave (km/s) = 5.81660 6.80809 6.33178
#
# Compressibility (1/GPa) = 0.02461014
#
# Stress axis : x y z
#
# Youngs Moduli (GPa) = 83.46900 118.01928 78.87631
#
# Poissons Ratio (x) = -0.07093 0.13624
# Poissons Ratio (y) = -0.05016 0.24724
# Poissons Ratio (z) = 0.14417 0.36994
#
# Static dielectric constant tensor:
#      x y z
#    x 1.872240 -0.025310 -0.023020 
#    y -0.025310 1.725670 -0.009900 
#    z -0.023020 -0.009900 1.775090 
# 
# From -- ./inp_files/285795.got.cif
#   From: 2010.05.17/outbox.cif.g08.bks.cpg/sg2_143_cif.got.tgz:285795.got - 2010.06.03 11:33:40.
