data_PCOD9026416
_publ_section_title
;
Structure prediction by ZEFSAII (Michael W. Deem and Ramdas Pophale) SiO2 
 PCOD9026416
Probable space group: P -1
;
_chemical_formula_sum "Si O2"
_cell_formula_units_Z 14
_cell_length_a 6.918918
_cell_length_b 11.384394
_cell_length_c 10.943199
_cell_angle_alpha 116.718932
_cell_angle_beta 45.788624
_cell_angle_gamma 108.981402
_cell_volume 551.772840
_symmetry_space_group_name_H-M "P -1"
_symmetry_group_IT_number 2
_symmetry_cell_setting 'triclinic'
loop_
_space_group_symop_operation_xyz
x,y,z
-x,-y,-z
loop_
_atom_site_type_symbol
_atom_site_label
_atom_site_fract_x
_atom_site_fract_y
_atom_site_fract_z
Si Si1 0.518057 0.477787 0.647105
Si Si2 0.487988 0.917752 0.664265
Si Si3 0.209571 0.102934 0.734563
Si Si4 0.989541 0.359915 0.868330
Si Si5 0.393525 0.353204 0.095983
Si Si6 0.839342 0.331662 0.248321
Si Si7 0.732505 0.903787 0.805834
O O1 0.593542 0.511979 0.767768
O O2 0.768855 0.419288 0.439845
O O3 0.382443 0.610896 0.719475
O O4 0.269519 0.376759 0.680832
O O5 0.607815 0.887991 0.463643
O O6 0.245438 0.818151 0.760781
O O7 0.698189 0.899409 0.672250
O O8 0.380815 0.066251 0.761758
O O9 0.032501 0.233107 0.875161
O O10 0.011347 0.978396 0.745489
O O11 0.706862 0.337650 0.914512
O O12 0.000000 0.500000 0.000000
O O13 0.303591 0.233034 0.169740
O O14 0.157137 0.357503 0.103383
O O15 0.500000 0.000000 0.000000
#
# Coordination Sequence:
#
# PCOD9026416 Si02
#       7
#     2   2   2   2   2   2   2
#     4  10  22  41  64  90 133 174 214 276 324 399
#     4  11  24  42  69  97 132 176 229 276 330 396
#     4  11  23  45  67  98 133 173 225 275 335 397
#     4  10  22  42  65  93 137 172 212 273 340 396
#     4  11  22  40  62  96 131 169 222 272 331 396
#     4  11  21  39  67  96 125 173 226 269 329 391
#     4  12  24  42  64  97 134 171 219 281 333 395
#
# _framework density 25.372762000000002
#
# number of rings (size 3 to 8) (size 9 to 14) (size 15 to 20)
#    0.000    1.143    5.714    0.857    0.000    1.143 
#    5.143    2.857    0.000    0.000    0.000    0.000 
#    0.000    0.000    0.000    0.000    0.000    0.000 
#
# Total GULP energy -78222.251874 kJ/mol
# GULP energy per Si atom -5587.303705 kJ/mol
# Density = 2.531501 g / cm^3
# Si number density = 25.372762 Si / 1000 Ang^3
#
#
#
# Elastic Constant Matrix: (Units=GPa)
#
#
# Indices 1 2 3 4 5 6 
#
# 1 110.0578 23.6209 16.6750 -6.6967 -13.7240 7.2995
# 2 23.6209 128.7711 12.7048 -5.4446 -11.5127 -11.5200
# 3 16.6750 12.7048 52.0275 -5.0438 -20.1487 5.0914
# 4 -6.6967 -5.4446 -5.0438 42.7615 1.4975 -13.6987
# 5 -13.7240 -11.5127 -20.1487 1.4975 38.7466 -10.8106
# 6 7.2995 -11.5200 5.0914 -13.6987 -10.8106 40.9817
#
#
#
# Elastic Compliance Matrix: (Units=1/GPa)
#
#
# Indices 1 2 3 4 5 6 
#
# 1 0.010066 -0.001593 -0.002003 0.000650 0.001651 -0.001339
# 2 -0.001593 0.008856 -0.000800 0.002062 0.002769 0.004292
# 3 -0.002003 -0.000800 0.024921 0.002440 0.012217 0.001075
# 4 0.000650 0.002062 0.002440 0.027196 0.003931 0.010288
# 5 0.001651 0.002769 0.012217 0.003931 0.036157 0.009818
# 6 -0.001339 0.004292 0.001075 0.010288 0.009818 0.031742
#
#
# Mechanical properties :
#
#
# Convention : Reuss Voigt Hill
#
# Bulk Modulus (GPa) = 28.53116 44.09535 36.31325
# Shear Modulus (GPa) = 31.36506 40.35500 35.86003
#
# Velocity S-wave (km/s) = 3.51974 3.99242 3.76350
# Velocity P-wave (km/s) = 5.27136 6.21846 5.76440
#
# Compressibility (1/GPa) = 0.03504940
#
# Stress axis : x y z
#
# Youngs Moduli (GPa) = 99.34464 112.92320 40.12702
#
# Poissons Ratio (x) = 0.17993 0.08039
# Poissons Ratio (y) = 0.15830 0.03209
# Poissons Ratio (z) = 0.19903 0.09030
#
# Static dielectric constant tensor:
#      x y z
#    x 2.001120 -0.054630 0.010010 
#    y -0.054630 2.060150 -0.034190 
#    z 0.010010 -0.034190 2.103660 
# 
# From -- ./inp_files/26901.got.cif
#   From: 2010.05.17/outbox.cif.g08.bks.cpg/sg2_14_cif.got.tgz:26901.got - 2010.06.03 11:33:40.
