data_PCOD9026017
_publ_section_title
;
Structure prediction by ZEFSAII (Michael W. Deem and Ramdas Pophale) SiO2 
 PCOD9026017
Probable space group: P -1
;
_chemical_formula_sum "Si O2"
_cell_formula_units_Z 12
_cell_length_a 11.590910
_cell_length_b 11.733709
_cell_length_c 13.689211
_cell_angle_alpha 149.517246
_cell_angle_beta 42.833855
_cell_angle_gamma 139.454631
_cell_volume 596.303714
_symmetry_space_group_name_H-M "P -1"
_symmetry_group_IT_number 2
_symmetry_cell_setting 'triclinic'
loop_
_space_group_symop_operation_xyz
x,y,z
-x,-y,-z
loop_
_atom_site_type_symbol
_atom_site_label
_atom_site_fract_x
_atom_site_fract_y
_atom_site_fract_z
Si Si1 0.868304 0.662054 0.268993
Si Si2 0.846919 0.153606 0.607034
Si Si3 0.059354 0.121974 0.814017
Si Si4 0.516112 0.285204 0.268866
Si Si5 0.666746 0.898878 0.944633
Si Si6 0.407113 0.547733 0.996071
O O1 0.697161 0.415744 0.187392
O O2 0.991046 0.679883 0.300465
O O3 0.795240 0.885879 0.488832
O O4 0.027663 0.269587 0.848194
O O5 0.692939 0.264420 0.782129
O O6 0.911193 0.105555 0.424335
O O7 0.246942 0.301991 0.877349
O O8 0.882537 0.033969 0.927115
O O9 0.500000 0.500000 0.500000
O O10 0.353798 0.178045 0.213723
O O11 0.560147 0.083583 0.152757
O O12 0.562213 0.672235 0.910527
O O13 0.500000 0.500000 0.000000
#
# Coordination Sequence:
#
# PCOD9026017 Si02
#       6
#     2   2   2   2   2   2
#     4   9  18  37  63  89 127 153 185 255 323 354
#     4   9  20  38  63  91 124 160 197 248 316 362
#     4  10  22  41  61  90 121 159 203 254 307 357
#     4  11  21  34  59  99 127 151 195 253 318 373
#     4  11  24  37  62  92 122 158 208 251 302 367
#     4  12  26  43  61  86 125 173 211 244 293 362
#
# _framework density 20.123972999999999
#
# number of rings (size 3 to 8) (size 9 to 14) (size 15 to 20)
#    1.000    0.667    1.667    3.000    4.667    2.667 
#    0.000    0.833    0.000    0.000    0.000    0.000 
#    0.000    0.000    0.000    0.000    0.000    0.000 
#
# Total GULP energy -66947.568756 kJ/mol
# GULP energy per Si atom -5578.964063 kJ/mol
# Density = 2.007817 g / cm^3
# Si number density = 20.123973 Si / 1000 Ang^3
#
#
#
# Elastic Constant Matrix: (Units=GPa)
#
#
# Indices 1 2 3 4 5 6 
#
# 1 116.9153 56.0665 36.9374 0.3512 -0.0449 7.2975
# 2 56.0665 112.3770 8.0297 -3.6773 2.8526 22.3918
# 3 36.9374 8.0297 91.8588 -5.9466 5.6544 0.0348
# 4 0.3512 -3.6773 -5.9466 24.9636 5.4978 1.9091
# 5 -0.0449 2.8526 5.6544 5.4978 25.3894 3.5778
# 6 7.2975 22.3918 0.0348 1.9091 3.5778 20.9938
#
#
#
# Elastic Compliance Matrix: (Units=1/GPa)
#
#
# Indices 1 2 3 4 5 6 
#
# 1 0.013367 -0.007010 -0.005104 -0.003140 0.002241 0.002743
# 2 -0.007010 0.015212 0.001822 0.004072 -0.001038 -0.013985
# 3 -0.005104 0.001822 0.013321 0.004419 -0.004154 0.000115
# 4 -0.003140 0.004072 0.004419 0.044445 -0.010290 -0.005547
# 5 0.002241 -0.001038 -0.004154 -0.010290 0.043527 -0.006147
# 6 0.002743 -0.013985 0.000115 -0.005547 -0.006147 0.063147
#
#
# Mechanical properties :
#
#
# Convention : Reuss Voigt Hill
#
# Bulk Modulus (GPa) = 46.91616 58.13536 52.52576
# Shear Modulus (GPa) = 22.65421 28.94385 25.79903
#
# Velocity S-wave (km/s) = 3.35883 3.79658 3.58439
# Velocity P-wave (km/s) = 6.19730 6.94046 6.57938
#
# Compressibility (1/GPa) = 0.02131462
#
# Stress axis : x y z
#
# Youngs Moduli (GPa) = 74.81271 65.73729 75.06794
#
# Poissons Ratio (x) = 0.46084 0.38318
# Poissons Ratio (y) = 0.52446 -0.13677
# Poissons Ratio (z) = 0.38187 -0.11977
#
# Static dielectric constant tensor:
#      x y z
#    x 1.678590 0.016020 0.010220 
#    y 0.016020 1.748850 -0.028420 
#    z 0.010220 -0.028420 1.799010 
# 
# From -- ./inp_files/72067.got.cif
#   From: 2010.05.17/outbox.cif.g08.bks.cpg/sg2_37_cif.got.tgz:72067.got - 2010.06.03 11:33:40.
