data_PCOD9026139
_publ_section_title
;
Structure prediction by ZEFSAII (Michael W. Deem and Ramdas Pophale) SiO2 
 PCOD9026139
Probable space group: P -1
;
_chemical_formula_sum "Si O2"
_cell_formula_units_Z 14
_cell_length_a 17.944827
_cell_length_b 18.449598
_cell_length_c 15.850890
_cell_angle_alpha 22.099636
_cell_angle_beta 23.696545
_cell_angle_gamma 22.919416
_cell_volume 695.896801
_symmetry_space_group_name_H-M "P -1"
_symmetry_group_IT_number 2
_symmetry_cell_setting 'triclinic'
loop_
_space_group_symop_operation_xyz
x,y,z
-x,-y,-z
loop_
_atom_site_type_symbol
_atom_site_label
_atom_site_fract_x
_atom_site_fract_y
_atom_site_fract_z
Si Si1 0.832142 0.243555 0.381790
Si Si2 0.047593 0.268297 0.667152
Si Si3 0.176128 0.863009 0.086886
Si Si4 0.113513 0.305397 0.885400
Si Si5 0.569322 0.179448 0.981223
Si Si6 0.151177 0.244032 0.408813
Si Si7 0.625989 0.542553 0.427349
O O1 0.775764 0.421245 0.323358
O O2 0.603706 0.268301 0.568038
O O3 0.000000 0.000000 0.500000
O O4 0.934702 0.302129 0.133613
O O5 0.211332 0.196951 0.495963
O O6 0.000000 0.500000 0.500000
O O7 0.846467 0.272646 0.822200
O O8 0.121834 0.093010 0.853539
O O9 0.383222 0.765440 0.033272
O O10 0.990669 0.876064 0.327468
O O11 0.260360 0.370361 0.720400
O O12 0.003137 0.496979 0.724235
O O13 0.252702 0.064988 0.962230
O O14 0.581368 0.356283 0.716988
O O15 0.346909 0.180638 0.213828
#
# Coordination Sequence:
#
# PCOD9026139 Si02
#       7
#     2   2   2   2   2   2   2
#     4  11  24  44  66  91 125 168 207 261 312 369
#     4   9  18  41  65  88 128 166 202 256 309 361
#     4   9  21  39  62  90 128 160 203 262 298 366
#     4  12  24  41  66  91 126 171 204 258 315 365
#     4  12  23  40  64  93 127 163 210 253 314 373
#     4  10  22  41  62  94 126 162 209 258 305 369
#     4  11  24  43  63  93 127 159 216 256 308 377
#
# _framework density 20.117925
#
# number of rings (size 3 to 8) (size 9 to 14) (size 15 to 20)
#    0.857    0.571    4.286    1.286    0.000    3.429 
#    2.571    0.714    0.000    0.000    0.000    0.000 
#    0.000    0.000    0.000    0.000    0.000    0.000 
#
# Total GULP energy -78062.583785 kJ/mol
# GULP energy per Si atom -5575.898842 kJ/mol
# Density = 2.007214 g / cm^3
# Si number density = 20.117925 Si / 1000 Ang^3
#
#
#
# Elastic Constant Matrix: (Units=GPa)
#
#
# Indices 1 2 3 4 5 6 
#
# 1 31.5691 3.7871 -12.0131 -7.4598 -1.9164 -7.3572
# 2 3.7871 85.7390 17.7832 -2.9989 1.7091 -8.1710
# 3 -12.0131 17.7832 54.0129 -2.4753 6.5733 4.4394
# 4 -7.4598 -2.9989 -2.4753 27.4697 -4.0802 -0.0392
# 5 -1.9164 1.7091 6.5733 -4.0802 29.5174 -5.8651
# 6 -7.3572 -8.1710 4.4394 -0.0392 -5.8651 21.8099
#
#
#
# Elastic Compliance Matrix: (Units=1/GPa)
#
#
# Indices 1 2 3 4 5 6 
#
# 1 0.041588 -0.002106 0.008839 0.012644 0.005155 0.012850
# 2 -0.002106 0.013458 -0.005546 0.000640 0.001577 0.005886
# 3 0.008839 -0.005546 0.023478 0.003171 -0.004927 -0.005194
# 4 0.012644 0.000640 0.003171 0.041231 0.006929 0.005797
# 5 0.005155 0.001577 -0.004927 0.006929 0.038921 0.013812
# 6 0.012850 0.005886 -0.005194 0.005797 0.013812 0.057172
#
#
# Mechanical properties :
#
#
# Convention : Reuss Voigt Hill
#
# Bulk Modulus (GPa) = 12.36112 21.15947 16.76029
# Shear Modulus (GPa) = 20.79518 26.54367 23.66942
#
# Velocity S-wave (km/s) = 3.21855 3.63630 3.43379
# Velocity P-wave (km/s) = 4.46876 5.30762 4.90615
#
# Compressibility (1/GPa) = 0.08089884
#
# Stress axis : x y z
#
# Youngs Moduli (GPa) = 24.04526 74.30262 42.59341
#
# Poissons Ratio (x) = 0.15650 -0.37649
# Poissons Ratio (y) = 0.05064 0.23622
# Poissons Ratio (z) = -0.21254 0.41207
#
# Static dielectric constant tensor:
#      x y z
#    x 1.737790 -0.003240 0.005120 
#    y -0.003240 1.684550 0.022560 
#    z 0.005120 0.022560 1.715370 
# 
# From -- ./inp_files/577308.got.cif
#   From: 2010.05.17/outbox.cif.g08.bks.cpg/sg2_289_cif.got.tgz:577308.got - 2010.06.03 11:33:40.
