data_PCOD9026701
_publ_section_title
;
Structure prediction by ZEFSAII (Michael W. Deem and Ramdas Pophale) SiO2 
 PCOD9026701
Probable space group: P -1
;
_chemical_formula_sum "Si O2"
_cell_formula_units_Z 14
_cell_length_a 9.201830
_cell_length_b 27.011402
_cell_length_c 5.469495
_cell_angle_alpha 64.314718
_cell_angle_beta 78.739947
_cell_angle_gamma 31.160409
_cell_volume 587.245662
_symmetry_space_group_name_H-M "P -1"
_symmetry_group_IT_number 2
_symmetry_cell_setting 'triclinic'
loop_
_space_group_symop_operation_xyz
x,y,z
-x,-y,-z
loop_
_atom_site_type_symbol
_atom_site_label
_atom_site_fract_x
_atom_site_fract_y
_atom_site_fract_z
Si Si1 0.107707 0.935189 0.855605
Si Si2 0.856721 0.892635 0.070004
Si Si3 0.005296 0.782676 0.751604
Si Si4 0.604496 0.594249 0.758976
Si Si5 0.292874 0.523323 0.388501
Si Si6 0.738092 0.753509 0.833689
Si Si7 0.816294 0.639235 0.691123
O O1 0.474743 0.819149 0.963178
O O2 0.000000 0.000000 0.500000
O O3 0.972546 0.917445 0.942720
O O4 0.000000 0.000000 0.000000
O O5 0.987995 0.825976 0.422665
O O6 0.932808 0.835217 0.918238
O O7 0.500000 0.000000 0.000000
O O8 0.773643 0.807491 0.720414
O O9 0.363072 0.651547 0.914435
O O10 0.529927 0.583800 0.565284
O O11 0.600145 0.661298 0.620162
O O12 0.957546 0.463623 0.967447
O O13 0.500000 0.500000 0.500000
O O14 0.044293 0.581253 0.529653
O O15 0.084058 0.623504 0.049739
O O16 0.668553 0.741152 0.638040
#
# Coordination Sequence:
#
# PCOD9026701 Si02
#       7
#     2   2   2   2   2   2   2
#     4  12  27  49  78 105 142 183 240 297 357 426
#     4  12  27  48  72 104 140 182 233 294 357 420
#     4  12  26  43  73 101 144 181 235 284 355 422
#     4  10  23  40  62 102 132 191 229 296 347 416
#     4  11  23  39  67  96 145 181 242 288 351 423
#     4  11  26  42  69 105 136 193 234 294 357 419
#     4  10  22  41  65  92 145 175 245 283 351 419
#
# _framework density 23.840109000000002
#
# number of rings (size 3 to 8) (size 9 to 14) (size 15 to 20)
#    0.000    0.857    0.000    6.000   10.000    2.286 
#    0.000    0.000    0.000    0.000    0.000    0.000 
#    0.000    0.000    0.000    0.000    0.000    0.000 
#
# Total GULP energy -78244.637145 kJ/mol
# GULP energy per Si atom -5588.902653 kJ/mol
# Density = 2.378585 g / cm^3
# Si number density = 23.840109 Si / 1000 Ang^3
#
#
#
# Elastic Constant Matrix: (Units=GPa)
#
#
# Indices 1 2 3 4 5 6 
#
# 1 259.1076 100.9028 50.9608 26.4028 -22.8259 13.9581
# 2 100.9028 179.7382 20.9996 41.8737 13.3933 14.4210
# 3 50.9608 20.9996 98.5330 13.6602 1.4154 16.9023
# 4 26.4028 41.8737 13.6602 43.7510 -6.2472 18.6071
# 5 -22.8259 13.3933 1.4154 -6.2472 38.4770 9.4617
# 6 13.9581 14.4210 16.9023 18.6071 9.4617 56.0005
#
#
#
# Elastic Compliance Matrix: (Units=1/GPa)
#
#
# Indices 1 2 3 4 5 6 
#
# 1 0.006365 -0.004192 -0.002561 0.002533 0.006137 -0.001612
# 2 -0.004192 0.010647 0.000967 -0.010449 -0.008649 0.002945
# 3 -0.002561 0.000967 0.012002 -0.002597 -0.002229 -0.001993
# 4 0.002533 -0.010449 -0.002597 0.039733 0.014851 -0.012868
# 5 0.006137 -0.008649 -0.002229 0.014851 0.037571 -0.009912
# 6 -0.001612 0.002945 -0.001993 -0.012868 -0.009912 0.024052
#
#
# Mechanical properties :
#
#
# Convention : Reuss Voigt Hill
#
# Bulk Modulus (GPa) = 57.33851 98.12280 77.73065
# Shear Modulus (GPa) = 33.83955 51.94675 42.89315
#
# Velocity S-wave (km/s) = 3.77163 4.67300 4.24630
# Velocity P-wave (km/s) = 6.56281 8.38832 7.53108
#
# Compressibility (1/GPa) = 0.01744029
#
# Stress axis : x y z
#
# Youngs Moduli (GPa) = 157.10875 93.92690 83.32264
#
# Poissons Ratio (x) = 0.39374 0.21341
# Poissons Ratio (y) = 0.65860 -0.08056
# Poissons Ratio (z) = 0.40239 -0.09081
#
# Static dielectric constant tensor:
#      x y z
#    x 1.899420 0.022410 0.050190 
#    y 0.022410 1.892140 -0.122460 
#    z 0.050190 -0.122460 2.081250 
# 
# From -- ./inp_files/52825.got.cif
#   From: 2010.05.17/outbox.cif.g08.bks.cpg/sg2_27_cif.got.tgz:52825.got - 2010.06.03 11:33:40.
