data_PCOD9026839
_publ_section_title
;
Structure prediction by ZEFSAII (Michael W. Deem and Ramdas Pophale) SiO2 
 PCOD9026839
Probable space group: P -1
;
_chemical_formula_sum "Si O2"
_cell_formula_units_Z 16
_cell_length_a 15.434890
_cell_length_b 8.976934
_cell_length_c 12.306411
_cell_angle_alpha 109.164907
_cell_angle_beta 143.936279
_cell_angle_gamma 48.597562
_cell_volume 665.687170
_symmetry_space_group_name_H-M "P -1"
_symmetry_group_IT_number 2
_symmetry_cell_setting 'triclinic'
loop_
_space_group_symop_operation_xyz
x,y,z
-x,-y,-z
loop_
_atom_site_type_symbol
_atom_site_label
_atom_site_fract_x
_atom_site_fract_y
_atom_site_fract_z
Si Si1 0.414029 0.304866 0.027758
Si Si2 0.075850 0.309245 0.753462
Si Si3 0.982329 0.057309 0.621895
Si Si4 0.233443 0.035112 0.534234
Si Si5 0.167954 0.327808 0.220100
Si Si6 0.513873 0.553317 0.281472
Si Si7 0.700190 0.644973 0.324637
Si Si8 0.618531 0.134904 0.590101
O O1 0.383504 0.320752 0.872355
O O2 0.259941 0.291279 0.917658
O O3 0.638816 0.085617 0.252802
O O4 0.389084 0.501635 0.092568
O O5 0.133264 0.091513 0.802297
O O6 0.917025 0.512918 0.724580
O O7 0.934473 0.397407 0.523028
O O8 0.982704 0.895119 0.650883
O O9 0.752906 0.306721 0.476538
O O10 0.000000 0.000000 0.500000
O O11 0.333524 0.878841 0.491106
O O12 0.257727 0.201770 0.577917
O O13 0.394181 0.219108 0.388545
O O14 0.207064 0.116224 0.242022
O O15 0.000000 0.500000 0.000000
O O16 0.546428 0.675237 0.260992
O O17 0.411057 0.692075 0.321366
#
# Coordination Sequence:
#
# PCOD9026839 Si02
#       8
#     2   2   2   2   2   2   2   2
#     4  11  24  38  66 103 137 183 239 288 343 435
#     4  11  22  44  62  98 138 180 232 289 363 410
#     4  10  22  41  65  98 137 183 233 285 352 419
#     4  11  23  41  70 103 133 186 235 284 363 418
#     4  11  22  42  73 107 139 185 240 290 356 430
#     4  10  23  44  69 100 138 195 230 287 365 418
#     4  11  20  42  66  94 138 179 232 287 351 424
#     4  11  21  46  74 100 150 185 232 298 360 424
#
# _framework density 24.035314
#
# number of rings (size 3 to 8) (size 9 to 14) (size 15 to 20)
#    0.000    1.250    3.750    3.375    0.000    4.000 
#    2.250    5.625    0.000    0.000    0.000    0.000 
#    0.000    0.000    0.000    0.000    0.000    0.000 
#
# Total GULP energy -89444.778198 kJ/mol
# GULP energy per Si atom -5590.298637 kJ/mol
# Density = 2.398061 g / cm^3
# Si number density = 24.035314 Si / 1000 Ang^3
#
#
#
# Elastic Constant Matrix: (Units=GPa)
#
#
# Indices 1 2 3 4 5 6 
#
# 1 120.8555 44.2700 40.3965 29.7593 9.8393 8.9130
# 2 44.2700 140.8361 47.7428 32.5352 0.6102 2.2586
# 3 40.3965 47.7428 117.0682 -2.5122 -8.1058 14.6267
# 4 29.7593 32.5352 -2.5122 50.5434 9.4194 6.1905
# 5 9.8393 0.6102 -8.1058 9.4194 35.9114 8.6664
# 6 8.9130 2.2586 14.6267 6.1905 8.6664 39.3491
#
#
#
# Elastic Compliance Matrix: (Units=1/GPa)
#
#
# Indices 1 2 3 4 5 6 
#
# 1 0.011602 -0.000895 -0.004001 -0.006024 -0.002590 0.000429
# 2 -0.000895 0.010347 -0.004305 -0.006675 0.000320 0.002189
# 3 -0.004001 -0.004305 0.012731 0.005697 0.003832 -0.005319
# 4 -0.006024 -0.006675 0.005697 0.029088 -0.003576 -0.004159
# 5 -0.002590 0.000320 0.003832 -0.003576 0.032132 -0.007370
# 6 0.000429 0.002189 -0.005319 -0.004159 -0.007370 0.029446
#
#
# Mechanical properties :
#
#
# Convention : Reuss Voigt Hill
#
# Bulk Modulus (GPa) = 61.43461 71.50872 66.47167
# Shear Modulus (GPa) = 33.51833 41.58415 37.55124
#
# Velocity S-wave (km/s) = 3.73841 4.16399 3.95693
# Velocity P-wave (km/s) = 6.65206 7.27561 6.97081
#
# Compressibility (1/GPa) = 0.01627747
#
# Stress axis : x y z
#
# Youngs Moduli (GPa) = 86.19294 96.64798 78.55128
#
# Poissons Ratio (x) = 0.08648 0.31426
# Poissons Ratio (y) = 0.07712 0.33820
# Poissons Ratio (z) = 0.34483 0.41611
#
# Static dielectric constant tensor:
#      x y z
#    x 1.948350 0.063650 0.000710 
#    y 0.063650 1.994440 0.000810 
#    z 0.000710 0.000810 1.974520 
# 
# From -- ./inp_files/447918.got.cif
#   From: 2010.05.17/outbox.cif.g08.bks.cpg/sg2_224_cif.got.tgz:447918.got - 2010.06.03 11:33:40.
