data_PCOD9026155
_publ_section_title
;
Structure prediction by ZEFSAII (Michael W. Deem and Ramdas Pophale) SiO2 
 PCOD9026155
Probable space group: P -1
;
_chemical_formula_sum "Si O2"
_cell_formula_units_Z 16
_cell_length_a 12.640622
_cell_length_b 15.965005
_cell_length_c 15.071049
_cell_angle_alpha 143.279250
_cell_angle_beta 29.015196
_cell_angle_gamma 155.186500
_cell_volume 618.649158
_symmetry_space_group_name_H-M "P -1"
_symmetry_group_IT_number 2
_symmetry_cell_setting 'triclinic'
loop_
_space_group_symop_operation_xyz
x,y,z
-x,-y,-z
loop_
_atom_site_type_symbol
_atom_site_label
_atom_site_fract_x
_atom_site_fract_y
_atom_site_fract_z
Si Si1 0.859977 0.794271 0.704256
Si Si2 0.777962 0.799100 0.112995
Si Si3 0.668963 0.313619 0.299416
Si Si4 0.330726 0.892307 0.713636
Si Si5 0.793068 0.067142 0.787420
Si Si6 0.770703 0.612043 0.125975
Si Si7 0.212208 0.705033 0.463619
Si Si8 0.949867 0.244147 0.632982
O O1 0.494572 0.605826 0.823675
O O2 0.006639 0.716880 0.568643
O O3 0.956418 0.844531 0.573233
O O4 0.996650 0.985003 0.821609
O O5 0.663702 0.643593 0.142821
O O6 0.475828 0.739178 0.247068
O O7 0.004866 0.187999 0.101574
O O8 0.659991 0.238904 0.339760
O O9 0.783656 0.523225 0.387892
O O10 0.355302 0.135928 0.325070
O O11 0.943902 0.353538 0.083840
O O12 0.384721 0.870101 0.555306
O O13 0.601267 0.114661 0.742516
O O14 0.902508 0.206583 0.740066
O O15 0.085795 0.210461 0.759829
O O16 0.500000 0.000000 0.000000
O O17 0.000000 0.500000 0.500000
#
# Coordination Sequence:
#
# PCOD9026155 Si02
#       8
#     2   2   2   2   2   2   2   2
#     4  12  25  41  64  95 134 171 217 272 328 382
#     4  11  24  44  66  93 135 172 221 275 315 386
#     4   9  20  40  66  96 127 172 218 266 324 387
#     4  10  23  43  67  96 132 178 220 262 326 384
#     4   9  21  40  66  95 130 170 219 266 330 390
#     4  10  22  41  62  95 129 171 218 268 326 386
#     4  12  24  45  67  94 137 175 215 274 325 383
#     4  11  22  40  67  96 132 171 213 273 327 385
#
# _framework density 25.8628
#
# number of rings (size 3 to 8) (size 9 to 14) (size 15 to 20)
#    0.000    1.500    2.500    2.625    0.000    4.500 
#    2.250    1.250    0.000    0.000    0.000    0.000 
#    0.000    0.000    0.000    0.000    0.000    0.000 
#
# Total GULP energy -89667.334804 kJ/mol
# GULP energy per Si atom -5604.208425 kJ/mol
# Density = 2.580394 g / cm^3
# Si number density = 25.862800 Si / 1000 Ang^3
#
#
#
# Elastic Constant Matrix: (Units=GPa)
#
#
# Indices 1 2 3 4 5 6 
#
# 1 76.3926 -6.8390 30.2972 -11.2209 10.6012 -2.9299
# 2 -6.8390 115.6486 20.1460 -9.7704 9.9221 -2.3638
# 3 30.2972 20.1460 75.2934 -23.4349 6.1825 -14.4526
# 4 -11.2209 -9.7704 -23.4349 44.7814 0.3450 3.1654
# 5 10.6012 9.9221 6.1825 0.3450 33.4566 -8.4113
# 6 -2.9299 -2.3638 -14.4526 3.1654 -8.4113 27.2257
#
#
#
# Elastic Compliance Matrix: (Units=1/GPa)
#
#
# Indices 1 2 3 4 5 6 
#
# 1 0.017199 0.002868 -0.007541 0.001308 -0.005895 -0.003877
# 2 0.002868 0.009799 -0.003475 0.001205 -0.003678 -0.001962
# 3 -0.007541 -0.003475 0.021445 0.007858 0.001874 0.009936
# 4 0.001308 0.001205 0.007858 0.027013 -0.002365 0.000545
# 5 -0.005895 -0.003678 0.001874 -0.002365 0.035352 0.011238
# 6 -0.003877 -0.001962 0.009936 0.000545 0.011238 0.044826
#
#
# Mechanical properties :
#
#
# Convention : Reuss Voigt Hill
#
# Bulk Modulus (GPa) = 31.10807 39.39366 35.25087
# Shear Modulus (GPa) = 27.37531 36.00808 31.69170
#
# Velocity S-wave (km/s) = 3.25696 3.73537 3.50434
# Velocity P-wave (km/s) = 5.11839 5.81969 5.48027
#
# Compressibility (1/GPa) = 0.03214600
#
# Stress axis : x y z
#
# Youngs Moduli (GPa) = 58.14183 102.04948 46.63146
#
# Poissons Ratio (x) = -0.29266 0.35165
# Poissons Ratio (y) = -0.16674 0.16207
# Poissons Ratio (z) = 0.43844 0.35467
#
# Static dielectric constant tensor:
#      x y z
#    x 2.048850 -0.026720 -0.055600 
#    y -0.026720 2.054440 0.038110 
#    z -0.055600 0.038110 2.040340 
# 
# From -- ./inp_files/500682.got.cif
#   From: 2010.05.17/outbox.cif.g08.bks.cpg/sg2_251_cif.got.tgz:500682.got - 2010.06.03 11:33:40.
