data_PCOD9026159
_publ_section_title
;
Structure prediction by ZEFSAII (Michael W. Deem and Ramdas Pophale) SiO2 
 PCOD9026159
Probable space group: P -1
;
_chemical_formula_sum "Si O2"
_cell_formula_units_Z 14
_cell_length_a 5.467235
_cell_length_b 20.367376
_cell_length_c 13.003826
_cell_angle_alpha 148.143461
_cell_angle_beta 71.276870
_cell_angle_gamma 120.358554
_cell_volume 640.548158
_symmetry_space_group_name_H-M "P -1"
_symmetry_group_IT_number 2
_symmetry_cell_setting 'triclinic'
loop_
_space_group_symop_operation_xyz
x,y,z
-x,-y,-z
loop_
_atom_site_type_symbol
_atom_site_label
_atom_site_fract_x
_atom_site_fract_y
_atom_site_fract_z
Si Si1 0.595074 0.707667 0.339383
Si Si2 0.120904 0.751294 0.904805
Si Si3 0.847196 0.336934 0.834430
Si Si4 0.231584 0.047712 0.194508
Si Si5 0.185619 0.396688 0.450934
Si Si6 0.054751 0.442888 0.156592
Si Si7 0.307160 0.145825 0.107896
O O1 0.437861 0.730521 0.289469
O O2 0.654049 0.826410 0.573756
O O3 0.361617 0.554898 0.213640
O O4 0.907384 0.713382 0.284735
O O5 0.448896 0.776038 0.907409
O O6 0.016495 0.654615 0.689892
O O7 0.918801 0.664513 0.909696
O O8 0.168812 0.905914 0.075439
O O9 0.000000 0.500000 0.000000
O O10 0.826647 0.346972 0.973030
O O11 0.427593 0.107994 0.144802
O O12 0.923314 0.994182 0.104611
O O13 0.500000 0.500000 0.500000
O O14 0.194561 0.256441 0.302456
O O15 0.069515 0.466675 0.643812
#
# Coordination Sequence:
#
# PCOD9026159 Si02
#       7
#     2   2   2   2   2   2   2
#     4  11  25  45  73  99 129 179 237 277 336 397
#     4  11  23  41  59 100 134 170 217 270 343 406
#     4  10  24  45  67 104 131 172 233 287 334 394
#     4  10  24  40  67  90 133 181 216 273 328 408
#     4  11  23  36  62 103 134 168 215 271 340 410
#     4  11  23  41  69  96 134 173 217 291 337 386
#     4  10  22  41  62  95 135 173 221 263 334 413
#
# _framework density 21.856283000000001
#
# number of rings (size 3 to 8) (size 9 to 14) (size 15 to 20)
#    0.000    1.429    1.429    3.429    8.000    2.286 
#    0.000    1.429    0.000    0.000    0.000    0.000 
#    0.000    0.000    0.000    0.000    0.000    0.000 
#
# Total GULP energy -78057.664509 kJ/mol
# GULP energy per Si atom -5575.547465 kJ/mol
# Density = 2.180654 g / cm^3
# Si number density = 21.856283 Si / 1000 Ang^3
#
#
#
# Elastic Constant Matrix: (Units=GPa)
#
#
# Indices 1 2 3 4 5 6 
#
# 1 83.5386 26.5627 42.6840 -3.9536 10.0435 -14.5444
# 2 26.5627 99.5419 41.4748 3.5759 2.6814 -24.1503
# 3 42.6840 41.4748 107.2525 -3.2402 29.3318 -22.5924
# 4 -3.9536 3.5759 -3.2402 35.1916 -5.3934 5.8133
# 5 10.0435 2.6814 29.3318 -5.3934 30.1012 5.1965
# 6 -14.5444 -24.1503 -22.5924 5.8133 5.1965 36.3101
#
#
#
# Elastic Compliance Matrix: (Units=1/GPa)
#
#
# Indices 1 2 3 4 5 6 
#
# 1 0.015461 -0.001609 -0.005055 0.001101 -0.000209 0.001831
# 2 -0.001609 0.013641 -0.003775 -0.002740 0.001420 0.006314
# 3 -0.005055 -0.003775 0.021056 -0.003508 -0.021224 0.012164
# 4 0.001101 -0.002740 -0.003508 0.031829 0.010758 -0.010199
# 5 -0.000209 0.001420 -0.021224 0.010758 0.059676 -0.022608
# 6 0.001831 0.006314 0.012164 -0.010199 -0.022608 0.044911
#
#
# Mechanical properties :
#
#
# Convention : Reuss Voigt Hill
#
# Bulk Modulus (GPa) = 34.15413 56.86401 45.50907
# Shear Modulus (GPa) = 23.01903 32.29467 27.65685
#
# Velocity S-wave (km/s) = 3.24882 3.84812 3.56110
# Velocity P-wave (km/s) = 5.45287 6.76888 6.14620
#
# Compressibility (1/GPa) = 0.02927903
#
# Stress axis : x y z
#
# Youngs Moduli (GPa) = 64.67919 73.31042 47.49221
#
# Poissons Ratio (x) = 0.11798 0.24006
# Poissons Ratio (y) = 0.10409 0.17930
# Poissons Ratio (z) = 0.32693 0.27677
#
# Static dielectric constant tensor:
#      x y z
#    x 1.982050 0.066420 0.026440 
#    y 0.066420 1.998770 0.021250 
#    z 0.026440 0.021250 1.807760 
# 
# From -- ./inp_files/366831.got.cif
#   From: 2010.05.17/outbox.cif.g08.bks.cpg/sg2_184_cif.got.tgz:366831.got - 2010.06.03 11:33:40.
