data_PCOD9026744
_publ_section_title
;
Structure prediction by ZEFSAII (Michael W. Deem and Ramdas Pophale) SiO2 
 PCOD9026744
Probable space group: P -1
;
_chemical_formula_sum "Si O2"
_cell_formula_units_Z 15
_cell_length_a 17.107724
_cell_length_b 19.436783
_cell_length_c 7.374593
_cell_angle_alpha 58.527764
_cell_angle_beta 116.051331
_cell_angle_gamma 161.715657
_cell_volume 641.339200
_symmetry_space_group_name_H-M "P -1"
_symmetry_group_IT_number 2
_symmetry_cell_setting 'triclinic'
loop_
_space_group_symop_operation_xyz
x,y,z
-x,-y,-z
loop_
_atom_site_type_symbol
_atom_site_label
_atom_site_fract_x
_atom_site_fract_y
_atom_site_fract_z
Si Si1 0.997574 0.982589 0.305582
Si Si2 0.749047 0.603947 0.634693
Si Si3 0.131132 0.700154 0.844409
Si Si4 0.246120 0.952257 0.205188
Si Si5 0.319593 0.193148 0.043296
Si Si6 0.500000 0.000000 0.500000
Si Si7 0.261638 0.966330 0.790276
Si Si8 0.747334 0.471574 0.524389
O O1 0.794416 0.732472 0.427591
O O2 0.897613 0.969395 0.100311
O O3 0.000000 0.000000 0.500000
O O4 0.250092 0.172170 0.195106
O O5 0.572784 0.442704 0.854077
O O6 0.656524 0.466504 0.564762
O O7 0.025144 0.811345 0.690406
O O8 0.392350 0.912062 0.715955
O O9 0.188467 0.808186 0.921666
O O10 0.937294 0.583652 0.686445
O O11 0.000000 0.500000 0.000000
O O12 0.392267 0.999952 0.352461
O O13 0.940084 0.670085 0.293255
O O14 0.320705 0.036742 0.960272
O O15 0.310125 0.088578 0.193631
O O16 0.511782 0.209270 0.599015
#
# Coordination Sequence:
#
# PCOD9026744 Si02
#       8
#     2   2   2   2   2   1   2   2
#     4  11  25  45  72 109 140 185 237 289 362 432
#     4  11  23  44  69 101 141 179 223 300 349 414
#     4  10  23  41  64  94 136 179 224 294 346 404
#     4  11  22  44  68 101 134 186 234 287 355 415
#     4  11  24  45  74 102 146 185 235 296 357 421
#     4  10  24  40  68  94 140 178 224 284 354 402
#     4  11  24  41  70 102 131 185 240 276 355 432
#     4  10  22  41  65  94 137 180 223 285 348 409
#
# _framework density 23.388559999999998
#
# number of rings (size 3 to 8) (size 9 to 14) (size 15 to 20)
#    0.000    1.333    2.667    2.000    1.867    4.800 
#    0.000    2.667    0.000    0.000    0.000    0.000 
#    0.000    0.000    0.000    0.000    0.000    0.000 
#
# Total GULP energy -83569.358300 kJ/mol
# GULP energy per Si atom -5571.290553 kJ/mol
# Density = 2.333533 g / cm^3
# Si number density = 23.388560 Si / 1000 Ang^3
#
#
#
# Elastic Constant Matrix: (Units=GPa)
#
#
# Indices 1 2 3 4 5 6 
#
# 1 132.4697 23.4374 42.1899 5.6342 0.6853 6.3615
# 2 23.4374 39.4072 15.5208 -2.5667 5.3430 9.0222
# 3 42.1899 15.5208 96.8912 -2.7008 -0.0190 6.6288
# 4 5.6342 -2.5667 -2.7008 42.3571 0.7863 -7.2534
# 5 0.6853 5.3430 -0.0190 0.7863 44.4938 -6.8972
# 6 6.3615 9.0222 6.6288 -7.2534 -6.8972 25.8777
#
#
#
# Elastic Compliance Matrix: (Units=1/GPa)
#
#
# Indices 1 2 3 4 5 6 
#
# 1 0.009522 -0.004386 -0.003471 -0.001818 0.000359 -0.000336
# 2 -0.004386 0.032227 -0.002497 0.000629 -0.005490 -0.010805
# 3 -0.003471 -0.002497 0.012335 0.000899 0.000166 -0.001140
# 4 -0.001818 0.000629 0.000899 0.025171 0.000627 0.007220
# 5 0.000359 -0.005490 0.000166 0.000627 0.024431 0.008471
# 6 -0.000336 -0.010805 -0.001140 0.007220 0.008471 0.047067
#
#
# Mechanical properties :
#
#
# Convention : Reuss Voigt Hill
#
# Bulk Modulus (GPa) = 29.96146 47.89604 38.92875
# Shear Modulus (GPa) = 27.38427 35.05370 31.21898
#
# Velocity S-wave (km/s) = 3.42547 3.87557 3.65745
# Velocity P-wave (km/s) = 5.33697 6.36786 5.87507
#
# Compressibility (1/GPa) = 0.03337621
#
# Stress axis : x y z
#
# Youngs Moduli (GPa) = 105.01915 31.02976 81.06755
#
# Poissons Ratio (x) = 0.13610 0.28141
# Poissons Ratio (y) = 0.46062 0.20242
# Poissons Ratio (z) = 0.36455 0.07748
#
# Static dielectric constant tensor:
#      x y z
#    x 1.896160 0.010710 0.009130 
#    y 0.010710 1.896580 -0.024460 
#    z 0.009130 -0.024460 1.853420 
# 
# From -- ./inp_files/337141.got.cif
#   From: 2010.05.17/outbox.cif.g08.bks.cpg/sg2_169_cif.got.tgz:337141.got - 2010.06.03 11:33:40.
