data_PCOD9026055
_publ_section_title
;
Structure prediction by ZEFSAII (Michael W. Deem and Ramdas Pophale) SiO2 
 PCOD9026055
Probable space group: P -1
;
_chemical_formula_sum "Si O2"
_cell_formula_units_Z 14
_cell_length_a 7.833259
_cell_length_b 12.708108
_cell_length_c 9.366946
_cell_angle_alpha 79.810400
_cell_angle_beta 112.640322
_cell_angle_gamma 134.192827
_cell_volume 611.121064
_symmetry_space_group_name_H-M "P -1"
_symmetry_group_IT_number 2
_symmetry_cell_setting 'triclinic'
loop_
_space_group_symop_operation_xyz
x,y,z
-x,-y,-z
loop_
_atom_site_type_symbol
_atom_site_label
_atom_site_fract_x
_atom_site_fract_y
_atom_site_fract_z
Si Si1 0.732148 0.143327 0.682659
Si Si2 0.030108 0.937351 0.716201
Si Si3 0.773238 0.367347 0.134218
Si Si4 0.691144 0.479502 0.828428
Si Si5 0.132179 0.795620 0.963698
Si Si6 0.510466 0.176935 0.363009
Si Si7 0.833922 0.779344 0.400908
O O1 0.616765 0.199384 0.550829
O O2 0.967413 0.196837 0.648133
O O3 0.533844 0.964067 0.667106
O O4 0.820271 0.198252 0.857060
O O5 0.765576 0.878776 0.705483
O O6 0.954456 0.830256 0.585229
O O7 0.177675 0.930081 0.883906
O O8 0.184354 0.102040 0.672329
O O9 0.716153 0.232836 0.068422
O O10 0.686509 0.315253 0.280143
O O11 0.081605 0.498710 0.179893
O O12 0.643871 0.406083 0.985624
O O13 0.441238 0.382890 0.674923
O O14 0.834639 0.647830 0.866695
#
# Coordination Sequence:
#
# PCOD9026055 Si02
#       7
#     2   2   2   2   2   2   2
#     4  10  23  39  63  94 124 159 206 251 306 360
#     4  10  23  39  66  95 114 163 211 248 309 350
#     4   9  21  42  61  87 126 163 202 246 307 366
#     4   9  22  41  63  87 128 162 202 248 307 364
#     4  10  22  41  61  95 118 158 213 243 305 366
#     4  10  22  41  62  92 127 159 201 258 303 359
#     4  10  22  42  63  85 132 158 202 257 299 364
#
# _framework density 22.908719999999999
#
# number of rings (size 3 to 8) (size 9 to 14) (size 15 to 20)
#    0.857    1.429    0.000    0.857    6.000    4.000 
#    0.000    1.429    0.000    0.000    0.000    0.000 
#    0.000    0.000    0.000    0.000    0.000    0.000 
#
# Total GULP energy -78217.787204 kJ/mol
# GULP energy per Si atom -5586.984800 kJ/mol
# Density = 2.285658 g / cm^3
# Si number density = 22.908720 Si / 1000 Ang^3
#
#
#
# Elastic Constant Matrix: (Units=GPa)
#
#
# Indices 1 2 3 4 5 6 
#
# 1 15.9733 -0.1329 -4.5638 -10.1797 3.6308 -5.3747
# 2 -0.1329 67.1718 34.6218 -0.7140 5.7385 12.8364
# 3 -4.5638 34.6218 74.3183 -13.4905 -6.5673 -7.3654
# 4 -10.1797 -0.7140 -13.4905 46.0486 7.0100 4.5501
# 5 3.6308 5.7385 -6.5673 7.0100 17.0219 -5.5870
# 6 -5.3747 12.8364 -7.3654 4.5501 -5.5870 22.2898
#
#
#
# Elastic Compliance Matrix: (Units=1/GPa)
#
#
# Indices 1 2 3 4 5 6 
#
# 1 0.096540 -0.015302 0.020070 0.025003 -0.007576 0.031719
# 2 -0.015302 0.040781 -0.027727 -0.001011 -0.035549 -0.045041
# 3 0.020070 -0.027727 0.035045 0.006128 0.028639 0.038314
# 4 0.025003 -0.001011 0.006128 0.031696 -0.016312 -0.001923
# 5 -0.007576 -0.035549 0.028639 -0.016312 0.109438 0.058869
# 6 0.031719 -0.045041 0.038314 -0.001923 0.058869 0.106259
#
#
# Mechanical properties :
#
#
# Convention : Reuss Voigt Hill
#
# Bulk Modulus (GPa) = 7.90833 24.14596 16.02714
# Shear Modulus (GPa) = 9.84588 25.57460 17.71024
#
# Velocity S-wave (km/s) = 2.07538 3.34484 2.78345
# Velocity P-wave (km/s) = 3.03357 5.04779 4.16430
#
# Compressibility (1/GPa) = 0.12644902
#
# Stress axis : x y z
#
# Youngs Moduli (GPa) = 10.35837 24.52117 28.53470
#
# Poissons Ratio (x) = 0.37522 -0.57268
# Poissons Ratio (y) = 0.15850 0.79117
# Poissons Ratio (z) = -0.20789 0.67989
#
# Static dielectric constant tensor:
#      x y z
#    x 1.838560 -0.000110 0.003370 
#    y -0.000110 1.879190 0.015630 
#    z 0.003370 0.015630 1.838220 
# 
# From -- ./inp_files/207063.got.cif
#   From: 2010.05.17/outbox.cif.g08.bks.cpg/sg2_104_cif.got.tgz:207063.got - 2010.06.03 11:33:40.
