data_PCOD9026760
_publ_section_title
;
Structure prediction by ZEFSAII (Michael W. Deem and Ramdas Pophale) SiO2 
 PCOD9026760
Probable space group: P -1
;
_chemical_formula_sum "Si O2"
_cell_formula_units_Z 14
_cell_length_a 13.652980
_cell_length_b 13.864030
_cell_length_c 11.797419
_cell_angle_alpha 57.520827
_cell_angle_beta 122.587860
_cell_angle_gamma 159.030401
_cell_volume 669.030918
_symmetry_space_group_name_H-M "P -1"
_symmetry_group_IT_number 2
_symmetry_cell_setting 'triclinic'
loop_
_space_group_symop_operation_xyz
x,y,z
-x,-y,-z
loop_
_atom_site_type_symbol
_atom_site_label
_atom_site_fract_x
_atom_site_fract_y
_atom_site_fract_z
Si Si1 0.660687 0.894297 0.109195
Si Si2 0.731363 0.768874 0.402106
Si Si3 0.927628 0.532208 0.027525
Si Si4 0.072948 0.079046 0.866497
Si Si5 0.393640 0.764933 0.507264
Si Si6 0.469944 0.574439 0.702902
Si Si7 0.802003 0.315582 0.333877
O O1 0.714327 0.883147 0.272527
O O2 0.338476 0.632144 0.069881
O O3 0.762590 0.888904 0.088164
O O4 0.820455 0.153387 0.016067
O O5 0.500000 0.500000 0.500000
O O6 0.687195 0.653205 0.335498
O O7 0.000000 0.000000 0.500000
O O8 0.844079 0.403512 0.178936
O O9 0.000000 0.500000 0.000000
O O10 0.786448 0.831941 0.770595
O O11 0.263941 0.363950 0.809619
O O12 0.000000 0.000000 0.000000
O O13 0.439585 0.673113 0.573766
O O14 0.364596 0.756024 0.631826
O O15 0.109186 0.562594 0.412066
O O16 0.633589 0.047790 0.414496
#
# Coordination Sequence:
#
# PCOD9026760 Si02
#       7
#     2   2   2   2   2   2   2
#     4  11  25  44  64  97 134 169 224 281 325 403
#     4  11  23  42  66  94 131 177 215 276 339 395
#     4  12  26  44  67  94 133 182 232 271 336 404
#     4  11  24  40  66 101 134 172 215 267 351 413
#     4  10  22  41  65  95 132 172 225 285 335 400
#     4  11  23  40  64 100 131 165 229 268 332 421
#     4  10  23  41  63  94 131 176 229 279 339 390
#
# _framework density 20.925789999999999
#
# number of rings (size 3 to 8) (size 9 to 14) (size 15 to 20)
#    0.000    1.143    0.000    6.857    4.000    3.429 
#    0.000    0.000    0.000    0.000    0.000    0.000 
#    0.000    0.000    0.000    0.000    0.000    0.000 
#
# Total GULP energy -78013.830421 kJ/mol
# GULP energy per Si atom -5572.416459 kJ/mol
# Density = 2.087816 g / cm^3
# Si number density = 20.925790 Si / 1000 Ang^3
#
#
#
# Elastic Constant Matrix: (Units=GPa)
#
#
# Indices 1 2 3 4 5 6 
#
# 1 47.9543 20.7095 19.3655 7.4996 27.5667 3.0975
# 2 20.7095 245.6615 0.8196 -15.3507 128.0290 77.4397
# 3 19.3655 0.8196 92.6697 -15.8829 -11.2162 4.3645
# 4 7.4996 -15.3507 -15.8829 55.1240 3.6326 9.2658
# 5 27.5667 128.0290 -11.2162 3.6326 141.2696 55.5346
# 6 3.0975 77.4397 4.3645 9.2658 55.5346 69.0519
#
#
#
# Elastic Compliance Matrix: (Units=1/GPa)
#
#
# Indices 1 2 3 4 5 6 
#
# 1 0.031030 -0.001213 -0.009378 -0.008162 -0.008981 0.008879
# 2 -0.001213 0.009656 0.000525 0.004508 -0.005998 -0.006588
# 3 -0.009378 0.000525 0.014638 0.006281 0.004556 -0.005601
# 4 -0.008162 0.004508 0.006281 0.023773 0.000948 -0.009039
# 5 -0.008981 -0.005998 0.004556 0.000948 0.017497 -0.007357
# 6 0.008879 -0.006588 -0.005601 -0.009039 -0.007357 0.028956
#
#
# Mechanical properties :
#
#
# Convention : Reuss Voigt Hill
#
# Bulk Modulus (GPa) = 28.41599 52.00829 40.21214
# Shear Modulus (GPa) = 31.76395 76.11517 53.93956
#
# Velocity S-wave (km/s) = 3.90029 6.03762 5.08257
# Velocity P-wave (km/s) = 5.82168 8.57388 7.32814
#
# Compressibility (1/GPa) = 0.03519146
#
# Stress axis : x y z
#
# Youngs Moduli (GPa) = 32.22721 103.56524 68.31631
#
# Poissons Ratio (x) = 0.12564 0.64065
# Poissons Ratio (y) = 0.03910 -0.03587
# Poissons Ratio (z) = 0.30222 -0.05437
#
# Static dielectric constant tensor:
#      x y z
#    x 1.559350 -0.252080 0.469550 
#    y -0.252080 1.465920 0.531440 
#    z 0.469550 0.531440 0.602840 
# 
# From -- ./inp_files/454656.got.cif
#   From: 2010.05.17/outbox.cif.g08.bks.cpg/sg2_228_cif.got.tgz:454656.got - 2010.06.03 11:33:40.
