data_PCOD9026904
_publ_section_title
;
Structure prediction by ZEFSAII (Michael W. Deem and Ramdas Pophale) SiO2 
 PCOD9026904
Probable space group: P -1
;
_chemical_formula_sum "Si O2"
_cell_formula_units_Z 16
_cell_length_a 12.298788
_cell_length_b 12.108517
_cell_length_c 11.616194
_cell_angle_alpha 90.406104
_cell_angle_beta 115.502862
_cell_angle_gamma 144.894981
_cell_volume 647.936863
_symmetry_space_group_name_H-M "P -1"
_symmetry_group_IT_number 2
_symmetry_cell_setting 'triclinic'
loop_
_space_group_symop_operation_xyz
x,y,z
-x,-y,-z
loop_
_atom_site_type_symbol
_atom_site_label
_atom_site_fract_x
_atom_site_fract_y
_atom_site_fract_z
Si Si1 0.529277 0.695851 0.316843
Si Si2 0.766637 0.359625 0.164064
Si Si3 0.949827 0.351807 0.052371
Si Si4 0.791169 0.981515 0.193133
Si Si5 0.812920 0.812809 0.800862
Si Si6 0.108449 0.813887 0.432790
Si Si7 0.297495 0.541280 0.540053
Si Si8 0.405914 0.854637 0.670498
O O1 0.658176 0.818169 0.247751
O O2 0.422700 0.483167 0.290151
O O3 0.235874 0.520646 0.196206
O O4 0.759121 0.953413 0.503879
O O5 0.823405 0.303239 0.108074
O O6 0.778365 0.322798 0.299146
O O7 0.001673 0.656028 0.272097
O O8 0.465487 0.166422 0.988792
O O9 0.000000 0.500000 0.000000
O O10 0.719383 0.093825 0.869331
O O11 0.952545 0.029174 0.185602
O O12 0.046439 0.278715 0.347473
O O13 0.603554 0.737347 0.669221
O O14 0.000000 0.000000 0.000000
O O15 0.341353 0.924246 0.599566
O O16 0.828452 0.583208 0.388622
O O17 0.345357 0.711343 0.547608
#
# Coordination Sequence:
#
# PCOD9026904 Si02
#       8
#     2   2   2   2   2   2   2   2
#     4  11  25  45  68  97 139 172 219 282 325 398
#     4  11  22  39  68  97 134 178 219 271 339 400
#     4  12  21  39  61  96 138 170 215 268 328 396
#     4  11  24  46  69  97 132 178 226 272 339 393
#     4  12  26  47  70  98 130 175 230 272 333 400
#     4  10  22  41  66 103 134 168 219 277 339 395
#     4  10  22  43  68  96 133 173 223 278 328 396
#     4  11  22  41  69  98 136 171 220 280 333 400
#
# _framework density 24.693764999999999
#
# number of rings (size 3 to 8) (size 9 to 14) (size 15 to 20)
#    0.000    1.000    2.500    6.000    0.000    7.000 
#    2.250    1.250    0.000    0.000    0.000    0.000 
#    0.000    0.000    0.000    0.000    0.000    0.000 
#
# Total GULP energy -89580.162831 kJ/mol
# GULP energy per Si atom -5598.760177 kJ/mol
# Density = 2.463756 g / cm^3
# Si number density = 24.693765 Si / 1000 Ang^3
#
#
#
# Elastic Constant Matrix: (Units=GPa)
#
#
# Indices 1 2 3 4 5 6 
#
# 1 149.2013 40.0651 46.4978 0.1982 0.2112 19.3001
# 2 40.0651 92.9998 19.8111 -0.4701 -4.0029 -0.0010
# 3 46.4978 19.8111 126.1413 21.6137 -6.7159 8.5057
# 4 0.1982 -0.4701 21.6137 38.2854 -5.0634 -3.3811
# 5 0.2112 -4.0029 -6.7159 -5.0634 36.4251 6.9880
# 6 19.3001 -0.0010 8.5057 -3.3811 6.9880 35.5873
#
#
#
# Elastic Compliance Matrix: (Units=1/GPa)
#
#
# Indices 1 2 3 4 5 6 
#
# 1 0.008951 -0.003277 -0.002690 0.001072 0.000031 -0.004116
# 2 -0.003277 0.012424 -0.000998 0.001032 0.000975 0.001923
# 3 -0.002690 -0.000998 0.010258 -0.005771 0.001341 -0.001805
# 4 0.001072 0.001032 -0.005771 0.030007 0.002613 0.003136
# 5 0.000031 0.000975 0.001341 0.002613 0.029292 -0.005841
# 6 -0.004116 0.001923 -0.001805 0.003136 -0.005841 0.032208
#
#
# Mechanical properties :
#
#
# Convention : Reuss Voigt Hill
#
# Bulk Modulus (GPa) = 56.48152 64.56561 60.52357
# Shear Modulus (GPa) = 34.97221 39.52410 37.24815
#
# Velocity S-wave (km/s) = 3.76737 4.00505 3.88803
# Velocity P-wave (km/s) = 6.46889 6.89859 6.68719
#
# Compressibility (1/GPa) = 0.01770490
#
# Stress axis : x y z
#
# Youngs Moduli (GPa) = 111.71420 80.48856 97.48723
#
# Poissons Ratio (x) = 0.26374 0.26220
# Poissons Ratio (y) = 0.36605 0.09728
# Poissons Ratio (z) = 0.30046 0.08032
#
# Static dielectric constant tensor:
#      x y z
#    x 2.083690 0.058830 -0.048690 
#    y 0.058830 2.083230 0.086140 
#    z -0.048690 0.086140 2.086830 
# 
# From -- ./inp_files/428409.got.cif
#   From: 2010.05.17/outbox.cif.g08.bks.cpg/sg2_215_cif.got.tgz:428409.got - 2010.06.03 11:33:40.
