data_PCOD9026183
_publ_section_title
;
Structure prediction by ZEFSAII (Michael W. Deem and Ramdas Pophale) SiO2 
 PCOD9026183
Probable space group: P -1
;
_chemical_formula_sum "Si O2"
_cell_formula_units_Z 15
_cell_length_a 26.001609
_cell_length_b 15.042028
_cell_length_c 5.175488
_cell_angle_alpha 83.024656
_cell_angle_beta 70.761058
_cell_angle_gamma 19.947562
_cell_volume 529.003931
_symmetry_space_group_name_H-M "P -1"
_symmetry_group_IT_number 2
_symmetry_cell_setting 'triclinic'
loop_
_space_group_symop_operation_xyz
x,y,z
-x,-y,-z
loop_
_atom_site_type_symbol
_atom_site_label
_atom_site_fract_x
_atom_site_fract_y
_atom_site_fract_z
Si Si1 0.838724 0.824118 0.762006
Si Si2 0.297134 0.667496 0.915380
Si Si3 0.000000 0.000000 0.000000
Si Si4 0.889484 0.327063 0.721680
Si Si5 0.528065 0.853035 0.445398
Si Si6 0.542355 0.155362 0.035594
Si Si7 0.220927 0.900680 0.487083
Si Si8 0.162006 0.423291 0.582261
O O1 0.000000 0.500000 0.500000
O O2 0.958123 0.693194 0.821586
O O3 0.764016 0.017847 0.616921
O O4 0.653318 0.056745 0.049418
O O5 0.453888 0.347825 0.870167
O O6 0.263980 0.780880 0.187225
O O7 0.334208 0.678805 0.616167
O O8 0.119256 0.888359 0.018979
O O9 0.013072 0.046406 0.706325
O O10 0.861651 0.433417 0.479405
O O11 0.677067 0.626030 0.044779
O O12 0.988575 0.246399 0.773382
O O13 0.612049 0.653786 0.593506
O O14 0.500000 0.000000 0.500000
O O15 0.308665 0.167890 0.655087
O O16 0.699904 0.834519 0.785721
#
# Coordination Sequence:
#
# PCOD9026183 Si02
#       8
#     2   2   1   2   2   2   2   2
#     4   9  22  50  76 102 140 191 251 308 361 442
#     4  11  26  46  73 108 152 192 246 298 368 439
#     4  10  24  42  70 102 144 198 238 290 354 450
#     4  10  22  41  62  99 139 185 234 291 360 429
#     4  12  25  39  68 102 144 186 235 307 367 436
#     4  11  25  44  70 103 137 190 248 297 367 433
#     4  10  25  50  71 109 148 194 240 305 370 427
#     4  10  22  44  65  99 139 183 243 303 369 426
#
# _framework density 28.355177000000001
#
# number of rings (size 3 to 8) (size 9 to 14) (size 15 to 20)
#    0.000    1.600    1.333    1.200    7.467    8.000 
#    7.200    0.000    0.000    0.000    0.000    0.000 
#    0.000    0.000    0.000    0.000    0.000    0.000 
#
# Total GULP energy -83588.823504 kJ/mol
# GULP energy per Si atom -5572.588234 kJ/mol
# Density = 2.829064 g / cm^3
# Si number density = 28.355177 Si / 1000 Ang^3
#
#
#
# Elastic Constant Matrix: (Units=GPa)
#
#
# Indices 1 2 3 4 5 6 
#
# 1 149.2955 67.8064 51.5482 -23.1124 -32.5739 24.0797
# 2 67.8064 198.1044 56.0001 -28.6839 -5.1793 28.8958
# 3 51.5482 56.0001 83.7639 -36.8504 14.6933 11.2468
# 4 -23.1124 -28.6839 -36.8504 49.7971 9.9107 -6.6249
# 5 -32.5739 -5.1793 14.6933 9.9107 47.5471 -3.4494
# 6 24.0797 28.8958 11.2468 -6.6249 -3.4494 64.1194
#
#
#
# Elastic Compliance Matrix: (Units=1/GPa)
#
#
# Indices 1 2 3 4 5 6 
#
# 1 0.014835 -0.001482 -0.014018 -0.007803 0.015786 -0.002402
# 2 -0.001482 0.006841 -0.003299 0.000459 0.000518 -0.001872
# 3 -0.014018 -0.003299 0.038774 0.025865 -0.027253 0.001156
# 4 -0.007803 0.000459 0.025865 0.040323 -0.021607 0.001191
# 5 0.015786 0.000518 -0.027253 -0.021607 0.044741 -0.001207
# 6 -0.002402 -0.001872 0.001156 0.001191 -0.001207 0.017197
#
#
# Mechanical properties :
#
#
# Convention : Reuss Voigt Hill
#
# Bulk Modulus (GPa) = 43.75884 86.87481 65.31682
# Shear Modulus (GPa) = 24.04698 49.34664 36.69681
#
# Velocity S-wave (km/s) = 2.91531 4.17622 3.60138
# Velocity P-wave (km/s) = 5.17667 7.34568 6.35441
#
# Compressibility (1/GPa) = 0.02285253
#
# Stress axis : x y z
#
# Youngs Moduli (GPa) = 67.40884 146.18435 25.79016
#
# Poissons Ratio (x) = 0.21661 0.36153
# Poissons Ratio (y) = 0.09988 0.08508
# Poissons Ratio (z) = 0.94495 0.48224
#
# Static dielectric constant tensor:
#      x y z
#    x 2.143960 -0.119380 0.072870 
#    y -0.119380 2.234700 0.080370 
#    z 0.072870 0.080370 2.388780 
# 
# From -- ./inp_files/127124.got.cif
#   From: 2010.05.17/outbox.cif.g08.bks.cpg/sg2_64_cif.got.tgz:127124.got - 2010.06.03 11:33:40.
