data_PCOD9026113
_publ_section_title
;
Structure prediction by ZEFSAII (Michael W. Deem and Ramdas Pophale) SiO2 
 PCOD9026113
Probable space group: P -1
;
_chemical_formula_sum "Si O2"
_cell_formula_units_Z 11
_cell_length_a 13.685316
_cell_length_b 18.246162
_cell_length_c 8.218151
_cell_angle_alpha 52.836809
_cell_angle_beta 44.935738
_cell_angle_gamma 19.644567
_cell_volume 470.032385
_symmetry_space_group_name_H-M "P -1"
_symmetry_group_IT_number 2
_symmetry_cell_setting 'triclinic'
loop_
_space_group_symop_operation_xyz
x,y,z
-x,-y,-z
loop_
_atom_site_type_symbol
_atom_site_label
_atom_site_fract_x
_atom_site_fract_y
_atom_site_fract_z
Si Si1 0.844840 0.796214 0.266329
Si Si2 0.057142 0.831621 0.788782
Si Si3 0.000000 0.500000 0.500000
Si Si4 0.064214 0.527636 0.736017
Si Si5 0.167526 0.663472 0.378761
Si Si6 0.867919 0.019445 0.405911
O O1 0.943032 0.636710 0.303661
O O2 0.133264 0.656496 0.240169
O O3 0.500000 0.000000 0.500000
O O4 0.828580 0.883801 0.031124
O O5 0.447597 0.564384 0.708919
O O6 0.998995 0.901065 0.581881
O O7 0.993014 0.961150 0.802552
O O8 0.883963 0.610817 0.668630
O O9 0.011444 0.668234 0.647145
O O10 0.462617 0.276564 0.550475
O O11 0.000000 0.500000 0.000000
O O12 0.975060 0.876370 0.345154
#
# Coordination Sequence:
#
# PCOD9026113 Si02
#       6
#     2   2   1   2   2   2
#     4  11  24  40  63  94 126 165 211 259 321 378
#     4  10  23  40  63  91 127 164 211 260 314 384
#     4  10  24  42  58  94 132 160 212 260 322 374
#     4  10  23  40  64  95 129 169 213 265 319 380
#     4  10  22  41  62  91 124 167 213 255 317 381
#     4  10  22  41  64  92 124 165 215 257 316 379
#
# _framework density 23.402643000000001
#
# number of rings (size 3 to 8) (size 9 to 14) (size 15 to 20)
#    0.000    1.818    0.000    2.182    7.636    2.909 
#    0.000    0.000    0.000    0.000    0.000    0.000 
#    0.000    0.000    0.000    0.000    0.000    0.000 
#
# Total GULP energy -61246.781794 kJ/mol
# GULP energy per Si atom -5567.889254 kJ/mol
# Density = 2.334938 g / cm^3
# Si number density = 23.402643 Si / 1000 Ang^3
#
#
#
# Elastic Constant Matrix: (Units=GPa)
#
#
# Indices 1 2 3 4 5 6 
#
# 1 42.8005 29.5445 10.1431 -1.7623 -5.3176 31.8121
# 2 29.5445 115.1870 21.9881 -9.2508 -19.7055 32.8328
# 3 10.1431 21.9881 103.7070 -40.0850 -17.3985 20.4238
# 4 -1.7623 -9.2508 -40.0850 35.0770 0.4312 -7.6817
# 5 -5.3176 -19.7055 -17.3985 0.4312 27.3625 -19.0710
# 6 31.8121 32.8328 20.4238 -7.6817 -19.0710 52.7797
#
#
#
# Elastic Compliance Matrix: (Units=1/GPa)
#
#
# Indices 1 2 3 4 5 6 
#
# 1 0.052403 -0.007356 -0.005530 -0.013014 -0.022827 -0.035011
# 2 -0.007356 0.012034 0.000928 0.003753 0.007713 -0.000078
# 3 -0.005530 0.000928 0.021660 0.025332 0.015525 0.003671
# 4 -0.013014 0.003753 0.025332 0.060429 0.024682 0.013420
# 5 -0.022827 0.007713 0.015525 0.024682 0.069116 0.031519
# 6 -0.035011 -0.000078 0.003671 0.013420 0.031519 0.052019
#
#
# Mechanical properties :
#
#
# Convention : Reuss Voigt Hill
#
# Bulk Modulus (GPa) = 16.08225 42.78290 29.43257
# Shear Modulus (GPa) = 16.00996 36.37842 26.19419
#
# Velocity S-wave (km/s) = 2.61839 3.94694 3.34920
# Velocity P-wave (km/s) = 4.00352 6.25236 5.24977
#
# Compressibility (1/GPa) = 0.06218037
#
# Stress axis : x y z
#
# Youngs Moduli (GPa) = 19.08276 83.09476 46.16854
#
# Poissons Ratio (x) = 0.61124 0.25533
# Poissons Ratio (y) = 0.14037 -0.04284
# Poissons Ratio (z) = 0.10554 -0.07710
#
# Static dielectric constant tensor:
#      x y z
#    x 1.944640 -0.036410 -0.037260 
#    y -0.036410 1.923560 -0.034460 
#    z -0.037260 -0.034460 1.912660 
# 
# From -- ./inp_files/17392.got.cif
#   From: 2010.05.17/outbox.cif.g08.bks.cpg/sg2_9_cif.got.tgz:17392.got - 2010.06.03 11:33:40.
