data_PCOD9026031
_publ_section_title
;
Structure prediction by ZEFSAII (Michael W. Deem and Ramdas Pophale) SiO2 
 PCOD9026031
Probable space group: P -1
;
_chemical_formula_sum "Si O2"
_cell_formula_units_Z 12
_cell_length_a 13.984850
_cell_length_b 8.987327
_cell_length_c 6.579108
_cell_angle_alpha 76.494637
_cell_angle_beta 106.232449
_cell_angle_gamma 141.501476
_cell_volume 494.072681
_symmetry_space_group_name_H-M "P -1"
_symmetry_group_IT_number 2
_symmetry_cell_setting 'triclinic'
loop_
_space_group_symop_operation_xyz
x,y,z
-x,-y,-z
loop_
_atom_site_type_symbol
_atom_site_label
_atom_site_fract_x
_atom_site_fract_y
_atom_site_fract_z
Si Si1 0.650334 0.159715 0.393038
Si Si2 0.575813 0.840703 0.102791
Si Si3 0.844611 0.672436 0.408582
Si Si4 0.778106 0.067693 0.780542
Si Si5 0.894151 0.063287 0.218882
Si Si6 0.346494 0.383786 0.338058
O O1 0.739414 0.422240 0.319993
O O2 0.500000 0.000000 0.500000
O O3 0.596390 0.010186 0.205463
O O4 0.774499 0.197064 0.573739
O O5 0.717798 0.894288 0.230850
O O6 0.414499 0.567880 0.137742
O O7 0.624557 0.922680 0.874042
O O8 0.897833 0.884002 0.245010
O O9 0.745833 0.623153 0.555021
O O10 0.991006 0.770630 0.580309
O O11 0.749002 0.870116 0.724318
O O12 0.912583 0.191922 0.988451
O O13 0.500000 0.500000 0.500000
#
# Coordination Sequence:
#
# PCOD9026031 Si02
#       6
#     2   2   2   2   2   2
#     4  12  23  39  65  96 129 157 205 268 313 357
#     4  10  22  41  61  92 124 168 204 248 319 364
#     4  11  22  40  66  94 126 161 213 259 303 368
#     4  10  23  41  63  90 126 167 209 248 315 375
#     4   9  23  43  61  92 123 171 212 245 308 377
#     4  12  18  38  67  88 123 167 206 254 306 365
#
# _framework density 24.287925999999999
#
# number of rings (size 3 to 8) (size 9 to 14) (size 15 to 20)
#    1.000    0.333    5.000    0.500    0.000    2.667 
#    3.000    0.000    0.000    0.000    0.000    0.000 
#    0.000    0.000    0.000    0.000    0.000    0.000 
#
# Total GULP energy -67049.517225 kJ/mol
# GULP energy per Si atom -5587.459769 kJ/mol
# Density = 2.423265 g / cm^3
# Si number density = 24.287926 Si / 1000 Ang^3
#
#
#
# Elastic Constant Matrix: (Units=GPa)
#
#
# Indices 1 2 3 4 5 6 
#
# 1 80.4412 13.9597 26.2437 -0.7130 -0.0043 -7.6313
# 2 13.9597 71.9976 2.3740 0.8049 11.1735 -24.5128
# 3 26.2437 2.3740 92.3920 -14.2395 32.7528 -6.1398
# 4 -0.7130 0.8049 -14.2395 18.6655 3.5895 -1.2167
# 5 -0.0043 11.1735 32.7528 3.5895 44.0098 6.5567
# 6 -7.6313 -24.5128 -6.1398 -1.2167 6.5567 37.1068
#
#
#
# Elastic Compliance Matrix: (Units=1/GPa)
#
#
# Indices 1 2 3 4 5 6 
#
# 1 0.016008 -0.005523 -0.009383 -0.008418 0.009653 -0.003891
# 2 -0.005523 0.024002 0.010250 0.011256 -0.017605 0.019896
# 3 -0.009383 0.010250 0.028552 0.027452 -0.028398 0.015484
# 4 -0.008418 0.011256 0.027452 0.081216 -0.032696 0.018687
# 5 0.009653 -0.017605 -0.028398 -0.032696 0.054731 -0.025086
# 6 -0.003891 0.019896 0.015484 0.018687 -0.025086 0.046900
#
#
# Mechanical properties :
#
#
# Convention : Reuss Voigt Hill
#
# Bulk Modulus (GPa) = 16.87770 36.66508 26.77139
# Shear Modulus (GPa) = 17.82712 33.43999 25.63356
#
# Velocity S-wave (km/s) = 2.71217 3.71457 3.25222
# Velocity P-wave (km/s) = 4.09535 5.79018 5.01488
#
# Compressibility (1/GPa) = 0.05924977
#
# Stress axis : x y z
#
# Youngs Moduli (GPa) = 62.46906 41.66240 35.02367
#
# Poissons Ratio (x) = 0.23010 0.32863
# Poissons Ratio (y) = 0.34502 -0.35898
# Poissons Ratio (z) = 0.58615 -0.42703
#
# Static dielectric constant tensor:
#      x y z
#    x 1.948630 0.020160 0.030150 
#    y 0.020160 1.886900 -0.059200 
#    z 0.030150 -0.059200 2.009930 
# 
# From -- ./inp_files/151541.got.cif
#   From: 2010.05.17/outbox.cif.g08.bks.cpg/sg2_76_cif.got.tgz:151541.got - 2010.06.03 11:33:40.
