data_PCOD9026338
_publ_section_title
;
Structure prediction by ZEFSAII (Michael W. Deem and Ramdas Pophale) SiO2 
 PCOD9026338
Probable space group: P -1
;
_chemical_formula_sum "Si O2"
_cell_formula_units_Z 16
_cell_length_a 11.572399
_cell_length_b 11.582906
_cell_length_c 13.353780
_cell_angle_alpha 51.068452
_cell_angle_beta 105.993981
_cell_angle_gamma 62.433344
_cell_volume 704.216163
_symmetry_space_group_name_H-M "P -1"
_symmetry_group_IT_number 2
_symmetry_cell_setting 'triclinic'
loop_
_space_group_symop_operation_xyz
x,y,z
-x,-y,-z
loop_
_atom_site_type_symbol
_atom_site_label
_atom_site_fract_x
_atom_site_fract_y
_atom_site_fract_z
Si Si1 0.919932 0.518520 0.719380
Si Si2 0.615483 0.071572 0.954062
Si Si3 0.479433 0.737170 0.952648
Si Si4 0.666342 0.210053 0.316857
Si Si5 0.916125 0.004208 0.076375
Si Si6 0.049886 0.653761 0.806863
Si Si7 0.206540 0.572724 0.093723
Si Si8 0.175135 0.436814 0.530568
O O1 0.930708 0.641973 0.730626
O O2 0.839759 0.461594 0.795026
O O3 0.754715 0.706512 0.481862
O O4 0.173593 0.232257 0.886335
O O5 0.603262 0.090539 0.062007
O O6 0.379839 0.261397 0.749276
O O7 0.677595 0.178563 0.890901
O O8 0.574700 0.473739 0.148199
O O9 0.695955 0.595511 0.037813
O O10 0.309852 0.877058 0.743864
O O11 0.470624 0.316301 0.266290
O O12 0.899492 0.951232 0.573849
O O13 0.886359 0.162392 0.064913
O O14 0.061383 0.714867 0.316252
O O15 0.000000 0.000000 0.000000
O O16 0.072598 0.626693 0.945756
O O17 0.000000 0.500000 0.500000
#
# Coordination Sequence:
#
# PCOD9026338 Si02
#       8
#     2   2   2   2   2   2   2   2
#     4  11  26  47  64 103 143 177 231 288 341 413
#     4  11  24  43  74  98 140 185 222 288 361 404
#     4  10  22  41  63  97 135 172 227 284 345 405
#     4  10  23  42  65  96 134 179 224 284 341 404
#     4  11  23  46  70 103 146 178 233 293 339 416
#     4  11  25  41  69  94 132 187 233 277 339 412
#     4  11  23  45  68 100 137 180 230 286 337 409
#     4  11  26  43  68 105 139 184 229 282 344 422
#
# _framework density 22.720293999999999
#
# number of rings (size 3 to 8) (size 9 to 14) (size 15 to 20)
#    0.000    1.250    3.750    1.500    1.750   12.500 
#    0.000    0.000    0.000    0.000    0.000    0.000 
#    0.000    0.000    0.000    0.000    0.000    0.000 
#
# Total GULP energy -89343.000543 kJ/mol
# GULP energy per Si atom -5583.937534 kJ/mol
# Density = 2.266858 g / cm^3
# Si number density = 22.720294 Si / 1000 Ang^3
#
#
#
# Elastic Constant Matrix: (Units=GPa)
#
#
# Indices 1 2 3 4 5 6 
#
# 1 110.3356 37.2974 29.0906 14.4938 -7.5694 3.5285
# 2 37.2974 131.8618 44.6610 21.3853 -0.4515 7.8667
# 3 29.0906 44.6610 84.9580 16.1039 2.2790 -11.2734
# 4 14.4938 21.3853 16.1039 35.3171 4.4124 -3.1038
# 5 -7.5694 -0.4515 2.2790 4.4124 35.0165 5.8355
# 6 3.5285 7.8667 -11.2734 -3.1038 5.8355 41.0857
#
#
#
# Elastic Compliance Matrix: (Units=1/GPa)
#
#
# Indices 1 2 3 4 5 6 
#
# 1 0.010989 -0.001573 -0.002751 -0.002891 0.003245 -0.002077
# 2 -0.001573 0.010510 -0.004740 -0.004031 0.001221 -0.003656
# 3 -0.002751 -0.004740 0.016560 -0.002746 -0.002356 0.005815
# 4 -0.002891 -0.004031 -0.002746 0.034188 -0.005409 0.003618
# 5 0.003245 0.001221 -0.002356 -0.005409 0.031108 -0.005986
# 6 -0.002077 -0.003656 0.005815 0.003618 -0.005986 0.027937
#
#
# Mechanical properties :
#
#
# Convention : Reuss Voigt Hill
#
# Bulk Modulus (GPa) = 50.17184 61.02813 55.59999
# Shear Modulus (GPa) = 32.03856 36.69094 34.36475
#
# Velocity S-wave (km/s) = 3.75924 4.02294 3.89332
# Velocity P-wave (km/s) = 6.40101 6.96403 6.68844
#
# Compressibility (1/GPa) = 0.01993150
#
# Stress axis : x y z
#
# Youngs Moduli (GPa) = 91.00121 95.14648 60.38807
#
# Poissons Ratio (x) = 0.14964 0.16610
# Poissons Ratio (y) = 0.14312 0.28625
# Poissons Ratio (z) = 0.25030 0.45102
#
# Static dielectric constant tensor:
#      x y z
#    x 1.839780 0.018930 -0.027500 
#    y 0.018930 1.898370 -0.032390 
#    z -0.027500 -0.032390 1.874240 
# 
# From -- ./inp_files/71349.got.cif
#   From: 2010.05.17/outbox.cif.g08.bks.cpg/sg2_36_cif.got.tgz:71349.got - 2010.06.03 11:33:40.
