data_PCOD9026829
_publ_section_title
;
Structure prediction by ZEFSAII (Michael W. Deem and Ramdas Pophale) SiO2 
 PCOD9026829
Probable space group: P -1
;
_chemical_formula_sum "Si O2"
_cell_formula_units_Z 16
_cell_length_a 9.587130
_cell_length_b 8.476588
_cell_length_c 14.568385
_cell_angle_alpha 71.169702
_cell_angle_beta 141.663436
_cell_angle_gamma 123.570282
_cell_volume 597.604678
_symmetry_space_group_name_H-M "P -1"
_symmetry_group_IT_number 2
_symmetry_cell_setting 'triclinic'
loop_
_space_group_symop_operation_xyz
x,y,z
-x,-y,-z
loop_
_atom_site_type_symbol
_atom_site_label
_atom_site_fract_x
_atom_site_fract_y
_atom_site_fract_z
Si Si1 0.497699 0.127397 0.831752
Si Si2 0.140091 0.482524 0.960333
Si Si3 0.450760 0.244197 0.032075
Si Si4 0.002135 0.007139 0.724565
Si Si5 0.798889 0.573561 0.660451
Si Si6 0.629949 0.032767 0.397877
Si Si7 0.592086 0.700670 0.792770
Si Si8 0.110989 0.401907 0.507374
O O1 0.239012 0.098072 0.755107
O O2 0.476526 0.112715 0.714370
O O3 0.741819 0.333769 0.945828
O O4 0.518296 0.945512 0.914921
O O5 0.879418 0.447103 0.785269
O O6 0.355840 0.586236 0.968705
O O7 0.149042 0.306038 0.047577
O O8 0.148159 0.147048 0.860238
O O9 0.513475 0.317234 0.154675
O O10 0.925205 0.783900 0.734030
O O11 0.735444 0.990846 0.553395
O O12 0.500000 0.500000 0.500000
O O13 0.909091 0.581734 0.613901
O O14 0.447238 0.127826 0.299402
O O15 0.910669 0.183867 0.468875
O O16 0.412177 0.512246 0.673391
O O17 0.000000 0.500000 0.500000
#
# Coordination Sequence:
#
# PCOD9026829 Si02
#       8
#     2   2   2   2   2   2   2   2
#     4  10  17  31  56  90 121 155 202 270 311 351
#     4  11  19  35  57  88 125 158 207 257 311 366
#     4  10  18  34  57  93 123 158 205 264 311 357
#     4  11  19  34  61  90 124 159 209 262 309 364
#     4  12  25  40  62  94 131 165 204 259 318 378
#     4  10  20  33  58  95 123 159 201 267 313 357
#     4  10  22  33  56  89 123 161 193 254 319 369
#     4  10  20  39  62  94 133 159 204 259 316 370
#
# _framework density 26.773551999999999
#
# number of rings (size 3 to 8) (size 9 to 14) (size 15 to 20)
#    0.000    1.500    3.750    4.500    1.750    2.000 
#    0.000    0.625    0.000    8.250    0.000    0.000 
#    0.000    0.000    0.000    0.000    0.000    0.000 
#
# Total GULP energy -89463.546562 kJ/mol
# GULP energy per Si atom -5591.471660 kJ/mol
# Density = 2.671261 g / cm^3
# Si number density = 26.773552 Si / 1000 Ang^3
#
#
#
# Elastic Constant Matrix: (Units=GPa)
#
#
# Indices 1 2 3 4 5 6 
#
# 1 49.0920 29.3025 15.5998 -10.8665 -3.5044 3.0814
# 2 29.3025 41.6201 22.7904 -10.6561 -7.5642 0.5774
# 3 15.5998 22.7904 143.3964 -41.5160 -7.7945 -9.8090
# 4 -10.8665 -10.6561 -41.5160 54.7617 -13.6566 2.7555
# 5 -3.5044 -7.5642 -7.7945 -13.6566 45.7659 3.2442
# 6 3.0814 0.5774 -9.8090 2.7555 3.2442 21.2849
#
#
#
# Elastic Compliance Matrix: (Units=1/GPa)
#
#
# Indices 1 2 3 4 5 6 
#
# 1 0.035933 -0.024794 0.000569 0.002962 -0.000037 -0.004645
# 2 -0.024794 0.045113 -0.003383 0.002773 0.005840 -0.000442
# 3 0.000569 -0.003383 0.010094 0.007772 0.003299 0.003152
# 4 0.002962 0.002773 0.007772 0.028012 0.010520 -0.002152
# 5 -0.000037 0.005840 0.003299 0.010520 0.026803 -0.004080
# 6 -0.004645 -0.000442 0.003152 -0.002152 -0.004080 0.050019
#
#
# Mechanical properties :
#
#
# Convention : Reuss Voigt Hill
#
# Bulk Modulus (GPa) = 27.83547 41.05489 34.44518
# Shear Modulus (GPa) = 18.99954 35.45688 27.22821
#
# Velocity S-wave (km/s) = 2.66679 3.64308 3.19247
# Velocity P-wave (km/s) = 4.46112 5.75008 5.14611
#
# Compressibility (1/GPa) = 0.03592539
#
# Stress axis : x y z
#
# Youngs Moduli (GPa) = 27.82973 22.16664 99.06499
#
# Poissons Ratio (x) = 0.54960 -0.05640
# Poissons Ratio (y) = 0.69001 0.33510
# Poissons Ratio (z) = -0.01584 0.07498
#
# Static dielectric constant tensor:
#      x y z
#    x 2.124730 0.002270 0.098230 
#    y 0.002270 2.060990 -0.103850 
#    z 0.098230 -0.103850 2.040230 
# 
# From -- ./inp_files/333039.got.cif
#   From: 2010.05.17/outbox.cif.g08.bks.cpg/sg2_167_cif.got.tgz:333039.got - 2010.06.03 11:33:40.
