data_PCOD9026011
_publ_section_title
;
Structure prediction by ZEFSAII (Michael W. Deem and Ramdas Pophale) SiO2 
 PCOD9026011
Probable space group: P -1
;
_chemical_formula_sum "Si O2"
_cell_formula_units_Z 16
_cell_length_a 18.032683
_cell_length_b 7.208519
_cell_length_c 7.185092
_cell_angle_alpha 131.592350
_cell_angle_beta 70.954040
_cell_angle_gamma 120.669868
_cell_volume 600.695967
_symmetry_space_group_name_H-M "P -1"
_symmetry_group_IT_number 2
_symmetry_cell_setting 'triclinic'
loop_
_space_group_symop_operation_xyz
x,y,z
-x,-y,-z
loop_
_atom_site_type_symbol
_atom_site_label
_atom_site_fract_x
_atom_site_fract_y
_atom_site_fract_z
Si Si1 0.666404 0.776580 0.128900
Si Si2 0.690526 0.278436 0.861309
Si Si3 0.929723 0.209144 0.090385
Si Si4 0.532973 0.745123 0.490233
Si Si5 0.823349 0.224143 0.498958
Si Si6 0.064468 0.241930 0.736034
Si Si7 0.803693 0.711626 0.614299
Si Si8 0.355656 0.724402 0.685672
O O1 0.571635 0.666712 0.224583
O O2 0.745207 0.947548 0.315680
O O3 0.670283 0.021762 0.156341
O O4 0.685499 0.516853 0.897007
O O5 0.786184 0.279238 0.763810
O O6 0.615340 0.998566 0.669412
O O7 0.660226 0.326535 0.118228
O O8 0.908510 0.208878 0.328456
O O9 0.932924 0.480666 0.169423
O O10 0.021311 0.208885 0.953204
O O11 0.852215 0.966974 0.881004
O O12 0.500000 0.500000 0.500000
O O13 0.451035 0.815798 0.589233
O O14 0.821232 0.470790 0.539281
O O15 0.153194 0.231930 0.591289
O O16 0.000000 0.000000 0.500000
O O17 0.703473 0.567468 0.550331
#
# Coordination Sequence:
#
# PCOD9026011 Si02
#       8
#     2   2   2   2   2   2   2   2
#     4  10  22  41  61  88 122 160 213 260 314 371
#     4  11  23  42  62  85 128 164 210 262 311 374
#     4   9  15  30  56  85 123 164 198 253 308 366
#     4  11  23  44  61  88 126 163 214 260 318 377
#     4   9  19  35  55  87 120 159 208 251 303 376
#     4   8  15  28  52  87 123 157 201 253 303 369
#     4   9  18  34  55  90 124 153 213 252 310 374
#     4  11  23  41  64  95 119 167 208 264 316 367
#
# _framework density 26.635771999999999
#
# number of rings (size 3 to 8) (size 9 to 14) (size 15 to 20)
#    0.000    2.250    1.250    1.500    0.000    0.500 
#   13.500    0.000    0.000    0.750    0.000   35.875 
#    0.000   27.000    0.000    0.125    0.000    0.000 
#
# Total GULP energy -89321.360897 kJ/mol
# GULP energy per Si atom -5582.585056 kJ/mol
# Density = 2.657515 g / cm^3
# Si number density = 26.635772 Si / 1000 Ang^3
#
#
#
# Elastic Constant Matrix: (Units=GPa)
#
#
# Indices 1 2 3 4 5 6 
#
# 1 67.3413 28.9365 25.2588 0.3523 -22.3135 8.7873
# 2 28.9365 139.4630 60.4676 4.5636 -8.0608 27.2787
# 3 25.2588 60.4676 102.2253 -5.6288 -23.6878 19.4273
# 4 0.3523 4.5636 -5.6288 81.2127 10.9334 -14.7803
# 5 -22.3135 -8.0608 -23.6878 10.9334 37.4639 -2.8454
# 6 8.7873 27.2787 19.4273 -14.7803 -2.8454 35.2148
#
#
#
# Elastic Compliance Matrix: (Units=1/GPa)
#
#
# Indices 1 2 3 4 5 6 
#
# 1 0.020434 -0.002881 -0.000221 -0.002010 0.011797 -0.002636
# 2 -0.002881 0.011209 -0.005540 -0.001693 -0.002757 -0.005841
# 3 -0.000221 -0.005540 0.015793 -0.000440 0.008497 -0.003864
# 4 -0.002010 -0.001693 -0.000440 0.014530 -0.005495 0.007711
# 5 0.011797 -0.002757 0.008497 -0.005495 0.039753 -0.004590
# 6 -0.002636 -0.005841 -0.003864 0.007711 -0.004590 0.038576
#
#
# Mechanical properties :
#
#
# Convention : Reuss Voigt Hill
#
# Bulk Modulus (GPa) = 33.16564 59.81729 46.49146
# Shear Modulus (GPa) = 29.82762 43.73606 36.78184
#
# Velocity S-wave (km/s) = 3.35002 4.05656 3.72010
# Velocity P-wave (km/s) = 5.23852 6.66687 5.99538
#
# Compressibility (1/GPa) = 0.03015169
#
# Stress axis : x y z
#
# Youngs Moduli (GPa) = 48.93802 89.21623 63.31870
#
# Poissons Ratio (x) = 0.25700 0.01400
# Poissons Ratio (y) = 0.14097 0.35080
# Poissons Ratio (z) = 0.01082 0.49428
#
# Static dielectric constant tensor:
#      x y z
#    x 2.161740 0.026030 -0.120970 
#    y 0.026030 2.084860 -0.096740 
#    z -0.120970 -0.096740 2.196380 
# 
# From -- ./inp_files/343918.got.cif
#   From: 2010.05.17/outbox.cif.g08.bks.cpg/sg2_172_cif.got.tgz:343918.got - 2010.06.03 11:33:40.
