data_PCOD9026013
_publ_section_title
;
Structure prediction by ZEFSAII (Michael W. Deem and Ramdas Pophale) SiO2 
 PCOD9026013
Probable space group: P -1
;
_chemical_formula_sum "Si O2"
_cell_formula_units_Z 12
_cell_length_a 14.391515
_cell_length_b 5.324368
_cell_length_c 12.766517
_cell_angle_alpha 73.926405
_cell_angle_beta 138.306796
_cell_angle_gamma 125.360577
_cell_volume 508.435897
_symmetry_space_group_name_H-M "P -1"
_symmetry_group_IT_number 2
_symmetry_cell_setting 'triclinic'
loop_
_space_group_symop_operation_xyz
x,y,z
-x,-y,-z
loop_
_atom_site_type_symbol
_atom_site_label
_atom_site_fract_x
_atom_site_fract_y
_atom_site_fract_z
Si Si1 0.608102 0.880275 0.161798
Si Si2 0.189960 0.199429 0.174340
Si Si3 0.947651 0.141158 0.275515
Si Si4 0.120190 0.756572 0.482869
Si Si5 0.331186 0.831139 0.313166
Si Si6 0.668042 0.797869 0.909644
O O1 0.778225 0.978992 0.228200
O O2 0.690969 0.040760 0.327465
O O3 0.521551 0.505005 0.888972
O O4 0.500000 0.000000 0.000000
O O5 0.236902 0.456766 0.270278
O O6 0.223564 0.941091 0.263324
O O7 0.300989 0.363456 0.143533
O O8 0.000000 0.000000 0.000000
O O9 0.074522 0.513204 0.375665
O O10 0.846720 0.041730 0.091837
O O11 0.049380 0.976047 0.384354
O O12 0.000000 0.500000 0.500000
O O13 0.500000 0.000000 0.500000
O O14 0.371853 0.983227 0.213304
#
# Coordination Sequence:
#
# PCOD9026013 Si02
#       6
#     2   2   2   2   2   2
#     4  11  23  42  68  97 140 179 216 268 323 389
#     4  10  23  45  70  91 132 167 224 271 338 385
#     4  11  23  42  63  91 136 173 216 264 311 388
#     4  10  22  41  61  88 128 176 218 261 311 370
#     4  10  23  45  70  95 134 164 221 281 334 390
#     4  10  25  39  70  99 132 174 226 260 341 388
#
# _framework density 23.601794999999999
#
# number of rings (size 3 to 8) (size 9 to 14) (size 15 to 20)
#    1.000    0.667    0.000    5.500    4.667    1.333 
#    3.000    0.000    3.667    0.000    0.000    0.000 
#    0.000    0.000    0.000    0.000    0.000    0.000 
#
# Total GULP energy -66945.476977 kJ/mol
# GULP energy per Si atom -5578.789748 kJ/mol
# Density = 2.354808 g / cm^3
# Si number density = 23.601795 Si / 1000 Ang^3
#
#
#
# Elastic Constant Matrix: (Units=GPa)
#
#
# Indices 1 2 3 4 5 6 
#
# 1 53.5822 42.0712 3.3655 -7.3770 -0.8233 -14.7439
# 2 42.0712 227.4139 139.1726 7.0326 27.8446 -30.6709
# 3 3.3655 139.1726 240.8900 -0.3968 32.8553 -12.8464
# 4 -7.3770 7.0326 -0.3968 50.9673 -6.7851 -9.0720
# 5 -0.8233 27.8446 32.8553 -6.7851 46.9343 -0.6709
# 6 -14.7439 -30.6709 -12.8464 -9.0720 -0.6709 57.2755
#
#
#
# Elastic Compliance Matrix: (Units=1/GPa)
#
#
# Indices 1 2 3 4 5 6 
#
# 1 0.025987 -0.006814 0.003425 0.005985 0.003034 0.004793
# 2 -0.006814 0.009199 -0.004787 -0.002328 -0.002539 0.001700
# 3 0.003425 -0.004787 0.007140 0.000960 -0.001959 0.000049
# 4 0.005985 -0.002328 0.000960 0.022078 0.004064 0.004054
# 5 0.003034 -0.002539 -0.001959 0.004064 0.024824 -0.000083
# 6 0.004793 0.001700 0.000049 0.004054 -0.000083 0.020256
#
#
# Mechanical properties :
#
#
# Convention : Reuss Voigt Hill
#
# Bulk Modulus (GPa) = 38.49674 99.01163 68.75419
# Shear Modulus (GPa) = 37.17651 53.52054 45.34852
#
# Velocity S-wave (km/s) = 3.97313 4.76715 4.38813
# Velocity P-wave (km/s) = 6.11507 8.50546 7.40732
#
# Compressibility (1/GPa) = 0.02597622
#
# Stress axis : x y z
#
# Youngs Moduli (GPa) = 38.48013 108.70468 140.05217
#
# Poissons Ratio (x) = 0.74073 -0.47972
# Poissons Ratio (y) = 0.26221 0.67036
# Poissons Ratio (z) = -0.13181 0.52032
#
# Static dielectric constant tensor:
#      x y z
#    x 1.999300 -0.048640 -0.058480 
#    y -0.048640 1.872380 -0.012090 
#    z -0.058480 -0.012090 1.893050 
# 
# From -- ./inp_files/441847.got.cif
#   From: 2010.05.17/outbox.cif.g08.bks.cpg/sg2_221_cif.got.tgz:441847.got - 2010.06.03 11:33:40.
