data_PCOD9026346
_publ_section_title
;
Structure prediction by ZEFSAII (Michael W. Deem and Ramdas Pophale) SiO2 
 PCOD9026346
Probable space group: P -1
;
_chemical_formula_sum "Si O2"
_cell_formula_units_Z 16
_cell_length_a 10.778395
_cell_length_b 5.448205
_cell_length_c 11.943774
_cell_angle_alpha 100.612081
_cell_angle_beta 108.448088
_cell_angle_gamma 67.014911
_cell_volume 611.031243
_symmetry_space_group_name_H-M "P -1"
_symmetry_group_IT_number 2
_symmetry_cell_setting 'triclinic'
loop_
_space_group_symop_operation_xyz
x,y,z
-x,-y,-z
loop_
_atom_site_type_symbol
_atom_site_label
_atom_site_fract_x
_atom_site_fract_y
_atom_site_fract_z
Si Si1 0.912941 0.358466 0.612632
Si Si2 0.376091 0.710265 0.551222
Si Si3 0.179344 0.243767 0.567519
Si Si4 0.257191 0.547509 0.225686
Si Si5 0.124078 0.514902 0.958996
Si Si6 0.366029 0.955907 0.206259
Si Si7 0.210669 0.938446 0.932148
Si Si8 0.646239 0.498797 0.235234
O O1 0.773954 0.305021 0.530260
O O2 0.892711 0.627661 0.558888
O O3 0.885808 0.387554 0.739422
O O4 0.064852 0.164386 0.599028
O O5 0.500000 0.500000 0.500000
O O6 0.396365 0.630326 0.679637
O O7 0.331292 0.029190 0.560775
O O8 0.217565 0.445831 0.677937
O O9 0.314981 0.788802 0.269522
O O10 0.348977 0.250006 0.267554
O O11 0.238169 0.520839 0.085180
O O12 0.096216 0.792411 0.907641
O O13 0.176585 0.227574 0.888978
O O14 0.000000 0.500000 0.000000
O O15 0.520401 0.772748 0.197231
O O16 0.266146 0.989449 0.072964
O O17 0.323145 0.707270 0.874338
#
# Coordination Sequence:
#
# PCOD9026346 Si02
#       8
#     2   2   2   2   2   2   2   2
#     4  10  23  43  65  93 133 177 222 277 345 400
#     4  11  25  42  67  98 131 172 231 287 339 404
#     4  10  25  44  62  97 132 172 227 282 341 405
#     4  10  23  40  69  96 128 182 218 274 335 399
#     4  10  22  41  63  98 134 171 223 274 325 401
#     4  10  23  43  64 101 134 172 228 269 335 395
#     4  10  23  41  64  96 135 175 218 274 333 398
#     4  11  25  39  67  96 130 177 220 275 340 406
#
# _framework density 26.185243
#
# number of rings (size 3 to 8) (size 9 to 14) (size 15 to 20)
#    0.000    1.750    0.000    1.875   10.500    1.000 
#    0.000    3.750    0.000    0.000    0.000    0.000 
#    0.000    0.000    0.000    0.000    0.000    0.000 
#
# Total GULP energy -89362.415517 kJ/mol
# GULP energy per Si atom -5585.150970 kJ/mol
# Density = 2.612564 g / cm^3
# Si number density = 26.185243 Si / 1000 Ang^3
#
#
#
# Elastic Constant Matrix: (Units=GPa)
#
#
# Indices 1 2 3 4 5 6 
#
# 1 108.3795 30.9026 20.2737 14.8157 -13.4539 0.9974
# 2 30.9026 107.8495 35.5502 20.0739 1.3074 2.7593
# 3 20.2737 35.5502 65.4551 6.0277 -22.8462 6.6961
# 4 14.8157 20.0739 6.0277 32.4433 -8.5587 -3.0998
# 5 -13.4539 1.3074 -22.8462 -8.5587 39.5073 5.7310
# 6 0.9974 2.7593 6.6961 -3.0998 5.7310 49.9167
#
#
#
# Elastic Compliance Matrix: (Units=1/GPa)
#
#
# Indices 1 2 3 4 5 6 
#
# 1 0.010754 -0.002355 -0.000793 -0.002617 0.002781 -0.000460
# 2 -0.002355 0.014843 -0.009773 -0.008554 -0.008948 0.001034
# 3 -0.000793 -0.009773 0.026911 0.005577 0.017508 -0.004718
# 4 -0.002617 -0.008554 0.005577 0.039264 0.010985 0.000954
# 5 0.002781 -0.008948 0.017508 0.010985 0.039902 -0.005809
# 6 -0.000460 0.001034 -0.004718 0.000954 -0.005809 0.021344
#
#
# Mechanical properties :
#
#
# Convention : Reuss Voigt Hill
#
# Bulk Modulus (GPa) = 37.50117 50.57078 44.03597
# Shear Modulus (GPa) = 26.63143 37.37064 32.00103
#
# Velocity S-wave (km/s) = 3.19257 3.78188 3.49965
# Velocity P-wave (km/s) = 5.28607 6.19877 5.76053
#
# Compressibility (1/GPa) = 0.02666583
#
# Stress axis : x y z
#
# Youngs Moduli (GPa) = 92.98996 67.37361 37.15920
#
# Poissons Ratio (x) = 0.15865 0.02947
# Poissons Ratio (y) = 0.21898 0.36316
# Poissons Ratio (z) = 0.07374 0.65845
#
# Static dielectric constant tensor:
#      x y z
#    x 2.123080 0.022090 0.043450 
#    y 0.022090 2.146920 0.009200 
#    z 0.043450 0.009200 2.068440 
# 
# From -- ./inp_files/108882.got.cif
#   From: 2010.05.17/outbox.cif.g08.bks.cpg/sg2_55_cif.got.tgz:108882.got - 2010.06.03 11:33:40.
