data_PCOD9026177
_publ_section_title
;
Structure prediction by ZEFSAII (Michael W. Deem and Ramdas Pophale) SiO2 
 PCOD9026177
Probable space group: P -1
;
_chemical_formula_sum "Si O2"
_cell_formula_units_Z 15
_cell_length_a 9.038592
_cell_length_b 10.687847
_cell_length_c 11.075782
_cell_angle_alpha 39.473560
_cell_angle_beta 95.273456
_cell_angle_gamma 92.564881
_cell_volume 676.734679
_symmetry_space_group_name_H-M "P -1"
_symmetry_group_IT_number 2
_symmetry_cell_setting 'triclinic'
loop_
_space_group_symop_operation_xyz
x,y,z
-x,-y,-z
loop_
_atom_site_type_symbol
_atom_site_label
_atom_site_fract_x
_atom_site_fract_y
_atom_site_fract_z
Si Si1 0.352121 0.594179 0.260941
Si Si2 0.823397 0.016706 0.962624
Si Si3 0.343848 0.567721 0.998032
Si Si4 0.000000 0.500000 0.000000
Si Si5 0.181771 0.794329 0.429858
Si Si6 0.068315 0.186970 0.436355
Si Si7 0.690435 0.622377 0.348020
Si Si8 0.663171 0.048441 0.435538
O O1 0.245147 0.788860 0.121702
O O2 0.516482 0.637724 0.288820
O O3 0.296925 0.426174 0.472369
O O4 0.360917 0.544535 0.159125
O O5 0.786976 0.059339 0.786982
O O6 0.759795 0.819543 0.158757
O O7 0.000000 0.000000 0.000000
O O8 0.328291 0.795525 0.787579
O O9 0.187204 0.479117 0.013144
O O10 0.500000 0.500000 0.000000
O O11 0.984412 0.618504 0.783377
O O12 0.234639 0.573833 0.561727
O O13 0.265328 0.859226 0.507992
O O14 0.007385 0.809049 0.441496
O O15 0.241004 0.138568 0.466219
O O16 0.000000 0.000000 0.500000
O O17 0.500000 0.000000 0.500000
#
# Coordination Sequence:
#
# PCOD9026177 Si02
#       8
#     2   2   2   1   2   2   2   2
#     4  10  25  46  71 102 139 184 240 290 360 425
#     4  11  26  44  71 104 134 185 240 292 364 424
#     4  12  26  46  72 114 145 193 243 292 368 441
#     4  12  24  44  72 102 152 188 236 288 360 432
#     4  10  23  43  69 102 137 185 232 290 363 425
#     4  10  22  41  62  97 141 183 227 284 355 421
#     4  10  23  49  72  97 139 183 239 302 351 421
#     4  11  24  45  67 106 148 185 239 295 365 442
#
# _framework density 22.16526
#
# number of rings (size 3 to 8) (size 9 to 14) (size 15 to 20)
#    0.000    1.333    2.667    2.000    3.733    6.400 
#    2.400    0.000    0.000    0.000    0.000    0.000 
#    0.000    0.000    0.000    0.000    0.000    0.000 
#
# Total GULP energy -83596.082037 kJ/mol
# GULP energy per Si atom -5573.072136 kJ/mol
# Density = 2.211481 g / cm^3
# Si number density = 22.165260 Si / 1000 Ang^3
#
#
#
# Elastic Constant Matrix: (Units=GPa)
#
#
# Indices 1 2 3 4 5 6 
#
# 1 170.0798 49.0080 48.3776 -5.4613 -2.8547 -30.1935
# 2 49.0080 93.3806 56.3730 15.6229 3.2275 -30.3980
# 3 48.3776 56.3730 181.4023 6.4528 -19.7766 -9.9980
# 4 -5.4613 15.6229 6.4528 27.2663 -6.7784 -3.0419
# 5 -2.8547 3.2275 -19.7766 -6.7784 47.1180 -4.5342
# 6 -30.1935 -30.3980 -9.9980 -3.0419 -4.5342 36.0928
#
#
#
# Elastic Compliance Matrix: (Units=1/GPa)
#
#
# Indices 1 2 3 4 5 6 
#
# 1 0.007945 -0.002884 -0.000986 0.004303 0.001315 0.004472
# 2 -0.002884 0.021674 -0.005320 -0.011368 -0.004289 0.012871
# 3 -0.000986 -0.005320 0.007606 0.001623 0.003478 -0.002625
# 4 0.004303 -0.011368 0.001623 0.045639 0.008224 -0.000645
# 5 0.001315 -0.004289 0.003478 0.008224 0.024453 0.002216
# 6 0.004472 0.012871 -0.002625 -0.000645 0.002216 0.041785
#
#
# Mechanical properties :
#
#
# Convention : Reuss Voigt Hill
#
# Bulk Modulus (GPa) = 53.06560 83.59778 68.33169
# Shear Modulus (GPa) = 28.77470 41.50236 35.13853
#
# Velocity S-wave (km/s) = 3.60695 4.33182 3.98590
# Velocity P-wave (km/s) = 6.42959 7.92573 7.21654
#
# Compressibility (1/GPa) = 0.01884460
#
# Stress axis : x y z
#
# Youngs Moduli (GPa) = 125.86144 46.13759 131.48191
#
# Poissons Ratio (x) = 0.13307 0.12962
# Poissons Ratio (y) = 0.36301 0.69952
# Poissons Ratio (z) = 0.12408 0.24546
#
# Static dielectric constant tensor:
#      x y z
#    x 1.874520 0.016940 0.003090 
#    y 0.016940 1.825530 -0.024240 
#    z 0.003090 -0.024240 1.804530 
# 
# From -- ./inp_files/386523.got.cif
#   From: 2010.05.17/outbox.cif.g08.bks.cpg/sg2_194_cif.got.tgz:386523.got - 2010.06.03 11:33:40.
