data_PCOD9026652
_publ_section_title
;
Structure prediction by ZEFSAII (Michael W. Deem and Ramdas Pophale) SiO2 
 PCOD9026652
Probable space group: P -1
;
_chemical_formula_sum "Si O2"
_cell_formula_units_Z 14
_cell_length_a 18.030554
_cell_length_b 5.832517
_cell_length_c 8.142736
_cell_angle_alpha 103.236333
_cell_angle_beta 114.255837
_cell_angle_gamma 48.811074
_cell_volume 586.447719
_symmetry_space_group_name_H-M "P -1"
_symmetry_group_IT_number 2
_symmetry_cell_setting 'triclinic'
loop_
_space_group_symop_operation_xyz
x,y,z
-x,-y,-z
loop_
_atom_site_type_symbol
_atom_site_label
_atom_site_fract_x
_atom_site_fract_y
_atom_site_fract_z
Si Si1 0.328089 0.284775 0.855371
Si Si2 0.023827 0.742777 0.355074
Si Si3 0.176944 0.952264 0.962158
Si Si4 0.499447 0.742681 0.144936
Si Si5 0.825503 0.264132 0.731530
Si Si6 0.671257 0.962836 0.732096
Si Si7 0.772751 0.916205 0.473733
O O1 0.232869 0.618880 0.885488
O O2 0.391142 0.321149 0.782412
O O3 0.287220 0.109977 0.726258
O O4 0.413103 0.074929 0.038523
O O5 0.080322 0.746719 0.245936
O O6 0.112292 0.412798 0.457613
O O7 0.000000 0.000000 0.500000
O O8 0.919010 0.808999 0.205371
O O9 0.142674 0.946121 0.115397
O O10 0.263718 0.993482 0.073995
O O11 0.450670 0.793500 0.288956
O O12 0.500000 0.500000 0.000000
O O13 0.723968 0.609461 0.734143
O O14 0.794370 0.151898 0.534166
O O15 0.702606 0.995652 0.585886
#
# Coordination Sequence:
#
# PCOD9026652 Si02
#       7
#     2   2   2   2   2   2   2
#     4  11  23  40  65  94 122 159 207 258 308 362
#     4  11  23  39  63  95 127 161 208 251 301 363
#     4  11  21  40  65  90 126 163 206 252 301 365
#     4  11  23  41  67  94 118 160 212 254 310 366
#     4  10  23  41  60  89 131 167 202 245 309 366
#     4  10  22  41  65  90 126 163 204 255 304 366
#     4  10  24  42  61  94 130 161 202 253 307 364
#
# _framework density 23.872547000000001
#
# number of rings (size 3 to 8) (size 9 to 14) (size 15 to 20)
#    0.000    1.429    4.286    0.429    0.000   10.857 
#    0.000    1.429    0.000    0.000    0.000    0.000 
#    0.000    0.000    0.000    0.000    0.000    0.000 
#
# Total GULP energy -78352.646795 kJ/mol
# GULP energy per Si atom -5596.617628 kJ/mol
# Density = 2.381821 g / cm^3
# Si number density = 23.872547 Si / 1000 Ang^3
#
#
#
# Elastic Constant Matrix: (Units=GPa)
#
#
# Indices 1 2 3 4 5 6 
#
# 1 47.6084 8.1484 4.3059 1.3571 3.0034 -11.7049
# 2 8.1484 53.7628 6.0386 18.5531 -8.6252 -10.4438
# 3 4.3059 6.0386 72.4407 6.2689 12.4628 -4.9522
# 4 1.3571 18.5531 6.2689 42.7577 4.0348 1.3263
# 5 3.0034 -8.6252 12.4628 4.0348 29.6427 13.0884
# 6 -11.7049 -10.4438 -4.9522 1.3263 13.0884 30.9028
#
#
#
# Elastic Compliance Matrix: (Units=1/GPa)
#
#
# Indices 1 2 3 4 5 6 
#
# 1 0.025191 -0.003426 0.001258 0.001036 -0.009828 0.012703
# 2 -0.003426 0.025459 -0.002121 -0.011550 0.008516 0.003855
# 3 0.001258 -0.002121 0.016242 -0.000723 -0.010494 0.006838
# 4 0.001036 -0.011550 -0.000723 0.029121 -0.006116 -0.002287
# 5 -0.009828 0.008516 -0.010494 -0.006116 0.053448 -0.024901
# 6 0.012703 0.003855 0.006838 -0.002287 -0.024901 0.050214
#
#
# Mechanical properties :
#
#
# Convention : Reuss Voigt Hill
#
# Bulk Modulus (GPa) = 17.14839 23.42196 20.28518
# Shear Modulus (GPa) = 21.95968 31.01524 26.48746
#
# Velocity S-wave (km/s) = 3.03623 3.60835 3.33458
# Velocity P-wave (km/s) = 4.41480 5.21468 4.83132
#
# Compressibility (1/GPa) = 0.05831452
#
# Stress axis : x y z
#
# Youngs Moduli (GPa) = 39.69673 39.27914 61.56942
#
# Poissons Ratio (x) = 0.13456 -0.07744
# Poissons Ratio (y) = 0.13599 0.13057
# Poissons Ratio (z) = -0.04993 0.08330
#
# Static dielectric constant tensor:
#      x y z
#    x 1.959520 0.008550 -0.050780 
#    y 0.008550 1.868150 -0.004940 
#    z -0.050780 -0.004940 1.916420 
# 
# From -- ./inp_files/26718.got.cif
#   From: 2010.05.17/outbox.cif.g08.bks.cpg/sg2_14_cif.got.tgz:26718.got - 2010.06.03 11:33:40.
