data_PCOD9026899
_publ_section_title
;
Structure prediction by ZEFSAII (Michael W. Deem and Ramdas Pophale) SiO2 
 PCOD9026899
Probable space group: P -1
;
_chemical_formula_sum "Si O2"
_cell_formula_units_Z 14
_cell_length_a 14.845802
_cell_length_b 21.821348
_cell_length_c 5.229028
_cell_angle_alpha 59.295037
_cell_angle_beta 51.047399
_cell_angle_gamma 27.662318
_cell_volume 606.561744
_symmetry_space_group_name_H-M "P -1"
_symmetry_group_IT_number 2
_symmetry_cell_setting 'triclinic'
loop_
_space_group_symop_operation_xyz
x,y,z
-x,-y,-z
loop_
_atom_site_type_symbol
_atom_site_label
_atom_site_fract_x
_atom_site_fract_y
_atom_site_fract_z
Si Si1 0.319413 0.382606 0.752179
Si Si2 0.118776 0.368188 0.779797
Si Si3 0.092133 0.114317 0.818144
Si Si4 0.825689 0.270314 0.472659
Si Si5 0.579684 0.517143 0.611114
Si Si6 0.498180 0.836000 0.843837
Si Si7 0.663836 0.872483 0.800681
O O1 0.206962 0.391280 0.724659
O O2 0.378594 0.429290 0.444155
O O3 0.509513 0.233948 0.839971
O O4 0.138201 0.492703 0.058643
O O5 0.263881 0.288023 0.441441
O O6 0.187789 0.262260 0.036869
O O7 0.186264 0.145246 0.551415
O O8 0.918580 0.189732 0.741989
O O9 0.293003 0.955150 0.776432
O O10 0.988656 0.167884 0.170326
O O11 0.782423 0.375106 0.409411
O O12 0.594624 0.374125 0.531719
O O13 0.500000 0.500000 0.000000
O O14 0.510155 0.902566 0.840194
O O15 0.500000 0.000000 0.000000
#
# Coordination Sequence:
#
# PCOD9026899 Si02
#       7
#     2   2   2   2   2   2   2
#     4  10  24  43  66 100 141 186 236 286 354 424
#     4  10  22  41  66 102 141 183 230 280 361 421
#     4  12  24  42  70 104 146 182 231 295 349 426
#     4  11  26  44  74 105 131 179 243 295 359 406
#     4  11  24  49  74 103 136 182 243 305 347 411
#     4  11  24  40  65 101 146 187 228 284 356 431
#     4  11  22  38  64 103 143 187 229 288 348 423
#
# _framework density 23.080916999999999
#
# number of rings (size 3 to 8) (size 9 to 14) (size 15 to 20)
#    0.000    1.143    2.857    2.571    6.000    2.286 
#    0.000    1.429    0.000    0.000    0.000    0.000 
#    0.000    0.000    0.000    0.000    0.000    0.000 
#
# Total GULP energy -78153.929107 kJ/mol
# GULP energy per Si atom -5582.423508 kJ/mol
# Density = 2.302838 g / cm^3
# Si number density = 23.080917 Si / 1000 Ang^3
#
#
#
# Elastic Constant Matrix: (Units=GPa)
#
#
# Indices 1 2 3 4 5 6 
#
# 1 66.6457 50.6177 24.3197 -7.6490 5.6446 14.4931
# 2 50.6177 87.6247 22.1843 -10.1955 -1.2908 -11.6944
# 3 24.3197 22.1843 65.2392 -6.8897 8.9512 12.4088
# 4 -7.6490 -10.1955 -6.8897 38.6475 10.3829 5.1988
# 5 5.6446 -1.2908 8.9512 10.3829 32.0920 -3.0498
# 6 14.4931 -11.6944 12.4088 5.1988 -3.0498 44.1982
#
#
#
# Elastic Compliance Matrix: (Units=1/GPa)
#
#
# Indices 1 2 3 4 5 6 
#
# 1 0.042343 -0.026899 0.000434 0.008068 -0.013447 -0.023001
# 2 -0.026899 0.030878 -0.006157 -0.003866 0.010834 0.019921
# 3 0.000434 -0.006157 0.020763 0.005725 -0.008812 -0.008882
# 4 0.008068 -0.003866 0.005725 0.032800 -0.014748 -0.010152
# 5 -0.013447 0.010834 -0.008812 -0.014748 0.042561 0.014422
# 6 -0.023001 0.019921 -0.008882 -0.010152 0.014422 0.040122
#
#
# Mechanical properties :
#
#
# Convention : Reuss Voigt Hill
#
# Bulk Modulus (GPa) = 34.79300 45.97256 40.38278
# Shear Modulus (GPa) = 17.58768 31.14672 24.36720
#
# Velocity S-wave (km/s) = 2.76343 3.67748 3.25272
# Velocity P-wave (km/s) = 5.02883 6.16385 5.62504
#
# Compressibility (1/GPa) = 0.02874141
#
# Stress axis : x y z
#
# Youngs Moduli (GPa) = 23.61672 32.38543 48.16291
#
# Poissons Ratio (x) = 0.87113 -0.02092
# Poissons Ratio (y) = 0.63527 0.29652
# Poissons Ratio (z) = -0.01026 0.19938
#
# Static dielectric constant tensor:
#      x y z
#    x 1.895910 -0.040680 0.017180 
#    y -0.040680 1.885630 -0.001770 
#    z 0.017180 -0.001770 1.956640 
# 
# From -- ./inp_files/68882.got.cif
#   From: 2010.05.17/outbox.cif.g08.bks.cpg/sg2_35_cif.got.tgz:68882.got - 2010.06.03 11:33:40.
