data_PCOD9026694
_publ_section_title
;
Structure prediction by ZEFSAII (Michael W. Deem and Ramdas Pophale) SiO2 
 PCOD9026694
Probable space group: P -1
;
_chemical_formula_sum "Si O2"
_cell_formula_units_Z 14
_cell_length_a 9.159659
_cell_length_b 12.552877
_cell_length_c 11.806657
_cell_angle_alpha 87.343013
_cell_angle_beta 144.003688
_cell_angle_gamma 72.780298
_cell_volume 655.896542
_symmetry_space_group_name_H-M "P -1"
_symmetry_group_IT_number 2
_symmetry_cell_setting 'triclinic'
loop_
_space_group_symop_operation_xyz
x,y,z
-x,-y,-z
loop_
_atom_site_type_symbol
_atom_site_label
_atom_site_fract_x
_atom_site_fract_y
_atom_site_fract_z
Si Si1 0.774218 0.639802 0.621672
Si Si2 0.470953 0.991553 0.617357
Si Si3 0.549939 0.250807 0.357707
Si Si4 0.763580 0.850639 0.197111
Si Si5 0.872458 0.229265 0.173171
Si Si6 0.290288 0.349754 0.951543
Si Si7 0.574901 0.163697 0.806638
O O1 0.583905 0.669423 0.614431
O O2 0.561273 0.726831 0.380246
O O3 0.988000 0.690867 0.773205
O O4 0.987353 0.489420 0.733760
O O5 0.660598 0.032175 0.804678
O O6 0.816199 0.168976 0.031652
O O7 0.500000 0.000000 0.500000
O O8 0.524977 0.856728 0.686641
O O9 0.401662 0.338694 0.149985
O O10 0.910260 0.176241 0.587220
O O11 0.674694 0.810362 0.258343
O O12 0.762117 0.761670 0.103147
O O13 0.500000 0.000000 0.000000
O O14 0.560924 0.318874 0.039877
O O15 0.119383 0.108585 0.411393
#
# Coordination Sequence:
#
# PCOD9026694 Si02
#       7
#     2   2   2   2   2   2   2
#     4  11  24  42  62  98 126 170 215 254 314 370
#     4  11  21  40  61  96 124 158 207 262 321 368
#     4  12  23  41  65  91 134 163 207 268 312 371
#     4  11  25  44  65  98 124 167 213 258 321 376
#     4  10  22  41  65  94 122 168 213 259 314 370
#     4  11  25  42  66  91 130 171 213 255 310 379
#     4  10  22  41  65  92 129 164 212 259 308 375
#
# _framework density 21.344829000000001
#
# number of rings (size 3 to 8) (size 9 to 14) (size 15 to 20)
#    0.000    1.143    2.857    5.143    0.000    7.429 
#    2.571    0.000    0.000    0.000    0.000    0.000 
#    0.000    0.000    0.000    0.000    0.000    0.000 
#
# Total GULP energy -78306.968716 kJ/mol
# GULP energy per Si atom -5593.354908 kJ/mol
# Density = 2.129625 g / cm^3
# Si number density = 21.344829 Si / 1000 Ang^3
#
#
#
# Elastic Constant Matrix: (Units=GPa)
#
#
# Indices 1 2 3 4 5 6 
#
# 1 71.2439 -1.9834 10.5134 5.3890 -13.1965 -16.2138
# 2 -1.9834 71.9527 13.6139 -2.0660 6.4322 -10.6574
# 3 10.5134 13.6139 60.7908 16.1179 -7.1553 -3.1127
# 4 5.3890 -2.0660 16.1179 40.3078 -9.5168 5.4816
# 5 -13.1965 6.4322 -7.1553 -9.5168 22.3460 7.5123
# 6 -16.2138 -10.6574 -3.1127 5.4816 7.5123 27.1783
#
#
#
# Elastic Compliance Matrix: (Units=1/GPa)
#
#
# Indices 1 2 3 4 5 6 
#
# 1 0.017733 0.001797 -0.001908 -0.001607 0.005326 0.009917
# 2 0.001797 0.017036 -0.004388 -0.001113 -0.009078 0.009983
# 3 -0.001908 -0.004388 0.020069 -0.007141 0.003556 -0.000103
# 4 -0.001607 -0.001113 -0.007141 0.033351 0.015758 -0.013295
# 5 0.005326 -0.009078 0.003556 0.015758 0.065506 -0.021260
# 6 0.009917 0.009983 -0.000103 -0.013295 -0.021260 0.055171
#
#
# Mechanical properties :
#
#
# Convention : Reuss Voigt Hill
#
# Bulk Modulus (GPa) = 21.81586 27.58614 24.70100
# Shear Modulus (GPa) = 21.44581 30.08932 25.76757
#
# Velocity S-wave (km/s) = 3.17319 3.75864 3.47825
# Velocity P-wave (km/s) = 4.86501 5.63814 5.26578
#
# Compressibility (1/GPa) = 0.04583821
#
# Stress axis : x y z
#
# Youngs Moduli (GPa) = 56.39250 58.69888 49.82746
#
# Poissons Ratio (x) = -0.10545 0.09510
# Poissons Ratio (y) = -0.10131 0.21864
# Poissons Ratio (z) = 0.10762 0.25757
#
# Static dielectric constant tensor:
#      x y z
#    x 1.774460 -0.023350 0.018090 
#    y -0.023350 1.770820 0.006740 
#    z 0.018090 0.006740 1.760910 
# 
# From -- ./inp_files/390279.got.cif
#   From: 2010.05.17/outbox.cif.g08.bks.cpg/sg2_196_cif.got.tgz:390279.got - 2010.06.03 11:33:40.
