data_PCOD9026711
_publ_section_title
;
Structure prediction by ZEFSAII (Michael W. Deem and Ramdas Pophale) SiO2 
 PCOD9026711
Probable space group: P -1
;
_chemical_formula_sum "Si O2"
_cell_formula_units_Z 16
_cell_length_a 7.865451
_cell_length_b 17.230099
_cell_length_c 11.133358
_cell_angle_alpha 146.042045
_cell_angle_beta 60.589944
_cell_angle_gamma 123.853046
_cell_volume 698.553211
_symmetry_space_group_name_H-M "P -1"
_symmetry_group_IT_number 2
_symmetry_cell_setting 'triclinic'
loop_
_space_group_symop_operation_xyz
x,y,z
-x,-y,-z
loop_
_atom_site_type_symbol
_atom_site_label
_atom_site_fract_x
_atom_site_fract_y
_atom_site_fract_z
Si Si1 0.380241 0.553379 0.003850
Si Si2 0.293014 0.537843 0.588290
Si Si3 0.983682 0.372673 0.021218
Si Si4 0.813888 0.050828 0.673753
Si Si5 0.192775 0.049343 0.907148
Si Si6 0.587956 0.121814 0.524260
Si Si7 0.586341 0.128814 0.044119
Si Si8 0.770778 0.655108 0.856084
O O1 0.149065 0.447567 0.959081
O O2 0.370711 0.714265 0.241466
O O3 0.500000 0.500000 0.000000
O O4 0.529888 0.573419 0.863651
O O5 0.500000 0.500000 0.500000
O O6 0.346636 0.702191 0.726475
O O7 0.175497 0.425061 0.382003
O O8 0.162121 0.542316 0.760082
O O9 0.113142 0.354550 0.072577
O O10 0.848137 0.213221 0.816514
O O11 0.608452 0.921450 0.550892
O O12 0.780399 0.089754 0.871700
O O13 0.000000 0.000000 0.500000
O O14 0.222049 0.913039 0.648886
O O15 0.405264 0.112531 0.988891
O O16 0.192569 0.178464 0.982114
O O17 0.000000 0.000000 0.000000
O O18 0.500000 0.000000 0.500000
O O19 0.500000 0.000000 0.000000
#
# Coordination Sequence:
#
# PCOD9026711 Si02
#       8
#     2   2   2   2   2   2   2   2
#     4  10  22  41  66  96 130 169 217 264 320 388
#     4  11  23  42  66  91 136 168 210 271 326 378
#     4  10  24  41  67  99 127 171 223 263 323 392
#     4  10  22  41  65  93 130 165 213 263 320 381
#     4  11  25  39  66  96 129 169 221 263 323 391
#     4  11  23  42  67  93 134 170 210 272 327 374
#     4  10  24  42  63  95 130 166 214 268 322 382
#     4  11  22  42  67  92 131 172 213 271 325 379
#
# _framework density 22.904482999999999
#
# number of rings (size 3 to 8) (size 9 to 14) (size 15 to 20)
#    0.000    1.500    2.500    1.875    5.250    5.000 
#    0.000    2.500    0.000    0.000    0.000    0.000 
#    0.000    0.000    0.000    0.000    0.000    0.000 
#
# Total GULP energy -89346.360878 kJ/mol
# GULP energy per Si atom -5584.147555 kJ/mol
# Density = 2.285235 g / cm^3
# Si number density = 22.904483 Si / 1000 Ang^3
#
#
#
# Elastic Constant Matrix: (Units=GPa)
#
#
# Indices 1 2 3 4 5 6 
#
# 1 83.6315 10.3359 3.0550 -9.6632 -16.6102 -10.2909
# 2 10.3359 122.0563 12.6043 -14.1422 -27.8059 20.5158
# 3 3.0550 12.6043 99.3233 -10.2744 -33.5211 0.4809
# 4 -9.6632 -14.1422 -10.2744 36.7480 16.9504 -14.3597
# 5 -16.6102 -27.8059 -33.5211 16.9504 35.2890 -1.2757
# 6 -10.2909 20.5158 0.4809 -14.3597 -1.2757 35.7580
#
#
#
# Elastic Compliance Matrix: (Units=1/GPa)
#
#
# Indices 1 2 3 4 5 6 
#
# 1 0.014507 -0.000392 0.002444 0.003189 0.007523 0.005916
# 2 -0.000392 0.011895 0.002631 -0.004155 0.013388 -0.008164
# 3 0.002444 0.002631 0.016141 -0.003982 0.020400 -0.001894
# 4 0.003189 -0.004155 -0.003982 0.045841 -0.026822 0.020807
# 5 0.007523 0.013388 0.020400 -0.026822 0.074186 -0.013915
# 6 0.005916 -0.008164 -0.001894 0.020807 -0.013915 0.042237
#
#
# Mechanical properties :
#
#
# Convention : Reuss Voigt Hill
#
# Bulk Modulus (GPa) = 19.26486 39.66684 29.46585
# Shear Modulus (GPa) = 23.50223 40.16005 31.83114
#
# Velocity S-wave (km/s) = 3.20675 4.19187 3.73196
# Velocity P-wave (km/s) = 4.70534 6.38631 5.60915
#
# Compressibility (1/GPa) = 0.05190798
#
# Stress axis : x y z
#
# Youngs Moduli (GPa) = 68.93254 84.06775 61.95319
#
# Poissons Ratio (x) = 0.03295 -0.15139
# Poissons Ratio (y) = 0.02702 -0.16297
# Poissons Ratio (z) = -0.16845 -0.22114
#
# Static dielectric constant tensor:
#      x y z
#    x 1.997620 -0.039260 0.040140 
#    y -0.039260 1.952630 -0.051900 
#    z 0.040140 -0.051900 1.861220 
# 
# From -- ./inp_files/403512.got.cif
#   From: 2010.05.17/outbox.cif.g08.bks.cpg/sg2_202_cif.got.tgz:403512.got - 2010.06.03 11:33:40.
