data_PCOD9026393
_publ_section_title
;
Structure prediction by ZEFSAII (Michael W. Deem and Ramdas Pophale) SiO2 
 PCOD9026393
Probable space group: P -1
;
_chemical_formula_sum "Si O2"
_cell_formula_units_Z 16
_cell_length_a 16.591496
_cell_length_b 9.047503
_cell_length_c 13.115652
_cell_angle_alpha 91.845349
_cell_angle_beta 25.361439
_cell_angle_gamma 85.195574
_cell_volume 813.045314
_symmetry_space_group_name_H-M "P -1"
_symmetry_group_IT_number 2
_symmetry_cell_setting 'triclinic'
loop_
_space_group_symop_operation_xyz
x,y,z
-x,-y,-z
loop_
_atom_site_type_symbol
_atom_site_label
_atom_site_fract_x
_atom_site_fract_y
_atom_site_fract_z
Si Si1 0.912131 0.053781 0.765158
Si Si2 0.505249 0.649048 0.263038
Si Si3 0.898670 0.249488 0.370574
Si Si4 0.903503 0.578159 0.010970
Si Si5 0.514284 0.821218 0.467163
Si Si6 0.282888 0.050056 0.205855
Si Si7 0.884312 0.643280 0.698473
Si Si8 0.691724 0.348075 0.139560
O O1 0.119112 0.025530 0.470303
O O2 0.757357 0.022569 0.858535
O O3 0.826244 0.225052 0.907472
O O4 0.965365 0.925830 0.791180
O O5 0.330301 0.721781 0.387280
O O6 0.480912 0.765735 0.389215
O O7 0.516820 0.477397 0.288070
O O8 0.714884 0.626922 0.968997
O O9 0.956450 0.301213 0.415870
O O10 0.961544 0.357090 0.217675
O O11 0.732673 0.725495 0.239470
O O12 0.811800 0.454910 0.057348
O O13 0.000000 0.500000 0.000000
O O14 0.382890 0.753013 0.693378
O O15 0.500000 0.000000 0.500000
O O16 0.224009 0.229358 0.254070
O O17 0.500000 0.000000 0.000000
O O18 0.000000 0.500000 0.500000
#
# Coordination Sequence:
#
# PCOD9026393 Si02
#       8
#     2   2   2   2   2   2   2   2
#     4  10  23  41  62  94 126 166 210 263 313 376
#     4  11  23  42  64  94 129 166 212 262 313 378
#     4  11  22  41  66  91 132 166 210 264 317 374
#     4  11  22  41  63  92 128 167 211 261 314 375
#     4  11  23  40  64  91 129 167 210 262 315 375
#     4  10  22  41  64  89 128 165 210 261 318 372
#     4  11  23  40  67  93 129 167 213 262 318 374
#     4  11  22  40  63  92 129 163 213 262 313 377
#
# _framework density 19.679100999999999
#
# number of rings (size 3 to 8) (size 9 to 14) (size 15 to 20)
#    0.000    1.250    2.500    5.250    1.750    2.500 
#    2.250    2.500    0.000    0.000    0.000    0.000 
#    0.000    0.000    0.000    0.000    0.000    0.000 
#
# Total GULP energy -89299.927925 kJ/mol
# GULP energy per Si atom -5581.245495 kJ/mol
# Density = 1.963431 g / cm^3
# Si number density = 19.679101 Si / 1000 Ang^3
#
#
#
# Elastic Constant Matrix: (Units=GPa)
#
#
# Indices 1 2 3 4 5 6 
#
# 1 119.8982 50.6727 54.8000 24.6564 -35.2399 -19.7264
# 2 50.6727 148.4770 48.1002 29.0004 -1.5568 -7.1096
# 3 54.8000 48.1002 86.8061 16.3467 -12.4079 9.6697
# 4 24.6564 29.0004 16.3467 46.2301 -7.2006 5.6860
# 5 -35.2399 -1.5568 -12.4079 -7.2006 32.6733 2.1935
# 6 -19.7264 -7.1096 9.6697 5.6860 2.1935 22.1026
#
#
#
# Elastic Compliance Matrix: (Units=1/GPa)
#
#
# Indices 1 2 3 4 5 6 
#
# 1 0.032588 -0.000711 -0.018991 -0.011306 0.022873 0.037803
# 2 -0.000711 0.010099 -0.005446 -0.005494 -0.004022 0.006809
# 3 -0.018991 -0.005446 0.027910 0.006587 -0.006547 -0.031956
# 4 -0.011306 -0.005494 0.006587 0.031325 -0.001531 -0.022646
# 5 0.022873 -0.004022 -0.006547 -0.001531 0.051099 0.017307
# 6 0.037803 0.006809 -0.031956 -0.022646 0.017307 0.099262
#
#
# Mechanical properties :
#
#
# Convention : Reuss Voigt Hill
#
# Bulk Modulus (GPa) = 49.25821 73.59189 61.42505
# Shear Modulus (GPa) = 16.16311 33.64176 24.90244
#
# Velocity S-wave (km/s) = 2.86900 4.13912 3.56114
# Velocity P-wave (km/s) = 6.00499 7.76661 6.94191
#
# Compressibility (1/GPa) = 0.02030118
#
# Stress axis : x y z
#
# Youngs Moduli (GPa) = 30.68573 99.02110 35.82931
#
# Poissons Ratio (x) = 0.07042 0.68045
# Poissons Ratio (y) = 0.02182 0.19511
# Poissons Ratio (z) = 0.58276 0.53923
#
# Static dielectric constant tensor:
#      x y z
#    x 1.699550 -0.038620 0.021170 
#    y -0.038620 1.731650 -0.063230 
#    z 0.021170 -0.063230 1.761160 
# 
# From -- ./inp_files/215692.got.cif
#   From: 2010.05.17/outbox.cif.g08.bks.cpg/sg2_108_cif.got.tgz:215692.got - 2010.06.03 11:33:40.
