data_PCOD9026146
_publ_section_title
;
Structure prediction by ZEFSAII (Michael W. Deem and Ramdas Pophale) SiO2 
 PCOD9026146
Probable space group: P -1
;
_chemical_formula_sum "Si O2"
_cell_formula_units_Z 14
_cell_length_a 14.501058
_cell_length_b 13.783246
_cell_length_c 8.497304
_cell_angle_alpha 64.988250
_cell_angle_beta 56.039668
_cell_angle_gamma 21.997740
_cell_volume 502.291927
_symmetry_space_group_name_H-M "P -1"
_symmetry_group_IT_number 2
_symmetry_cell_setting 'triclinic'
loop_
_space_group_symop_operation_xyz
x,y,z
-x,-y,-z
loop_
_atom_site_type_symbol
_atom_site_label
_atom_site_fract_x
_atom_site_fract_y
_atom_site_fract_z
Si Si1 0.362763 0.212208 0.639193
Si Si2 0.374516 0.251049 0.271748
Si Si3 0.530331 0.635260 0.292903
Si Si4 0.295805 0.688438 0.217219
Si Si5 0.161923 0.040400 0.612201
Si Si6 0.649181 0.752110 0.037509
Si Si7 0.099630 0.069699 0.012986
O O1 0.230360 0.376339 0.493347
O O2 0.424187 0.031705 0.709472
O O3 0.673779 0.992974 0.505811
O O4 0.214030 0.374914 0.832355
O O5 0.205965 0.390799 0.173252
O O6 0.581353 0.168740 0.117096
O O7 0.422347 0.634203 0.287720
O O8 0.864070 0.344075 0.142272
O O9 0.405120 0.747486 0.509871
O O10 0.435659 0.838950 0.187465
O O11 0.113839 0.742167 0.378038
O O12 0.077609 0.971835 0.171120
O O13 0.500000 0.500000 0.000000
O O14 0.051994 0.113466 0.842014
O O15 0.500000 0.000000 0.000000
#
# Coordination Sequence:
#
# PCOD9026146 Si02
#       7
#     2   2   2   2   2   2   2
#     4   8  17  32  60  91 125 166 212 264 322 387
#     4   9  16  34  62  88 127 169 205 273 325 382
#     4  11  23  42  66  96 130 172 216 273 333 387
#     4  12  24  43  67  93 130 175 219 270 331 392
#     4  10  22  41  62  94 131 167 217 272 319 398
#     4   9  17  35  62  91 128 168 214 266 321 396
#     4  11  23  42  66  96 128 173 220 267 337 392
#
# _framework density 27.872237999999999
#
# number of rings (size 3 to 8) (size 9 to 14) (size 15 to 20)
#    0.000    2.000    2.857    0.857    0.000    0.571 
#    2.571    6.429    0.000   45.429    0.000    0.000 
#    0.000    0.000    0.000    0.000    0.000    0.000 
#
# Total GULP energy -78209.280521 kJ/mol
# GULP energy per Si atom -5586.377180 kJ/mol
# Density = 2.780880 g / cm^3
# Si number density = 27.872238 Si / 1000 Ang^3
#
#
#
# Elastic Constant Matrix: (Units=GPa)
#
#
# Indices 1 2 3 4 5 6 
#
# 1 127.3017 23.6368 55.6231 5.9066 16.5878 20.7855
# 2 23.6368 69.4516 35.7236 7.2799 9.9544 18.5214
# 3 55.6231 35.7236 136.8358 13.4074 13.5844 -13.0501
# 4 5.9066 7.2799 13.4074 32.5033 -1.3061 -2.0255
# 5 16.5878 9.9544 13.5844 -1.3061 87.7309 -11.7877
# 6 20.7855 18.5214 -13.0501 -2.0255 -11.7877 33.2064
#
#
#
# Elastic Compliance Matrix: (Units=1/GPa)
#
#
# Indices 1 2 3 4 5 6 
#
# 1 0.013320 0.003882 -0.007330 -0.001345 -0.003836 -0.014827
# 2 0.003882 0.024874 -0.009266 -0.004033 -0.005140 -0.022016
# 3 -0.007330 -0.009266 0.014132 -0.001324 0.002389 0.016078
# 4 -0.001345 -0.004033 -0.001324 0.032877 0.002122 0.005329
# 5 -0.003836 -0.005140 0.002389 0.002122 0.013882 0.011264
# 6 -0.014827 -0.022016 0.016078 0.005329 0.011264 0.062317
#
#
# Mechanical properties :
#
#
# Convention : Reuss Voigt Hill
#
# Bulk Modulus (GPa) = 37.17593 62.61734 49.89664
# Shear Modulus (GPa) = 25.53652 45.26185 35.39918
#
# Velocity S-wave (km/s) = 3.03016 4.03414 3.56764
# Velocity P-wave (km/s) = 5.06058 6.64934 5.90860
#
# Compressibility (1/GPa) = 0.02689913
#
# Stress axis : x y z
#
# Youngs Moduli (GPa) = 75.07273 40.20251 70.75950
#
# Poissons Ratio (x) = -0.15605 0.51863
# Poissons Ratio (y) = -0.29140 0.65566
# Poissons Ratio (z) = 0.55025 0.37252
#
# Static dielectric constant tensor:
#      x y z
#    x 2.259020 -0.011750 0.038660 
#    y -0.011750 2.102640 -0.043590 
#    z 0.038660 -0.043590 2.201890 
# 
# From -- ./inp_files/313859.got.cif
#   From: 2010.05.17/outbox.cif.g08.bks.cpg/sg2_157_cif.got.tgz:313859.got - 2010.06.03 11:33:40.
