data_PCOD9026120
_publ_section_title
;
Structure prediction by ZEFSAII (Michael W. Deem and Ramdas Pophale) SiO2 
 PCOD9026120
Probable space group: P -1
;
_chemical_formula_sum "Si O2"
_cell_formula_units_Z 12
_cell_length_a 9.688198
_cell_length_b 9.519493
_cell_length_c 13.982078
_cell_angle_alpha 77.607443
_cell_angle_beta 151.985265
_cell_angle_gamma 103.148837
_cell_volume 589.538970
_symmetry_space_group_name_H-M "P -1"
_symmetry_group_IT_number 2
_symmetry_cell_setting 'triclinic'
loop_
_space_group_symop_operation_xyz
x,y,z
-x,-y,-z
loop_
_atom_site_type_symbol
_atom_site_label
_atom_site_fract_x
_atom_site_fract_y
_atom_site_fract_z
Si Si1 0.354990 0.048511 0.502059
Si Si2 0.077418 0.519186 0.654804
Si Si3 0.213575 0.827403 0.916636
Si Si4 0.303445 0.363555 0.437434
Si Si5 0.638613 0.722041 0.033446
Si Si6 0.283988 0.026099 0.102920
O O1 0.466836 0.216937 0.562720
O O2 0.005505 0.058182 0.276153
O O3 0.500000 0.000000 0.500000
O O4 0.444390 0.957071 0.660012
O O5 0.115670 0.369124 0.755379
O O6 0.000000 0.500000 0.500000
O O7 0.832588 0.601131 0.548810
O O8 0.389551 0.611792 0.847669
O O9 0.983799 0.683627 0.798178
O O10 0.469552 0.798455 0.004377
O O11 0.313063 0.890707 0.069875
O O12 0.500000 0.500000 0.500000
O O13 0.742831 0.837081 0.000704
O O14 0.000000 0.000000 0.000000
#
# Coordination Sequence:
#
# PCOD9026120 Si02
#       6
#     2   2   2   2   2   2
#     4  10  22  41  62  91 131 159 216 257 314 374
#     4  10  23  43  64  90 129 167 211 262 319 373
#     4   9  22  40  59  92 125 163 212 259 311 375
#     4   9  21  41  64  90 125 167 211 260 312 376
#     4  10  24  41  61  95 126 164 219 257 310 387
#     4  12  23  38  65  93 127 171 208 262 320 371
#
# _framework density 20.354889
#
# number of rings (size 3 to 8) (size 9 to 14) (size 15 to 20)
#    1.000    1.000    1.667    0.500    4.667    4.667 
#    0.000    0.833    0.000    0.000    0.000    0.000 
#    0.000    0.000    0.000    0.000    0.000    0.000 
#
# Total GULP energy -66942.139670 kJ/mol
# GULP energy per Si atom -5578.511639 kJ/mol
# Density = 2.030856 g / cm^3
# Si number density = 20.354889 Si / 1000 Ang^3
#
#
#
# Elastic Constant Matrix: (Units=GPa)
#
#
# Indices 1 2 3 4 5 6 
#
# 1 103.7691 62.4603 40.2039 -4.2208 -22.6074 -20.2506
# 2 62.4603 103.3706 32.5422 -14.1702 -17.2766 5.2172
# 3 40.2039 32.5422 80.6023 -2.6771 -28.2860 -14.2356
# 4 -4.2208 -14.1702 -2.6771 27.3853 -5.1269 2.6563
# 5 -22.6074 -17.2766 -28.2860 -5.1269 37.4603 2.3848
# 6 -20.2506 5.2172 -14.2356 2.6563 2.3848 44.6883
#
#
#
# Elastic Compliance Matrix: (Units=1/GPa)
#
#
# Indices 1 2 3 4 5 6 
#
# 1 0.020311 -0.011847 -0.002349 -0.003449 0.003922 0.009834
# 2 -0.011847 0.019735 -0.002769 0.009331 0.001724 -0.009201
# 3 -0.002349 -0.002769 0.019943 0.001994 0.012329 0.004835
# 4 -0.003449 0.009331 0.001994 0.043375 0.009990 -0.005128
# 5 0.003922 0.001724 0.012329 0.009990 0.040359 0.002756
# 6 0.009834 -0.009201 0.004835 -0.005128 0.002756 0.029606
#
#
# Mechanical properties :
#
#
# Convention : Reuss Voigt Hill
#
# Bulk Modulus (GPa) = 38.37306 62.01721 50.19513
# Shear Modulus (GPa) = 23.15391 32.07583 27.61487
#
# Velocity S-wave (km/s) = 3.37636 3.97398 3.68730
# Velocity P-wave (km/s) = 5.83889 7.18267 6.54536
#
# Compressibility (1/GPa) = 0.02605995
#
# Stress axis : x y z
#
# Youngs Moduli (GPa) = 49.23404 50.67017 50.14230
#
# Poissons Ratio (x) = 0.60028 0.11780
# Poissons Ratio (y) = 0.58326 0.13884
# Poissons Ratio (z) = 0.11567 0.14030
#
# Static dielectric constant tensor:
#      x y z
#    x 1.680250 -0.009960 0.025550 
#    y -0.009960 1.779970 0.015980 
#    z 0.025550 0.015980 1.758370 
# 
# From -- ./inp_files/378511.got.cif
#   From: 2010.05.17/outbox.cif.g08.bks.cpg/sg2_190_cif.got.tgz:378511.got - 2010.06.03 11:33:40.
