data_PCOD9026752
_publ_section_title
;
Structure prediction by ZEFSAII (Michael W. Deem and Ramdas Pophale) SiO2 
 PCOD9026752
Probable space group: P -1
;
_chemical_formula_sum "Si O2"
_cell_formula_units_Z 16
_cell_length_a 5.192093
_cell_length_b 20.792997
_cell_length_c 8.187323
_cell_angle_alpha 126.619030
_cell_angle_beta 115.240612
_cell_angle_gamma 85.088152
_cell_volume 624.127167
_symmetry_space_group_name_H-M "P -1"
_symmetry_group_IT_number 2
_symmetry_cell_setting 'triclinic'
loop_
_space_group_symop_operation_xyz
x,y,z
-x,-y,-z
loop_
_atom_site_type_symbol
_atom_site_label
_atom_site_fract_x
_atom_site_fract_y
_atom_site_fract_z
Si Si1 0.755619 0.198452 0.241708
Si Si2 0.198222 0.135065 0.806380
Si Si3 0.939678 0.430482 0.241878
Si Si4 0.358618 0.479860 0.130627
Si Si5 0.185374 0.635894 0.327459
Si Si6 0.802444 0.992376 0.653217
Si Si7 0.186265 0.737830 0.146380
Si Si8 0.351985 0.142374 0.357808
O O1 0.782322 0.295964 0.421848
O O2 0.581894 0.157323 0.294828
O O3 0.072803 0.178876 0.296106
O O4 0.542054 0.161765 0.979351
O O5 0.098155 0.075984 0.535297
O O6 0.067108 0.214162 0.870370
O O7 0.039427 0.077177 0.824286
O O8 0.634343 0.444130 0.111483
O O9 0.000000 0.500000 0.500000
O O10 0.213753 0.449773 0.221663
O O11 0.861180 0.333064 0.110247
O O12 0.418230 0.579009 0.305248
O O13 0.111979 0.434965 0.867137
O O14 0.174516 0.686127 0.233537
O O15 0.738461 0.951954 0.751356
O O16 0.500000 0.000000 0.500000
O O17 0.483765 0.806459 0.362577
#
# Coordination Sequence:
#
# PCOD9026752 Si02
#       8
#     2   2   2   2   2   2   2   2
#     4  11  26  43  69 107 137 176 231 294 337 396
#     4  11  26  45  70 105 138 180 230 289 344 412
#     4  11  24  41  65  99 138 174 227 281 336 387
#     4  10  22  41  65  95 129 186 224 275 333 405
#     4   9  21  42  69  93 135 178 230 271 340 401
#     4  11  24  46  73  97 139 185 229 274 355 423
#     4  10  22  45  71  96 138 186 227 272 345 418
#     4  11  24  46  70  98 139 183 228 281 346 413
#
# _framework density 25.635801000000001
#
# number of rings (size 3 to 8) (size 9 to 14) (size 15 to 20)
#    0.000    1.500    1.250    2.625    5.250    8.500 
#    2.250    0.000    0.000    0.000    0.000    0.000 
#    0.000    0.000    0.000    0.000    0.000    0.000 
#
# Total GULP energy -89557.898023 kJ/mol
# GULP energy per Si atom -5597.368626 kJ/mol
# Density = 2.557745 g / cm^3
# Si number density = 25.635801 Si / 1000 Ang^3
#
#
#
# Elastic Constant Matrix: (Units=GPa)
#
#
# Indices 1 2 3 4 5 6 
#
# 1 80.7097 10.3856 1.6967 -3.1228 -6.2333 -0.3989
# 2 10.3856 85.8936 -8.8788 18.5945 -10.7589 -6.4790
# 3 1.6967 -8.8788 99.3623 -6.5601 -1.9724 2.1377
# 4 -3.1228 18.5945 -6.5601 21.5588 -6.0978 0.8420
# 5 -6.2333 -10.7589 -1.9724 -6.0978 38.5904 -6.3231
# 6 -0.3989 -6.4790 2.1377 0.8420 -6.3231 48.4946
#
#
#
# Elastic Compliance Matrix: (Units=1/GPa)
#
#
# Indices 1 2 3 4 5 6 
#
# 1 0.013023 -0.002270 -0.000090 0.004430 0.002168 0.000014
# 2 -0.002270 0.015206 0.000549 -0.012724 0.002301 0.002510
# 3 -0.000090 0.000549 0.010339 0.002979 0.001090 -0.000293
# 4 0.004430 -0.012724 0.002979 0.060855 0.006610 -0.001989
# 5 0.002168 0.002301 0.001090 0.006610 0.028644 0.003897
# 6 0.000014 0.002510 -0.000293 -0.001989 0.003897 0.021512
#
#
# Mechanical properties :
#
#
# Convention : Reuss Voigt Hill
#
# Bulk Modulus (GPa) = 28.61589 30.26363 29.43976
# Shear Modulus (GPa) = 30.33070 39.24623 34.78847
#
# Velocity S-wave (km/s) = 3.44341 3.91694 3.68778
# Velocity P-wave (km/s) = 5.19578 5.68220 5.44442
#
# Compressibility (1/GPa) = 0.03494562
#
# Stress axis : x y z
#
# Youngs Moduli (GPa) = 76.78698 65.76512 96.71735
#
# Poissons Ratio (x) = 0.14931 0.00871
# Poissons Ratio (y) = 0.17433 -0.05311
# Poissons Ratio (z) = 0.00691 -0.03612
#
# Static dielectric constant tensor:
#      x y z
#    x 2.052010 0.058040 -0.021020 
#    y 0.058040 2.062030 -0.033740 
#    z -0.021020 -0.033740 2.108300 
# 
# From -- ./inp_files/141659.got.cif
#   From: 2010.05.17/outbox.cif.g08.bks.cpg/sg2_71_cif.got.tgz:141659.got - 2010.06.03 11:33:40.
