data_PCOD9026410
_publ_section_title
;
Structure prediction by ZEFSAII (Michael W. Deem and Ramdas Pophale) SiO2 
 PCOD9026410
Probable space group: P -1
;
_chemical_formula_sum "Si O2"
_cell_formula_units_Z 16
_cell_length_a 14.568666
_cell_length_b 11.146052
_cell_length_c 14.925828
_cell_angle_alpha 142.310789
_cell_angle_beta 44.318764
_cell_angle_gamma 150.252147
_cell_volume 732.013189
_symmetry_space_group_name_H-M "P -1"
_symmetry_group_IT_number 2
_symmetry_cell_setting 'triclinic'
loop_
_space_group_symop_operation_xyz
x,y,z
-x,-y,-z
loop_
_atom_site_type_symbol
_atom_site_label
_atom_site_fract_x
_atom_site_fract_y
_atom_site_fract_z
Si Si1 0.049729 0.093979 0.419022
Si Si2 0.705561 0.259070 0.737611
Si Si3 0.977586 0.617909 0.918504
Si Si4 0.647253 0.146680 0.141046
Si Si5 0.939883 0.250824 0.453790
Si Si6 0.734469 0.571089 0.209966
Si Si7 0.384734 0.289913 0.196328
Si Si8 0.846821 0.786548 0.846890
O O1 0.872551 0.833821 0.332312
O O2 0.067252 0.326975 0.496812
O O3 0.000000 0.000000 0.500000
O O4 0.232843 0.169835 0.307544
O O5 0.752354 0.134587 0.561864
O O6 0.763181 0.532302 0.818790
O O7 0.496129 0.030672 0.783079
O O8 0.839261 0.383186 0.804045
O O9 0.857101 0.560814 0.054232
O O10 0.081092 0.929130 0.997115
O O11 0.140507 0.644013 0.850015
O O12 0.614537 0.309561 0.205741
O O13 0.619294 0.937968 0.968791
O O14 0.000000 0.500000 0.500000
O O15 0.981071 0.124269 0.276845
O O16 0.591128 0.546726 0.237944
O O17 0.311021 0.330605 0.185723
#
# Coordination Sequence:
#
# PCOD9026410 Si02
#       8
#     2   2   2   2   2   2   2   2
#     4  11  25  42  66  91 127 169 217 267 311 383
#     4  11  23  39  67  93 130 161 215 266 310 378
#     4  11  22  39  65  94 124 169 212 258 320 373
#     4  11  24  37  60  99 124 162 207 262 318 374
#     4   9  20  42  66  87 125 170 206 257 326 372
#     4  12  23  40  64  91 130 167 208 254 326 380
#     4  10  22  41  64  90 127 168 206 257 326 369
#     4   9  20  45  63  92 126 170 211 261 315 375
#
# _framework density 21.857529
#
# number of rings (size 3 to 8) (size 9 to 14) (size 15 to 20)
#    0.000    1.500    5.000    1.125    3.500    2.500 
#    2.250    0.000    0.000    4.500    0.000    0.000 
#    0.000    0.000    0.000    0.000    0.000    0.000 
#
# Total GULP energy -89281.886157 kJ/mol
# GULP energy per Si atom -5580.117885 kJ/mol
# Density = 2.180778 g / cm^3
# Si number density = 21.857529 Si / 1000 Ang^3
#
#
#
# Elastic Constant Matrix: (Units=GPa)
#
#
# Indices 1 2 3 4 5 6 
#
# 1 84.0703 40.3282 18.5235 -2.2979 7.2400 16.5838
# 2 40.3282 76.7963 14.8940 -26.0406 6.9206 8.1372
# 3 18.5235 14.8940 51.2016 -16.3392 -4.2332 7.2401
# 4 -2.2979 -26.0406 -16.3392 33.7260 -1.0014 -0.3440
# 5 7.2400 6.9206 -4.2332 -1.0014 30.3621 0.6702
# 6 16.5838 8.1372 7.2401 -0.3440 0.6702 49.9427
#
#
#
# Elastic Compliance Matrix: (Units=1/GPa)
#
#
# Indices 1 2 3 4 5 6 
#
# 1 0.020196 -0.012584 -0.007221 -0.011973 -0.003269 -0.003648
# 2 -0.012584 0.026313 0.003555 0.021124 -0.001795 -0.000454
# 3 -0.007221 0.003555 0.026715 0.015329 0.005186 -0.002018
# 4 -0.011973 0.021124 0.015329 0.052615 0.001943 -0.001352
# 5 -0.003269 -0.001795 0.005186 0.001943 0.034908 0.000171
# 6 -0.003648 -0.000454 -0.002018 -0.001352 0.000171 0.021589
#
#
# Mechanical properties :
#
#
# Convention : Reuss Voigt Hill
#
# Bulk Modulus (GPa) = 24.55549 39.95106 32.25327
# Shear Modulus (GPa) = 21.89041 32.02768 26.95905
#
# Velocity S-wave (km/s) = 3.16809 3.83207 3.51579
# Velocity P-wave (km/s) = 4.96398 6.15608 5.59189
#
# Compressibility (1/GPa) = 0.04072409
#
# Stress axis : x y z
#
# Youngs Moduli (GPa) = 49.51440 38.00415 37.43251
#
# Poissons Ratio (x) = 0.47824 0.27030
# Poissons Ratio (y) = 0.62309 -0.13308
# Poissons Ratio (z) = 0.35755 -0.13511
#
# Static dielectric constant tensor:
#      x y z
#    x 1.822600 -0.062910 -0.064520 
#    y -0.062910 1.851190 0.048170 
#    z -0.064520 0.048170 1.811920 
# 
# From -- ./inp_files/524618.got.cif
#   From: 2010.05.17/outbox.cif.g08.bks.cpg/sg2_263_cif.got.tgz:524618.got - 2010.06.03 11:33:40.
