data_PCOD9026123
_publ_section_title
;
Structure prediction by ZEFSAII (Michael W. Deem and Ramdas Pophale) SiO2 
 PCOD9026123
Probable space group: P -1
;
_chemical_formula_sum "Si O2"
_cell_formula_units_Z 14
_cell_length_a 12.267627
_cell_length_b 19.060792
_cell_length_c 14.674627
_cell_angle_alpha 28.003760
_cell_angle_beta 30.717056
_cell_angle_gamma 26.126505
_cell_volume 671.191530
_symmetry_space_group_name_H-M "P -1"
_symmetry_group_IT_number 2
_symmetry_cell_setting 'triclinic'
loop_
_space_group_symop_operation_xyz
x,y,z
-x,-y,-z
loop_
_atom_site_type_symbol
_atom_site_label
_atom_site_fract_x
_atom_site_fract_y
_atom_site_fract_z
Si Si1 0.827563 0.419654 0.374232
Si Si2 0.384404 0.543909 0.317836
Si Si3 0.604513 0.782815 0.829950
Si Si4 0.906589 0.059403 0.734404
Si Si5 0.099356 0.090091 0.759137
Si Si6 0.667623 0.785989 0.985439
Si Si7 0.109379 0.826887 0.686384
O O1 0.654025 0.479707 0.520865
O O2 0.839104 0.248017 0.523447
O O3 0.739266 0.582854 0.181419
O O4 0.125294 0.340566 0.276057
O O5 0.598237 0.344894 0.351671
O O6 0.077497 0.692882 0.340216
O O7 0.496797 0.662800 0.073657
O O8 0.404023 0.964897 0.708243
O O9 0.667628 0.828167 0.831008
O O10 0.633120 0.081637 0.917623
O O11 0.027645 0.059084 0.745121
O O12 0.093499 0.893174 0.724677
O O13 0.000000 0.000000 0.000000
O O14 0.891670 0.785299 0.877413
O O15 0.000000 0.000000 0.500000
#
# Coordination Sequence:
#
# PCOD9026123 Si02
#       7
#     2   2   2   2   2   2   2
#     4  11  22  38  69  96 125 163 225 260 314 381
#     4  10  22  41  62  92 126 170 210 265 307 378
#     4  11  21  38  69  96 121 168 220 269 304 366
#     4  11  23  39  65  97 127 173 207 266 325 375
#     4   9  19  42  66  92 125 166 226 263 300 375
#     4  12  22  39  66  96 128 168 214 264 324 381
#     4  12  26  41  60  97 142 164 205 266 336 385
#
# _framework density 20.858428
#
# number of rings (size 3 to 8) (size 9 to 14) (size 15 to 20)
#    0.000    1.143    5.714    3.000    2.000    2.286 
#    0.000    2.857    0.000    4.286    0.000    0.000 
#    0.000    0.000    0.000    0.000    0.000    0.000 
#
# Total GULP energy -78070.833375 kJ/mol
# GULP energy per Si atom -5576.488098 kJ/mol
# Density = 2.081095 g / cm^3
# Si number density = 20.858428 Si / 1000 Ang^3
#
#
#
# Elastic Constant Matrix: (Units=GPa)
#
#
# Indices 1 2 3 4 5 6 
#
# 1 90.1970 77.6484 23.9611 -3.2199 10.7958 -11.3804
# 2 77.6484 205.3032 33.9461 12.4486 13.0836 -7.2923
# 3 23.9611 33.9461 83.9754 13.0775 6.4868 -1.2840
# 4 -3.2199 12.4486 13.0775 35.6448 -6.0053 3.6929
# 5 10.7958 13.0836 6.4868 -6.0053 11.9308 -5.7625
# 6 -11.3804 -7.2923 -1.2840 3.6929 -5.7625 42.5507
#
#
#
# Elastic Compliance Matrix: (Units=1/GPa)
#
#
# Indices 1 2 3 4 5 6 
#
# 1 0.018316 -0.006274 -0.002858 0.003782 -0.004911 0.002744
# 2 -0.006274 0.007843 -0.000389 -0.003939 -0.005025 -0.000684
# 3 -0.002858 -0.000389 0.014623 -0.006881 -0.008882 -0.000995
# 4 0.003782 -0.003939 -0.006881 0.036140 0.022872 0.000090
# 5 -0.004911 -0.005025 -0.008882 0.022872 0.115531 0.011218
# 6 0.002744 -0.000684 -0.000995 0.000090 0.011218 0.025599
#
#
# Mechanical properties :
#
#
# Convention : Reuss Voigt Hill
#
# Bulk Modulus (GPa) = 45.99690 72.28742 59.14216
# Shear Modulus (GPa) = 20.46322 34.28659 27.37490
#
# Velocity S-wave (km/s) = 3.13557 4.05875 3.62666
# Velocity P-wave (km/s) = 5.93371 7.52968 6.77883
#
# Compressibility (1/GPa) = 0.02174060
#
# Stress axis : x y z
#
# Youngs Moduli (GPa) = 54.59725 127.50623 68.38348
#
# Poissons Ratio (x) = 0.79994 0.19543
# Poissons Ratio (y) = 0.34253 0.02661
# Poissons Ratio (z) = 0.15603 0.04962
#
# Static dielectric constant tensor:
#      x y z
#    x 1.788420 -0.058040 -0.016180 
#    y -0.058040 1.826750 0.030740 
#    z -0.016180 0.030740 1.796400 
# 
# From -- ./inp_files/257569.got.cif
#   From: 2010.05.17/outbox.cif.g08.bks.cpg/sg2_129_cif.got.tgz:257569.got - 2010.06.03 11:33:40.
