data_PCOD9026498
_publ_section_title
;
Structure prediction by ZEFSAII (Michael W. Deem and Ramdas Pophale) SiO2 
 PCOD9026498
Probable space group: P -1
;
_chemical_formula_sum "Si O2"
_cell_formula_units_Z 16
_cell_length_a 9.282740
_cell_length_b 12.084230
_cell_length_c 9.055801
_cell_angle_alpha 68.530145
_cell_angle_beta 124.919187
_cell_angle_gamma 116.122830
_cell_volume 738.842134
_symmetry_space_group_name_H-M "P -1"
_symmetry_group_IT_number 2
_symmetry_cell_setting 'triclinic'
loop_
_space_group_symop_operation_xyz
x,y,z
-x,-y,-z
loop_
_atom_site_type_symbol
_atom_site_label
_atom_site_fract_x
_atom_site_fract_y
_atom_site_fract_z
Si Si1 0.941778 0.324879 0.439038
Si Si2 0.956842 0.088303 0.094019
Si Si3 0.156388 0.709608 0.267946
Si Si4 0.716816 0.869641 0.904578
Si Si5 0.840242 0.060722 0.359366
Si Si6 0.514663 0.059608 0.639286
Si Si7 0.679421 0.492035 0.521748
Si Si8 0.420359 0.601627 0.824972
O O1 0.947311 0.332617 0.617298
O O2 0.865592 0.181012 0.417256
O O3 0.784707 0.387688 0.262363
O O4 0.148924 0.384231 0.471052
O O5 0.856544 0.101062 0.179530
O O6 0.178091 0.115954 0.198617
O O7 0.932294 0.202453 0.922134
O O8 0.885637 0.939178 0.080325
O O9 0.357437 0.802815 0.374916
O O10 0.209852 0.592988 0.290273
O O11 0.571822 0.734108 0.889385
O O12 0.613823 0.971706 0.823322
O O13 0.661167 0.955085 0.359057
O O14 0.000000 0.000000 0.500000
O O15 0.500000 0.000000 0.500000
O O16 0.500000 0.500000 0.500000
O O17 0.603566 0.432492 0.346479
O O18 0.500000 0.500000 0.000000
#
# Coordination Sequence:
#
# PCOD9026498 Si02
#       8
#     2   2   2   2   2   2   2   2
#     4  11  25  47  67  96 138 179 227 273 337 406
#     4  10  25  40  66 101 132 174 217 282 332 401
#     4  10  22  43  69  88 131 181 217 269 333 404
#     4  10  22  41  64  93 135 165 225 264 342 395
#     4  12  26  39  66  99 136 172 217 278 334 393
#     4  11  19  40  65  92 130 169 216 265 336 399
#     4  11  27  46  66 100 133 175 228 284 333 393
#     4  11  24  44  72  96 128 181 228 272 332 408
#
# _framework density 21.655505999999999
#
# number of rings (size 3 to 8) (size 9 to 14) (size 15 to 20)
#    0.000    1.250    2.500    3.000   10.500    3.000 
#    0.000    1.250    0.000    0.000    0.000    0.000 
#    0.000    0.000    0.000    0.000    0.000    0.000 
#
# Total GULP energy -89092.943410 kJ/mol
# GULP energy per Si atom -5568.308963 kJ/mol
# Density = 2.160622 g / cm^3
# Si number density = 21.655506 Si / 1000 Ang^3
#
#
#
# Elastic Constant Matrix: (Units=GPa)
#
#
# Indices 1 2 3 4 5 6 
#
# 1 150.6113 6.2935 17.2358 -7.0617 7.3200 17.3500
# 2 6.2935 80.7244 4.1472 -3.4547 6.4570 17.9620
# 3 17.2358 4.1472 67.8876 -21.7236 8.2501 -3.7628
# 4 -7.0617 -3.4547 -21.7236 24.3146 -3.4534 5.1794
# 5 7.3200 6.4570 8.2501 -3.4534 21.2345 -1.2529
# 6 17.3500 17.9620 -3.7628 5.1794 -1.2529 46.1768
#
#
#
# Elastic Compliance Matrix: (Units=1/GPa)
#
#
# Indices 1 2 3 4 5 6 
#
# 1 0.007317 0.000448 -0.001378 0.001351 -0.002095 -0.003244
# 2 0.000448 0.014188 0.000168 0.002974 -0.004411 -0.006127
# 3 -0.001378 0.000168 0.021463 0.018086 -0.004972 0.000038
# 4 0.001351 0.002974 0.018086 0.059691 0.000906 -0.006862
# 5 -0.002095 -0.004411 -0.004972 0.000906 0.051436 0.003392
# 6 -0.003244 -0.006127 0.000038 -0.006862 0.003392 0.026123
#
#
# Mechanical properties :
#
#
# Convention : Reuss Voigt Hill
#
# Bulk Modulus (GPa) = 24.12916 39.39737 31.76327
# Shear Modulus (GPa) = 25.56787 36.44831 31.00809
#
# Velocity S-wave (km/s) = 3.43981 4.10701 3.78812
# Velocity P-wave (km/s) = 5.19065 6.38140 5.81658
#
# Compressibility (1/GPa) = 0.04144362
#
# Stress axis : x y z
#
# Youngs Moduli (GPa) = 136.65887 70.48366 46.59081
#
# Poissons Ratio (x) = -0.03154 0.06420
# Poissons Ratio (y) = -0.06116 -0.00783
# Poissons Ratio (z) = 0.18832 -0.01184
#
# Static dielectric constant tensor:
#      x y z
#    x 1.990120 0.051970 0.100890 
#    y 0.051970 1.844440 0.218020 
#    z 0.100890 0.218020 1.499460 
# 
# From -- ./inp_files/186178.got.cif
#   From: 2010.05.17/outbox.cif.g08.bks.cpg/sg2_94_cif.got.tgz:186178.got - 2010.06.03 11:33:40.
