data_PCOD9026474
_publ_section_title
;
Structure prediction by ZEFSAII (Michael W. Deem and Ramdas Pophale) SiO2 
 PCOD9026474
Probable space group: P -1
;
_chemical_formula_sum "Si O2"
_cell_formula_units_Z 14
_cell_length_a 12.063882
_cell_length_b 18.597184
_cell_length_c 8.711956
_cell_angle_alpha 108.290621
_cell_angle_beta 85.031564
_cell_angle_gamma 156.961822
_cell_volume 609.314277
_symmetry_space_group_name_H-M "P -1"
_symmetry_group_IT_number 2
_symmetry_cell_setting 'triclinic'
loop_
_space_group_symop_operation_xyz
x,y,z
-x,-y,-z
loop_
_atom_site_type_symbol
_atom_site_label
_atom_site_fract_x
_atom_site_fract_y
_atom_site_fract_z
Si Si1 0.228379 0.047231 0.512475
Si Si2 0.474949 0.503073 0.186074
Si Si3 0.346503 0.533709 0.755685
Si Si4 0.602232 0.146254 0.019794
Si Si5 0.701486 0.459553 0.874947
Si Si6 0.353218 0.691505 0.660301
Si Si7 0.653822 0.028713 0.408239
O O1 0.341408 0.188772 0.702869
O O2 0.385900 0.163978 0.406621
O O3 0.420430 0.095238 0.575816
O O4 0.839101 0.771873 0.371690
O O5 0.392223 0.370424 0.192624
O O6 0.246924 0.431495 0.160733
O O7 0.500000 0.500000 0.000000
O O8 0.355643 0.619243 0.722564
O O9 0.047127 0.298970 0.547115
O O10 0.263295 0.499416 0.921352
O O11 0.498843 0.145352 0.146648
O O12 0.006684 0.409115 0.125453
O O13 0.500000 0.000000 0.000000
O O14 0.459892 0.057153 0.807142
O O15 0.000000 0.500000 0.500000
O O16 0.500000 0.000000 0.500000
#
# Coordination Sequence:
#
# PCOD9026474 Si02
#       7
#     2   2   2   2   2   2   2
#     4  11  23  40  66  92 125 167 210 261 306 372
#     4   9  22  43  67  87 121 170 217 252 305 372
#     4  10  22  41  64  93 124 166 207 258 309 371
#     4  12  25  37  63  97 133 161 204 261 319 372
#     4  11  22  41  67  90 125 169 214 253 307 376
#     4  12  24  39  62  99 132 158 204 262 322 365
#     4  11  21  37  62  90 128 166 206 249 317 375
#
# _framework density 22.976647
#
# number of rings (size 3 to 8) (size 9 to 14) (size 15 to 20)
#    0.000    1.143    2.857    3.857    4.000    1.143 
#    0.000    3.571    3.143    0.000    0.000    0.000 
#    0.000    0.000    0.000    0.000    0.000    0.000 
#
# Total GULP energy -78093.756839 kJ/mol
# GULP energy per Si atom -5578.125489 kJ/mol
# Density = 2.292435 g / cm^3
# Si number density = 22.976647 Si / 1000 Ang^3
#
#
#
# Elastic Constant Matrix: (Units=GPa)
#
#
# Indices 1 2 3 4 5 6 
#
# 1 122.9638 18.1470 30.2196 -6.0577 9.9572 -48.3939
# 2 18.1470 43.0508 11.7764 -1.1641 13.9179 -25.8354
# 3 30.2196 11.7764 126.6046 5.4594 -3.0526 -6.0665
# 4 -6.0577 -1.1641 5.4594 26.9271 -14.3470 -0.7189
# 5 9.9572 13.9179 -3.0526 -14.3470 30.3334 -4.0802
# 6 -48.3939 -25.8354 -6.0665 -0.7189 -4.0802 47.0886
#
#
#
# Elastic Compliance Matrix: (Units=1/GPa)
#
#
# Indices 1 2 3 4 5 6 
#
# 1 0.016624 0.008507 -0.004007 0.002354 -0.005857 0.020765
# 2 0.008507 0.048137 -0.005246 -0.007094 -0.024424 0.032253
# 3 -0.004007 -0.005246 0.009216 -0.001424 0.003229 -0.005551
# 4 0.002354 -0.007094 -0.001424 0.052197 0.027229 0.001500
# 5 -0.005857 -0.024424 0.003229 0.027229 0.057469 -0.013609
# 6 0.020765 0.032253 -0.005551 0.001500 -0.013609 0.058401
#
#
# Mechanical properties :
#
#
# Convention : Reuss Voigt Hill
#
# Bulk Modulus (GPa) = 13.79579 45.87838 29.83708
# Shear Modulus (GPa) = 18.67776 36.36823 27.52300
#
# Velocity S-wave (km/s) = 2.85424 3.98280 3.46478
# Velocity P-wave (km/s) = 4.10847 6.41569 5.38705
#
# Compressibility (1/GPa) = 0.07248590
#
# Stress axis : x y z
#
# Youngs Moduli (GPa) = 60.15325 20.77402 108.50318
#
# Poissons Ratio (x) = -0.17672 0.43478
# Poissons Ratio (y) = -0.51172 0.56917
# Poissons Ratio (z) = 0.24104 0.10897
#
# Static dielectric constant tensor:
#      x y z
#    x 1.957260 0.006280 0.080450 
#    y 0.006280 1.848840 0.065470 
#    z 0.080450 0.065470 1.823610 
# 
# From -- ./inp_files/178350.got.cif
#   From: 2010.05.17/outbox.cif.g08.bks.cpg/sg2_90_cif.got.tgz:178350.got - 2010.06.03 11:33:40.
