data_PCOD9026381
_publ_section_title
;
Structure prediction by ZEFSAII (Michael W. Deem and Ramdas Pophale) SiO2 
 PCOD9026381
Probable space group: P -1
;
_chemical_formula_sum "Si O2"
_cell_formula_units_Z 14
_cell_length_a 7.890090
_cell_length_b 13.292063
_cell_length_c 6.950212
_cell_angle_alpha 81.442504
_cell_angle_beta 122.229479
_cell_angle_gamma 117.944333
_cell_volume 539.694028
_symmetry_space_group_name_H-M "P -1"
_symmetry_group_IT_number 2
_symmetry_cell_setting 'triclinic'
loop_
_space_group_symop_operation_xyz
x,y,z
-x,-y,-z
loop_
_atom_site_type_symbol
_atom_site_label
_atom_site_fract_x
_atom_site_fract_y
_atom_site_fract_z
Si Si1 0.904039 0.587658 0.878087
Si Si2 0.598366 0.261310 0.943469
Si Si3 0.698547 0.661178 0.440192
Si Si4 0.122797 0.131958 0.216961
Si Si5 0.981417 0.739595 0.204860
Si Si6 0.688229 0.992708 0.249152
Si Si7 0.423694 0.841600 0.631429
O O1 0.140542 0.704474 0.939939
O O2 0.836078 0.623677 0.027149
O O3 0.000000 0.500000 0.000000
O O4 0.746521 0.565312 0.602121
O O5 0.532262 0.356962 0.795983
O O6 0.417253 0.144237 0.763201
O O7 0.569967 0.233999 0.161359
O O8 0.753351 0.748213 0.626803
O O9 0.875223 0.720133 0.357546
O O10 0.076188 0.953835 0.739224
O O11 0.317622 0.097518 0.295999
O O12 0.031196 0.159963 0.955715
O O13 0.239162 0.763281 0.386293
O O14 0.673748 0.071139 0.389116
O O15 0.500000 0.000000 0.000000
#
# Coordination Sequence:
#
# PCOD9026381 Si02
#       7
#     2   2   2   2   2   2   2
#     4  11  26  48  73  98 128 175 232 290 354 412
#     4  11  23  45  66  98 142 177 228 289 332 401
#     4  11  22  44  70  99 140 175 223 287 341 406
#     4  11  23  41  68 103 142 189 228 268 331 407
#     4  11  21  44  71 103 137 178 230 280 340 407
#     4  10  22  41  64 103 145 184 236 271 320 407
#     4  11  21  42  70 101 142 190 224 270 337 397
#
# _framework density 25.940625000000001
#
# number of rings (size 3 to 8) (size 9 to 14) (size 15 to 20)
#    0.000    1.143    4.286    3.429    0.000    4.000 
#    2.571   10.714    0.000    0.000    0.000    0.000 
#    0.000    0.000    0.000    0.000    0.000    0.000 
#
# Total GULP energy -78289.949806 kJ/mol
# GULP energy per Si atom -5592.139272 kJ/mol
# Density = 2.588158 g / cm^3
# Si number density = 25.940625 Si / 1000 Ang^3
#
#
#
# Elastic Constant Matrix: (Units=GPa)
#
#
# Indices 1 2 3 4 5 6 
#
# 1 138.4628 14.6428 47.4470 -6.5518 12.3469 17.0619
# 2 14.6428 56.6184 41.5282 -33.0986 -2.9744 -2.3109
# 3 47.4470 41.5282 182.7560 -53.4925 8.3503 0.2451
# 4 -6.5518 -33.0986 -53.4925 57.9899 1.8853 5.9959
# 5 12.3469 -2.9744 8.3503 1.8853 52.1193 7.2681
# 6 17.0619 -2.3109 0.2451 5.9959 7.2681 21.0485
#
#
#
# Elastic Compliance Matrix: (Units=1/GPa)
#
#
# Indices 1 2 3 4 5 6 
#
# 1 0.009051 -0.001789 -0.002300 -0.001388 -0.000878 -0.006808
# 2 -0.001789 0.027658 -0.001859 0.013816 0.001807 -0.000051
# 3 -0.002300 -0.001859 0.008446 0.006496 -0.001165 0.000114
# 4 -0.001388 0.013816 0.006496 0.031631 -0.000178 -0.006383
# 5 -0.000878 0.001807 -0.001165 -0.000178 0.020544 -0.006120
# 6 -0.006808 -0.000051 0.000114 -0.006383 -0.006120 0.056952
#
#
# Mechanical properties :
#
#
# Convention : Reuss Voigt Hill
#
# Bulk Modulus (GPa) = 30.06787 65.00812 47.53800
# Shear Modulus (GPa) = 28.20641 44.51283 36.35962
#
# Velocity S-wave (km/s) = 3.30107 4.14690 3.74792
# Velocity P-wave (km/s) = 5.11328 6.93136 6.09054
#
# Compressibility (1/GPa) = 0.03325809
#
# Stress axis : x y z
#
# Youngs Moduli (GPa) = 110.48364 36.15643 118.40114
#
# Poissons Ratio (x) = 0.06468 0.27236
# Poissons Ratio (y) = 0.19765 0.22010
# Poissons Ratio (z) = 0.25415 0.06721
#
# Static dielectric constant tensor:
#      x y z
#    x 2.100160 -0.045150 -0.023010 
#    y -0.045150 2.280530 0.024860 
#    z -0.023010 0.024860 2.058060 
# 
# From -- ./inp_files/192830.got.cif
#   From: 2010.05.17/outbox.cif.g08.bks.cpg/sg2_97_cif.got.tgz:192830.got - 2010.06.03 11:33:40.
