data_PCOD9026595
_publ_section_title
;
Structure prediction by ZEFSAII (Michael W. Deem and Ramdas Pophale) SiO2 
 PCOD9026595
Probable space group: P -1
;
_chemical_formula_sum "Si O2"
_cell_formula_units_Z 16
_cell_length_a 22.807787
_cell_length_b 5.892947
_cell_length_c 5.042688
_cell_angle_alpha 83.617146
_cell_angle_beta 89.292841
_cell_angle_gamma 91.515752
_cell_volume 673.246229
_symmetry_space_group_name_H-M "P -1"
_symmetry_group_IT_number 2
_symmetry_cell_setting 'triclinic'
loop_
_space_group_symop_operation_xyz
x,y,z
-x,-y,-z
loop_
_atom_site_type_symbol
_atom_site_label
_atom_site_fract_x
_atom_site_fract_y
_atom_site_fract_z
Si Si1 0.764705 0.975074 0.927426
Si Si2 0.068022 0.950453 0.492304
Si Si3 0.842402 0.673603 0.625812
Si Si4 0.877308 0.270110 0.001884
Si Si5 0.340398 0.810374 0.904271
Si Si6 0.432007 0.444458 0.974822
Si Si7 0.736183 0.551941 0.370598
Si Si8 0.376404 0.236534 0.486081
O O1 0.750975 0.763132 0.148724
O O2 0.701920 0.087948 0.881265
O O3 0.797183 0.866645 0.691636
O O4 0.813275 0.145863 0.030176
O O5 0.087802 0.859725 0.216214
O O6 0.105214 0.183309 0.529776
O O7 0.087537 0.763919 0.727456
O O8 0.000000 0.000000 0.500000
O O9 0.868556 0.530784 0.883677
O O10 0.798733 0.496362 0.499827
O O11 0.393735 0.663471 0.020958
O O12 0.295623 0.645214 0.767300
O O13 0.363744 0.000699 0.671186
O O14 0.414661 0.379927 0.683555
O O15 0.500000 0.500000 0.000000
O O16 0.409765 0.245778 0.204303
O O17 0.685879 0.639882 0.559451
#
# Coordination Sequence:
#
# PCOD9026595 Si02
#       8
#     2   2   2   2   2   2   2   2
#     4  10  22  42  63 100 140 172 230 280 351 416
#     4  11  26  48  68 101 141 182 237 286 335 413
#     4  11  25  41  70 101 139 180 231 286 349 418
#     4  11  25  41  73  98 133 183 225 286 353 397
#     4  10  24  43  68 102 138 185 222 288 354 405
#     4  11  25  48  70 100 139 184 236 283 335 411
#     4  10  22  41  64  98 140 175 223 284 348 419
#     4  10  25  42  68 101 134 177 229 283 344 407
#
# _framework density 23.765447000000002
#
# number of rings (size 3 to 8) (size 9 to 14) (size 15 to 20)
#    0.000    1.500    1.250    1.500   10.500    5.000 
#    2.250    0.000    0.000    0.000    0.000    0.000 
#    0.000    0.000    0.000    0.000    0.000    0.000 
#
# Total GULP energy -89600.191097 kJ/mol
# GULP energy per Si atom -5600.011944 kJ/mol
# Density = 2.371136 g / cm^3
# Si number density = 23.765447 Si / 1000 Ang^3
#
#
#
# Elastic Constant Matrix: (Units=GPa)
#
#
# Indices 1 2 3 4 5 6 
#
# 1 201.6152 41.8322 43.6568 -9.3841 -5.1546 -9.0898
# 2 41.8322 74.3534 7.2422 -12.8851 -3.6961 -10.8757
# 3 43.6568 7.2422 73.9781 -10.6439 -2.4647 0.5874
# 4 -9.3841 -12.8851 -10.6439 33.1971 -4.3921 4.1928
# 5 -5.1546 -3.6961 -2.4647 -4.3921 35.3775 -0.3595
# 6 -9.0898 -10.8757 0.5874 4.1928 -0.3595 24.9639
#
#
#
# Elastic Compliance Matrix: (Units=1/GPa)
#
#
# Indices 1 2 3 4 5 6 
#
# 1 0.006426 -0.003204 -0.003577 -0.000681 0.000280 0.001147
# 2 -0.003204 0.017009 0.001068 0.005652 0.002140 0.005300
# 3 -0.003577 0.001068 0.016314 0.005070 0.001336 -0.002053
# 4 -0.000681 0.005652 0.005070 0.034896 0.005139 -0.003692
# 5 0.000280 0.002140 0.001336 0.005139 0.029268 0.000561
# 6 0.001147 0.005300 -0.002053 -0.003692 0.000561 0.043461
#
#
# Mechanical properties :
#
#
# Convention : Reuss Voigt Hill
#
# Bulk Modulus (GPa) = 35.30516 59.48990 47.39753
# Shear Modulus (GPa) = 29.71952 35.85539 32.78746
#
# Velocity S-wave (km/s) = 3.54013 3.88844 3.71836
# Velocity P-wave (km/s) = 5.62120 6.72654 6.19856
#
# Compressibility (1/GPa) = 0.02832448
#
# Stress axis : x y z
#
# Youngs Moduli (GPa) = 155.61256 58.79321 61.29749
#
# Poissons Ratio (x) = 0.18835 0.21923
# Poissons Ratio (y) = 0.49851 -0.06546
# Poissons Ratio (z) = 0.55655 -0.06279
#
# Static dielectric constant tensor:
#      x y z
#    x 1.853320 0.001000 0.007180 
#    y 0.001000 1.971830 0.054340 
#    z 0.007180 0.054340 1.921580 
# 
# From -- ./inp_files/11009.got.cif
#   From: 2010.05.17/outbox.cif.g08.bks.cpg/sg2_6_cif.got.tgz:11009.got - 2010.06.03 11:33:40.
