data_PCOD9026443
_publ_section_title
;
Structure prediction by ZEFSAII (Michael W. Deem and Ramdas Pophale) SiO2 
 PCOD9026443
Probable space group: P -1
;
_chemical_formula_sum "Si O2"
_cell_formula_units_Z 15
_cell_length_a 18.569324
_cell_length_b 6.287568
_cell_length_c 7.949598
_cell_angle_alpha 67.002982
_cell_angle_beta 120.710133
_cell_angle_gamma 127.753240
_cell_volume 626.773890
_symmetry_space_group_name_H-M "P -1"
_symmetry_group_IT_number 2
_symmetry_cell_setting 'triclinic'
loop_
_space_group_symop_operation_xyz
x,y,z
-x,-y,-z
loop_
_atom_site_type_symbol
_atom_site_label
_atom_site_fract_x
_atom_site_fract_y
_atom_site_fract_z
Si Si1 0.500000 0.500000 0.500000
Si Si2 0.887274 0.300537 0.383763
Si Si3 0.386707 0.056750 0.013269
Si Si4 0.059040 0.427814 0.964920
Si Si5 0.296098 0.178046 0.149184
Si Si6 0.137648 0.072819 0.267227
Si Si7 0.415220 0.594777 0.698700
Si Si8 0.271257 0.577130 0.763444
O O1 0.404641 0.380121 0.292425
O O2 0.439828 0.571784 0.545171
O O3 0.882414 0.328622 0.170955
O O4 0.827277 0.419478 0.362508
O O5 0.000000 0.500000 0.500000
O O6 0.847658 0.005555 0.503983
O O7 0.316716 0.988202 0.112600
O O8 0.493091 0.143896 0.184768
O O9 0.400680 0.327366 0.858052
O O10 0.344080 0.831271 0.890305
O O11 0.129398 0.335208 0.156408
O O12 0.970917 0.171136 0.840149
O O13 0.000000 0.500000 0.000000
O O14 0.217543 0.071804 0.239120
O O15 0.260486 0.327631 0.933495
O O16 0.320917 0.607206 0.633584
#
# Coordination Sequence:
#
# PCOD9026443 Si02
#       8
#     1   2   2   2   2   2   2   2
#     4  10  22  42  58  92 138 160 210 272 326 376
#     4  10  23  43  63  96 134 167 220 278 324 395
#     4   9  20  38  64  89 123 169 216 262 326 389
#     4  10  22  43  69  94 127 168 219 274 335 393
#     4  10  22  41  64  91 131 172 211 270 327 391
#     4  10  22  42  65  93 132 168 213 276 330 389
#     4   9  20  40  62  91 128 167 212 275 322 387
#     4  11  21  41  67  92 125 174 225 260 327 401
#
# _framework density 23.932077
#
# number of rings (size 3 to 8) (size 9 to 14) (size 15 to 20)
#    0.000    2.133    1.333    1.200    3.733    0.533 
#    7.200    2.000    0.000    0.000    0.000    0.000 
#    0.000    0.000    0.000    0.000    0.000    0.000 
#
# Total GULP energy -83609.999030 kJ/mol
# GULP energy per Si atom -5573.999935 kJ/mol
# Density = 2.387761 g / cm^3
# Si number density = 23.932077 Si / 1000 Ang^3
#
#
#
# Elastic Constant Matrix: (Units=GPa)
#
#
# Indices 1 2 3 4 5 6 
#
# 1 212.8746 28.9176 62.6976 -9.0217 -14.7266 -12.8787
# 2 28.9176 45.5768 29.9226 -0.8846 -14.2673 8.0751
# 3 62.6976 29.9226 92.0138 -15.5103 -2.7728 1.0971
# 4 -9.0217 -0.8846 -15.5103 39.8735 9.8986 -0.2943
# 5 -14.7266 -14.2673 -2.7728 9.8986 34.1050 10.4324
# 6 -12.8787 8.0751 1.0971 -0.2943 10.4324 26.9112
#
#
#
# Elastic Compliance Matrix: (Units=1/GPa)
#
#
# Indices 1 2 3 4 5 6 
#
# 1 0.006308 -0.002070 -0.003677 -0.000147 0.000502 0.003593
# 2 -0.002070 0.045880 -0.014425 -0.012311 0.028449 -0.025333
# 3 -0.003677 -0.014425 0.019188 0.008958 -0.010482 0.005948
# 4 -0.000147 -0.012311 0.008958 0.032570 -0.017068 0.010231
# 5 0.000502 0.028449 -0.010482 -0.017068 0.054463 -0.029169
# 6 0.003593 -0.025333 0.005948 0.010231 -0.029169 0.057658
#
#
# Mechanical properties :
#
#
# Convention : Reuss Voigt Hill
#
# Bulk Modulus (GPa) = 32.22684 65.94899 49.08791
# Shear Modulus (GPa) = 18.74372 35.43975 27.09173
#
# Velocity S-wave (km/s) = 2.80162 3.85235 3.36821
# Velocity P-wave (km/s) = 4.89496 6.88506 5.97347
#
# Compressibility (1/GPa) = 0.03103004
#
# Stress axis : x y z
#
# Youngs Moduli (GPa) = 158.53290 21.79595 52.11590
#
# Poissons Ratio (x) = 0.04512 0.19166
# Poissons Ratio (y) = 0.32818 0.75179
# Poissons Ratio (z) = 0.58300 0.31441
#
# Static dielectric constant tensor:
#      x y z
#    x 1.887810 0.031440 0.016500 
#    y 0.031440 1.939290 -0.012900 
#    z 0.016500 -0.012900 1.964740 
# 
# From -- ./inp_files/323469.got.cif
#   From: 2010.05.17/outbox.cif.g08.bks.cpg/sg2_162_cif.got.tgz:323469.got - 2010.06.03 11:33:40.
