data_PCOD9026557
_publ_section_title
;
Structure prediction by ZEFSAII (Michael W. Deem and Ramdas Pophale) SiO2 
 PCOD9026557
Probable space group: P -1
;
_chemical_formula_sum "Si O2"
_cell_formula_units_Z 14
_cell_length_a 8.910959
_cell_length_b 7.302361
_cell_length_c 10.438671
_cell_angle_alpha 100.794575
_cell_angle_beta 102.624444
_cell_angle_gamma 54.501470
_cell_volume 538.072153
_symmetry_space_group_name_H-M "P -1"
_symmetry_group_IT_number 2
_symmetry_cell_setting 'triclinic'
loop_
_space_group_symop_operation_xyz
x,y,z
-x,-y,-z
loop_
_atom_site_type_symbol
_atom_site_label
_atom_site_fract_x
_atom_site_fract_y
_atom_site_fract_z
Si Si1 0.171357 0.525845 0.015589
Si Si2 0.554242 0.114576 0.142332
Si Si3 0.419082 0.502528 0.277543
Si Si4 0.076861 0.660643 0.377783
Si Si5 0.975410 0.324601 0.350570
Si Si6 0.935945 0.978755 0.149952
Si Si7 0.609022 0.707145 0.233206
O O1 0.340226 0.395982 0.138530
O O2 0.082440 0.787931 0.053711
O O3 0.278162 0.430477 0.891728
O O4 0.000000 0.500000 0.000000
O O5 0.726284 0.085830 0.084973
O O6 0.552403 0.955042 0.232590
O O7 0.500000 0.000000 0.000000
O O8 0.282888 0.598796 0.381711
O O9 0.602089 0.261453 0.284375
O O10 0.445525 0.677368 0.235055
O O11 0.987337 0.767050 0.510545
O O12 0.090917 0.425993 0.341631
O O13 0.967651 0.812744 0.254793
O O14 0.988042 0.145344 0.233024
O O15 0.767239 0.556194 0.348276
#
# Coordination Sequence:
#
# PCOD9026557 Si02
#       7
#     2   2   2   2   2   2   2
#     4   9  23  41  65  97 135 170 217 267 327 393
#     4  10  22  41  64  96 136 168 218 270 319 391
#     4   9  22  41  61  94 133 162 218 268 321 389
#     4  10  23  45  63  99 128 168 227 267 327 387
#     4  11  23  40  73  93 128 176 218 273 326 386
#     4  11  21  45  65  96 132 173 214 275 326 387
#     4  12  21  41  67  97 132 175 216 268 326 387
#
# _framework density 26.018816999999999
#
# number of rings (size 3 to 8) (size 9 to 14) (size 15 to 20)
#    0.857    0.857    2.857    1.286    0.000    4.000 
#    0.000    0.714    0.000    0.000    0.000    0.000 
#    0.000    0.000    0.000    0.000    0.000    0.000 
#
# Total GULP energy -78049.716319 kJ/mol
# GULP energy per Si atom -5574.979737 kJ/mol
# Density = 2.595960 g / cm^3
# Si number density = 26.018817 Si / 1000 Ang^3
#
#
#
# Elastic Constant Matrix: (Units=GPa)
#
#
# Indices 1 2 3 4 5 6 
#
# 1 161.1146 49.8290 15.2905 14.8587 -20.4207 16.9586
# 2 49.8290 120.8033 -3.8238 13.4047 -1.0616 24.6941
# 3 15.2905 -3.8238 65.0164 11.5868 -9.3926 10.0310
# 4 14.8587 13.4047 11.5868 30.6373 7.9158 -0.8700
# 5 -20.4207 -1.0616 -9.3926 7.9158 36.3713 -1.6262
# 6 16.9586 24.6941 10.0310 -0.8700 -1.6262 47.4667
#
#
#
# Elastic Compliance Matrix: (Units=1/GPa)
#
#
# Indices 1 2 3 4 5 6 
#
# 1 0.008253 -0.002628 -0.000383 -0.004115 0.005291 -0.001395
# 2 -0.002628 0.011177 0.003122 -0.005088 0.000513 -0.005611
# 3 -0.000383 0.003122 0.019367 -0.010446 0.006904 -0.005535
# 4 -0.004115 -0.005088 -0.010446 0.044774 -0.014604 0.006645
# 5 0.005291 0.000513 0.006904 -0.014604 0.035322 -0.002674
# 6 -0.001395 -0.005611 -0.005535 0.006645 -0.002674 0.025685
#
#
# Mechanical properties :
#
#
# Convention : Reuss Voigt Hill
#
# Bulk Modulus (GPa) = 25.62797 52.16951 38.89874
# Shear Modulus (GPa) = 31.77401 41.93764 36.85582
#
# Velocity S-wave (km/s) = 3.49835 4.01910 3.76773
# Velocity P-wave (km/s) = 5.11753 6.45227 5.82327
#
# Compressibility (1/GPa) = 0.03901986
#
# Stress axis : x y z
#
# Youngs Moduli (GPa) = 121.17143 89.46991 51.63346
#
# Poissons Ratio (x) = 0.23513 0.01976
# Poissons Ratio (y) = 0.31845 -0.16121
# Poissons Ratio (z) = 0.04636 -0.27934
#
# Static dielectric constant tensor:
#      x y z
#    x 2.189370 -0.085730 0.024790 
#    y -0.085730 2.164790 -0.018700 
#    z 0.024790 -0.018700 2.307510 
# 
# From -- ./inp_files/179617.got.cif
#   From: 2010.05.17/outbox.cif.g08.bks.cpg/sg2_90_cif.got.tgz:179617.got - 2010.06.03 11:33:40.
