data_PCOD9026278
_publ_section_title
;
Structure prediction by ZEFSAII (Michael W. Deem and Ramdas Pophale) SiO2 
 PCOD9026278
Probable space group: P -1
;
_chemical_formula_sum "Si O2"
_cell_formula_units_Z 14
_cell_length_a 10.009701
_cell_length_b 11.810436
_cell_length_c 21.115980
_cell_angle_alpha 149.988944
_cell_angle_beta 42.970293
_cell_angle_gamma 116.422241
_cell_volume 708.924990
_symmetry_space_group_name_H-M "P -1"
_symmetry_group_IT_number 2
_symmetry_cell_setting 'triclinic'
loop_
_space_group_symop_operation_xyz
x,y,z
-x,-y,-z
loop_
_atom_site_type_symbol
_atom_site_label
_atom_site_fract_x
_atom_site_fract_y
_atom_site_fract_z
Si Si1 0.466542 0.288427 0.372588
Si Si2 0.130356 0.581320 0.042153
Si Si3 0.622378 0.099772 0.698004
Si Si4 0.043797 0.439800 0.361474
Si Si5 0.816031 0.948175 0.759740
Si Si6 0.943940 0.278345 0.725685
Si Si7 0.288436 0.195826 0.024015
O O1 0.500000 0.500000 0.500000
O O2 0.225865 0.469920 0.504777
O O3 0.426340 0.101736 0.344334
O O4 0.675878 0.076553 0.150257
O O5 0.998138 0.703335 0.213556
O O6 0.140939 0.823005 0.125270
O O7 0.386812 0.333963 0.857901
O O8 0.000000 0.500000 0.000000
O O9 0.743634 0.211583 0.755441
O O10 0.824004 0.936079 0.496639
O O11 0.176073 0.220178 0.263916
O O12 0.006538 0.722969 0.534841
O O13 0.158833 0.318428 0.195011
O O14 0.556494 0.104362 0.896337
O O15 0.837456 0.566208 0.867984
#
# Coordination Sequence:
#
# PCOD9026278 Si02
#       7
#     2   2   2   2   2   2   2
#     4  11  24  39  61  93 129 163 204 261 322 383
#     4  12  26  41  63  95 138 169 204 264 337 388
#     4  11  23  43  68  97 124 166 225 270 312 377
#     4  10  22  41  63  93 123 167 214 264 312 373
#     4  10  23  40  62  91 131 166 211 261 318 382
#     4  11  22  41  73  96 120 167 227 272 307 376
#     4  11  20  40  68  94 117 165 222 266 312 372
#
# _framework density 19.748211000000001
#
# number of rings (size 3 to 8) (size 9 to 14) (size 15 to 20)
#    0.000    1.143    4.286    2.571    4.000    1.143 
#    2.571    0.000    0.000    0.000    0.000    0.000 
#    0.000    0.000    0.000    0.000    0.000    0.000 
#
# Total GULP energy -78165.934701 kJ/mol
# GULP energy per Si atom -5583.281050 kJ/mol
# Density = 1.970326 g / cm^3
# Si number density = 19.748211 Si / 1000 Ang^3
#
#
#
# Elastic Constant Matrix: (Units=GPa)
#
#
# Indices 1 2 3 4 5 6 
#
# 1 109.0075 22.9899 21.7305 9.4233 25.3839 9.2269
# 2 22.9899 43.2677 18.7427 9.6440 13.5998 -4.2029
# 3 21.7305 18.7427 83.1643 -0.0337 20.3547 0.7006
# 4 9.4233 9.6440 -0.0337 26.0371 -1.2241 8.9821
# 5 25.3839 13.5998 20.3547 -1.2241 35.1714 10.0926
# 6 9.2269 -4.2029 0.7006 8.9821 10.0926 28.8207
#
#
#
# Elastic Compliance Matrix: (Units=1/GPa)
#
#
# Indices 1 2 3 4 5 6 
#
# 1 0.011935 -0.003321 -0.000712 -0.003074 -0.006747 -0.000967
# 2 -0.003321 0.037829 -0.003915 -0.019940 -0.015961 0.018478
# 3 -0.000712 -0.003915 0.014770 0.000909 -0.006899 0.001431
# 4 -0.003074 -0.019940 0.000909 0.056867 0.018927 -0.026297
# 5 -0.006747 -0.015961 -0.006899 0.018927 0.050936 -0.023736
# 6 -0.000967 0.018478 0.001431 -0.026297 -0.023736 0.054174
#
#
# Mechanical properties :
#
#
# Convention : Reuss Voigt Hill
#
# Bulk Modulus (GPa) = 20.56054 40.26285 30.41170
# Shear Modulus (GPa) = 19.33351 29.47091 24.40221
#
# Velocity S-wave (km/s) = 3.13229 3.86726 3.51902
# Velocity P-wave (km/s) = 4.84929 6.35400 5.65194
#
# Compressibility (1/GPa) = 0.04863686
#
# Stress axis : x y z
#
# Youngs Moduli (GPa) = 83.78926 26.43496 67.70699
#
# Poissons Ratio (x) = 0.08780 0.04819
# Poissons Ratio (y) = 0.27830 0.26506
# Poissons Ratio (z) = 0.05964 0.10349
#
# Static dielectric constant tensor:
#      x y z
#    x 1.690440 -0.000190 0.041890 
#    y -0.000190 1.702660 -0.002470 
#    z 0.041890 -0.002470 1.729070 
# 
# From -- ./inp_files/257294.got.cif
#   From: 2010.05.17/outbox.cif.g08.bks.cpg/sg2_129_cif.got.tgz:257294.got - 2010.06.03 11:33:40.
