data_PCOD9026591
_publ_section_title
;
Structure prediction by ZEFSAII (Michael W. Deem and Ramdas Pophale) SiO2 
 PCOD9026591
Probable space group: P -1
;
_chemical_formula_sum "Si O2"
_cell_formula_units_Z 16
_cell_length_a 23.419427
_cell_length_b 5.984317
_cell_length_c 14.679642
_cell_angle_alpha 104.988353
_cell_angle_beta 159.325962
_cell_angle_gamma 76.688274
_cell_volume 701.220384
_symmetry_space_group_name_H-M "P -1"
_symmetry_group_IT_number 2
_symmetry_cell_setting 'triclinic'
loop_
_space_group_symop_operation_xyz
x,y,z
-x,-y,-z
loop_
_atom_site_type_symbol
_atom_site_label
_atom_site_fract_x
_atom_site_fract_y
_atom_site_fract_z
Si Si1 0.902297 0.269554 0.800950
Si Si2 0.888277 0.135112 0.969284
Si Si3 0.916260 0.764448 0.463976
Si Si4 0.522598 0.217372 0.486215
Si Si5 0.198614 0.112435 0.894714
Si Si6 0.046891 0.558521 0.362404
Si Si7 0.364148 0.185111 0.813019
Si Si8 0.662005 0.470778 0.325841
O O1 0.867518 0.143399 0.830348
O O2 0.745850 0.364971 0.527460
O O3 0.000000 0.500000 0.000000
O O4 0.016429 0.101183 0.895581
O O5 0.708925 0.180810 0.738883
O O6 0.990626 0.345529 0.190975
O O7 0.835032 0.812526 0.251300
O O8 0.793324 0.865738 0.367133
O O9 0.929382 0.515413 0.504451
O O10 0.099178 0.871375 0.740391
O O11 0.500000 0.500000 0.500000
O O12 0.500000 0.000000 0.500000
O O13 0.386376 0.145993 0.200579
O O14 0.099394 0.272442 0.832477
O O15 0.220466 0.633067 0.588136
O O16 0.327451 0.259958 0.661851
O O17 0.472776 0.402334 0.037300
O O18 0.500000 0.000000 0.000000
#
# Coordination Sequence:
#
# PCOD9026591 Si02
#       8
#     2   2   2   2   2   2   2   2
#     4  11  25  44  69 101 140 184 243 303 371 442
#     4  11  26  43  70 103 138 195 240 306 371 444
#     4  10  24  42  66 101 134 188 237 296 366 434
#     4  12  28  49  75 111 147 198 253 309 373 446
#     4  11  24  44  68  99 140 186 242 300 363 434
#     4  11  21  41  70  95 133 182 234 294 362 446
#     4  10  22  41  64  98 134 171 226 289 358 429
#     4  10  23  38  66  97 126 179 224 285 353 432
#
# _framework density 22.817361999999999
#
# number of rings (size 3 to 8) (size 9 to 14) (size 15 to 20)
#    0.000    1.250    2.500    1.875   10.500    0.000 
#    0.000    0.000    0.000    0.000    0.000    0.000 
#    0.000    0.000    0.000    0.000    0.000    0.000 
#
# Total GULP energy -89069.439941 kJ/mol
# GULP energy per Si atom -5566.839996 kJ/mol
# Density = 2.276543 g / cm^3
# Si number density = 22.817362 Si / 1000 Ang^3
#
#
#
# Elastic Constant Matrix: (Units=GPa)
#
#
# Indices 1 2 3 4 5 6 
#
# 1 76.6691 22.9308 19.7597 0.1257 -3.2474 17.4081
# 2 22.9308 81.3918 14.5075 -13.7955 -3.2386 -13.6156
# 3 19.7597 14.5075 141.4117 1.0086 1.8383 4.6522
# 4 0.1257 -13.7955 1.0086 39.8942 2.4854 1.0344
# 5 -3.2474 -3.2386 1.8383 2.4854 40.6082 -12.3961
# 6 17.4081 -13.6156 4.6522 1.0344 -12.3961 30.8823
#
#
#
# Elastic Compliance Matrix: (Units=1/GPa)
#
#
# Indices 1 2 3 4 5 6 
#
# 1 0.019323 -0.008410 -0.001251 -0.002292 -0.003766 -0.015847
# 2 -0.008410 0.018582 -0.001331 0.005780 0.005090 0.014983
# 3 -0.001251 -0.001331 0.007443 -0.000552 -0.000923 -0.001355
# 4 -0.002292 0.005780 -0.000552 0.027044 -0.000492 0.002820
# 5 -0.003766 0.005090 -0.000923 -0.000492 0.029839 0.016500
# 6 -0.015847 0.014983 -0.001355 0.002820 0.016500 0.054652
#
#
# Mechanical properties :
#
#
# Convention : Reuss Voigt Hill
#
# Bulk Modulus (GPa) = 42.80167 45.98539 44.39353
# Shear Modulus (GPa) = 26.78730 38.42860 32.60795
#
# Velocity S-wave (km/s) = 3.43007 4.10833 3.78443
# Velocity P-wave (km/s) = 5.87250 6.53467 6.21242
#
# Compressibility (1/GPa) = 0.02336357
#
# Stress axis : x y z
#
# Youngs Moduli (GPa) = 51.75144 53.81636 134.34685
#
# Poissons Ratio (x) = 0.45261 0.16801
# Poissons Ratio (y) = 0.43525 0.17887
# Poissons Ratio (z) = 0.06472 0.07165
#
# Static dielectric constant tensor:
#      x y z
#    x 2.207110 -0.182050 -0.055660 
#    y -0.182050 2.214120 0.034880 
#    z -0.055660 0.034880 1.869220 
# 
# From -- ./inp_files/542217.got.cif
#   From: 2010.05.17/outbox.cif.g08.bks.cpg/sg2_272_cif.got.tgz:542217.got - 2010.06.03 11:33:40.
