data_PCOD9026816
_publ_section_title
;
Structure prediction by ZEFSAII (Michael W. Deem and Ramdas Pophale) SiO2 
 PCOD9026816
Probable space group: P -1
;
_chemical_formula_sum "Si O2"
_cell_formula_units_Z 15
_cell_length_a 12.393331
_cell_length_b 12.067271
_cell_length_c 12.456924
_cell_angle_alpha 91.805775
_cell_angle_beta 39.932014
_cell_angle_gamma 60.959492
_cell_volume 726.120770
_symmetry_space_group_name_H-M "P -1"
_symmetry_group_IT_number 2
_symmetry_cell_setting 'triclinic'
loop_
_space_group_symop_operation_xyz
x,y,z
-x,-y,-z
loop_
_atom_site_type_symbol
_atom_site_label
_atom_site_fract_x
_atom_site_fract_y
_atom_site_fract_z
Si Si1 0.739604 0.509918 0.028713
Si Si2 0.312489 0.854810 0.220351
Si Si3 0.626867 0.336575 0.030843
Si Si4 0.944433 0.428691 0.457183
Si Si5 0.310229 0.313525 0.543106
Si Si6 0.577060 0.349649 0.501250
Si Si7 0.500000 0.000000 0.000000
Si Si8 0.850781 0.031384 0.009531
O O1 0.547525 0.703372 0.124903
O O2 0.751161 0.392747 0.944726
O O3 0.581089 0.565618 0.262250
O O4 0.060725 0.376467 0.789352
O O5 0.353581 0.740215 0.095266
O O6 0.353171 0.956242 0.147112
O O7 0.000000 0.000000 0.500000
O O8 0.305441 0.514552 0.308619
O O9 0.760319 0.183727 0.012189
O O10 0.844640 0.531161 0.423353
O O11 0.000000 0.500000 0.500000
O O12 0.211379 0.216095 0.237404
O O13 0.455239 0.311348 0.523605
O O14 0.565002 0.124614 0.273957
O O15 0.500000 0.500000 0.500000
O O16 0.913040 0.161028 0.239922
O O17 0.000000 0.000000 0.000000
#
# Coordination Sequence:
#
# PCOD9026816 Si02
#       8
#     2   2   2   2   2   2   1   2
#     4  12  23  43  67 101 142 181 232 300 353 417
#     4  12  26  44  69 106 142 187 242 288 362 433
#     4  11  23  43  69  95 146 183 227 297 357 419
#     4  11  21  43  68 101 138 184 234 286 348 429
#     4  10  22  41  65  97 137 178 234 288 347 417
#     4  11  23  44  69  97 134 183 236 292 353 429
#     4  12  24  44  70 100 142 184 234 284 356 412
#     4   9  20  41  65  93 131 181 235 277 349 424
#
# _framework density 20.657720000000001
#
# number of rings (size 3 to 8) (size 9 to 14) (size 15 to 20)
#    0.000    1.067    2.667    4.800    0.000    2.133 
#    0.000    7.333    0.000    0.000    0.000    0.000 
#    0.000    0.000    0.000    0.000    0.000    0.000 
#
# Total GULP energy -83513.235170 kJ/mol
# GULP energy per Si atom -5567.549011 kJ/mol
# Density = 2.061070 g / cm^3
# Si number density = 20.657720 Si / 1000 Ang^3
#
#
#
# Elastic Constant Matrix: (Units=GPa)
#
#
# Indices 1 2 3 4 5 6 
#
# 1 50.3795 25.7366 23.6841 -9.3588 -5.9970 -5.2435
# 2 25.7366 77.4585 64.8342 13.3556 -1.6835 6.3423
# 3 23.6841 64.8342 210.3127 14.7092 -21.4072 5.5192
# 4 -9.3588 13.3556 14.7092 39.2415 -4.8749 -10.0023
# 5 -5.9970 -1.6835 -21.4072 -4.8749 31.4382 -10.8981
# 6 -5.2435 6.3423 5.5192 -10.0023 -10.8981 26.6727
#
#
#
# Elastic Compliance Matrix: (Units=1/GPa)
#
#
# Indices 1 2 3 4 5 6 
#
# 1 0.042739 -0.023100 0.001871 0.029232 0.024704 0.034563
# 2 -0.023100 0.032531 -0.007166 -0.023714 -0.021023 -0.028276
# 3 0.001871 -0.007166 0.007174 0.002043 0.006575 0.004040
# 4 0.029232 -0.023714 0.002043 0.054408 0.029133 0.043269
# 5 0.024704 -0.021023 0.006575 0.029133 0.059557 0.043754
# 6 0.034563 -0.028276 0.004040 0.043269 0.043754 0.084277
#
#
# Mechanical properties :
#
#
# Convention : Reuss Voigt Hill
#
# Bulk Modulus (GPa) = 38.98217 62.96225 50.97221
# Shear Modulus (GPa) = 14.44976 34.39689 24.42332
#
# Velocity S-wave (km/s) = 2.64765 4.08497 3.44217
# Velocity P-wave (km/s) = 5.31584 7.26597 6.36602
#
# Compressibility (1/GPa) = 0.02565275
#
# Stress axis : x y z
#
# Youngs Moduli (GPa) = 23.39797 30.73996 139.39822
#
# Poissons Ratio (x) = 0.71010 -0.26085
# Poissons Ratio (y) = 0.54050 0.99899
# Poissons Ratio (z) = -0.04378 0.22030
#
# Static dielectric constant tensor:
#      x y z
#    x 1.744720 -0.052830 -0.016380 
#    y -0.052830 1.458250 -0.021090 
#    z -0.016380 -0.021090 1.732760 
# 
# From -- ./inp_files/260439.got.cif
#   From: 2010.05.17/outbox.cif.g08.bks.cpg/sg2_131_cif.got.tgz:260439.got - 2010.06.03 11:33:40.
