data_PCOD9026949
_publ_section_title
;
Structure prediction by ZEFSAII (Michael W. Deem and Ramdas Pophale) SiO2 
 PCOD9026949
Probable space group: P -1
;
_chemical_formula_sum "Si O2"
_cell_formula_units_Z 16
_cell_length_a 18.563067
_cell_length_b 6.794551
_cell_length_c 9.652550
_cell_angle_alpha 81.354469
_cell_angle_beta 54.024434
_cell_angle_gamma 46.316073
_cell_volume 641.055969
_symmetry_space_group_name_H-M "P -1"
_symmetry_group_IT_number 2
_symmetry_cell_setting 'triclinic'
loop_
_space_group_symop_operation_xyz
x,y,z
-x,-y,-z
loop_
_atom_site_type_symbol
_atom_site_label
_atom_site_fract_x
_atom_site_fract_y
_atom_site_fract_z
Si Si1 0.369583 0.670416 0.818030
Si Si2 0.285470 0.849570 0.294530
Si Si3 0.504739 0.760368 0.011888
Si Si4 0.098891 0.052010 0.248787
Si Si5 0.873135 0.718579 0.336448
Si Si6 0.941900 0.206835 0.861813
Si Si7 0.434893 0.321021 0.500089
Si Si8 0.181400 0.529840 0.761615
O O1 0.443862 0.418444 0.881730
O O2 0.387567 0.527947 0.666086
O O3 0.452223 0.736612 0.697958
O O4 0.214058 0.939791 0.021237
O O5 0.359752 0.908563 0.129097
O O6 0.153459 0.008293 0.343768
O O7 0.251942 0.985603 0.468446
O O8 0.389836 0.496283 0.192470
O O9 0.500000 0.000000 0.000000
O O10 0.958035 0.404677 0.352675
O O11 0.093450 0.824988 0.244172
O O12 0.820670 0.694581 0.261790
O O13 0.974200 0.734032 0.215284
O O14 0.814313 0.451664 0.079910
O O15 0.037858 0.866515 0.844700
O O16 0.296052 0.474437 0.570793
O O17 0.500000 0.000000 0.500000
#
# Coordination Sequence:
#
# PCOD9026949 Si02
#       8
#     2   2   2   2   2   2   2   2
#     4  10  24  44  67 101 139 175 235 288 338 409
#     4  10  24  43  63 103 134 169 233 282 334 412
#     4  10  24  46  72  96 137 188 226 285 344 401
#     4  10  22  43  64  95 135 176 225 279 343 401
#     4  11  24  39  70  96 134 177 218 284 337 415
#     4  10  22  41  66  91 134 177 220 281 327 410
#     4  11  25  40  70 102 137 181 224 288 345 410
#     4  10  23  42  61 100 131 175 228 267 349 400
#
# _framework density 24.958817
#
# number of rings (size 3 to 8) (size 9 to 14) (size 15 to 20)
#    0.000    1.750    1.250    0.750    5.250    8.500 
#    0.000    0.000    0.000    0.000    0.000    0.000 
#    0.000    0.000    0.000    0.000    0.000    0.000 
#
# Total GULP energy -89467.245300 kJ/mol
# GULP energy per Si atom -5591.702831 kJ/mol
# Density = 2.490201 g / cm^3
# Si number density = 24.958817 Si / 1000 Ang^3
#
#
#
# Elastic Constant Matrix: (Units=GPa)
#
#
# Indices 1 2 3 4 5 6 
#
# 1 111.4964 41.8891 18.9848 3.6158 0.8257 37.7630
# 2 41.8891 103.1877 35.8473 -1.8888 1.7397 49.7095
# 3 18.9848 35.8473 112.9102 2.3152 -14.6373 26.3326
# 4 3.6158 -1.8888 2.3152 27.4618 7.3410 1.2673
# 5 0.8257 1.7397 -14.6373 7.3410 41.5428 2.2723
# 6 37.7630 49.7095 26.3326 1.2673 2.2723 50.4909
#
#
#
# Elastic Compliance Matrix: (Units=1/GPa)
#
#
# Indices 1 2 3 4 5 6 
#
# 1 0.012137 -0.001196 0.000333 -0.001505 0.000633 -0.008064
# 2 -0.001196 0.019076 -0.002136 0.002716 -0.001089 -0.016791
# 3 0.000333 -0.002136 0.011067 -0.002162 0.004587 -0.004070
# 4 -0.001505 0.002716 -0.002162 0.039087 -0.007695 -0.001055
# 5 0.000633 -0.001089 0.004587 -0.007695 0.027235 -0.002826
# 6 -0.008064 -0.016791 -0.004070 -0.001055 -0.002826 0.044644
#
#
# Mechanical properties :
#
#
# Convention : Reuss Voigt Hill
#
# Bulk Modulus (GPa) = 27.56282 57.89295 42.72789
# Shear Modulus (GPa) = 29.18206 39.29066 34.23636
#
# Velocity S-wave (km/s) = 3.42308 3.97195 3.70768
# Velocity P-wave (km/s) = 5.16629 6.65439 5.95699
#
# Compressibility (1/GPa) = 0.03628076
#
# Stress axis : x y z
#
# Youngs Moduli (GPa) = 82.39267 52.42307 90.35941
#
# Poissons Ratio (x) = 0.06270 -0.03006
# Poissons Ratio (y) = 0.09854 0.19301
# Poissons Ratio (z) = -0.02741 0.11198
#
# Static dielectric constant tensor:
#      x y z
#    x 2.063750 -0.048880 -0.004990 
#    y -0.048880 1.968470 -0.027790 
#    z -0.004990 -0.027790 2.005090 
# 
# From -- ./inp_files/459501.got.cif
#   From: 2010.05.17/outbox.cif.g08.bks.cpg/sg2_230_cif.got.tgz:459501.got - 2010.06.03 11:33:40.
