data_PCOD9026610
_publ_section_title
;
Structure prediction by ZEFSAII (Michael W. Deem and Ramdas Pophale) SiO2 
 PCOD9026610
Probable space group: P -1
;
_chemical_formula_sum "Si O2"
_cell_formula_units_Z 14
_cell_length_a 7.752693
_cell_length_b 14.623526
_cell_length_c 8.796525
_cell_angle_alpha 115.190483
_cell_angle_beta 130.635033
_cell_angle_gamma 90.509388
_cell_volume 622.576486
_symmetry_space_group_name_H-M "P -1"
_symmetry_group_IT_number 2
_symmetry_cell_setting 'triclinic'
loop_
_space_group_symop_operation_xyz
x,y,z
-x,-y,-z
loop_
_atom_site_type_symbol
_atom_site_label
_atom_site_fract_x
_atom_site_fract_y
_atom_site_fract_z
Si Si1 0.865743 0.244048 0.510845
Si Si2 0.134445 0.067976 0.978911
Si Si3 0.297501 0.877086 0.954051
Si Si4 0.820618 0.709639 0.745131
Si Si5 0.408110 0.383701 0.769592
Si Si6 0.110793 0.623790 0.085951
Si Si7 0.791082 0.023845 0.480851
O O1 0.155636 0.300282 0.654404
O O2 0.697834 0.204333 0.235333
O O3 0.826962 0.315468 0.672906
O O4 0.797222 0.131393 0.481952
O O5 0.898699 0.053082 0.729625
O O6 0.266283 0.986458 0.945780
O O7 0.281951 0.200238 0.187614
O O8 0.000000 0.000000 0.000000
O O9 0.061412 0.797330 0.857762
O O10 0.530185 0.922630 0.231871
O O11 0.670650 0.623928 0.462200
O O12 0.912972 0.653722 0.894908
O O13 0.648420 0.354175 0.868093
O O14 0.500000 0.500000 0.000000
O O15 0.000000 0.500000 0.000000
O O16 0.000000 0.000000 0.500000
#
# Coordination Sequence:
#
# PCOD9026610 Si02
#       7
#     2   2   2   2   2   2   2
#     4  11  24  48  68 106 143 186 233 285 355 412
#     4  10  22  41  64  99 144 179 233 279 341 419
#     4  10  24  43  66 103 149 188 226 282 348 426
#     4  10  25  43  71 105 137 189 232 285 366 408
#     4  11  26  50  72  98 142 181 239 305 348 411
#     4  12  26  48  75 102 137 183 244 297 351 415
#     4  12  24  39  68 103 145 191 231 274 350 426
#
# _framework density 22.487199
#
# number of rings (size 3 to 8) (size 9 to 14) (size 15 to 20)
#    0.000    1.143    4.286    0.429    4.000    3.429 
#    0.000    0.000    0.000    0.000    0.000    0.000 
#    0.000    0.000    0.000    0.000    0.000    0.000 
#
# Total GULP energy -77987.878582 kJ/mol
# GULP energy per Si atom -5570.562756 kJ/mol
# Density = 2.243602 g / cm^3
# Si number density = 22.487199 Si / 1000 Ang^3
#
#
#
# Elastic Constant Matrix: (Units=GPa)
#
#
# Indices 1 2 3 4 5 6 
#
# 1 105.8825 11.2784 29.9353 16.0955 -18.8620 -14.0964
# 2 11.2784 85.3729 34.4570 12.3843 -18.3930 0.4346
# 3 29.9353 34.4570 159.2295 15.3648 -30.3789 -2.5415
# 4 16.0955 12.3843 15.3648 38.1112 -1.8489 -11.8955
# 5 -18.8620 -18.3930 -30.3789 -1.8489 45.2007 8.4321
# 6 -14.0964 0.4346 -2.5415 -11.8955 8.4321 34.1306
#
#
#
# Elastic Compliance Matrix: (Units=1/GPa)
#
#
# Indices 1 2 3 4 5 6 
#
# 1 0.011197 0.000183 -0.001134 -0.003379 0.003375 0.002526
# 2 0.000183 0.014181 -0.001729 -0.004720 0.005076 -0.003133
# 3 -0.001134 -0.001729 0.007916 -0.002503 0.004379 -0.001811
# 4 -0.003379 -0.004720 -0.002503 0.033550 -0.005806 0.011606
# 5 0.003375 0.005076 0.004379 -0.005806 0.029742 -0.007716
# 6 0.002526 -0.003133 -0.001811 0.011606 -0.007716 0.036199
#
#
# Mechanical properties :
#
#
# Convention : Reuss Voigt Hill
#
# Bulk Modulus (GPa) = 35.80059 55.75850 45.77955
# Shear Modulus (GPa) = 33.90830 41.80945 37.85887
#
# Velocity S-wave (km/s) = 3.88737 4.31659 4.10759
# Velocity P-wave (km/s) = 6.00865 7.04935 6.54970
#
# Compressibility (1/GPa) = 0.02793250
#
# Stress axis : x y z
#
# Youngs Moduli (GPa) = 89.31133 70.51519 126.33090
#
# Poissons Ratio (x) = -0.01291 0.14331
# Poissons Ratio (y) = -0.01635 0.21847
# Poissons Ratio (z) = 0.10131 0.12194
#
# Static dielectric constant tensor:
#      x y z
#    x 1.919710 -0.056510 -0.079400 
#    y -0.056510 1.839710 -0.127560 
#    z -0.079400 -0.127560 2.299750 
# 
# From -- ./inp_files/104712.got.cif
#   From: 2010.05.17/outbox.cif.g08.bks.cpg/sg2_53_cif.got.tgz:104712.got - 2010.06.03 11:33:40.
