data_PCOD9026206
_publ_section_title
;
Structure prediction by ZEFSAII (Michael W. Deem and Ramdas Pophale) SiO2 
 PCOD9026206
Probable space group: P -1
;
_chemical_formula_sum "Si O2"
_cell_formula_units_Z 16
_cell_length_a 22.246747
_cell_length_b 19.201715
_cell_length_c 5.839770
_cell_angle_alpha 56.325166
_cell_angle_beta 64.872012
_cell_angle_gamma 21.842389
_cell_volume 739.013545
_symmetry_space_group_name_H-M "P -1"
_symmetry_group_IT_number 2
_symmetry_cell_setting 'triclinic'
loop_
_space_group_symop_operation_xyz
x,y,z
-x,-y,-z
loop_
_atom_site_type_symbol
_atom_site_label
_atom_site_fract_x
_atom_site_fract_y
_atom_site_fract_z
Si Si1 0.204874 0.599260 0.662036
Si Si2 0.776217 0.533341 0.739592
Si Si3 0.173686 0.245504 0.185091
Si Si4 0.411817 0.701991 0.025011
Si Si5 0.579278 0.509266 0.605507
Si Si6 0.070860 0.179233 0.555866
Si Si7 0.323996 0.203113 0.286586
Si Si8 0.537247 0.829115 0.201353
O O1 0.245307 0.644592 0.429730
O O2 0.365535 0.357139 0.753279
O O3 0.027576 0.768068 0.553414
O O4 0.206775 0.575815 0.968501
O O5 0.791099 0.594828 0.772484
O O6 0.597199 0.744277 0.517642
O O7 0.923633 0.372303 0.616625
O O8 0.132393 0.196174 0.328157
O O9 0.250017 0.197503 0.382122
O O10 0.335301 0.068360 0.075248
O O11 0.000000 0.500000 0.000000
O O12 0.484273 0.641444 0.273384
O O13 0.406239 0.607540 0.204425
O O14 0.503162 0.620479 0.779870
O O15 0.226515 0.954721 0.835702
O O16 0.500000 0.000000 0.500000
O O17 0.369293 0.194919 0.987895
#
# Coordination Sequence:
#
# PCOD9026206 Si02
#       8
#     2   2   2   2   2   2   2   2
#     4  10  23  42  68  93 128 181 221 270 337 417
#     4  10  22  42  60  91 125 173 227 269 336 413
#     4  12  24  40  61  91 128 167 219 289 339 391
#     4  10  24  46  72 111 136 177 224 286 336 404
#     4  10  23  45  77 102 142 179 227 269 340 419
#     4  11  26  41  63  98 139 169 222 287 341 398
#     4  11  23  40  64  84 116 175 230 275 339 410
#     4  10  22  41  63  86 125 171 222 278 337 411
#
# _framework density 21.650483999999999
#
# number of rings (size 3 to 8) (size 9 to 14) (size 15 to 20)
#    0.000    1.500    1.250    3.375    8.750    1.000 
#    4.500    0.625    0.000    0.000    0.000    0.000 
#    0.000    0.000    0.000    0.000    0.000    0.000 
#
# Total GULP energy -89128.736184 kJ/mol
# GULP energy per Si atom -5570.546011 kJ/mol
# Density = 2.160121 g / cm^3
# Si number density = 21.650484 Si / 1000 Ang^3
#
#
#
# Elastic Constant Matrix: (Units=GPa)
#
#
# Indices 1 2 3 4 5 6 
#
# 1 76.6039 10.6660 32.9391 7.1234 9.5420 -30.5777
# 2 10.6660 61.0130 20.1877 -9.9354 6.2813 -16.4208
# 3 32.9391 20.1877 100.6331 -3.1141 15.2331 -20.4045
# 4 7.1234 -9.9354 -3.1141 37.4484 -5.6450 0.2036
# 5 9.5420 6.2813 15.2331 -5.6450 19.5801 4.3958
# 6 -30.5777 -16.4208 -20.4045 0.2036 4.3958 31.4815
#
#
#
# Elastic Compliance Matrix: (Units=1/GPa)
#
#
# Indices 1 2 3 4 5 6 
#
# 1 0.031871 0.006218 0.000210 -0.008961 -0.028900 0.038428
# 2 0.006218 0.022469 -0.000525 0.002609 -0.013405 0.019274
# 3 0.000210 -0.000525 0.014301 -0.001145 -0.013893 0.011147
# 4 -0.008961 0.002609 -0.001145 0.031451 0.015845 -0.010500
# 5 -0.028900 -0.013405 -0.013893 0.015845 0.097816 -0.057828
# 6 0.038428 0.019274 0.011147 -0.010500 -0.057828 0.094510
#
#
# Mechanical properties :
#
#
# Convention : Reuss Voigt Hill
#
# Bulk Modulus (GPa) = 12.43058 40.64838 26.53948
# Shear Modulus (GPa) = 16.26399 29.33247 22.79823
#
# Velocity S-wave (km/s) = 2.74379 3.68478 3.24854
# Velocity P-wave (km/s) = 3.97389 6.07610 5.13375
#
# Compressibility (1/GPa) = 0.08044675
#
# Stress axis : x y z
#
# Youngs Moduli (GPa) = 31.37683 44.50607 69.92359
#
# Poissons Ratio (x) = -0.27672 -0.01469
# Poissons Ratio (y) = -0.19509 0.03669
# Poissons Ratio (z) = -0.00659 0.02336
#
# Static dielectric constant tensor:
#      x y z
#    x 1.868620 0.008440 0.025890 
#    y 0.008440 1.819410 0.032000 
#    z 0.025890 0.032000 1.882470 
# 
# From -- ./inp_files/52395.got.cif
#   From: 2010.05.17/outbox.cif.g08.bks.cpg/sg2_27_cif.got.tgz:52395.got - 2010.06.03 11:33:40.
