data_PCOD9026531
_publ_section_title
;
Structure prediction by ZEFSAII (Michael W. Deem and Ramdas Pophale) SiO2 
 PCOD9026531
Probable space group: P -1
;
_chemical_formula_sum "Si O2"
_cell_formula_units_Z 14
_cell_length_a 12.172419
_cell_length_b 13.182381
_cell_length_c 7.935543
_cell_angle_alpha 56.786020
_cell_angle_beta 146.078321
_cell_angle_gamma 116.773917
_cell_volume 594.490509
_symmetry_space_group_name_H-M "P -1"
_symmetry_group_IT_number 2
_symmetry_cell_setting 'triclinic'
loop_
_space_group_symop_operation_xyz
x,y,z
-x,-y,-z
loop_
_atom_site_type_symbol
_atom_site_label
_atom_site_fract_x
_atom_site_fract_y
_atom_site_fract_z
Si Si1 0.305708 0.362238 0.253266
Si Si2 0.312238 0.503617 0.480892
Si Si3 0.620606 0.878096 0.221401
Si Si4 0.031160 0.048312 0.228968
Si Si5 0.880715 0.309260 0.714513
Si Si6 0.306376 0.077629 0.231764
Si Si7 0.533942 0.717340 0.935031
O O1 0.269076 0.444383 0.300067
O O2 0.475731 0.433048 0.312013
O O3 0.381522 0.232904 0.544658
O O4 0.099666 0.347930 0.907173
O O5 0.167350 0.608922 0.259310
O O6 0.331517 0.395422 0.737779
O O7 0.845709 0.923728 0.473579
O O8 0.549662 0.815481 0.016938
O O9 0.500000 0.000000 0.000000
O O10 0.200624 0.039797 0.306110
O O11 0.902501 0.167977 0.915721
O O12 0.877606 0.941041 0.112542
O O13 0.692507 0.320787 0.343557
O O14 0.385291 0.213325 0.188823
O O15 0.500000 0.000000 0.500000
#
# Coordination Sequence:
#
# PCOD9026531 Si02
#       7
#     2   2   2   2   2   2   2
#     4   9  22  43  67  90 129 172 217 251 333 386
#     4  10  22  44  63  93 129 172 210 270 317 377
#     4  10  22  41  64  95 130 164 213 269 314 384
#     4  10  24  41  68  94 124 174 217 246 341 389
#     4  11  22  39  65  94 125 167 215 265 314 382
#     4  11  22  43  66  92 131 167 210 272 316 384
#     4  11  24  40  63  97 130 165 217 266 319 371
#
# _framework density 23.549576999999999
#
# number of rings (size 3 to 8) (size 9 to 14) (size 15 to 20)
#    0.000    1.714    1.429    1.714    6.000    2.286 
#    2.571    4.286    0.000    0.000    0.000    0.000 
#    0.000    0.000    0.000    0.000    0.000    0.000 
#
# Total GULP energy -78224.239149 kJ/mol
# GULP energy per Si atom -5587.445654 kJ/mol
# Density = 2.349598 g / cm^3
# Si number density = 23.549577 Si / 1000 Ang^3
#
#
#
# Elastic Constant Matrix: (Units=GPa)
#
#
# Indices 1 2 3 4 5 6 
#
# 1 89.4510 27.9862 31.7640 -7.5614 16.4738 1.3661
# 2 27.9862 119.9377 21.0572 20.1531 10.7465 -2.4791
# 3 31.7640 21.0572 56.6812 20.2217 17.0728 0.5604
# 4 -7.5614 20.1531 20.2217 49.4180 -9.4902 11.6877
# 5 16.4738 10.7465 17.0728 -9.4902 32.0636 1.3083
# 6 1.3661 -2.4791 0.5604 11.6877 1.3083 42.8123
#
#
#
# Elastic Compliance Matrix: (Units=1/GPa)
#
#
# Indices 1 2 3 4 5 6 
#
# 1 0.017569 -0.003980 -0.013096 0.011072 0.002710 -0.003725
# 2 -0.003980 0.010650 0.002619 -0.007756 -0.005336 0.002990
# 3 -0.013096 0.002619 0.040302 -0.025954 -0.023611 0.007849
# 4 0.011072 -0.007756 -0.025954 0.043432 0.024118 -0.013057
# 5 0.002710 -0.005336 -0.023611 0.024118 0.051631 -0.008248
# 6 -0.003725 0.002990 0.007849 -0.013057 -0.008248 0.027364
#
#
# Mechanical properties :
#
#
# Convention : Reuss Voigt Hill
#
# Bulk Modulus (GPa) = 25.24909 47.52052 36.38480
# Shear Modulus (GPa) = 21.45328 37.20961 29.33145
#
# Velocity S-wave (km/s) = 3.02153 3.97930 3.53302
# Velocity P-wave (km/s) = 4.78725 6.42930 5.66805
#
# Compressibility (1/GPa) = 0.03960539
#
# Stress axis : x y z
#
# Youngs Moduli (GPa) = 56.91905 93.89876 24.81263
#
# Poissons Ratio (x) = 0.37375 0.32495
# Poissons Ratio (y) = 0.22656 -0.06498
# Poissons Ratio (z) = 0.74542 -0.24591
#
# Static dielectric constant tensor:
#      x y z
#    x 1.962580 -0.051320 -0.036560 
#    y -0.051320 1.919890 0.021720 
#    z -0.036560 0.021720 1.887040 
# 
# From -- ./inp_files/272018.got.cif
#   From: 2010.05.17/outbox.cif.g08.bks.cpg/sg2_137_cif.got.tgz:272018.got - 2010.06.03 11:33:40.
