data_PCOD9026766
_publ_section_title
;
Structure prediction by ZEFSAII (Michael W. Deem and Ramdas Pophale) SiO2 
 PCOD9026766
Probable space group: P -1
;
_chemical_formula_sum "Si O2"
_cell_formula_units_Z 16
_cell_length_a 7.762449
_cell_length_b 5.226381
_cell_length_c 17.123129
_cell_angle_alpha 90.430789
_cell_angle_beta 87.745856
_cell_angle_gamma 115.731044
_cell_volume 625.274725
_symmetry_space_group_name_H-M "P -1"
_symmetry_group_IT_number 2
_symmetry_cell_setting 'triclinic'
loop_
_space_group_symop_operation_xyz
x,y,z
-x,-y,-z
loop_
_atom_site_type_symbol
_atom_site_label
_atom_site_fract_x
_atom_site_fract_y
_atom_site_fract_z
Si Si1 0.682273 0.773434 0.964365
Si Si2 0.138640 0.321477 0.822045
Si Si3 0.079802 0.783120 0.921287
Si Si4 0.377561 0.673346 0.307541
Si Si5 0.679349 0.741032 0.436107
Si Si6 0.430062 0.221548 0.210482
Si Si7 0.987083 0.654012 0.344480
Si Si8 0.208156 0.685868 0.529698
O O1 0.645066 0.840691 0.876908
O O2 0.870709 0.714522 0.958564
O O3 0.500000 0.500000 0.000000
O O4 0.750721 0.049056 0.019624
O O5 0.080752 0.502760 0.884955
O O6 0.357170 0.524736 0.798026
O O7 0.019752 0.285005 0.745643
O O8 0.115724 0.023532 0.855338
O O9 0.541770 0.701931 0.365767
O O10 0.322772 0.376993 0.261642
O O11 0.194780 0.672042 0.355746
O O12 0.434531 0.945647 0.249966
O O13 0.656372 0.465965 0.484118
O O14 0.896298 0.828901 0.395727
O O15 0.704330 0.993634 0.492709
O O16 0.829302 0.343501 0.375021
O O17 0.000000 0.500000 0.500000
#
# Coordination Sequence:
#
# PCOD9026766 Si02
#       8
#     2   2   2   2   2   2   2   2
#     4  11  25  48  64  99 128 184 224 286 348 415
#     4  12  23  45  66  99 128 177 222 287 337 398
#     4  11  27  44  68  91 137 172 232 281 344 413
#     4  12  24  43  65 102 132 172 227 280 335 391
#     4  10  22  41  65  95 134 172 217 267 329 387
#     4  12  25  41  68  95 134 172 227 285 338 403
#     4  10  25  38  72  94 136 172 224 274 337 394
#     4  10  22  43  69  97 137 178 214 265 329 395
#
# _framework density 25.588756
#
# number of rings (size 3 to 8) (size 9 to 14) (size 15 to 20)
#    0.750    0.250    2.500    4.125    3.500    3.500 
#    0.000    1.250    0.000    0.000    0.000    0.000 
#    0.000    0.000    0.000    0.000    0.000    0.000 
#
# Total GULP energy -89579.280988 kJ/mol
# GULP energy per Si atom -5598.705062 kJ/mol
# Density = 2.553051 g / cm^3
# Si number density = 25.588756 Si / 1000 Ang^3
#
#
#
# Elastic Constant Matrix: (Units=GPa)
#
#
# Indices 1 2 3 4 5 6 
#
# 1 113.0290 28.6294 25.5753 0.9433 21.7614 -4.7179
# 2 28.6294 122.7661 37.7222 -11.6612 19.2857 -14.8869
# 3 25.5753 37.7222 129.4145 -2.7384 28.9557 -12.3530
# 4 0.9433 -11.6612 -2.7384 37.9617 2.0588 -2.0569
# 5 21.7614 19.2857 28.9557 2.0588 43.8616 -3.2940
# 6 -4.7179 -14.8869 -12.3530 -2.0569 -3.2940 48.4710
#
#
#
# Elastic Compliance Matrix: (Units=1/GPa)
#
#
# Indices 1 2 3 4 5 6 
#
# 1 0.010157 -0.001604 -0.000687 -0.000584 -0.003850 0.000034
# 2 -0.001604 0.010051 -0.001767 0.003265 -0.002426 0.002454
# 3 -0.000687 -0.001767 0.009698 0.000539 -0.005195 0.001532
# 4 -0.000584 0.003265 0.000539 0.027654 -0.002643 0.002077
# 5 -0.003850 -0.002426 -0.005195 -0.002643 0.029287 -0.000566
# 6 0.000034 0.002454 0.001532 0.002077 -0.000566 0.021828
#
#
# Mechanical properties :
#
#
# Convention : Reuss Voigt Hill
#
# Bulk Modulus (GPa) = 45.89213 61.00706 53.44959
# Shear Modulus (GPa) = 40.30502 44.27770 42.29136
#
# Velocity S-wave (km/s) = 3.97307 4.16427 4.06979
# Velocity P-wave (km/s) = 6.24663 6.85672 6.55878
#
# Compressibility (1/GPa) = 0.02179023
#
# Stress axis : x y z
#
# Youngs Moduli (GPa) = 98.45793 99.48972 103.11678
#
# Poissons Ratio (x) = 0.15956 0.07087
# Poissons Ratio (y) = 0.15791 0.18216
# Poissons Ratio (z) = 0.06767 0.17576
#
# Static dielectric constant tensor:
#      x y z
#    x 2.072600 0.007240 -0.016950 
#    y 0.007240 2.046000 -0.020030 
#    z -0.016950 -0.020030 2.084580 
# 
# From -- ./inp_files/552704.got.cif
#   From: 2010.05.17/outbox.cif.g08.bks.cpg/sg2_277_cif.got.tgz:552704.got - 2010.06.03 11:33:40.
