data_PCOD9026091
_publ_section_title
;
Structure prediction by ZEFSAII (Michael W. Deem and Ramdas Pophale) SiO2 
 PCOD9026091
Probable space group: P -1
;
_chemical_formula_sum "Si O2"
_cell_formula_units_Z 14
_cell_length_a 20.520839
_cell_length_b 6.967435
_cell_length_c 10.138209
_cell_angle_alpha 136.003607
_cell_angle_beta 146.688849
_cell_angle_gamma 57.435218
_cell_volume 545.379398
_symmetry_space_group_name_H-M "P -1"
_symmetry_group_IT_number 2
_symmetry_cell_setting 'triclinic'
loop_
_space_group_symop_operation_xyz
x,y,z
-x,-y,-z
loop_
_atom_site_type_symbol
_atom_site_label
_atom_site_fract_x
_atom_site_fract_y
_atom_site_fract_z
Si Si1 0.652329 0.898745 0.327757
Si Si2 0.065060 0.373013 0.928124
Si Si3 0.381970 0.737341 0.022257
Si Si4 0.002711 0.754007 0.529677
Si Si5 0.332392 0.522016 0.380379
Si Si6 0.352302 0.028941 0.366370
Si Si7 0.265218 0.121495 0.836729
O O1 0.718942 0.987864 0.625005
O O2 0.714688 0.868085 0.278970
O O3 0.589223 0.171757 0.331567
O O4 0.596677 0.579602 0.107241
O O5 0.984390 0.352976 0.649740
O O6 0.193565 0.548216 0.191228
O O7 0.087150 0.054901 0.841647
O O8 0.000000 0.500000 0.000000
O O9 0.508583 0.947385 0.341301
O O10 0.321863 0.786489 0.086845
O O11 0.301935 0.840788 0.823219
O O12 0.872345 0.849695 0.359334
O O13 0.000000 0.500000 0.500000
O O14 0.358492 0.312577 0.433846
O O15 0.335991 0.372471 0.171136
#
# Coordination Sequence:
#
# PCOD9026091 Si02
#       7
#     2   2   2   2   2   2   2
#     4  12  22  37  64  90 117 159 203 241 292 356
#     4  10  22  41  62  88 123 157 195 248 296 351
#     4  10  23  42  61  85 123 159 195 245 300 351
#     4  10  23  41  63  89 119 157 200 244 298 353
#     4  10  23  40  59  90 125 155 197 247 297 349
#     4  10  23  41  61  88 120 159 199 244 297 352
#     4  10  23  41  59  88 122 154 195 247 297 350
#
# _framework density 25.670203999999998
#
# number of rings (size 3 to 8) (size 9 to 14) (size 15 to 20)
#    0.000    1.714    0.000    3.000    0.000   10.857 
#    0.000    4.286    0.000    0.000    0.000    0.000 
#    0.000    0.000    0.000    0.000    0.000    0.000 
#
# Total GULP energy -78288.383170 kJ/mol
# GULP energy per Si atom -5592.027369 kJ/mol
# Density = 2.561178 g / cm^3
# Si number density = 25.670204 Si / 1000 Ang^3
#
#
#
# Elastic Constant Matrix: (Units=GPa)
#
#
# Indices 1 2 3 4 5 6 
#
# 1 141.2583 46.6943 59.6575 -4.0451 -60.5584 25.7780
# 2 46.6943 179.7557 56.2771 17.7193 -11.2994 29.4456
# 3 59.6575 56.2771 94.0811 11.3629 -30.9484 14.9414
# 4 -4.0451 17.7193 11.3629 46.8789 0.2570 -8.5223
# 5 -60.5584 -11.2994 -30.9484 0.2570 56.3881 -11.6338
# 6 25.7780 29.4456 14.9414 -8.5223 -11.6338 40.1016
#
#
#
# Elastic Compliance Matrix: (Units=1/GPa)
#
#
# Indices 1 2 3 4 5 6 
#
# 1 0.016053 -0.001677 -0.004467 0.002503 0.013848 -0.002874
# 2 -0.001677 0.008093 -0.003629 -0.003240 -0.003215 -0.005134
# 3 -0.004467 -0.003629 0.017417 -0.003352 0.003943 -0.000522
# 4 0.002503 -0.003240 -0.003352 0.024998 0.001700 0.007824
# 5 0.013848 -0.003215 0.003943 0.001700 0.034612 0.002393
# 6 -0.002874 -0.005134 -0.000522 0.007824 0.002393 0.033105
#
#
# Mechanical properties :
#
#
# Convention : Reuss Voigt Hill
#
# Bulk Modulus (GPa) = 45.41739 82.26144 63.83941
# Shear Modulus (GPa) = 31.02468 45.50481 38.26475
#
# Velocity S-wave (km/s) = 3.48025 4.21488 3.86505
# Velocity P-wave (km/s) = 5.82070 7.47007 6.69636
#
# Compressibility (1/GPa) = 0.02201800
#
# Stress axis : x y z
#
# Youngs Moduli (GPa) = 62.29352 123.56326 57.41603
#
# Poissons Ratio (x) = 0.20723 0.25645
# Poissons Ratio (y) = 0.10447 0.20835
# Poissons Ratio (z) = 0.27824 0.44837
#
# Static dielectric constant tensor:
#      x y z
#    x 2.070300 -0.000420 0.022080 
#    y -0.000420 2.016000 0.029140 
#    z 0.022080 0.029140 2.086880 
# 
# From -- ./inp_files/351127.got.cif
#   From: 2010.05.17/outbox.cif.g08.bks.cpg/sg2_176_cif.got.tgz:351127.got - 2010.06.03 11:33:40.
