data_PCOD9026634
_publ_section_title
;
Structure prediction by ZEFSAII (Michael W. Deem and Ramdas Pophale) SiO2 
 PCOD9026634
Probable space group: P -1
;
_chemical_formula_sum "Si O2"
_cell_formula_units_Z 14
_cell_length_a 7.125748
_cell_length_b 11.279379
_cell_length_c 8.926737
_cell_angle_alpha 85.126412
_cell_angle_beta 65.340605
_cell_angle_gamma 56.688333
_cell_volume 535.003534
_symmetry_space_group_name_H-M "P -1"
_symmetry_group_IT_number 2
_symmetry_cell_setting 'triclinic'
loop_
_space_group_symop_operation_xyz
x,y,z
-x,-y,-z
loop_
_atom_site_type_symbol
_atom_site_label
_atom_site_fract_x
_atom_site_fract_y
_atom_site_fract_z
Si Si1 0.871396 0.151541 0.612275
Si Si2 0.468845 0.648847 0.530818
Si Si3 0.416528 0.854760 0.032966
Si Si4 0.680808 0.925012 0.168238
Si Si5 0.212594 0.671339 0.897121
Si Si6 0.731449 0.551879 0.916631
Si Si7 0.148889 0.282979 0.603623
O O1 0.612164 0.261270 0.603150
O O2 0.802126 0.147887 0.808736
O O3 0.017676 0.229964 0.544953
O O4 0.000000 0.000000 0.500000
O O5 0.500000 0.500000 0.500000
O O6 0.253803 0.714935 0.718732
O O7 0.308730 0.340956 0.480743
O O8 0.464538 0.937501 0.137033
O O9 0.689891 0.703884 0.941621
O O10 0.344780 0.928940 0.886152
O O11 0.682036 0.863339 0.336441
O O12 0.953059 0.800891 0.031070
O O13 0.457933 0.620915 0.922453
O O14 0.229515 0.523027 0.926836
O O15 0.936452 0.421455 0.757865
#
# Coordination Sequence:
#
# PCOD9026634 Si02
#       7
#     2   2   2   2   2   2   2
#     4  12  27  48  72 103 150 191 240 294 357 434
#     4  12  26  45  71 106 149 189 237 290 366 428
#     4  11  22  43  70 108 138 185 245 294 358 425
#     4  10  23  42  71 102 140 186 242 298 354 424
#     4  10  22  41  65 104 134 187 230 294 355 420
#     4  10  22  42  75 101 138 182 242 297 350 425
#     4  11  26  49  72 108 144 193 239 297 356 424
#
# _framework density 26.168049
#
# number of rings (size 3 to 8) (size 9 to 14) (size 15 to 20)
#    0.000    1.143    1.429    5.143    2.000    7.429 
#    5.143    0.000    0.000    0.000    0.000    0.000 
#    0.000    0.000    0.000    0.000    0.000    0.000 
#
# Total GULP energy -78179.219074 kJ/mol
# GULP energy per Si atom -5584.229934 kJ/mol
# Density = 2.610849 g / cm^3
# Si number density = 26.168049 Si / 1000 Ang^3
#
#
#
# Elastic Constant Matrix: (Units=GPa)
#
#
# Indices 1 2 3 4 5 6 
#
# 1 90.1359 11.1336 13.8365 0.5817 -5.1906 19.4106
# 2 11.1336 157.0294 44.9832 1.1833 -8.0315 5.5667
# 3 13.8365 44.9832 69.3437 5.8184 -11.7200 12.2285
# 4 0.5817 1.1833 5.8184 40.6105 3.1118 9.9619
# 5 -5.1906 -8.0315 -11.7200 3.1118 29.8939 -3.8302
# 6 19.4106 5.5667 12.2285 9.9619 -3.8302 36.8012
#
#
#
# Elastic Compliance Matrix: (Units=1/GPa)
#
#
# Indices 1 2 3 4 5 6 
#
# 1 0.012776 -0.000305 -0.001201 0.001581 0.000649 -0.006654
# 2 -0.000305 0.007845 -0.005151 0.000362 0.000074 0.000595
# 3 -0.001201 -0.005151 0.019888 -0.002155 0.005917 -0.003996
# 4 0.001581 0.000362 -0.002155 0.027189 -0.004326 -0.007983
# 5 0.000649 0.000074 0.005917 -0.004326 0.036696 0.002671
# 6 -0.006654 0.000595 -0.003996 -0.007983 0.002671 0.034359
#
#
# Mechanical properties :
#
#
# Convention : Reuss Voigt Hill
#
# Bulk Modulus (GPa) = 36.77134 50.71285 43.74210
# Shear Modulus (GPa) = 31.02988 37.89817 34.46403
#
# Velocity S-wave (km/s) = 3.44727 3.80973 3.63302
# Velocity P-wave (km/s) = 5.47059 6.22686 5.86094
#
# Compressibility (1/GPa) = 0.02719509
#
# Stress axis : x y z
#
# Youngs Moduli (GPa) = 78.26888 127.46196 50.28163
#
# Poissons Ratio (x) = 0.03882 0.06041
# Poissons Ratio (y) = 0.02384 0.25902
# Poissons Ratio (z) = 0.09403 0.65662
#
# Static dielectric constant tensor:
#      x y z
#    x 2.237000 0.187440 -0.028350 
#    y 0.187440 2.191490 -0.040910 
#    z -0.028350 -0.040910 2.057790 
# 
# From -- ./inp_files/177501.got.cif
#   From: 2010.05.17/outbox.cif.g08.bks.cpg/sg2_89_cif.got.tgz:177501.got - 2010.06.03 11:33:40.
