data_PCOD9026186
_publ_section_title
;
Structure prediction by ZEFSAII (Michael W. Deem and Ramdas Pophale) SiO2 
 PCOD9026186
Probable space group: P -1
;
_chemical_formula_sum "Si O2"
_cell_formula_units_Z 14
_cell_length_a 16.154639
_cell_length_b 5.325066
_cell_length_c 7.629577
_cell_angle_alpha 69.059687
_cell_angle_beta 56.714647
_cell_angle_gamma 78.374420
_cell_volume 512.408896
_symmetry_space_group_name_H-M "P -1"
_symmetry_group_IT_number 2
_symmetry_cell_setting 'triclinic'
loop_
_space_group_symop_operation_xyz
x,y,z
-x,-y,-z
loop_
_atom_site_type_symbol
_atom_site_label
_atom_site_fract_x
_atom_site_fract_y
_atom_site_fract_z
Si Si1 0.866278 0.519224 0.335261
Si Si2 0.586621 0.715491 0.337826
Si Si3 0.651309 0.725619 0.645533
Si Si4 0.632623 0.121880 0.899392
Si Si5 0.044792 0.840892 0.149322
Si Si6 0.853932 0.011554 0.667788
Si Si7 0.800284 0.516913 0.032620
O O1 0.767676 0.654293 0.496831
O O2 0.965646 0.600482 0.297649
O O3 0.860655 0.597713 0.118099
O O4 0.862715 0.194246 0.440101
O O5 0.500000 0.500000 0.500000
O O6 0.609879 0.814307 0.482485
O O7 0.685832 0.558705 0.194139
O O8 0.572535 0.958635 0.156210
O O9 0.635836 0.942830 0.762606
O O10 0.605676 0.431801 0.819276
O O11 0.746140 0.118851 0.834864
O O12 0.843198 0.226089 0.022390
O O13 0.939213 0.067216 0.695276
O O14 0.000000 0.000000 0.000000
O O15 0.834504 0.695177 0.783817
#
# Coordination Sequence:
#
# PCOD9026186 Si02
#       7
#     2   2   2   2   2   2   2
#     4  10  22  41  63 100 130 189 234 278 350 426
#     4  10  24  47  78 109 139 192 244 296 372 436
#     4  10  24  47  72 107 151 187 237 305 359 431
#     4  10  24  46  74 105 149 188 239 304 366 426
#     4  12  24  40  66  98 140 183 233 288 350 421
#     4  10  23  41  62  96 132 185 228 284 343 422
#     4  10  23  45  63  94 142 178 227 301 350 414
#
# _framework density 27.321930999999999
#
# number of rings (size 3 to 8) (size 9 to 14) (size 15 to 20)
#    0.000    1.714    1.429    0.857    8.000    6.286 
#    0.000    1.429    0.000    0.000    0.000    0.000 
#    0.000    0.000    0.000    0.000    0.000    0.000 
#
# Total GULP energy -78408.010540 kJ/mol
# GULP energy per Si atom -5600.572181 kJ/mol
# Density = 2.725975 g / cm^3
# Si number density = 27.321931 Si / 1000 Ang^3
#
#
#
# Elastic Constant Matrix: (Units=GPa)
#
#
# Indices 1 2 3 4 5 6 
#
# 1 125.9630 35.9645 41.1703 27.7915 11.5558 16.7533
# 2 35.9645 101.0859 43.2237 17.2602 5.8151 8.0001
# 3 41.1703 43.2237 155.7020 -1.0707 17.7566 16.5754
# 4 27.7915 17.2602 -1.0707 43.9276 3.2245 -2.1672
# 5 11.5558 5.8151 17.7566 3.2245 41.8718 5.9526
# 6 16.7533 8.0001 16.5754 -2.1672 5.9526 45.4522
#
#
#
# Elastic Compliance Matrix: (Units=1/GPa)
#
#
# Indices 1 2 3 4 5 6 
#
# 1 0.011018 -0.001628 -0.002052 -0.006467 -0.000991 -0.003205
# 2 -0.001628 0.012489 -0.003033 -0.004018 0.000415 -0.000738
# 3 -0.002052 -0.003033 0.008250 0.002816 -0.002550 -0.001250
# 4 -0.006467 -0.004018 0.002816 0.028800 -0.001588 0.003645
# 5 -0.000991 0.000415 -0.002550 -0.001588 0.025616 -0.002208
# 6 -0.003205 -0.000738 -0.001250 0.003645 -0.002208 0.024231
#
#
# Mechanical properties :
#
#
# Convention : Reuss Voigt Hill
#
# Bulk Modulus (GPa) = 54.54833 69.27420 61.91127
# Shear Modulus (GPa) = 38.47894 43.74314 41.11104
#
# Velocity S-wave (km/s) = 3.75687 4.00562 3.88324
# Velocity P-wave (km/s) = 6.23115 6.84129 6.54333
#
# Compressibility (1/GPa) = 0.01833237
#
# Stress axis : x y z
#
# Youngs Moduli (GPa) = 90.75924 80.06846 121.20692
#
# Poissons Ratio (x) = 0.13035 0.24868
# Poissons Ratio (y) = 0.14775 0.36763
# Poissons Ratio (z) = 0.18621 0.24285
#
# Static dielectric constant tensor:
#      x y z
#    x 2.110760 0.029870 -0.067680 
#    y 0.029870 2.260370 -0.019800 
#    z -0.067680 -0.019800 2.148200 
# 
# From -- ./inp_files/323173.got.cif
#   From: 2010.05.17/outbox.cif.g08.bks.cpg/sg2_162_cif.got.tgz:323173.got - 2010.06.03 11:33:40.
