data_PCOD9026244
_publ_section_title
;
Structure prediction by ZEFSAII (Michael W. Deem and Ramdas Pophale) SiO2 
 PCOD9026244
Probable space group: P -1
;
_chemical_formula_sum "Si O2"
_cell_formula_units_Z 16
_cell_length_a 20.211247
_cell_length_b 19.309280
_cell_length_c 8.370669
_cell_angle_alpha 41.811140
_cell_angle_beta 39.740420
_cell_angle_gamma 21.151639
_cell_volume 747.950348
_symmetry_space_group_name_H-M "P -1"
_symmetry_group_IT_number 2
_symmetry_cell_setting 'triclinic'
loop_
_space_group_symop_operation_xyz
x,y,z
-x,-y,-z
loop_
_atom_site_type_symbol
_atom_site_label
_atom_site_fract_x
_atom_site_fract_y
_atom_site_fract_z
Si Si1 0.808972 0.717813 0.417427
Si Si2 0.826395 0.954145 0.509629
Si Si3 0.338214 0.787490 0.353497
Si Si4 0.425076 0.578381 0.261730
Si Si5 0.450246 0.885794 0.775286
Si Si6 0.762767 0.369400 0.776290
Si Si7 0.431744 0.260825 0.548765
Si Si8 0.813706 0.720435 0.021953
O O1 0.617765 0.817327 0.652848
O O2 0.813710 0.716446 0.220161
O O3 0.000000 0.500000 0.500000
O O4 0.750901 0.884481 0.282629
O O5 0.009692 0.829520 0.276821
O O6 0.824994 0.029743 0.538814
O O7 0.622807 0.142198 0.479268
O O8 0.821579 0.834102 0.761802
O O9 0.306375 0.743863 0.329687
O O10 0.490997 0.593220 0.508197
O O11 0.424957 0.817781 0.065822
O O12 0.302271 0.652262 0.207691
O O13 0.618167 0.471401 0.017050
O O14 0.526166 0.784198 0.639485
O O15 0.728264 0.515115 0.523713
O O16 0.362066 0.206666 0.830590
O O17 0.000000 0.500000 0.000000
#
# Coordination Sequence:
#
# PCOD9026244 Si02
#       8
#     2   2   2   2   2   2   2   2
#     4  10  23  39  62  93 129 168 213 259 319 390
#     4  12  25  41  70  99 128 174 217 261 330 394
#     4  11  22  44  68  95 127 170 220 276 329 370
#     4  10  24  45  69  92 131 171 219 286 325 370
#     4  10  22  41  63  90 130 172 209 262 325 390
#     4  11  23  45  68  94 129 173 218 268 328 391
#     4  11  23  42  65  95 136 172 208 265 326 391
#     4  11  23  40  64  99 133 166 213 259 319 398
#
# _framework density 21.391794000000001
#
# number of rings (size 3 to 8) (size 9 to 14) (size 15 to 20)
#    0.000    1.250    5.000    0.375    1.750    3.000 
#    0.000    1.250    0.000    0.000    0.000    0.000 
#    0.000    0.000    0.000    0.000    0.000    0.000 
#
# Total GULP energy -89248.869559 kJ/mol
# GULP energy per Si atom -5578.054347 kJ/mol
# Density = 2.134311 g / cm^3
# Si number density = 21.391794 Si / 1000 Ang^3
#
#
#
# Elastic Constant Matrix: (Units=GPa)
#
#
# Indices 1 2 3 4 5 6 
#
# 1 61.2901 18.1459 -4.7749 9.8931 -8.9871 10.8452
# 2 18.1459 87.5043 15.2441 6.2025 -19.9554 -0.4591
# 3 -4.7749 15.2441 70.9659 -6.5903 -14.8984 -3.4687
# 4 9.8931 6.2025 -6.5903 28.6944 6.1054 -0.5169
# 5 -8.9871 -19.9554 -14.8984 6.1054 15.0434 -7.0604
# 6 10.8452 -0.4591 -3.4687 -0.5169 -7.0604 29.5914
#
#
#
# Elastic Compliance Matrix: (Units=1/GPa)
#
#
# Indices 1 2 3 4 5 6 
#
# 1 0.022042 0.000339 0.004814 -0.011245 0.021771 -0.002511
# 2 0.000339 0.021255 0.003610 -0.012629 0.041992 0.010427
# 3 0.004814 0.003610 0.020855 -0.004817 0.034436 0.008869
# 4 -0.011245 -0.012629 -0.004817 0.051494 -0.053086 -0.008406
# 5 0.021771 0.041992 0.034436 -0.053086 0.212668 0.046524
# 6 -0.002511 0.010427 0.008869 -0.008406 0.046524 0.046869
#
#
# Mechanical properties :
#
#
# Convention : Reuss Voigt Hill
#
# Bulk Modulus (GPa) = 12.24327 30.77673 21.51000
# Shear Modulus (GPa) = 12.99093 27.40886 20.19989
#
# Velocity S-wave (km/s) = 2.46699 3.58338 3.07625
# Velocity P-wave (km/s) = 3.72162 5.61598 4.76391
#
# Compressibility (1/GPa) = 0.08167754
#
# Stress axis : x y z
#
# Youngs Moduli (GPa) = 45.36774 47.04766 47.94951
#
# Poissons Ratio (x) = -0.01596 -0.23082
# Poissons Ratio (y) = -0.01539 -0.17308
# Poissons Ratio (z) = -0.21839 -0.16982
#
# Static dielectric constant tensor:
#      x y z
#    x 2.035270 0.415360 -0.112600 
#    y 0.415360 2.493840 -0.171760 
#    z -0.112600 -0.171760 1.826200 
# 
# From -- ./inp_files/349692.got.cif
#   From: 2010.05.17/outbox.cif.g08.bks.cpg/sg2_175_cif.got.tgz:349692.got - 2010.06.03 11:33:40.
