data_PCOD9026805
_publ_section_title
;
Structure prediction by ZEFSAII (Michael W. Deem and Ramdas Pophale) SiO2 
 PCOD9026805
Probable space group: P -1
;
_chemical_formula_sum "Si O2"
_cell_formula_units_Z 16
_cell_length_a 10.396858
_cell_length_b 8.454389
_cell_length_c 9.242013
_cell_angle_alpha 82.725990
_cell_angle_beta 70.702608
_cell_angle_gamma 63.458604
_cell_volume 685.705735
_symmetry_space_group_name_H-M "P -1"
_symmetry_group_IT_number 2
_symmetry_cell_setting 'triclinic'
loop_
_space_group_symop_operation_xyz
x,y,z
-x,-y,-z
loop_
_atom_site_type_symbol
_atom_site_label
_atom_site_fract_x
_atom_site_fract_y
_atom_site_fract_z
Si Si1 0.547576 0.645732 0.402733
Si Si2 0.179977 0.242369 0.301524
Si Si3 0.820543 0.679497 0.379024
Si Si4 0.171379 0.847098 0.992846
Si Si5 0.310914 0.829287 0.257553
Si Si6 0.895025 0.185843 0.442369
Si Si7 0.098990 0.524498 0.089534
Si Si8 0.316367 0.908056 0.669711
O O1 0.500000 0.500000 0.500000
O O2 0.724582 0.586344 0.354695
O O3 0.482768 0.711781 0.258571
O O4 0.464743 0.804061 0.531535
O O5 0.184871 0.325704 0.444984
O O6 0.006739 0.268320 0.348505
O O7 0.211813 0.338844 0.141679
O O8 0.276424 0.030088 0.295175
O O9 0.984230 0.616935 0.255138
O O10 0.734992 0.885473 0.345695
O O11 0.229457 0.855930 0.131506
O O12 0.165824 0.659108 0.001280
O O13 0.302103 0.858770 0.844201
O O14 0.000000 0.000000 0.000000
O O15 0.229508 0.733808 0.396742
O O16 0.810998 0.141042 0.349542
O O17 0.000000 0.000000 0.500000
O O18 0.000000 0.500000 0.000000
#
# Coordination Sequence:
#
# PCOD9026805 Si02
#       8
#     2   2   2   2   2   2   2   2
#     4  11  27  45  70  93 133 180 238 279 320 384
#     4  11  22  39  67  99 135 169 222 287 330 399
#     4  12  24  44  69  98 130 180 229 274 332 391
#     4  12  23  42  69 101 140 176 213 267 361 402
#     4  10  22  41  65  97 131 177 221 273 335 400
#     4   9  15  33  62  91 125 158 213 269 330 372
#     4  12  27  40  65 104 143 171 213 283 343 406
#     4  11  22  42  69  93 130 180 222 274 322 412
#
# _framework density 23.333625000000001
#
# number of rings (size 3 to 8) (size 9 to 14) (size 15 to 20)
#    0.000    1.000    5.000    4.500    7.000    0.000 
#    0.000    2.500    0.000    0.000    0.000    0.000 
#    0.000    0.000    0.000    0.000    0.000    0.000 
#
# Total GULP energy -89386.760599 kJ/mol
# GULP energy per Si atom -5586.672537 kJ/mol
# Density = 2.328052 g / cm^3
# Si number density = 23.333625 Si / 1000 Ang^3
#
#
#
# Elastic Constant Matrix: (Units=GPa)
#
#
# Indices 1 2 3 4 5 6 
#
# 1 81.8767 11.8990 5.2969 -11.1008 19.1654 1.5914
# 2 11.8990 83.0426 16.0125 -26.9085 -0.2238 5.3390
# 3 5.2969 16.0125 94.7987 -21.6563 25.6951 7.2996
# 4 -11.1008 -26.9085 -21.6563 35.5387 6.0077 -1.0639
# 5 19.1654 -0.2238 25.6951 6.0077 38.2718 -4.8084
# 6 1.5914 5.3390 7.2996 -1.0639 -4.8084 32.6043
#
#
#
# Elastic Compliance Matrix: (Units=1/GPa)
#
#
# Indices 1 2 3 4 5 6 
#
# 1 0.016871 0.000405 0.005942 0.011572 -0.014757 -0.004019
# 2 0.000405 0.016449 0.001759 0.014220 -0.003925 -0.003222
# 3 0.005942 0.001759 0.020382 0.018857 -0.020559 -0.007558
# 4 0.011572 0.014220 0.018857 0.058589 -0.028756 -0.009444
# 5 -0.014757 -0.003925 -0.020559 -0.028756 0.053434 0.012908
# 6 -0.004019 -0.003222 -0.007558 -0.009444 0.012908 0.034682
#
#
# Mechanical properties :
#
#
# Convention : Reuss Voigt Hill
#
# Bulk Modulus (GPa) = 14.30311 36.23719 25.27015
# Shear Modulus (GPa) = 24.09626 36.38361 30.23993
#
# Velocity S-wave (km/s) = 3.21703 3.95305 3.60388
# Velocity P-wave (km/s) = 4.46566 6.03318 5.30761
#
# Compressibility (1/GPa) = 0.06991487
#
# Stress axis : x y z
#
# Youngs Moduli (GPa) = 59.27158 60.79342 49.06328
#
# Poissons Ratio (x) = -0.02462 -0.29152
# Poissons Ratio (y) = -0.02401 -0.08633
# Poissons Ratio (z) = -0.35217 -0.10696
#
# Static dielectric constant tensor:
#      x y z
#    x 1.889870 -0.047530 0.017260 
#    y -0.047530 1.949550 0.024410 
#    z 0.017260 0.024410 1.818010 
# 
# From -- ./inp_files/238377.got.cif
#   From: 2010.05.17/outbox.cif.g08.bks.cpg/sg2_120_cif.got.tgz:238377.got - 2010.06.03 11:33:40.
