data_PCOD9026369
_publ_section_title
;
Structure prediction by ZEFSAII (Michael W. Deem and Ramdas Pophale) SiO2 
 PCOD9026369
Probable space group: P -1
;
_chemical_formula_sum "Si O2"
_cell_formula_units_Z 14
_cell_length_a 8.541128
_cell_length_b 5.220584
_cell_length_c 12.495261
_cell_angle_alpha 87.515365
_cell_angle_beta 111.812435
_cell_angle_gamma 93.095554
_cell_volume 516.352173
_symmetry_space_group_name_H-M "P -1"
_symmetry_group_IT_number 2
_symmetry_cell_setting 'triclinic'
loop_
_space_group_symop_operation_xyz
x,y,z
-x,-y,-z
loop_
_atom_site_type_symbol
_atom_site_label
_atom_site_fract_x
_atom_site_fract_y
_atom_site_fract_z
Si Si1 0.030737 0.612808 0.124932
Si Si2 0.241899 0.062891 0.991815
Si Si3 0.519656 0.728376 0.125939
Si Si4 0.347678 0.339698 0.221355
Si Si5 0.042459 0.528278 0.662254
Si Si6 0.665252 0.687607 0.545981
Si Si7 0.247137 0.040700 0.649437
O O1 0.945299 0.460858 0.205490
O O2 0.226718 0.583297 0.200338
O O3 0.944981 0.888347 0.097364
O O4 0.000000 0.500000 0.000000
O O5 0.259803 0.161564 0.114711
O O6 0.340723 0.802373 0.027697
O O7 0.356830 0.252983 0.943417
O O8 0.507461 0.477239 0.200980
O O9 0.602037 0.938058 0.225494
O O10 0.350587 0.208953 0.339037
O O11 0.121525 0.265609 0.647962
O O12 0.843754 0.546627 0.586000
O O13 0.143769 0.772691 0.634650
O O14 0.500000 0.500000 0.500000
O O15 0.679608 0.890720 0.450001
#
# Coordination Sequence:
#
# PCOD9026369 Si02
#       7
#     2   2   2   2   2   2   2
#     4   9  20  43  67 102 143 191 237 301 365 435
#     4  10  22  41  64 101 142 190 239 299 361 446
#     4  11  23  38  68 104 138 195 237 299 360 444
#     4  10  22  43  65 101 144 182 247 297 379 419
#     4  11  26  50  75 109 148 198 247 297 370 453
#     4  11  24  49  76 108 146 188 250 312 370 427
#     4  12  26  49  75 108 149 199 247 298 371 444
#
# _framework density 27.11328
#
# number of rings (size 3 to 8) (size 9 to 14) (size 15 to 20)
#    0.000    1.429    2.857    1.286    2.000    5.143 
#   18.000    3.571    0.000    0.000    0.000    0.000 
#    0.000    0.000    0.000    0.000    0.000    0.000 
#
# Total GULP energy -78369.390323 kJ/mol
# GULP energy per Si atom -5597.813595 kJ/mol
# Density = 2.705157 g / cm^3
# Si number density = 27.113280 Si / 1000 Ang^3
#
#
#
# Elastic Constant Matrix: (Units=GPa)
#
#
# Indices 1 2 3 4 5 6 
#
# 1 131.4623 61.6643 73.1879 -39.1526 -5.2851 18.7068
# 2 61.6643 113.7904 35.1871 -25.9204 -10.3446 -0.3545
# 3 73.1879 35.1871 202.2777 -9.0634 -44.9947 4.5653
# 4 -39.1526 -25.9204 -9.0634 28.3731 1.1118 3.0054
# 5 -5.2851 -10.3446 -44.9947 1.1118 68.8871 -19.7224
# 6 18.7068 -0.3545 4.5653 3.0054 -19.7224 47.8279
#
#
#
# Elastic Compliance Matrix: (Units=1/GPa)
#
#
# Indices 1 2 3 4 5 6 
#
# 1 0.025386 -0.005269 -0.008668 0.029376 -0.009212 -0.014786
# 2 -0.005269 0.012683 0.000373 0.004030 0.002510 0.002901
# 3 -0.008668 0.000373 0.009047 -0.009659 0.007205 0.006107
# 4 0.029376 0.004030 -0.009659 0.078879 -0.010385 -0.019777
# 5 -0.009212 0.002510 0.007205 -0.010385 0.022776 0.012979
# 6 -0.014786 0.002901 0.006107 -0.019777 0.012979 0.032725
#
#
# Mechanical properties :
#
#
# Convention : Reuss Voigt Hill
#
# Bulk Modulus (GPa) = 50.02593 87.51212 68.76902
# Shear Modulus (GPa) = 23.22500 47.51702 35.37101
#
# Velocity S-wave (km/s) = 2.92993 4.19087 3.61579
# Velocity P-wave (km/s) = 5.47145 7.46756 6.54604
#
# Compressibility (1/GPa) = 0.01998963
#
# Stress axis : x y z
#
# Youngs Moduli (GPa) = 39.39141 78.84604 110.53458
#
# Poissons Ratio (x) = 0.41541 0.95811
# Poissons Ratio (y) = 0.20754 -0.04127
# Poissons Ratio (z) = 0.34144 -0.02944
#
# Static dielectric constant tensor:
#      x y z
#    x 2.179260 -0.051630 0.024120 
#    y -0.051630 2.110970 -0.007350 
#    z 0.024120 -0.007350 2.086990 
# 
# From -- ./inp_files/372982.got.cif
#   From: 2010.05.17/outbox.cif.g08.bks.cpg/sg2_187_cif.got.tgz:372982.got - 2010.06.03 11:33:40.
