data_PCOD9026737
_publ_section_title
;
Structure prediction by ZEFSAII (Michael W. Deem and Ramdas Pophale) SiO2 
 PCOD9026737
Probable space group: P -1
;
_chemical_formula_sum "Si O2"
_cell_formula_units_Z 14
_cell_length_a 15.760236
_cell_length_b 8.645273
_cell_length_c 5.177372
_cell_angle_alpha 82.799751
_cell_angle_beta 120.648111
_cell_angle_gamma 114.104534
_cell_volume 550.875983
_symmetry_space_group_name_H-M "P -1"
_symmetry_group_IT_number 2
_symmetry_cell_setting 'triclinic'
loop_
_space_group_symop_operation_xyz
x,y,z
-x,-y,-z
loop_
_atom_site_type_symbol
_atom_site_label
_atom_site_fract_x
_atom_site_fract_y
_atom_site_fract_z
Si Si1 0.620482 0.515931 0.640902
Si Si2 0.097284 0.236318 0.062465
Si Si3 0.139045 0.923091 0.071578
Si Si4 0.074444 0.559483 0.850261
Si Si5 0.552957 0.155076 0.744885
Si Si6 0.662379 0.976469 0.267614
Si Si7 0.739711 0.718189 0.277389
O O1 0.500000 0.500000 0.500000
O O2 0.607686 0.324008 0.631922
O O3 0.672110 0.626163 0.448640
O O4 0.687967 0.595083 0.986454
O O5 0.142118 0.236905 0.424669
O O6 0.133526 0.108500 0.975013
O O7 0.136291 0.432501 0.990641
O O8 0.967751 0.156217 0.893660
O O9 0.248441 0.960831 0.386586
O O10 0.126035 0.765821 0.894917
O O11 0.000000 0.500000 0.500000
O O12 0.000000 0.500000 0.000000
O O13 0.453754 0.147956 0.771931
O O14 0.500000 0.000000 0.500000
O O15 0.638763 0.124094 0.064448
O O16 0.709795 0.880840 0.162399
#
# Coordination Sequence:
#
# PCOD9026737 Si02
#       7
#     2   2   2   2   2   2   2
#     4  12  25  43  70  97 136 178 227 281 342 402
#     4   9  21  43  69 100 139 179 227 279 338 412
#     4   9  20  43  69  98 136 181 227 278 344 405
#     4  10  22  41  65  94 133 173 224 277 326 396
#     4  11  25  41  67  97 136 175 228 286 345 407
#     4  10  23  44  67  96 135 178 227 284 341 411
#     4  11  25  44  70 101 135 180 227 281 341 408
#
# _framework density 25.414066999999999
#
# number of rings (size 3 to 8) (size 9 to 14) (size 15 to 20)
#    0.000    1.714    1.429    1.286    6.000    2.857 
#    7.714    4.286    0.000    0.000    0.000    0.000 
#    0.000    0.000    0.000    0.000    0.000    0.000 
#
# Total GULP energy -78342.351606 kJ/mol
# GULP energy per Si atom -5595.882258 kJ/mol
# Density = 2.535622 g / cm^3
# Si number density = 25.414067 Si / 1000 Ang^3
#
#
#
# Elastic Constant Matrix: (Units=GPa)
#
#
# Indices 1 2 3 4 5 6 
#
# 1 80.0697 10.0288 51.3511 -0.2421 13.6054 -15.7639
# 2 10.0288 184.7116 55.5109 5.3438 10.9278 -42.9020
# 3 51.3511 55.5109 155.0286 1.9279 11.3312 -24.5239
# 4 -0.2421 5.3438 1.9279 45.7630 -12.2068 -0.9467
# 5 13.6054 10.9278 11.3312 -12.2068 44.4289 1.0719
# 6 -15.7639 -42.9020 -24.5239 -0.9467 1.0719 47.5443
#
#
#
# Elastic Compliance Matrix: (Units=1/GPa)
#
#
# Indices 1 2 3 4 5 6 
#
# 1 0.017521 0.002179 -0.005404 -0.001153 -0.004962 0.005077
# 2 0.002179 0.007668 -0.002237 -0.001323 -0.002503 0.006518
# 3 -0.005404 -0.002237 0.009209 -0.000194 -0.000220 0.000941
# 4 -0.001153 -0.001323 -0.000194 0.023937 0.007338 -0.001365
# 5 -0.004962 -0.002503 -0.000220 0.007338 0.026823 -0.004476
# 6 0.005077 0.006518 0.000941 -0.001365 -0.004476 0.029157
#
#
# Mechanical properties :
#
#
# Convention : Reuss Voigt Hill
#
# Bulk Modulus (GPa) = 42.59983 72.62129 57.61056
# Shear Modulus (GPa) = 37.57611 47.74184 42.65897
#
# Velocity S-wave (km/s) = 3.84937 4.33894 4.10146
# Velocity P-wave (km/s) = 6.04612 7.33070 6.71918
#
# Compressibility (1/GPa) = 0.02347427
#
# Stress axis : x y z
#
# Youngs Moduli (GPa) = 57.07444 130.41087 108.59470
#
# Poissons Ratio (x) = -0.28414 0.58680
# Poissons Ratio (y) = -0.12435 0.24291
# Poissons Ratio (z) = 0.30841 0.29171
#
# Static dielectric constant tensor:
#      x y z
#    x 2.152230 0.033870 -0.033650 
#    y 0.033870 2.095360 -0.037710 
#    z -0.033650 -0.037710 1.955380 
# 
# From -- ./inp_files/105081.got.cif
#   From: 2010.05.17/outbox.cif.g08.bks.cpg/sg2_53_cif.got.tgz:105081.got - 2010.06.03 11:33:40.
