data_PCOD9026706
_publ_section_title
;
Structure prediction by ZEFSAII (Michael W. Deem and Ramdas Pophale) SiO2 
 PCOD9026706
Probable space group: P -1
;
_chemical_formula_sum "Si O2"
_cell_formula_units_Z 16
_cell_length_a 14.958700
_cell_length_b 9.173216
_cell_length_c 12.047545
_cell_angle_alpha 83.576195
_cell_angle_beta 93.527630
_cell_angle_gamma 28.822744
_cell_volume 746.773003
_symmetry_space_group_name_H-M "P -1"
_symmetry_group_IT_number 2
_symmetry_cell_setting 'triclinic'
loop_
_space_group_symop_operation_xyz
x,y,z
-x,-y,-z
loop_
_atom_site_type_symbol
_atom_site_label
_atom_site_fract_x
_atom_site_fract_y
_atom_site_fract_z
Si Si1 0.864925 0.837269 0.102282
Si Si2 0.561151 0.260718 0.588385
Si Si3 0.208505 0.728660 0.984829
Si Si4 0.159824 0.178293 0.151083
Si Si5 0.436165 0.890114 0.803280
Si Si6 0.219180 0.458846 0.838601
Si Si7 0.661089 0.872049 0.469327
Si Si8 0.831199 0.356798 0.425751
O O1 0.087177 0.450634 0.148570
O O2 0.821884 0.070118 0.089345
O O3 0.753306 0.922855 0.186542
O O4 0.782733 0.915758 0.965800
O O5 0.500000 0.500000 0.500000
O O6 0.370424 0.439560 0.586593
O O7 0.679843 0.109813 0.724691
O O8 0.693273 0.963488 0.543769
O O9 0.263982 0.526233 0.916916
O O10 0.374285 0.475863 0.113205
O O11 0.000000 0.000000 0.000000
O O12 0.960407 0.373100 0.136649
O O13 0.405488 0.086251 0.852841
O O14 0.424703 0.942790 0.669010
O O15 0.150158 0.623004 0.701781
O O16 0.832562 0.507147 0.482613
O O17 0.500000 0.000000 0.500000
O O18 0.000000 0.000000 0.500000
#
# Coordination Sequence:
#
# PCOD9026706 Si02
#       8
#     2   2   2   2   2   2   2   2
#     4  10  23  41  64  93 131 171 210 272 318 381
#     4  11  24  39  69  95 126 176 215 265 329 383
#     4  12  24  37  63  98 124 170 215 261 326 376
#     4  10  22  43  62  91 135 166 213 261 328 383
#     4  10  23  42  66  90 131 165 213 271 322 385
#     4  10  22  42  61  90 128 167 210 263 321 381
#     4   9  22  44  64  93 124 168 212 265 323 377
#     4  10  22  41  65  93 126 168 214 269 316 380
#
# _framework density 21.425519000000001
#
# number of rings (size 3 to 8) (size 9 to 14) (size 15 to 20)
#    0.000    1.750    1.250    1.500    3.500    7.000 
#    0.000    8.750    0.000    0.000    0.000    0.000 
#    0.000    0.000    0.000    0.000    0.000    0.000 
#
# Total GULP energy -89362.043372 kJ/mol
# GULP energy per Si atom -5585.127711 kJ/mol
# Density = 2.137675 g / cm^3
# Si number density = 21.425519 Si / 1000 Ang^3
#
#
#
# Elastic Constant Matrix: (Units=GPa)
#
#
# Indices 1 2 3 4 5 6 
#
# 1 56.8784 10.0667 22.3186 5.2216 -21.2511 18.0126
# 2 10.0667 32.4158 19.7864 -9.9383 -3.8504 7.2866
# 3 22.3186 19.7864 86.6304 6.5111 -26.3871 8.5522
# 4 5.2216 -9.9383 6.5111 38.6296 0.0683 -10.3422
# 5 -21.2511 -3.8504 -26.3871 0.0683 33.8200 -1.8253
# 6 18.0126 7.2866 8.5522 -10.3422 -1.8253 33.2098
#
#
#
# Elastic Compliance Matrix: (Units=1/GPa)
#
#
# Indices 1 2 3 4 5 6 
#
# 1 0.033275 -0.008964 0.002741 -0.012533 0.020998 -0.019536
# 2 -0.008964 0.043999 -0.012198 0.015290 -0.010033 0.002559
# 3 0.002741 -0.012198 0.019429 -0.008299 0.015209 -0.005562
# 4 -0.012533 0.015290 -0.008299 0.037371 -0.011791 0.016570
# 5 0.020998 -0.010033 0.015209 -0.011791 0.052761 -0.013876
# 6 -0.019536 0.002559 -0.005562 0.016570 -0.013876 0.045976
#
#
# Mechanical properties :
#
#
# Convention : Reuss Voigt Hill
#
# Bulk Modulus (GPa) = 16.70527 31.14089 23.92308
# Shear Modulus (GPa) = 17.26483 29.38208 23.32345
#
# Velocity S-wave (km/s) = 2.84175 3.70720 3.30295
# Velocity P-wave (km/s) = 4.31060 5.73503 5.07305
#
# Compressibility (1/GPa) = 0.05986137
#
# Stress axis : x y z
#
# Youngs Moduli (GPa) = 30.05271 22.72766 51.47069
#
# Poissons Ratio (x) = 0.20373 -0.14109
# Poissons Ratio (y) = 0.26938 0.62784
# Poissons Ratio (z) = -0.08238 0.27723
#
# Static dielectric constant tensor:
#      x y z
#    x 1.810390 0.030970 -0.000260 
#    y 0.030970 1.833870 -0.026050 
#    z -0.000260 -0.026050 1.764920 
# 
# From -- ./inp_files/189184.got.cif
#   From: 2010.05.17/outbox.cif.g08.bks.cpg/sg2_95_cif.got.tgz:189184.got - 2010.06.03 11:33:40.
