data_PCOD9026989
_publ_section_title
;
Structure prediction by ZEFSAII (Michael W. Deem and Ramdas Pophale) SiO2 
 PCOD9026989
Probable space group: P -1
;
_chemical_formula_sum "Si O2"
_cell_formula_units_Z 16
_cell_length_a 12.660649
_cell_length_b 9.475039
_cell_length_c 10.843724
_cell_angle_alpha 86.387577
_cell_angle_beta 83.554365
_cell_angle_gamma 146.098410
_cell_volume 691.749217
_symmetry_space_group_name_H-M "P -1"
_symmetry_group_IT_number 2
_symmetry_cell_setting 'triclinic'
loop_
_space_group_symop_operation_xyz
x,y,z
-x,-y,-z
loop_
_atom_site_type_symbol
_atom_site_label
_atom_site_fract_x
_atom_site_fract_y
_atom_site_fract_z
Si Si1 0.621674 0.102396 0.697808
Si Si2 0.122660 0.950772 0.728824
Si Si3 0.242401 0.058907 0.269915
Si Si4 0.019011 0.110339 0.866931
Si Si5 0.103104 0.373287 0.474505
Si Si6 0.155212 0.587189 0.113017
Si Si7 0.200418 0.612012 0.826419
Si Si8 0.559110 0.480457 0.615577
O O1 0.645673 0.962740 0.726462
O O2 0.780925 0.348058 0.570055
O O3 0.681326 0.242036 0.812497
O O4 0.392735 0.870598 0.709672
O O5 0.045046 0.819463 0.611108
O O6 0.812415 0.948620 0.858650
O O7 0.085723 0.073240 0.756079
O O8 0.353904 0.180316 0.703005
O O9 0.030932 0.794705 0.379327
O O10 0.356677 0.312657 0.309812
O O11 0.169647 0.409507 0.841679
O O12 0.015793 0.293171 0.147939
O O13 0.000000 0.000000 0.000000
O O14 0.273000 0.445527 0.438807
O O15 0.003272 0.540389 0.175741
O O16 0.231996 0.695275 0.959809
O O17 0.500000 0.500000 0.500000
#
# Coordination Sequence:
#
# PCOD9026989 Si02
#       8
#     2   2   2   2   2   2   2   2
#     4  11  24  42  68 102 131 175 224 280 333 399
#     4  11  22  42  67  98 135 172 226 269 337 394
#     4  12  24  46  66  99 142 176 222 282 333 396
#     4  12  24  44  67  98 135 181 220 275 337 390
#     4  11  24  44  68  99 138 177 220 279 337 396
#     4  10  22  41  66  93 134 175 219 277 328 395
#     4  11  22  43  66  94 133 177 224 269 336 393
#     4  12  23  41  70 101 130 179 227 269 333 404
#
# _framework density 23.129770000000001
#
# number of rings (size 3 to 8) (size 9 to 14) (size 15 to 20)
#    0.000    0.750    5.000    3.375    0.000    0.000 
#    0.000    6.250    0.000    0.000    0.000    0.000 
#    0.000    0.000    0.000    0.000    0.000    0.000 
#
# Total GULP energy -89550.705196 kJ/mol
# GULP energy per Si atom -5596.919075 kJ/mol
# Density = 2.307713 g / cm^3
# Si number density = 23.129770 Si / 1000 Ang^3
#
#
#
# Elastic Constant Matrix: (Units=GPa)
#
#
# Indices 1 2 3 4 5 6 
#
# 1 79.6443 46.7136 4.8293 -7.0116 5.1809 -19.1814
# 2 46.7136 107.1769 27.4712 -21.5661 -3.3184 6.0531
# 3 4.8293 27.4712 49.4766 -4.2223 8.6664 7.2795
# 4 -7.0116 -21.5661 -4.2223 29.5744 6.6865 -2.4557
# 5 5.1809 -3.3184 8.6664 6.6865 31.7699 5.5664
# 6 -19.1814 6.0531 7.2795 -2.4557 5.5664 31.4181
#
#
#
# Elastic Compliance Matrix: (Units=1/GPa)
#
#
# Indices 1 2 3 4 5 6 
#
# 1 0.025457 -0.013353 0.003962 0.000733 -0.010118 0.019047
# 2 -0.013353 0.019687 -0.008630 0.007530 0.006855 -0.010571
# 3 0.003962 -0.008630 0.026231 0.000321 -0.008695 -0.000431
# 4 0.000733 0.007530 0.000321 0.041846 -0.008888 0.003768
# 5 -0.010118 0.006855 -0.008695 -0.008888 0.040422 -0.013340
# 6 0.019047 -0.010571 -0.000431 0.003768 -0.013340 0.048252
#
#
# Mechanical properties :
#
#
# Convention : Reuss Voigt Hill
#
# Bulk Modulus (GPa) = 28.30295 43.81401 36.05848
# Shear Modulus (GPa) = 20.02281 29.03804 24.53043
#
# Velocity S-wave (km/s) = 2.94542 3.54706 3.26015
# Velocity P-wave (km/s) = 4.88165 5.97991 5.45847
#
# Compressibility (1/GPa) = 0.03533201
#
# Stress axis : x y z
#
# Youngs Moduli (GPa) = 39.28152 50.79543 38.12352
#
# Poissons Ratio (x) = 0.67825 -0.15103
# Poissons Ratio (y) = 0.52451 0.32902
# Poissons Ratio (z) = -0.15562 0.43838
#
# Static dielectric constant tensor:
#      x y z
#    x 1.889520 -0.015050 0.001600 
#    y -0.015050 1.853370 -0.012420 
#    z 0.001600 -0.012420 1.877290 
# 
# From -- ./inp_files/515657.got.cif
#   From: 2010.05.17/outbox.cif.g08.bks.cpg/sg2_258_cif.got.tgz:515657.got - 2010.06.03 11:33:40.
