data_PCOD9026412
_publ_section_title
;
Structure prediction by ZEFSAII (Michael W. Deem and Ramdas Pophale) SiO2 
 PCOD9026412
Probable space group: P -1
;
_chemical_formula_sum "Si O2"
_cell_formula_units_Z 14
_cell_length_a 12.680186
_cell_length_b 9.633915
_cell_length_c 7.054006
_cell_angle_alpha 93.325407
_cell_angle_beta 73.676201
_cell_angle_gamma 128.687710
_cell_volume 637.495575
_symmetry_space_group_name_H-M "P -1"
_symmetry_group_IT_number 2
_symmetry_cell_setting 'triclinic'
loop_
_space_group_symop_operation_xyz
x,y,z
-x,-y,-z
loop_
_atom_site_type_symbol
_atom_site_label
_atom_site_fract_x
_atom_site_fract_y
_atom_site_fract_z
Si Si1 0.568168 0.701625 0.161394
Si Si2 0.015923 0.351201 0.049164
Si Si3 0.561114 0.146559 0.589761
Si Si4 0.201574 0.919072 0.118755
Si Si5 0.335856 0.506939 0.960618
Si Si6 0.868341 0.295358 0.491725
Si Si7 0.420511 0.873537 0.895395
O O1 0.526656 0.781917 0.345873
O O2 0.637447 0.611811 0.178785
O O3 0.416701 0.545765 0.123036
O O4 0.688248 0.871095 0.977075
O O5 0.916871 0.259152 0.275054
O O6 0.173959 0.429968 0.033195
O O7 0.952018 0.198340 0.909674
O O8 0.000000 0.500000 0.000000
O O9 0.730859 0.280697 0.523938
O O10 0.547299 0.099520 0.864269
O O11 0.455195 0.920956 0.641961
O O12 0.178395 0.857007 0.342452
O O13 0.272879 0.838098 0.984358
O O14 0.420213 0.708385 0.863764
O O15 0.000000 0.500000 0.500000
#
# Coordination Sequence:
#
# PCOD9026412 Si02
#       7
#     2   2   2   2   2   2   2
#     4  10  22  41  64  90 129 171 204 259 327 367
#     4  12  24  37  62  96 124 163 216 262 313 373
#     4  11  22  36  62  93 123 159 215 260 305 372
#     4  11  21  39  61  90 125 166 208 260 313 374
#     4  11  21  39  65  93 124 169 211 257 317 382
#     4  12  21  35  62  94 123 157 215 264 307 370
#     4  11  17  36  63  87 118 158 213 252 300 365
#
# _framework density 21.960936
#
# number of rings (size 3 to 8) (size 9 to 14) (size 15 to 20)
#    0.000    0.857    7.143    2.571    0.000    0.571 
#    0.000    1.429    0.000    3.429    0.000    0.000 
#    0.000    0.000    0.000    0.000    0.000    0.000 
#
# Total GULP energy -77977.297806 kJ/mol
# GULP energy per Si atom -5569.806986 kJ/mol
# Density = 2.191095 g / cm^3
# Si number density = 21.960936 Si / 1000 Ang^3
#
#
#
# Elastic Constant Matrix: (Units=GPa)
#
#
# Indices 1 2 3 4 5 6 
#
# 1 125.3684 63.6074 46.9953 -7.3745 -21.9226 -5.5677
# 2 63.6074 112.4897 25.4832 0.4054 -7.8817 8.8173
# 3 46.9953 25.4832 122.5771 0.8097 -3.6866 -7.7404
# 4 -7.3745 0.4054 0.8097 21.3182 -0.6352 -8.2861
# 5 -21.9226 -7.8817 -3.6866 -0.6352 28.1419 6.1682
# 6 -5.5677 8.8173 -7.7404 -8.2861 6.1682 49.3485
#
#
#
# Elastic Compliance Matrix: (Units=1/GPa)
#
#
# Indices 1 2 3 4 5 6 
#
# 1 0.015227 -0.007306 -0.003942 0.006765 0.008920 0.002426
# 2 -0.007306 0.013294 -0.000212 -0.004285 -0.001261 -0.003795
# 3 -0.003942 -0.000212 0.009731 -0.001341 -0.002140 0.001162
# 4 0.006765 -0.004285 -0.001341 0.053318 0.002926 0.009905
# 5 0.008920 -0.001261 -0.002140 0.002926 0.042783 -0.003960
# 6 0.002426 -0.003795 0.001162 0.009905 -0.003960 0.023556
#
#
# Mechanical properties :
#
#
# Convention : Reuss Voigt Hill
#
# Bulk Modulus (GPa) = 65.22631 70.28967 67.75799
# Shear Modulus (GPa) = 26.89041 34.71833 30.80437
#
# Velocity S-wave (km/s) = 3.50303 3.98038 3.74931
# Velocity P-wave (km/s) = 6.79170 7.29389 7.04727
#
# Compressibility (1/GPa) = 0.01533124
#
# Stress axis : x y z
#
# Youngs Moduli (GPa) = 65.67422 75.22418 102.76073
#
# Poissons Ratio (x) = 0.54962 0.40509
# Poissons Ratio (y) = 0.47985 0.02175
# Poissons Ratio (z) = 0.25889 0.01592
#
# Static dielectric constant tensor:
#      x y z
#    x 1.968150 0.115150 0.424940 
#    y 0.115150 1.886530 0.182570 
#    z 0.424940 0.182570 2.642970 
# 
# From -- ./inp_files/303445.got.cif
#   From: 2010.05.17/outbox.cif.g08.bks.cpg/sg2_152_cif.got.tgz:303445.got - 2010.06.03 11:33:40.
