data_PCOD9026261
_publ_section_title
;
Structure prediction by ZEFSAII (Michael W. Deem and Ramdas Pophale) SiO2 
 PCOD9026261
Probable space group: P -1
;
_chemical_formula_sum "Si O2"
_cell_formula_units_Z 14
_cell_length_a 9.048415
_cell_length_b 9.172172
_cell_length_c 17.603736
_cell_angle_alpha 134.724363
_cell_angle_beta 132.873052
_cell_angle_gamma 31.959862
_cell_volume 535.797435
_symmetry_space_group_name_H-M "P -1"
_symmetry_group_IT_number 2
_symmetry_cell_setting 'triclinic'
loop_
_space_group_symop_operation_xyz
x,y,z
-x,-y,-z
loop_
_atom_site_type_symbol
_atom_site_label
_atom_site_fract_x
_atom_site_fract_y
_atom_site_fract_z
Si Si1 0.836489 0.204213 0.945893
Si Si2 0.518693 0.422502 0.708601
Si Si3 0.657568 0.883965 0.746704
Si Si4 0.772388 0.747411 0.450627
Si Si5 0.833815 0.626414 0.150546
Si Si6 0.873130 0.935378 0.155819
Si Si7 0.315632 0.500599 0.494695
O O1 0.703217 0.092844 0.825348
O O2 0.052846 0.132476 0.931337
O O3 0.678709 0.524479 0.036219
O O4 0.000000 0.000000 0.000000
O O5 0.330673 0.387762 0.674752
O O6 0.448332 0.454140 0.606274
O O7 0.852786 0.150052 0.740886
O O8 0.408584 0.724215 0.806936
O O9 0.356279 0.090690 0.759457
O O10 0.891608 0.630239 0.796170
O O11 0.000000 0.500000 0.500000
O O12 0.966378 0.768848 0.479502
O O13 0.500000 0.000000 0.500000
O O14 0.341839 0.250397 0.378437
O O15 0.869895 0.724997 0.121989
O O16 0.500000 0.500000 0.500000
#
# Coordination Sequence:
#
# PCOD9026261 Si02
#       7
#     2   2   2   2   2   2   2
#     4  10  25  48  72 101 135 179 236 301 363 428
#     4  11  25  43  66 103 145 188 235 286 351 436
#     4  11  25  44  70 102 142 187 235 290 359 425
#     4  10  22  41  63  91 136 191 237 283 342 411
#     4  11  24  45  69 102 139 181 235 298 361 424
#     4  12  24  44  72 103 138 185 235 292 359 432
#     4  11  23  43  69 104 145 191 240 294 348 420
#
# _framework density 26.129276999999998
#
# number of rings (size 3 to 8) (size 9 to 14) (size 15 to 20)
#    0.000    1.143    0.000    6.000    0.000   10.286 
#    0.000   13.571    0.000    0.000    0.000    0.000 
#    0.000    0.000    0.000    0.000    0.000    0.000 
#
# Total GULP energy -78326.604464 kJ/mol
# GULP energy per Si atom -5594.757462 kJ/mol
# Density = 2.606981 g / cm^3
# Si number density = 26.129277 Si / 1000 Ang^3
#
#
#
# Elastic Constant Matrix: (Units=GPa)
#
#
# Indices 1 2 3 4 5 6 
#
# 1 159.5045 26.1937 24.9508 -8.9733 -8.6418 -0.6945
# 2 26.1937 120.8390 24.4453 0.2152 -15.1585 -18.9537
# 3 24.9508 24.4453 119.5096 6.3663 -21.4434 8.5494
# 4 -8.9733 0.2152 6.3663 45.4674 1.8566 -6.8130
# 5 -8.6418 -15.1585 -21.4434 1.8566 51.3454 0.5441
# 6 -0.6945 -18.9537 8.5494 -6.8130 0.5441 35.3030
#
#
#
# Elastic Compliance Matrix: (Units=1/GPa)
#
#
# Indices 1 2 3 4 5 6 
#
# 1 0.006751 -0.001179 -0.001214 0.001511 0.000226 0.000082
# 2 -0.001179 0.010102 -0.001957 0.000816 0.001874 0.006003
# 3 -0.001214 -0.001957 0.010075 -0.002390 0.003555 -0.004030
# 4 0.001511 0.000816 -0.002390 0.023521 -0.001413 0.005608
# 5 0.000226 0.001874 0.003555 -0.001413 0.021607 -0.000456
# 6 0.000082 0.006003 -0.004030 0.005608 -0.000456 0.033616
#
#
# Mechanical properties :
#
#
# Convention : Reuss Voigt Hill
#
# Bulk Modulus (GPa) = 54.86380 61.22586 58.04483
# Shear Modulus (GPa) = 41.51178 48.04071 44.77624
#
# Velocity S-wave (km/s) = 3.99018 4.29252 4.14411
# Velocity P-wave (km/s) = 6.50165 6.93184 6.72018
#
# Compressibility (1/GPa) = 0.01822695
#
# Stress axis : x y z
#
# Youngs Moduli (GPa) = 148.13612 98.98887 99.25856
#
# Poissons Ratio (x) = 0.11674 0.12050
# Poissons Ratio (y) = 0.17469 0.19424
# Poissons Ratio (z) = 0.17984 0.19371
#
# Static dielectric constant tensor:
#      x y z
#    x 2.205830 0.001900 0.056770 
#    y 0.001900 2.149090 0.025140 
#    z 0.056770 0.025140 2.078240 
# 
# From -- ./inp_files/223724.got.cif
#   From: 2010.05.17/outbox.cif.g08.bks.cpg/sg2_112_cif.got.tgz:223724.got - 2010.06.03 11:33:40.
