data_PCOD9026341
_publ_section_title
;
Structure prediction by ZEFSAII (Michael W. Deem and Ramdas Pophale) SiO2 
 PCOD9026341
Probable space group: P -1
;
_chemical_formula_sum "Si O2"
_cell_formula_units_Z 14
_cell_length_a 13.999243
_cell_length_b 9.645272
_cell_length_c 9.104903
_cell_angle_alpha 86.901483
_cell_angle_beta 132.180745
_cell_angle_gamma 124.764844
_cell_volume 629.829803
_symmetry_space_group_name_H-M "P -1"
_symmetry_group_IT_number 2
_symmetry_cell_setting 'triclinic'
loop_
_space_group_symop_operation_xyz
x,y,z
-x,-y,-z
loop_
_atom_site_type_symbol
_atom_site_label
_atom_site_fract_x
_atom_site_fract_y
_atom_site_fract_z
Si Si1 0.742150 0.564151 0.531883
Si Si2 0.088023 0.178622 0.774764
Si Si3 0.978099 0.642859 0.496826
Si Si4 0.698320 0.773904 0.289284
Si Si5 0.529157 0.871892 0.613767
Si Si6 0.396745 0.046909 0.966580
Si Si7 0.294560 0.267501 0.280206
O O1 0.865153 0.594325 0.528733
O O2 0.618967 0.580679 0.308284
O O3 0.652644 0.366684 0.538272
O O4 0.825767 0.734044 0.729035
O O5 0.099107 0.347769 0.731364
O O6 0.193628 0.189551 0.746889
O O7 0.195887 0.220857 0.027821
O O8 0.869008 0.967971 0.552539
O O9 0.000000 0.500000 0.500000
O O10 0.179951 0.862347 0.722098
O O11 0.552297 0.773720 0.081440
O O12 0.666535 0.869240 0.670764
O O13 0.500000 0.000000 0.500000
O O14 0.581644 0.931999 0.836865
O O15 0.500000 0.000000 0.000000
O O16 0.500000 0.500000 0.500000
#
# Coordination Sequence:
#
# PCOD9026341 Si02
#       7
#     2   2   2   2   2   2   2
#     4  10  23  42  66  98 130 175 228 266 340 396
#     4   9  18  39  65  91 131 172 217 278 324 394
#     4  10  22  43  66  98 134 171 228 281 332 394
#     4   9  19  38  67  95 124 167 228 275 326 389
#     4  11  25  44  61  94 143 177 215 277 338 400
#     4  11  23  41  68  99 130 175 220 279 342 388
#     4  10  22  41  63  97 136 179 224 265 335 402
#
# _framework density 22.228225999999999
#
# number of rings (size 3 to 8) (size 9 to 14) (size 15 to 20)
#    0.000    2.000    1.429    1.714    2.000    3.429 
#    5.143    1.429    0.000    0.000    0.000    0.000 
#    0.000    0.000    0.000    0.000    0.000    0.000 
#
# Total GULP energy -78012.717679 kJ/mol
# GULP energy per Si atom -5572.336977 kJ/mol
# Density = 2.217763 g / cm^3
# Si number density = 22.228226 Si / 1000 Ang^3
#
#
#
# Elastic Constant Matrix: (Units=GPa)
#
#
# Indices 1 2 3 4 5 6 
#
# 1 103.5832 58.7707 24.7306 -20.2027 -10.9895 -25.8016
# 2 58.7707 155.4427 65.1744 -44.7323 0.7604 -26.2919
# 3 24.7306 65.1744 114.1158 -26.5915 -16.3767 -12.4261
# 4 -20.2027 -44.7323 -26.5915 41.3758 -5.1047 11.0267
# 5 -10.9895 0.7604 -16.3767 -5.1047 34.5848 -2.0214
# 6 -25.8016 -26.2919 -12.4261 11.0267 -2.0214 42.3496
#
#
#
# Elastic Compliance Matrix: (Units=1/GPa)
#
#
# Indices 1 2 3 4 5 6 
#
# 1 0.014434 -0.004377 0.001470 0.002363 0.006089 0.006183
# 2 -0.004377 0.012519 -0.004612 0.007676 -0.002622 0.001628
# 3 0.001470 -0.004612 0.013491 0.005084 0.007768 0.001038
# 4 0.002363 0.007676 0.005084 0.038452 0.008554 -0.001907
# 5 0.006089 -0.002622 0.007768 0.008554 0.036073 0.003856
# 6 0.006183 0.001628 0.001038 -0.001907 0.003856 0.029376
#
#
# Mechanical properties :
#
#
# Convention : Reuss Voigt Hill
#
# Bulk Modulus (GPa) = 39.36210 74.49924 56.93067
# Shear Modulus (GPa) = 29.78830 38.62642 34.20736
#
# Velocity S-wave (km/s) = 3.66472 4.17312 3.92716
# Velocity P-wave (km/s) = 5.97106 7.53713 6.79933
#
# Compressibility (1/GPa) = 0.02540515
#
# Stress axis : x y z
#
# Youngs Moduli (GPa) = 69.28192 79.87845 74.12521
#
# Poissons Ratio (x) = 0.34966 -0.10895
# Poissons Ratio (y) = 0.30328 0.34183
# Poissons Ratio (z) = -0.10183 0.36836
#
# Static dielectric constant tensor:
#      x y z
#    x 1.860600 0.085850 0.013270 
#    y 0.085850 1.787440 0.045670 
#    z 0.013270 0.045670 1.838510 
# 
# From -- ./inp_files/219034.got.cif
#   From: 2010.05.17/outbox.cif.g08.bks.cpg/sg2_110_cif.got.tgz:219034.got - 2010.06.03 11:33:40.
