data_PCOD9026485
_publ_section_title
;
Structure prediction by ZEFSAII (Michael W. Deem and Ramdas Pophale) SiO2 
 PCOD9026485
Probable space group: P -1
;
_chemical_formula_sum "Si O2"
_cell_formula_units_Z 12
_cell_length_a 5.200695
_cell_length_b 13.287598
_cell_length_c 7.751755
_cell_angle_alpha 102.058554
_cell_angle_beta 117.923494
_cell_angle_gamma 80.730167
_cell_volume 461.629712
_symmetry_space_group_name_H-M "P -1"
_symmetry_group_IT_number 2
_symmetry_cell_setting 'triclinic'
loop_
_space_group_symop_operation_xyz
x,y,z
-x,-y,-z
loop_
_atom_site_type_symbol
_atom_site_label
_atom_site_fract_x
_atom_site_fract_y
_atom_site_fract_z
Si Si1 0.118339 0.721758 0.438331
Si Si2 0.656929 0.586302 0.405788
Si Si3 0.178898 0.035324 0.234600
Si Si4 0.252422 0.079182 0.743046
Si Si5 0.399128 0.206931 0.157505
Si Si6 0.226332 0.433606 0.165100
O O1 0.371111 0.664755 0.379687
O O2 0.293079 0.755867 0.673873
O O3 0.880762 0.642932 0.382509
O O4 0.951036 0.823224 0.346846
O O5 0.535096 0.483946 0.250831
O O6 0.791631 0.561601 0.629295
O O7 0.480252 0.962929 0.306471
O O8 0.959309 0.010036 0.307351
O O9 0.264299 0.150359 0.259925
O O10 0.000000 0.000000 0.000000
O O11 0.403579 0.123103 0.978430
O O12 0.222943 0.312380 0.081641
O O13 0.000000 0.500000 0.000000
#
# Coordination Sequence:
#
# PCOD9026485 Si02
#       6
#     2   2   2   2   2   2
#     4  11  24  42  66  95 128 165 207 256 312 374
#     4  10  24  43  62  96 133 158 205 268 307 360
#     4  10  22  41  64  93 129 164 206 262 310 363
#     4  11  23  42  66  92 128 167 206 256 313 372
#     4  10  23  40  64  93 126 166 211 258 311 371
#     4  10  22  42  68  93 125 169 211 255 315 375
#
# _framework density 25.994862000000001
#
# number of rings (size 3 to 8) (size 9 to 14) (size 15 to 20)
#    0.000    1.667    0.000    4.000    0.000   18.000 
#    0.000    5.000    0.000    0.000    0.000    0.000 
#    0.000    0.000    0.000    0.000    0.000    0.000 
#
# Total GULP energy -67298.330008 kJ/mol
# GULP energy per Si atom -5608.194167 kJ/mol
# Density = 2.593570 g / cm^3
# Si number density = 25.994862 Si / 1000 Ang^3
#
#
#
# Elastic Constant Matrix: (Units=GPa)
#
#
# Indices 1 2 3 4 5 6 
#
# 1 143.8018 62.7221 28.3289 1.7946 21.3390 -0.7372
# 2 62.7221 206.7020 34.9320 -7.9354 17.4656 3.2159
# 3 28.3289 34.9320 88.5415 -5.9796 9.7243 -8.0613
# 4 1.7946 -7.9354 -5.9796 56.9685 -5.9940 13.4034
# 5 21.3390 17.4656 9.7243 -5.9940 35.5365 -1.1759
# 6 -0.7372 3.2159 -8.0613 13.4034 -1.1759 49.2461
#
#
#
# Elastic Compliance Matrix: (Units=1/GPa)
#
#
# Indices 1 2 3 4 5 6 
#
# 1 0.008802 -0.002112 -0.001603 -0.001218 -0.004006 0.000243
# 2 -0.002112 0.005879 -0.001552 0.000825 -0.001088 -0.000920
# 3 -0.001603 -0.001552 0.012815 0.000540 -0.001624 0.001989
# 4 -0.001218 0.000825 0.000540 0.019322 0.003267 -0.005165
# 5 -0.004006 -0.001088 -0.001624 0.003267 0.032063 -0.000378
# 6 0.000243 -0.000920 0.001989 -0.005165 -0.000378 0.022092
#
#
# Mechanical properties :
#
#
# Convention : Reuss Voigt Hill
#
# Bulk Modulus (GPa) = 58.95660 76.77904 67.86782
# Shear Modulus (GPa) = 42.67560 49.22103 45.94831
#
# Velocity S-wave (km/s) = 4.05618 4.35615 4.20884
# Velocity P-wave (km/s) = 6.68327 7.40957 7.05577
#
# Compressibility (1/GPa) = 0.01696163
#
# Stress axis : x y z
#
# Youngs Moduli (GPa) = 113.61106 170.09781 78.03060
#
# Poissons Ratio (x) = 0.35925 0.12509
# Poissons Ratio (y) = 0.23995 0.12113
# Poissons Ratio (z) = 0.18213 0.26404
#
# Static dielectric constant tensor:
#      x y z
#    x 2.043200 -0.029270 -0.055670 
#    y -0.029270 2.035790 -0.026360 
#    z -0.055670 -0.026360 2.103600 
# 
# From -- ./inp_files/132463.got.cif
#   From: 2010.05.17/outbox.cif.g08.bks.cpg/sg2_67_cif.got.tgz:132463.got - 2010.06.03 11:33:40.
