data_PCOD9026129
_publ_section_title
;
Structure prediction by ZEFSAII (Michael W. Deem and Ramdas Pophale) SiO2 
 PCOD9026129
Probable space group: P -1
;
_chemical_formula_sum "Si O2"
_cell_formula_units_Z 12
_cell_length_a 5.064788
_cell_length_b 9.052456
_cell_length_c 12.380646
_cell_angle_alpha 67.998782
_cell_angle_beta 90.846997
_cell_angle_gamma 78.881861
_cell_volume 514.054018
_symmetry_space_group_name_H-M "P -1"
_symmetry_group_IT_number 2
_symmetry_cell_setting 'triclinic'
loop_
_space_group_symop_operation_xyz
x,y,z
-x,-y,-z
loop_
_atom_site_type_symbol
_atom_site_label
_atom_site_fract_x
_atom_site_fract_y
_atom_site_fract_z
Si Si1 0.435830 0.202443 0.839624
Si Si2 0.809194 0.663293 0.410901
Si Si3 0.260565 0.464680 0.936122
Si Si4 0.999302 0.064097 0.780112
Si Si5 0.476218 0.813954 0.565296
Si Si6 0.999104 0.760780 0.713151
O O1 0.330286 0.336843 0.707071
O O2 0.349394 0.289141 0.928121
O O3 0.748830 0.135362 0.836303
O O4 0.272512 0.061696 0.849776
O O5 0.577449 0.721584 0.481378
O O6 0.000000 0.500000 0.500000
O O7 0.975563 0.805106 0.350034
O O8 0.175548 0.596147 0.805923
O O9 0.500000 0.500000 0.000000
O O10 0.000000 0.500000 0.000000
O O11 0.972748 0.899243 0.766993
O O12 0.178571 0.807837 0.603947
O O13 0.705057 0.744668 0.675489
O O14 0.500000 0.000000 0.500000
#
# Coordination Sequence:
#
# PCOD9026129 Si02
#       6
#     2   2   2   2   2   2
#     4  10  23  43  63  92 133 161 222 268 321 390
#     4  10  23  36  62  94 138 174 213 248 327 389
#     4  12  27  49  72  95 123 173 230 289 343 377
#     4  10  22  41  62  92 136 171 204 264 320 382
#     4  12  23  39  65 103 140 182 210 254 322 404
#     4  12  25  43  67  99 139 172 227 272 314 396
#
# _framework density 23.343851000000001
#
# number of rings (size 3 to 8) (size 9 to 14) (size 15 to 20)
#    1.000    0.000    1.667    5.500    4.667    0.667 
#    0.000    5.000    0.000    0.000    0.000    0.000 
#    0.000    0.000    0.000    0.000    0.000    0.000 
#
# Total GULP energy -67147.190208 kJ/mol
# GULP energy per Si atom -5595.599184 kJ/mol
# Density = 2.329072 g / cm^3
# Si number density = 23.343851 Si / 1000 Ang^3
#
#
#
# Elastic Constant Matrix: (Units=GPa)
#
#
# Indices 1 2 3 4 5 6 
#
# 1 102.6084 9.3672 0.9482 17.7898 -9.5472 -11.4290
# 2 9.3672 109.7239 23.1547 38.7984 -10.2440 -15.4424
# 3 0.9482 23.1547 35.7847 10.7220 -3.5219 -2.9660
# 4 17.7898 38.7984 10.7220 50.6612 -11.7217 1.2837
# 5 -9.5472 -10.2440 -3.5219 -11.7217 41.7878 13.9484
# 6 -11.4290 -15.4424 -2.9660 1.2837 13.9484 34.9452
#
#
#
# Elastic Compliance Matrix: (Units=1/GPa)
#
#
# Indices 1 2 3 4 5 6 
#
# 1 0.011009 0.001363 0.000748 -0.005190 -0.000036 0.004471
# 2 0.001363 0.015318 -0.006008 -0.011706 -0.002428 0.008105
# 3 0.000748 -0.006008 0.032616 -0.002402 0.000720 0.000159
# 4 -0.005190 -0.011706 -0.002402 0.033445 0.009109 -0.011938
# 5 -0.000036 -0.002428 0.000720 0.009109 0.030453 -0.013514
# 6 0.004471 0.008105 0.000159 -0.011938 -0.013514 0.039506
#
#
# Mechanical properties :
#
#
# Convention : Reuss Voigt Hill
#
# Bulk Modulus (GPa) = 19.54993 35.00633 27.27813
# Shear Modulus (GPa) = 26.71077 39.78863 33.24970
#
# Velocity S-wave (km/s) = 3.38632 4.13299 3.77814
# Velocity P-wave (km/s) = 4.86647 6.14849 5.54466
#
# Compressibility (1/GPa) = 0.05115107
#
# Stress axis : x y z
#
# Youngs Moduli (GPa) = 90.83530 65.28136 30.65962
#
# Poissons Ratio (x) = -0.08900 -0.02294
# Poissons Ratio (y) = -0.12384 0.18420
# Poissons Ratio (z) = -0.06797 0.39220
#
# Static dielectric constant tensor:
#      x y z
#    x 2.127900 -0.330840 -0.313020 
#    y -0.330840 2.286260 0.368270 
#    z -0.313020 0.368270 2.276330 
# 
# From -- ./inp_files/73704.got.cif
#   From: 2010.05.17/outbox.cif.g08.bks.cpg/sg2_37_cif.got.tgz:73704.got - 2010.06.03 11:33:40.
