data_PCOD9026279
_publ_section_title
;
Structure prediction by ZEFSAII (Michael W. Deem and Ramdas Pophale) SiO2 
 PCOD9026279
Probable space group: P -1
;
_chemical_formula_sum "Si O2"
_cell_formula_units_Z 14
_cell_length_a 6.994221
_cell_length_b 15.981185
_cell_length_c 8.971240
_cell_angle_alpha 50.043437
_cell_angle_beta 124.202298
_cell_angle_gamma 102.413415
_cell_volume 618.626185
_symmetry_space_group_name_H-M "P -1"
_symmetry_group_IT_number 2
_symmetry_cell_setting 'triclinic'
loop_
_space_group_symop_operation_xyz
x,y,z
-x,-y,-z
loop_
_atom_site_type_symbol
_atom_site_label
_atom_site_fract_x
_atom_site_fract_y
_atom_site_fract_z
Si Si1 0.427374 0.687185 0.279919
Si Si2 0.865193 0.505554 0.591760
Si Si3 0.240618 0.575911 0.828163
Si Si4 0.760556 0.832857 0.828277
Si Si5 0.206755 0.912705 0.458648
Si Si6 0.914801 0.244790 0.194198
Si Si7 0.849431 0.224072 0.682006
O O1 0.684160 0.623684 0.411890
O O2 0.283424 0.589135 0.355548
O O3 0.380876 0.754924 0.334958
O O4 0.292993 0.763947 0.002480
O O5 0.000000 0.500000 0.500000
O O6 0.060881 0.496436 0.815030
O O7 0.186624 0.643636 0.880931
O O8 0.185053 0.671216 0.566011
O O9 0.500000 0.500000 0.000000
O O10 0.478223 0.847191 0.692304
O O11 0.863943 0.760357 0.811716
O O12 0.805658 0.956874 0.680107
O O13 0.920425 0.787768 0.095622
O O14 0.041894 0.860121 0.555627
O O15 0.145089 0.881597 0.300239
#
# Coordination Sequence:
#
# PCOD9026279 Si02
#       7
#     2   2   2   2   2   2   2
#     4  10  23  38  61  90 116 170 209 246 312 363
#     4  11  22  39  60  81 126 163 209 256 295 360
#     4  11  24  39  62  90 128 171 207 258 310 363
#     4  10  22  42  66  93 119 170 201 258 326 363
#     4  10  22  41  67  91 129 154 209 262 313 380
#     4  10  23  39  61  93 125 158 206 260 306 372
#     4  10  22  41  63  93 125 162 211 253 309 376
#
# _framework density 22.630790999999999
#
# number of rings (size 3 to 8) (size 9 to 14) (size 15 to 20)
#    0.000    1.714    1.429    1.714    6.000    5.143 
#    0.000    0.000    0.000    8.571    0.000    0.000 
#    0.000    0.000    0.000    0.000    0.000    0.000 
#
# Total GULP energy -78247.126863 kJ/mol
# GULP energy per Si atom -5589.080490 kJ/mol
# Density = 2.257928 g / cm^3
# Si number density = 22.630791 Si / 1000 Ang^3
#
#
#
# Elastic Constant Matrix: (Units=GPa)
#
#
# Indices 1 2 3 4 5 6 
#
# 1 97.2983 30.9240 39.7780 4.0708 -3.8488 -23.3077
# 2 30.9240 82.9828 9.1928 8.8957 -15.7848 -21.2306
# 3 39.7780 9.1928 88.8459 1.5481 4.2005 -15.8531
# 4 4.0708 8.8957 1.5481 31.9292 -2.4273 -4.7217
# 5 -3.8488 -15.7848 4.2005 -2.4273 38.3537 7.0082
# 6 -23.3077 -21.2306 -15.8531 -4.7217 7.0082 34.5950
#
#
#
# Elastic Compliance Matrix: (Units=1/GPa)
#
#
# Indices 1 2 3 4 5 6 
#
# 1 0.014893 -0.003661 -0.005296 0.000154 -0.000421 0.005466
# 2 -0.003661 0.016200 0.000953 -0.002756 0.004823 0.006559
# 3 -0.005296 0.000953 0.014377 0.000135 -0.002458 0.004122
# 4 0.000154 -0.002756 0.000135 0.032510 0.000407 0.002829
# 5 -0.000421 0.004823 -0.002458 0.000407 0.029094 -0.004289
# 6 0.005466 0.006559 0.004122 0.002829 -0.004289 0.039758
#
#
# Mechanical properties :
#
#
# Convention : Reuss Voigt Hill
#
# Bulk Modulus (GPa) = 33.94214 47.65741 40.79977
# Shear Modulus (GPa) = 28.95822 33.59106 31.27464
#
# Velocity S-wave (km/s) = 3.58102 3.85685 3.72149
# Velocity P-wave (km/s) = 5.66825 6.39829 6.04430
#
# Compressibility (1/GPa) = 0.02946190
#
# Stress axis : x y z
#
# Youngs Moduli (GPa) = 67.14564 61.72679 69.55353
#
# Poissons Ratio (x) = 0.22601 0.36839
# Poissons Ratio (y) = 0.24585 -0.06631
# Poissons Ratio (z) = 0.35563 -0.05885
#
# Static dielectric constant tensor:
#      x y z
#    x 1.907650 -0.022450 0.018860 
#    y -0.022450 1.865840 0.001610 
#    z 0.018860 0.001610 1.862500 
# 
# From -- ./inp_files/47220.got.cif
#   From: 2010.05.17/outbox.cif.g08.bks.cpg/sg2_24_cif.got.tgz:47220.got - 2010.06.03 11:33:40.
