data_PCOD9026090
_publ_section_title
;
Structure prediction by ZEFSAII (Michael W. Deem and Ramdas Pophale) SiO2 
 PCOD9026090
Probable space group: P -1
;
_chemical_formula_sum "Si O2"
_cell_formula_units_Z 16
_cell_length_a 14.293893
_cell_length_b 7.493560
_cell_length_c 9.046979
_cell_angle_alpha 122.212448
_cell_angle_beta 47.222450
_cell_angle_gamma 104.179194
_cell_volume 591.001001
_symmetry_space_group_name_H-M "P -1"
_symmetry_group_IT_number 2
_symmetry_cell_setting 'triclinic'
loop_
_space_group_symop_operation_xyz
x,y,z
-x,-y,-z
loop_
_atom_site_type_symbol
_atom_site_label
_atom_site_fract_x
_atom_site_fract_y
_atom_site_fract_z
Si Si1 0.289031 0.410211 0.800693
Si Si2 0.048913 0.752342 0.213735
Si Si3 0.531502 0.682155 0.161063
Si Si4 0.911969 0.212120 0.258096
Si Si5 0.663851 0.412589 0.457964
Si Si6 0.765999 0.950515 0.499613
Si Si7 0.077157 0.206427 0.329225
Si Si8 0.656542 0.825252 0.835491
O O1 0.346079 0.395938 0.896904
O O2 0.355386 0.557299 0.682271
O O3 0.299329 0.181256 0.608939
O O4 0.139561 0.524759 0.001040
O O5 0.902938 0.795815 0.327902
O O6 0.028877 0.778302 0.422019
O O7 0.113015 0.944996 0.162872
O O8 0.418567 0.733746 0.428389
O O9 0.500000 0.500000 0.000000
O O10 0.561318 0.862996 0.094263
O O11 0.817179 0.344403 0.300223
O O12 0.013625 0.307618 0.291894
O O13 0.811723 0.145710 0.455593
O O14 0.000000 0.000000 0.000000
O O15 0.621499 0.644353 0.684201
O O16 0.687796 0.998090 0.758909
O O17 0.206011 0.275055 0.279156
#
# Coordination Sequence:
#
# PCOD9026090 Si02
#       8
#     2   2   2   2   2   2   2   2
#     4  11  21  38  66  85 119 164 203 251 300 357
#     4   9  18  34  59  92 120 159 193 242 309 360
#     4  10  23  41  62  87 117 158 215 252 294 352
#     4  11  23  37  62  92 129 158 192 251 309 362
#     4  10  22  41  62  88 121 160 205 250 299 359
#     4   9  20  39  59  92 128 155 197 250 298 366
#     4   9  19  34  57  89 128 150 194 247 301 360
#     4   9  20  40  61  87 122 161 204 246 292 359
#
# _framework density 27.072714999999999
#
# number of rings (size 3 to 8) (size 9 to 14) (size 15 to 20)
#    0.000    2.250    0.000    3.000    5.250    2.500 
#    0.000    1.250    5.500    0.000    0.000    0.000 
#    0.000    0.000    0.000    0.000    0.000    0.000 
#
# Total GULP energy -89433.360202 kJ/mol
# GULP energy per Si atom -5589.585013 kJ/mol
# Density = 2.701110 g / cm^3
# Si number density = 27.072715 Si / 1000 Ang^3
#
#
#
# Elastic Constant Matrix: (Units=GPa)
#
#
# Indices 1 2 3 4 5 6 
#
# 1 137.6417 22.0861 18.5900 -6.4939 21.5230 -25.2284
# 2 22.0861 82.0794 37.9399 -30.9526 7.5968 -11.8720
# 3 18.5900 37.9399 77.7649 -28.8273 25.6799 -10.7013
# 4 -6.4939 -30.9526 -28.8273 44.2774 -9.5162 3.7767
# 5 21.5230 7.5968 25.6799 -9.5162 43.4653 0.6698
# 6 -25.2284 -11.8720 -10.7013 3.7767 0.6698 32.7079
#
#
#
# Elastic Compliance Matrix: (Units=1/GPa)
#
#
# Indices 1 2 3 4 5 6 
#
# 1 0.009542 -0.001880 0.001015 -0.001017 -0.005330 0.007236
# 2 -0.001880 0.019185 -0.006072 0.009681 0.003249 0.002342
# 3 0.001015 -0.006072 0.023056 0.008002 -0.011395 0.005432
# 4 -0.001017 0.009681 0.008002 0.034656 0.001651 0.001312
# 5 -0.005330 0.003249 -0.011395 0.001651 0.032288 -0.007512
# 6 0.007236 0.002342 0.005432 0.001312 -0.007512 0.038784
#
#
# Mechanical properties :
#
#
# Convention : Reuss Voigt Hill
#
# Bulk Modulus (GPa) = 26.37985 50.52425 38.45205
# Shear Modulus (GPa) = 27.17077 38.68147 32.92612
#
# Velocity S-wave (km/s) = 3.17144 3.78405 3.49120
# Velocity P-wave (km/s) = 4.81414 6.14776 5.52136
#
# Compressibility (1/GPa) = 0.03790773
#
# Stress axis : x y z
#
# Youngs Moduli (GPa) = 104.80431 52.12458 43.37259
#
# Poissons Ratio (x) = 0.09801 -0.04404
# Poissons Ratio (y) = 0.19706 0.26338
# Poissons Ratio (z) = -0.10642 0.31652
#
# Static dielectric constant tensor:
#      x y z
#    x 2.116210 0.035340 -0.037550 
#    y 0.035340 2.175950 -0.009570 
#    z -0.037550 -0.009570 2.165030 
# 
# From -- ./inp_files/223705.got.cif
#   From: 2010.05.17/outbox.cif.g08.bks.cpg/sg2_112_cif.got.tgz:223705.got - 2010.06.03 11:33:40.
