data_PCOD9026971
_publ_section_title
;
Structure prediction by ZEFSAII (Michael W. Deem and Ramdas Pophale) SiO2 
 PCOD9026971
Probable space group: P -1
;
_chemical_formula_sum "Si O2"
_cell_formula_units_Z 16
_cell_length_a 19.157790
_cell_length_b 7.717629
_cell_length_c 11.259479
_cell_angle_alpha 77.214803
_cell_angle_beta 152.845698
_cell_angle_gamma 113.349633
_cell_volume 662.382992
_symmetry_space_group_name_H-M "P -1"
_symmetry_group_IT_number 2
_symmetry_cell_setting 'triclinic'
loop_
_space_group_symop_operation_xyz
x,y,z
-x,-y,-z
loop_
_atom_site_type_symbol
_atom_site_label
_atom_site_fract_x
_atom_site_fract_y
_atom_site_fract_z
Si Si1 0.440286 0.834794 0.701127
Si Si2 0.687064 0.797190 0.242295
Si Si3 0.460192 0.534060 0.575905
Si Si4 0.980949 0.199075 0.168227
Si Si5 0.373680 0.579419 0.961785
Si Si6 0.927707 0.768434 0.954024
Si Si7 0.400052 0.091772 0.413533
Si Si8 0.879205 0.388360 0.572745
O O1 0.439984 0.683719 0.622009
O O2 0.285301 0.703603 0.573673
O O3 0.411400 0.012097 0.573146
O O4 0.617278 0.911181 0.030476
O O5 0.661229 0.604273 0.153877
O O6 0.876851 0.870326 0.567177
O O7 0.557549 0.740474 0.166329
O O8 0.274616 0.347780 0.321034
O O9 0.515353 0.676121 0.522979
O O10 0.601392 0.483719 0.860159
O O11 0.023140 0.299163 0.085987
O O12 0.001221 0.378901 0.256965
O O13 0.795004 0.017078 0.908979
O O14 0.217758 0.633123 0.695253
O O15 0.012919 0.723108 0.204082
O O16 0.000000 0.000000 0.000000
O O17 0.500000 0.000000 0.500000
#
# Coordination Sequence:
#
# PCOD9026971 Si02
#       8
#     2   2   2   2   2   2   2   2
#     4   9  15  29  53  81 104 130 170 209 256 302
#     4   8  14  25  50  80  99 127 169 213 249 297
#     4  10  18  34  48  75 112 133 160 215 259 300
#     4  11  18  34  56  78 101 138 174 207 259 301
#     4   8  14  27  50  76  99 129 169 208 258 295
#     4  12  23  34  52  79 104 132 178 219 251 298
#     4  10  20  29  49  81 110 136 165 206 258 311
#     4  10  17  31  57  79  98 132 175 216 252 297
#
# _framework density 24.155208999999999
#
# number of rings (size 3 to 8) (size 9 to 14) (size 15 to 20)
#    0.000    2.250    3.750    3.375    0.000    0.000 
#    0.000   12.500    0.000    0.000    0.000    1.750 
#    0.000    0.000    0.000    0.000    0.000    0.000 
#
# Total GULP energy -89434.106162 kJ/mol
# GULP energy per Si atom -5589.631635 kJ/mol
# Density = 2.410023 g / cm^3
# Si number density = 24.155209 Si / 1000 Ang^3
#
#
#
# Elastic Constant Matrix: (Units=GPa)
#
#
# Indices 1 2 3 4 5 6 
#
# 1 29.4465 -5.9978 23.0607 7.0003 -11.6099 8.5744
# 2 -5.9978 151.2441 118.3921 -3.9446 -21.8569 17.3454
# 3 23.0607 118.3921 199.3880 -37.3958 -8.7040 16.7569
# 4 7.0003 -3.9446 -37.3958 43.9487 13.1440 -7.4998
# 5 -11.6099 -21.8569 -8.7040 13.1440 21.8898 -3.0366
# 6 8.5744 17.3454 16.7569 -7.4998 -3.0366 31.3110
#
#
#
# Elastic Compliance Matrix: (Units=1/GPa)
#
#
# Indices 1 2 3 4 5 6 
#
# 1 -0.026103 -0.028246 0.023830 0.040847 -0.055090 0.014484
# 2 -0.028246 -0.006517 0.009263 0.022256 -0.029946 0.008815
# 3 0.023830 0.009263 -0.004287 -0.017093 0.028969 -0.010647
# 4 0.040847 0.022256 -0.017093 -0.011048 0.041928 -0.012947
# 5 -0.055090 -0.029946 0.028969 0.041928 -0.023777 0.023909
# 6 0.014484 0.008815 -0.010647 -0.012947 0.023909 0.028004
#
#
# Mechanical properties :
#
#
# Convention : Reuss Voigt Hill
#
# Bulk Modulus (GPa) = -36.74522 72.33206 17.79342
# Shear Modulus (GPa) = -80.00934 35.73815 -22.13560
#
# Velocity S-wave (km/s) = -5.76150 3.85063 -3.03048
# Velocity P-wave (km/s) = 7.71395 7.05546 2.20517
#
# Compressibility (1/GPa) = -0.02721443
#
# Stress axis : x y z
#
# Youngs Moduli (GPa) = -38.30933 -153.44469 -233.25917
#
# Poissons Ratio (x) = -4.33414 5.55845
# Poissons Ratio (y) = -1.08207 2.16059
# Poissons Ratio (z) = 0.91289 1.42130
#
# Static dielectric constant tensor:
#      x y z
#    x 2.026660 -0.092650 -0.053590 
#    y -0.092650 2.001460 -0.033760 
#    z -0.053590 -0.033760 1.927530 
# 
# From -- ./inp_files/205963.got.cif
#   From: 2010.05.17/outbox.cif.g08.bks.cpg/sg2_103_cif.got.tgz:205963.got - 2010.06.03 11:33:40.
