data_PCOD9026878
_publ_section_title
;
Structure prediction by ZEFSAII (Michael W. Deem and Ramdas Pophale) SiO2 
 PCOD9026878
Probable space group: P -1
;
_chemical_formula_sum "Si O2"
_cell_formula_units_Z 15
_cell_length_a 20.501201
_cell_length_b 5.721765
_cell_length_c 5.051050
_cell_angle_alpha 87.136727
_cell_angle_beta 96.615956
_cell_angle_gamma 93.297918
_cell_volume 587.022239
_symmetry_space_group_name_H-M "P -1"
_symmetry_group_IT_number 2
_symmetry_cell_setting 'triclinic'
loop_
_space_group_symop_operation_xyz
x,y,z
-x,-y,-z
loop_
_atom_site_type_symbol
_atom_site_label
_atom_site_fract_x
_atom_site_fract_y
_atom_site_fract_z
Si Si1 0.500000 0.500000 0.500000
Si Si2 0.737662 0.270432 0.011263
Si Si3 0.565029 0.924099 0.177779
Si Si4 0.863912 0.619550 0.077676
Si Si5 0.037131 0.689658 0.690328
Si Si6 0.689803 0.009507 0.483002
Si Si7 0.633313 0.612949 0.816098
Si Si8 0.903635 0.902507 0.606600
O O1 0.538519 0.724206 0.373656
O O2 0.565657 0.471168 0.721537
O O3 0.723523 0.153789 0.727748
O O4 0.678145 0.442819 0.006287
O O5 0.801387 0.442497 0.046250
O O6 0.733759 0.069464 0.243975
O O7 0.615411 0.087219 0.366844
O O8 0.610905 0.821446 0.981133
O O9 0.500000 0.000000 0.000000
O O10 0.924958 0.451973 0.063685
O O11 0.877841 0.734186 0.364627
O O12 0.862494 0.826733 0.849973
O O13 0.000000 0.500000 0.500000
O O14 0.979428 0.858099 0.730021
O O15 0.090752 0.840745 0.532455
O O16 0.675645 0.742468 0.592729
#
# Coordination Sequence:
#
# PCOD9026878 Si02
#       8
#     1   2   2   2   2   2   2   2
#     4  10  24  38  70  94 128 166 214 268 344 394
#     4  12  27  44  70  93 138 178 228 271 333 400
#     4  11  24  43  69  99 131 166 221 278 344 404
#     4  11  24  42  64  98 131 180 222 268 324 390
#     4   9  21  40  69  99 138 172 218 271 330 379
#     4  11  26  46  67  97 129 177 220 279 332 398
#     4  11  26  43  67  99 132 174 219 279 342 402
#     4  10  22  41  66 101 134 172 220 275 320 384
#
# _framework density 25.552696000000001
#
# number of rings (size 3 to 8) (size 9 to 14) (size 15 to 20)
#    0.000    1.333    1.333    2.400    5.600   10.133 
#    0.000    0.000    0.000    0.000    0.000    0.000 
#    0.000    0.000    0.000    0.000    0.000    0.000 
#
# Total GULP energy -83717.085515 kJ/mol
# GULP energy per Si atom -5581.139034 kJ/mol
# Density = 2.549454 g / cm^3
# Si number density = 25.552696 Si / 1000 Ang^3
#
#
#
# Elastic Constant Matrix: (Units=GPa)
#
#
# Indices 1 2 3 4 5 6 
#
# 1 78.3483 20.4468 36.2954 -0.4260 10.1805 38.2297
# 2 20.4468 161.7934 18.7471 31.2938 39.1664 40.2295
# 3 36.2954 18.7471 138.6627 -13.3624 -10.3479 31.6605
# 4 -0.4260 31.2938 -13.3624 83.0740 30.3105 -7.5113
# 5 10.1805 39.1664 -10.3479 30.3105 36.9224 -5.9365
# 6 38.2297 40.2295 31.6605 -7.5113 -5.9365 62.1923
#
#
#
# Elastic Compliance Matrix: (Units=1/GPa)
#
#
# Indices 1 2 3 4 5 6 
#
# 1 0.024906 0.006373 -0.004323 0.002638 -0.020032 -0.018825
# 2 0.006373 0.013470 -0.001792 0.000399 -0.019044 -0.013488
# 3 -0.004323 -0.001792 0.009065 0.000067 0.005537 -0.000261
# 4 0.002638 0.000399 0.000067 0.017536 -0.015737 -0.001299
# 5 -0.020032 -0.019044 0.005537 -0.015737 0.071580 0.026746
# 6 -0.018825 -0.013488 -0.000261 -0.001299 0.026746 0.038905
#
#
# Mechanical properties :
#
#
# Convention : Reuss Voigt Hill
#
# Bulk Modulus (GPa) = 20.85270 58.86478 39.85874
# Shear Modulus (GPa) = 26.18755 56.65873 41.42314
#
# Velocity S-wave (km/s) = 3.20479 4.71396 4.03064
# Velocity P-wave (km/s) = 4.67682 7.26052 6.10687
#
# Compressibility (1/GPa) = 0.04795543
#
# Stress axis : x y z
#
# Youngs Moduli (GPa) = 40.15118 74.24122 110.31419
#
# Poissons Ratio (x) = -0.47315 0.47692
# Poissons Ratio (y) = -0.25589 0.19773
# Poissons Ratio (z) = 0.17359 0.13307
#
# Static dielectric constant tensor:
#      x y z
#    x 2.082880 -0.075580 -0.010250 
#    y -0.075580 1.944530 -0.008510 
#    z -0.010250 -0.008510 2.013040 
# 
# From -- ./inp_files/12248.got.cif
#   From: 2010.05.17/outbox.cif.g08.bks.cpg/sg2_7_cif.got.tgz:12248.got - 2010.06.03 11:33:40.
