data_PCOD9026062
_publ_section_title
;
Structure prediction by ZEFSAII (Michael W. Deem and Ramdas Pophale) SiO2 
 PCOD9026062
Probable space group: P -1
;
_chemical_formula_sum "Si O2"
_cell_formula_units_Z 16
_cell_length_a 9.399419
_cell_length_b 14.507081
_cell_length_c 13.995416
_cell_angle_alpha 132.747759
_cell_angle_beta 93.444972
_cell_angle_gamma 124.497961
_cell_volume 783.771672
_symmetry_space_group_name_H-M "P -1"
_symmetry_group_IT_number 2
_symmetry_cell_setting 'triclinic'
loop_
_space_group_symop_operation_xyz
x,y,z
-x,-y,-z
loop_
_atom_site_type_symbol
_atom_site_label
_atom_site_fract_x
_atom_site_fract_y
_atom_site_fract_z
Si Si1 0.442012 0.824477 0.480664
Si Si2 0.447264 0.554032 0.945557
Si Si3 0.448990 0.380095 0.637723
Si Si4 0.112480 0.691256 0.521121
Si Si5 0.934472 0.340373 0.809560
Si Si6 0.205649 0.774570 0.809816
Si Si7 0.038896 0.916384 0.685705
Si Si8 0.105331 0.209342 0.186805
O O1 0.442031 0.675410 0.370348
O O2 0.366803 0.819323 0.578187
O O3 0.216757 0.709704 0.321700
O O4 0.717760 0.083896 0.654017
O O5 0.436994 0.460788 0.785242
O O6 0.192490 0.451424 0.876572
O O7 0.500000 0.500000 0.000000
O O8 0.686160 0.820913 0.125868
O O9 0.165269 0.152711 0.428404
O O10 0.619114 0.565654 0.690529
O O11 0.147239 0.727657 0.661500
O O12 0.899091 0.434429 0.304785
O O13 0.053508 0.787516 0.551507
O O14 0.000000 0.500000 0.000000
O O15 0.061011 0.791943 0.854353
O O16 0.500000 0.000000 0.000000
O O17 0.929376 0.822334 0.722566
O O18 0.000000 0.000000 0.000000
#
# Coordination Sequence:
#
# PCOD9026062 Si02
#       8
#     2   2   2   2   2   2   2   2
#     4  11  24  43  68 100 130 175 222 272 337 389
#     4  12  26  46  68 101 135 175 228 277 337 394
#     4  12  25  44  68  99 138 175 221 278 331 403
#     4  10  22  41  61  96 130 167 223 261 325 395
#     4  11  25  45  70  96 133 173 225 280 327 395
#     4  10  23  40  64  95 132 172 213 270 321 391
#     4  11  25  42  70  96 135 181 219 274 335 397
#     4  11  23  44  66 101 136 174 224 265 335 403
#
# _framework density 20.414109
#
# number of rings (size 3 to 8) (size 9 to 14) (size 15 to 20)
#    0.000    1.000    2.500    3.375    1.750    8.000 
#    2.250    0.000    0.000    0.000    0.000    0.000 
#    0.000    0.000    0.000    0.000    0.000    0.000 
#
# Total GULP energy -89363.781179 kJ/mol
# GULP energy per Si atom -5585.236324 kJ/mol
# Density = 2.036765 g / cm^3
# Si number density = 20.414109 Si / 1000 Ang^3
#
#
#
# Elastic Constant Matrix: (Units=GPa)
#
#
# Indices 1 2 3 4 5 6 
#
# 1 156.6210 50.9974 68.9004 6.4328 -12.5842 17.9423
# 2 50.9974 95.7983 52.5829 23.2294 -3.7726 15.3516
# 3 68.9004 52.5829 110.4492 18.3232 -2.9719 8.9257
# 4 6.4328 23.2294 18.3232 18.3091 6.8976 -0.8300
# 5 -12.5842 -3.7726 -2.9719 6.8976 44.4101 4.1547
# 6 17.9423 15.3516 8.9257 -0.8300 4.1547 34.0885
#
#
#
# Elastic Compliance Matrix: (Units=1/GPa)
#
#
# Indices 1 2 3 4 5 6 
#
# 1 0.009956 -0.003153 -0.005305 0.005078 0.001644 -0.002508
# 2 -0.003153 0.021724 -0.003283 -0.025634 0.005515 -0.008560
# 3 -0.005305 -0.003283 0.015603 -0.009900 0.000814 -0.000155
# 4 0.005078 -0.025634 -0.009900 0.103139 -0.018944 0.016283
# 5 0.001644 0.005515 0.000814 -0.018944 0.027134 -0.007330
# 6 -0.002508 -0.008560 -0.000155 0.016283 -0.007330 0.035841
#
#
# Mechanical properties :
#
#
# Convention : Reuss Voigt Hill
#
# Bulk Modulus (GPa) = 42.01449 78.64776 60.33112
# Shear Modulus (GPa) = 20.42378 32.05408 26.23893
#
# Velocity S-wave (km/s) = 3.16646 3.96686 3.58904
# Velocity P-wave (km/s) = 5.83047 7.71953 6.84052
#
# Compressibility (1/GPa) = 0.02380131
#
# Stress axis : x y z
#
# Youngs Moduli (GPa) = 100.43951 46.03301 64.08923
#
# Poissons Ratio (x) = 0.14513 0.34002
# Poissons Ratio (y) = 0.31666 0.21038
# Poissons Ratio (z) = 0.53288 0.15111
#
# Static dielectric constant tensor:
#      x y z
#    x 1.724090 0.008750 -0.006150 
#    y 0.008750 1.798500 -0.001220 
#    z -0.006150 -0.001220 1.702300 
# 
# From -- ./inp_files/504450.got.cif
#   From: 2010.05.17/outbox.cif.g08.bks.cpg/sg2_253_cif.got.tgz:504450.got - 2010.06.03 11:33:40.
