data_PCOD9026604
_publ_section_title
;
Structure prediction by ZEFSAII (Michael W. Deem and Ramdas Pophale) SiO2 
 PCOD9026604
Probable space group: P -1
;
_chemical_formula_sum "Si O2"
_cell_formula_units_Z 14
_cell_length_a 9.650428
_cell_length_b 16.670931
_cell_length_c 12.125613
_cell_angle_alpha 44.223688
_cell_angle_beta 128.207683
_cell_angle_gamma 152.411691
_cell_volume 629.278938
_symmetry_space_group_name_H-M "P -1"
_symmetry_group_IT_number 2
_symmetry_cell_setting 'triclinic'
loop_
_space_group_symop_operation_xyz
x,y,z
-x,-y,-z
loop_
_atom_site_type_symbol
_atom_site_label
_atom_site_fract_x
_atom_site_fract_y
_atom_site_fract_z
Si Si1 0.718555 0.209267 0.454511
Si Si2 0.361092 0.193474 0.976940
Si Si3 0.308928 0.084539 0.687136
Si Si4 0.617638 0.433363 0.642230
Si Si5 0.365983 0.410865 0.901181
Si Si6 0.297243 0.904939 0.199370
Si Si7 0.336801 0.207677 0.347138
O O1 0.782259 0.202614 0.619161
O O2 0.556859 0.247836 0.341558
O O3 0.024447 0.375064 0.374057
O O4 0.500000 0.000000 0.500000
O O5 0.473323 0.306867 0.806547
O O6 0.464567 0.339239 0.975213
O O7 0.446585 0.104950 0.109245
O O8 0.000000 0.000000 0.000000
O O9 0.511435 0.289795 0.636866
O O10 0.477427 0.052547 0.804209
O O11 0.270295 0.088938 0.533799
O O12 0.977839 0.922700 0.734144
O O13 0.500000 0.500000 0.500000
O O14 0.510887 0.596090 0.726884
O O15 0.009856 0.235385 0.880444
O O16 0.500000 0.500000 0.000000
#
# Coordination Sequence:
#
# PCOD9026604 Si02
#       7
#     2   2   2   2   2   2   2
#     4  11  24  42  73 101 138 182 233 292 345 414
#     4  10  24  43  66  99 140 179 226 287 346 415
#     4  10  22  41  70  97 133 179 229 296 341 413
#     4  12  23  40  71 100 136 183 237 281 350 413
#     4  11  24  41  69  95 137 184 222 278 353 417
#     4  10  23  46  68 100 141 181 232 283 352 414
#     4  10  22  41  64  99 134 175 234 285 346 403
#
# _framework density 22.247686000000002
#
# number of rings (size 3 to 8) (size 9 to 14) (size 15 to 20)
#    0.000    1.429    0.000    5.143    6.000    5.143 
#    2.571    1.429    0.000    0.000    0.000    0.000 
#    0.000    0.000    0.000    0.000    0.000    0.000 
#
# Total GULP energy -78259.793413 kJ/mol
# GULP energy per Si atom -5589.985244 kJ/mol
# Density = 2.219705 g / cm^3
# Si number density = 22.247686 Si / 1000 Ang^3
#
#
#
# Elastic Constant Matrix: (Units=GPa)
#
#
# Indices 1 2 3 4 5 6 
#
# 1 142.1474 60.2313 41.5669 -13.9728 32.4693 10.3273
# 2 60.2313 121.8290 17.7144 -12.5545 11.2474 7.1745
# 3 41.5669 17.7144 101.3653 -6.6365 2.6129 14.2416
# 4 -13.9728 -12.5545 -6.6365 41.5861 -9.8742 -1.9589
# 5 32.4693 11.2474 2.6129 -9.8742 48.2631 -13.0831
# 6 10.3273 7.1745 14.2416 -1.9589 -13.0831 41.4576
#
#
#
# Elastic Compliance Matrix: (Units=1/GPa)
#
#
# Indices 1 2 3 4 5 6 
#
# 1 0.011970 -0.004489 -0.003431 0.000120 -0.007735 -0.003462
# 2 -0.004489 0.010546 0.000157 0.001877 0.000826 -0.000411
# 3 -0.003431 0.000157 0.011669 0.000876 0.001058 -0.002806
# 4 0.000120 0.001877 0.000876 0.026186 0.005413 0.002290
# 5 -0.007735 0.000826 0.001058 0.005413 0.029784 0.011075
# 6 -0.003462 -0.000411 -0.002806 0.002290 0.011075 0.029622
#
#
# Mechanical properties :
#
#
# Convention : Reuss Voigt Hill
#
# Bulk Modulus (GPa) = 53.58857 67.15188 60.37023
# Shear Modulus (GPa) = 35.33023 42.64995 38.99009
#
# Velocity S-wave (km/s) = 3.98935 4.38316 4.19088
# Velocity P-wave (km/s) = 6.73494 7.47432 7.11424
#
# Compressibility (1/GPa) = 0.01866069
#
# Stress axis : x y z
#
# Youngs Moduli (GPa) = 83.53975 94.82218 85.69776
#
# Poissons Ratio (x) = 0.42565 0.29399
# Poissons Ratio (y) = 0.37500 -0.01347
# Poissons Ratio (z) = 0.28659 -0.01490
#
# Static dielectric constant tensor:
#      x y z
#    x 1.832110 0.014130 -0.022970 
#    y 0.014130 1.790850 0.012740 
#    z -0.022970 0.012740 1.909600 
# 
# From -- ./inp_files/158849.got.cif
#   From: 2010.05.17/outbox.cif.g08.bks.cpg/sg2_80_cif.got.tgz:158849.got - 2010.06.03 11:33:40.
