data_PCOD9026124
_publ_section_title
;
Structure prediction by ZEFSAII (Michael W. Deem and Ramdas Pophale) SiO2 
 PCOD9026124
Probable space group: P -1
;
_chemical_formula_sum "Si O2"
_cell_formula_units_Z 16
_cell_length_a 8.062399
_cell_length_b 14.154573
_cell_length_c 6.443394
_cell_angle_alpha 71.281915
_cell_angle_beta 81.704833
_cell_angle_gamma 88.087877
_cell_volume 689.075543
_symmetry_space_group_name_H-M "P -1"
_symmetry_group_IT_number 2
_symmetry_cell_setting 'triclinic'
loop_
_space_group_symop_operation_xyz
x,y,z
-x,-y,-z
loop_
_atom_site_type_symbol
_atom_site_label
_atom_site_fract_x
_atom_site_fract_y
_atom_site_fract_z
Si Si1 0.215479 0.658730 0.841947
Si Si2 0.655591 0.849024 0.809234
Si Si3 0.282178 0.851045 0.984200
Si Si4 0.594785 0.668040 0.633827
Si Si5 0.835338 0.479736 0.687828
Si Si6 0.863740 0.292045 0.612259
Si Si7 0.147450 0.027065 0.614257
Si Si8 0.184661 0.212874 0.771321
O O1 0.241384 0.755889 0.911788
O O2 0.401577 0.638767 0.729990
O O3 0.101261 0.688707 0.647350
O O4 0.143485 0.567091 0.053359
O O5 0.478557 0.870956 0.929072
O O6 0.642266 0.746082 0.754027
O O7 0.699975 0.940429 0.586326
O O8 0.791322 0.831752 0.975582
O O9 0.186941 0.941432 0.832205
O O10 0.227780 0.812399 0.247626
O O11 0.712611 0.572147 0.667637
O O12 0.644417 0.732950 0.374960
O O13 0.754919 0.384526 0.647921
O O14 0.000000 0.500000 0.500000
O O15 0.034003 0.289504 0.717568
O O16 0.128028 0.126411 0.684030
O O17 0.000000 0.000000 0.500000
#
# Coordination Sequence:
#
# PCOD9026124 Si02
#       8
#     2   2   2   2   2   2   2   2
#     4  10  23  41  67  91 130 169 209 263 319 378
#     4  10  23  41  64  90 127 169 212 264 318 371
#     4  10  22  41  62  92 128 165 215 262 312 381
#     4  10  22  43  64  94 127 167 214 260 320 378
#     4  11  23  42  63  98 128 164 216 262 318 381
#     4  11  23  40  62  93 127 167 210 261 320 373
#     4  11  23  39  63  94 128 169 211 261 320 379
#     4  11  23  40  62  94 128 167 215 262 314 380
#
# _framework density 23.219512999999999
#
# number of rings (size 3 to 8) (size 9 to 14) (size 15 to 20)
#    0.000    1.500    1.250    3.000    0.000    8.500 
#    0.000    0.000    0.000    0.000    0.000    0.000 
#    0.000    0.000    0.000    0.000    0.000    0.000 
#
# Total GULP energy -89378.645890 kJ/mol
# GULP energy per Si atom -5586.165368 kJ/mol
# Density = 2.316666 g / cm^3
# Si number density = 23.219513 Si / 1000 Ang^3
#
#
#
# Elastic Constant Matrix: (Units=GPa)
#
#
# Indices 1 2 3 4 5 6 
#
# 1 90.7957 20.8720 32.8679 -10.4285 -14.9727 -6.5594
# 2 20.8720 69.9712 23.2118 -30.0130 -3.1495 -11.0348
# 3 32.8679 23.2118 128.6883 -30.9410 -10.6291 -1.2434
# 4 -10.4285 -30.0130 -30.9410 33.8554 4.4758 4.6971
# 5 -14.9727 -3.1495 -10.6291 4.4758 43.6968 3.0813
# 6 -6.5594 -11.0348 -1.2434 4.6971 3.0813 26.7232
#
#
#
# Elastic Compliance Matrix: (Units=1/GPa)
#
#
# Indices 1 2 3 4 5 6 
#
# 1 0.013406 -0.003701 -0.003078 -0.002690 0.003736 0.001661
# 2 -0.003701 0.025176 0.001626 0.022078 -0.001734 0.005882
# 3 -0.003078 0.001626 0.010836 0.010510 0.000728 -0.001511
# 4 -0.002690 0.022078 0.010510 0.058380 -0.002683 -0.001007
# 5 0.003736 -0.001734 0.000728 -0.002683 0.024643 -0.002135
# 6 0.001661 0.005882 -0.001511 -0.001007 -0.002135 0.040610
#
#
# Mechanical properties :
#
#
# Convention : Reuss Voigt Hill
#
# Bulk Modulus (GPa) = 25.56831 49.26207 37.41519
# Shear Modulus (GPa) = 25.45881 35.02197 30.24039
#
# Velocity S-wave (km/s) = 3.31485 3.88790 3.61275
# Velocity P-wave (km/s) = 5.06818 6.43554 5.79235
#
# Compressibility (1/GPa) = 0.03911091
#
# Stress axis : x y z
#
# Youngs Moduli (GPa) = 74.59221 39.72089 92.28330
#
# Poissons Ratio (x) = 0.14702 0.28409
# Poissons Ratio (y) = 0.27609 -0.15007
# Poissons Ratio (z) = 0.22963 -0.06459
#
# Static dielectric constant tensor:
#      x y z
#    x 1.892120 0.015890 -0.048880 
#    y 0.015890 1.887610 -0.011130 
#    z -0.048880 -0.011130 1.915860 
# 
# From -- ./inp_files/37275.got.cif
#   From: 2010.05.17/outbox.cif.g08.bks.cpg/sg2_19_cif.got.tgz:37275.got - 2010.06.03 11:33:40.
