data_PCOD9026908
_publ_section_title
;
Structure prediction by ZEFSAII (Michael W. Deem and Ramdas Pophale) SiO2 
 PCOD9026908
Probable space group: P -1
;
_chemical_formula_sum "Si O2"
_cell_formula_units_Z 16
_cell_length_a 22.221588
_cell_length_b 16.292822
_cell_length_c 13.639588
_cell_angle_alpha 147.014847
_cell_angle_beta 23.266267
_cell_angle_gamma 159.166813
_cell_volume 686.810527
_symmetry_space_group_name_H-M "P -1"
_symmetry_group_IT_number 2
_symmetry_cell_setting 'triclinic'
loop_
_space_group_symop_operation_xyz
x,y,z
-x,-y,-z
loop_
_atom_site_type_symbol
_atom_site_label
_atom_site_fract_x
_atom_site_fract_y
_atom_site_fract_z
Si Si1 0.811664 0.361954 0.558566
Si Si2 0.019595 0.889264 0.453286
Si Si3 0.006757 0.361565 0.926393
Si Si4 0.479510 0.341273 0.982588
Si Si5 0.023283 0.258496 0.429122
Si Si6 0.789321 0.087048 0.175679
Si Si7 0.869332 0.865399 0.161228
Si Si8 0.388719 0.433814 0.491263
O O1 0.596606 0.310782 0.852354
O O2 0.720375 0.141762 0.424170
O O3 0.000000 0.500000 0.500000
O O4 0.962400 0.563515 0.452662
O O5 0.031773 0.782642 0.416906
O O6 0.067612 0.835286 0.228956
O O7 0.201307 0.160203 0.477028
O O8 0.749128 0.745466 0.723209
O O9 0.261933 0.497022 0.719875
O O10 0.000000 0.500000 0.000000
O O11 0.859798 0.237812 0.124285
O O12 0.711914 0.603537 0.857075
O O13 0.399199 0.172566 0.843820
O O14 0.847671 0.011582 0.391978
O O15 0.996163 0.141455 0.969543
O O16 0.619589 0.604030 0.249122
O O17 0.000000 0.000000 0.000000
O O18 0.500000 0.500000 0.500000
#
# Coordination Sequence:
#
# PCOD9026908 Si02
#       8
#     2   2   2   2   2   2   2   2
#     4  10  24  43  67 104 150 191 235 307 384 428
#     4  12  23  47  78 103 143 201 252 295 372 448
#     4  12  28  47  71 112 148 197 249 304 375 445
#     4  10  23  41  75 104 143 190 244 306 363 431
#     4  10  22  41  66 104 139 176 250 295 358 426
#     4  12  23  48  68 108 152 187 247 311 368 439
#     4  12  26  43  74 109 141 190 252 305 367 439
#     4  12  24  50  75 102 152 198 247 309 366 446
#
# _framework density 23.296092000000002
#
# number of rings (size 3 to 8) (size 9 to 14) (size 15 to 20)
#    0.750    0.000    5.000    2.625    1.750    0.000 
#    4.500    0.625    0.000    0.000    0.000    0.000 
#    0.000    0.000    0.000    0.000    0.000    0.000 
#
# Total GULP energy -89251.094013 kJ/mol
# GULP energy per Si atom -5578.193376 kJ/mol
# Density = 2.324307 g / cm^3
# Si number density = 23.296092 Si / 1000 Ang^3
#
#
#
# Elastic Constant Matrix: (Units=GPa)
#
#
# Indices 1 2 3 4 5 6 
#
# 1 149.3478 36.7315 24.0362 -4.3273 -6.7780 -3.6998
# 2 36.7315 101.6379 33.3927 -9.8876 -8.6883 6.2453
# 3 24.0362 33.3927 52.9348 -0.8076 -0.4859 18.0387
# 4 -4.3273 -9.8876 -0.8076 41.8484 3.8800 5.4953
# 5 -6.7780 -8.6883 -0.4859 3.8800 43.3892 0.9375
# 6 -3.6998 6.2453 18.0387 5.4953 0.9375 45.4514
#
#
#
# Elastic Compliance Matrix: (Units=1/GPa)
#
#
# Indices 1 2 3 4 5 6 
#
# 1 0.007727 -0.001862 -0.003036 -0.000043 0.000759 0.002079
# 2 -0.001862 0.013470 -0.007855 0.002546 0.002074 0.000764
# 3 -0.003036 -0.007855 0.028808 -0.000089 -0.001488 -0.010560
# 4 -0.000043 0.002546 -0.000089 0.025081 -0.001669 -0.003316
# 5 0.000759 0.002074 -0.001488 -0.001669 0.023712 0.000080
# 6 0.002079 0.000764 -0.010560 -0.003316 0.000080 0.026656
#
#
# Mechanical properties :
#
#
# Convention : Reuss Voigt Hill
#
# Bulk Modulus (GPa) = 40.81652 54.69349 47.75501
# Shear Modulus (GPa) = 31.42130 40.12181 35.77155
#
# Velocity S-wave (km/s) = 3.67656 4.15451 3.92282
# Velocity P-wave (km/s) = 5.96503 6.82215 6.40794
#
# Compressibility (1/GPa) = 0.02449988
#
# Stress axis : x y z
#
# Youngs Moduli (GPa) = 129.41401 74.23688 34.71225
#
# Poissons Ratio (x) = 0.13823 0.10540
# Poissons Ratio (y) = 0.24097 0.27265
# Poissons Ratio (z) = 0.39295 0.58310
#
# Static dielectric constant tensor:
#      x y z
#    x 1.970870 0.008260 0.024010 
#    y 0.008260 1.875870 0.002110 
#    z 0.024010 0.002110 1.954890 
# 
# From -- ./inp_files/543170.got.cif
#   From: 2010.05.17/outbox.cif.g08.bks.cpg/sg2_272_cif.got.tgz:543170.got - 2010.06.03 11:33:40.
