data_PCOD9026463
_publ_section_title
;
Structure prediction by ZEFSAII (Michael W. Deem and Ramdas Pophale) SiO2 
 PCOD9026463
Probable space group: P -1
;
_chemical_formula_sum "Si O2"
_cell_formula_units_Z 16
_cell_length_a 17.278310
_cell_length_b 9.238368
_cell_length_c 11.227700
_cell_angle_alpha 63.870050
_cell_angle_beta 126.494765
_cell_angle_gamma 147.037706
_cell_volume 776.837712
_symmetry_space_group_name_H-M "P -1"
_symmetry_group_IT_number 2
_symmetry_cell_setting 'triclinic'
loop_
_space_group_symop_operation_xyz
x,y,z
-x,-y,-z
loop_
_atom_site_type_symbol
_atom_site_label
_atom_site_fract_x
_atom_site_fract_y
_atom_site_fract_z
Si Si1 0.100225 0.030116 0.715190
Si Si2 0.734760 0.122253 0.432297
Si Si3 0.490391 0.812796 0.114493
Si Si4 0.707913 0.885671 0.723243
Si Si5 0.007380 0.255202 0.523941
Si Si6 0.557513 0.572641 0.162226
Si Si7 0.830173 0.719083 0.890251
Si Si8 0.031568 0.724561 0.980167
O O1 0.007466 0.810109 0.605994
O O2 0.119840 0.941158 0.878501
O O3 0.275931 0.298354 0.726535
O O4 0.023188 0.098630 0.653441
O O5 0.687552 0.990645 0.565779
O O6 0.854255 0.150907 0.468850
O O7 0.839721 0.426017 0.427390
O O8 0.575756 0.931479 0.277767
O O9 0.581983 0.793207 0.137228
O O10 0.304159 0.512203 0.054247
O O11 0.500000 0.000000 0.000000
O O12 0.564648 0.663370 0.766386
O O13 0.749743 0.769603 0.741757
O O14 0.862139 0.132543 0.855589
O O15 0.500000 0.500000 0.000000
O O16 0.871139 0.615636 0.890595
O O17 0.000000 0.000000 0.000000
O O18 0.000000 0.500000 0.000000
#
# Coordination Sequence:
#
# PCOD9026463 Si02
#       8
#     2   2   2   2   2   2   2   2
#     4  11  22  43  65  95 130 179 219 258 339 394
#     4  11  23  44  66  97 131 169 224 275 328 383
#     4  11  26  42  69  98 129 173 223 274 332 392
#     4  10  22  41  64  92 130 172 214 268 326 386
#     4  10  24  42  67  94 131 176 216 276 324 397
#     4  11  23  42  67  94 131 172 216 273 329 394
#     4   9  22  41  62  94 126 171 215 265 324 391
#     4  11  22  37  66  94 128 167 217 271 320 389
#
# _framework density 20.596323000000002
#
# number of rings (size 3 to 8) (size 9 to 14) (size 15 to 20)
#    0.000    1.500    2.500    1.500    3.500    6.000 
#    4.500    0.625    0.000    0.000    0.000    0.000 
#    0.000    0.000    0.000    0.000    0.000    0.000 
#
# Total GULP energy -89302.104927 kJ/mol
# GULP energy per Si atom -5581.381558 kJ/mol
# Density = 2.054944 g / cm^3
# Si number density = 20.596323 Si / 1000 Ang^3
#
#
#
# Elastic Constant Matrix: (Units=GPa)
#
#
# Indices 1 2 3 4 5 6 
#
# 1 92.3122 33.6327 19.8851 -3.0343 5.7178 -10.0585
# 2 33.6327 74.0866 44.6236 -10.8969 7.3082 -14.3002
# 3 19.8851 44.6236 115.9826 -11.4167 -15.6152 -7.4534
# 4 -3.0343 -10.8969 -11.4167 32.4605 3.6727 3.2614
# 5 5.7178 7.3082 -15.6152 3.6727 25.6766 3.3216
# 6 -10.0585 -14.3002 -7.4534 3.2614 3.3216 38.2887
#
#
#
# Elastic Compliance Matrix: (Units=1/GPa)
#
#
# Indices 1 2 3 4 5 6 
#
# 1 0.013122 -0.005337 -0.000396 -0.000665 -0.001754 0.001586
# 2 -0.005337 0.025144 -0.009601 0.005402 -0.013463 0.006827
# 3 -0.000396 -0.009601 0.013843 0.000520 0.011428 -0.002031
# 4 -0.000665 0.005402 0.000520 0.033438 -0.005804 -0.000401
# 5 -0.001754 -0.013463 0.011428 -0.005804 0.051889 -0.007271
# 6 0.001586 0.006827 -0.002031 -0.000401 -0.007271 0.029353
#
#
# Mechanical properties :
#
#
# Convention : Reuss Voigt Hill
#
# Bulk Modulus (GPa) = 46.64029 53.18490 49.91259
# Shear Modulus (GPa) = 24.43737 31.56783 28.00260
#
# Velocity S-wave (km/s) = 3.44829 3.91921 3.69126
# Velocity P-wave (km/s) = 6.20873 6.80873 6.51564
#
# Compressibility (1/GPa) = 0.02144069
#
# Stress axis : x y z
#
# Youngs Moduli (GPa) = 76.20663 39.77107 72.23872
#
# Poissons Ratio (x) = 0.21227 0.02861
# Poissons Ratio (y) = 0.40674 0.69356
# Poissons Ratio (z) = 0.03018 0.38184
#
# Static dielectric constant tensor:
#      x y z
#    x 1.786500 0.019440 0.007590 
#    y 0.019440 1.751630 0.014110 
#    z 0.007590 0.014110 1.750570 
# 
# From -- ./inp_files/462003.got.cif
#   From: 2010.05.17/outbox.cif.g08.bks.cpg/sg2_232_cif.got.tgz:462003.got - 2010.06.03 11:33:40.
