data_PCOD9026561
_publ_section_title
;
Structure prediction by ZEFSAII (Michael W. Deem and Ramdas Pophale) SiO2 
 PCOD9026561
Probable space group: P -1
;
_chemical_formula_sum "Si O2"
_cell_formula_units_Z 15
_cell_length_a 12.663581
_cell_length_b 8.342089
_cell_length_c 10.770209
_cell_angle_alpha 105.582027
_cell_angle_beta 145.915322
_cell_angle_gamma 86.482888
_cell_volume 586.195605
_symmetry_space_group_name_H-M "P -1"
_symmetry_group_IT_number 2
_symmetry_cell_setting 'triclinic'
loop_
_space_group_symop_operation_xyz
x,y,z
-x,-y,-z
loop_
_atom_site_type_symbol
_atom_site_label
_atom_site_fract_x
_atom_site_fract_y
_atom_site_fract_z
Si Si1 0.726469 0.952080 0.985441
Si Si2 0.869102 0.431481 0.525115
Si Si3 0.452418 0.184029 0.474107
Si Si4 0.500000 0.500000 0.000000
Si Si5 0.275239 0.677693 0.901314
Si Si6 0.889342 0.984762 0.756024
Si Si7 0.845977 0.805375 0.298029
Si Si8 0.812756 0.358540 0.734214
O O1 0.703469 0.833672 0.056473
O O2 0.959009 0.033540 0.202081
O O3 0.647568 0.117793 0.961761
O O4 0.644378 0.840629 0.761444
O O5 0.713167 0.384833 0.247581
O O6 0.782091 0.411661 0.574044
O O7 0.048272 0.607155 0.708579
O O8 0.997498 0.297119 0.606746
O O9 0.645808 0.340483 0.672480
O O10 0.500000 0.000000 0.500000
O O11 0.301367 0.176157 0.435231
O O12 0.593524 0.438320 0.949179
O O13 0.691086 0.695028 0.224275
O O14 0.842040 0.165710 0.719679
O O15 0.000000 0.000000 0.000000
O O16 0.000000 0.000000 0.500000
O O17 0.000000 0.500000 0.000000
#
# Coordination Sequence:
#
# PCOD9026561 Si02
#       8
#     2   2   2   1   2   2   2   2
#     4  11  21  40  74  95 130 185 226 277 350 409
#     4  10  22  41  64  96 142 170 225 280 336 419
#     4   9  22  41  60  97 132 170 232 279 325 406
#     4  10  26  44  60  98 148 166 230 286 322 426
#     4  10  23  42  67  98 135 179 218 283 351 408
#     4   9  20  41  64  91 130 168 229 281 320 405
#     4  11  22  43  67 100 135 180 223 275 351 409
#     4  11  23  40  67  93 134 184 220 280 344 397
#
# _framework density 25.588729000000001
#
# number of rings (size 3 to 8) (size 9 to 14) (size 15 to 20)
#    0.000    1.867    2.667    0.000    7.467    1.600 
#    0.000    2.667    0.000    0.000    0.000    0.000 
#    0.000    0.000    0.000    0.000    0.000    0.000 
#
# Total GULP energy -83537.237032 kJ/mol
# GULP energy per Si atom -5569.149135 kJ/mol
# Density = 2.553049 g / cm^3
# Si number density = 25.588729 Si / 1000 Ang^3
#
#
#
# Elastic Constant Matrix: (Units=GPa)
#
#
# Indices 1 2 3 4 5 6 
#
# 1 108.9311 15.7907 32.0387 13.7555 29.7332 29.5254
# 2 15.7907 86.5240 16.3047 18.0451 -1.8040 5.8303
# 3 32.0387 16.3047 110.9461 30.6025 18.6870 27.2222
# 4 13.7555 18.0451 30.6025 27.2958 14.4959 3.1477
# 5 29.7332 -1.8040 18.6870 14.4959 46.5247 0.2375
# 6 29.5254 5.8303 27.2222 3.1477 0.2375 42.4280
#
#
#
# Elastic Compliance Matrix: (Units=1/GPa)
#
#
# Indices 1 2 3 4 5 6 
#
# 1 0.014784 -0.002285 0.000067 0.000225 -0.009583 -0.009980
# 2 -0.002285 0.014522 0.001135 -0.012616 0.005499 -0.000229
# 3 0.000067 0.001135 0.015961 -0.017066 -0.001046 -0.009172
# 4 0.000225 -0.012616 -0.017066 0.071741 -0.016168 0.007295
# 5 -0.009583 0.005499 -0.001046 -0.016168 0.033250 0.007597
# 6 -0.009980 -0.000229 -0.009172 0.007295 0.007597 0.035847
#
#
# Mechanical properties :
#
#
# Convention : Reuss Voigt Hill
#
# Bulk Modulus (GPa) = 23.20046 48.29660 35.74853
# Shear Modulus (GPa) = 24.67463 39.40084 32.03773
#
# Velocity S-wave (km/s) = 3.10865 3.92825 3.54224
# Velocity P-wave (km/s) = 4.68735 6.28411 5.54352
#
# Compressibility (1/GPa) = 0.04310260
#
# Stress axis : x y z
#
# Youngs Moduli (GPa) = 67.64064 68.86247 62.65272
#
# Poissons Ratio (x) = 0.15735 -0.00423
# Poissons Ratio (y) = 0.15456 -0.07114
# Poissons Ratio (z) = -0.00456 -0.07819
#
# Static dielectric constant tensor:
#      x y z
#    x 1.952780 0.091420 -0.042690 
#    y 0.091420 1.578270 0.275570 
#    z -0.042690 0.275570 1.996440 
# 
# From -- ./inp_files/417971.got.cif
#   From: 2010.05.17/outbox.cif.g08.bks.cpg/sg2_209_cif.got.tgz:417971.got - 2010.06.03 11:33:40.
