data_PCOD9026175
_publ_section_title
;
Structure prediction by ZEFSAII (Michael W. Deem and Ramdas Pophale) SiO2 
 PCOD9026175
Probable space group: P -1
;
_chemical_formula_sum "Si O2"
_cell_formula_units_Z 12
_cell_length_a 7.036016
_cell_length_b 9.189632
_cell_length_c 10.010456
_cell_angle_alpha 78.158293
_cell_angle_beta 129.530318
_cell_angle_gamma 83.759610
_cell_volume 463.396412
_symmetry_space_group_name_H-M "P -1"
_symmetry_group_IT_number 2
_symmetry_cell_setting 'triclinic'
loop_
_space_group_symop_operation_xyz
x,y,z
-x,-y,-z
loop_
_atom_site_type_symbol
_atom_site_label
_atom_site_fract_x
_atom_site_fract_y
_atom_site_fract_z
Si Si1 0.257696 0.759725 0.239724
Si Si2 0.068973 0.718475 0.555436
Si Si3 0.305373 0.166618 0.425470
Si Si4 0.294582 0.985792 0.019220
Si Si5 0.921249 0.599921 0.237128
Si Si6 0.387464 0.238324 0.182537
O O1 0.521058 0.748470 0.432746
O O2 0.005997 0.904787 0.151831
O O3 0.171668 0.610042 0.262891
O O4 0.294674 0.814081 0.095483
O O5 0.909735 0.848220 0.565038
O O6 0.932135 0.701423 0.357536
O O7 0.093630 0.559951 0.678640
O O8 0.345664 0.740917 0.654014
O O9 0.205278 0.264974 0.226707
O O10 0.500000 0.000000 0.500000
O O11 0.392334 0.065434 0.172496
O O12 0.500000 0.000000 0.000000
O O13 0.704157 0.666302 0.013537
#
# Coordination Sequence:
#
# PCOD9026175 Si02
#       6
#     2   2   2   2   2   2
#     4  10  22  41  62  97 138 166 232 274 331 409
#     4  11  26  47  69 100 140 182 228 281 340 401
#     4  12  26  42  65 105 139 179 224 284 344 402
#     4  10  23  39  68  99 133 184 224 281 340 395
#     4  10  24  49  71  98 136 184 231 280 336 405
#     4  11  24  43  68 101 136 175 236 280 338 406
#
# _framework density 25.895758000000001
#
# number of rings (size 3 to 8) (size 9 to 14) (size 15 to 20)
#    0.000    1.333    3.333    0.500    7.000    2.000 
#    0.000    0.000    0.000    0.000    0.000    0.000 
#    0.000    0.000    0.000    0.000    0.000    0.000 
#
# Total GULP energy -67035.726503 kJ/mol
# GULP energy per Si atom -5586.310542 kJ/mol
# Density = 2.583682 g / cm^3
# Si number density = 25.895758 Si / 1000 Ang^3
#
#
#
# Elastic Constant Matrix: (Units=GPa)
#
#
# Indices 1 2 3 4 5 6 
#
# 1 132.6058 6.2159 39.4923 0.2886 -21.5954 28.3670
# 2 6.2159 68.8818 9.1842 -13.7433 -5.7743 23.8459
# 3 39.4923 9.1842 141.3232 -11.5562 -22.7805 -1.5410
# 4 0.2886 -13.7433 -11.5562 41.0300 17.1075 -6.5378
# 5 -21.5954 -5.7743 -22.7805 17.1075 43.5191 -0.7386
# 6 28.3670 23.8459 -1.5410 -6.5378 -0.7386 39.7772
#
#
#
# Elastic Compliance Matrix: (Units=1/GPa)
#
#
# Indices 1 2 3 4 5 6 
#
# 1 0.011503 0.002641 -0.002872 -0.004185 0.006023 -0.010474
# 2 0.002641 0.019914 -0.001652 0.003439 0.001510 -0.013292
# 3 -0.002872 -0.001652 0.008517 0.001494 0.002289 0.003656
# 4 -0.004185 0.003439 0.001494 0.032593 -0.013548 0.006087
# 5 0.006023 0.001510 0.002289 -0.013548 0.032577 -0.006734
# 6 -0.010474 -0.013292 0.003656 0.006087 -0.006734 0.041595
#
#
# Mechanical properties :
#
#
# Convention : Reuss Voigt Hill
#
# Bulk Modulus (GPa) = 27.64976 50.28839 38.96908
# Shear Modulus (GPa) = 30.76526 44.05982 37.41254
#
# Velocity S-wave (km/s) = 3.45054 4.12931 3.80509
# Velocity P-wave (km/s) = 5.15514 6.49590 5.86396
#
# Compressibility (1/GPa) = 0.03616668
#
# Stress axis : x y z
#
# Youngs Moduli (GPa) = 86.93311 50.21636 117.41480
#
# Poissons Ratio (x) = -0.13260 0.33718
# Poissons Ratio (y) = -0.22955 0.19401
# Poissons Ratio (z) = 0.24965 0.08297
#
# Static dielectric constant tensor:
#      x y z
#    x 2.098340 -0.094550 -0.012230 
#    y -0.094550 2.082190 -0.068710 
#    z -0.012230 -0.068710 2.066650 
# 
# From -- ./inp_files/131392.got.cif
#   From: 2010.05.17/outbox.cif.g08.bks.cpg/sg2_66_cif.got.tgz:131392.got - 2010.06.03 11:33:40.
