data_PCOD9026148
_publ_section_title
;
Structure prediction by ZEFSAII (Michael W. Deem and Ramdas Pophale) SiO2 
 PCOD9026148
Probable space group: P -1
;
_chemical_formula_sum "Si O2"
_cell_formula_units_Z 16
_cell_length_a 7.410693
_cell_length_b 15.051396
_cell_length_c 17.346552
_cell_angle_alpha 154.310431
_cell_angle_beta 103.104777
_cell_angle_gamma 61.963374
_cell_volume 634.837345
_symmetry_space_group_name_H-M "P -1"
_symmetry_group_IT_number 2
_symmetry_cell_setting 'triclinic'
loop_
_space_group_symop_operation_xyz
x,y,z
-x,-y,-z
loop_
_atom_site_type_symbol
_atom_site_label
_atom_site_fract_x
_atom_site_fract_y
_atom_site_fract_z
Si Si1 0.737674 0.047729 0.175848
Si Si2 0.274815 0.036646 0.479548
Si Si3 0.815800 0.536640 0.787004
Si Si4 0.897015 0.897652 0.788950
Si Si5 0.771262 0.650089 0.695860
Si Si6 0.535449 0.071397 0.753954
Si Si7 0.730770 0.152379 0.428164
Si Si8 0.252300 0.639085 0.133798
O O1 0.506471 0.214266 0.230134
O O2 0.716269 0.190468 0.364456
O O3 0.734551 0.815834 0.024928
O O4 0.971166 0.975509 0.100147
O O5 0.039263 0.325657 0.696987
O O6 0.500000 0.000000 0.500000
O O7 0.298213 0.009453 0.367820
O O8 0.270215 0.808794 0.331157
O O9 0.866864 0.560246 0.720796
O O10 0.691069 0.401299 0.658786
O O11 0.807937 0.853552 0.824261
O O12 0.091432 0.601428 0.543294
O O13 0.683826 0.041089 0.818505
O O14 0.462386 0.885360 0.600245
O O15 0.300524 0.376500 0.960958
O O16 0.994615 0.871785 0.253526
O O17 0.500000 0.500000 0.000000
#
# Coordination Sequence:
#
# PCOD9026148 Si02
#       8
#     2   2   2   2   2   2   2   2
#     4  12  24  42  71  93 137 179 216 275 335 387
#     4  10  22  41  62  94 131 171 214 276 331 387
#     4  11  25  43  65  97 134 172 221 272 332 392
#     4  11  23  41  73  97 129 179 223 268 339 386
#     4  11  23  45  64 101 130 172 230 270 328 396
#     4  11  21  42  67  99 127 175 222 270 328 399
#     4  11  23  44  65  98 137 172 218 276 327 393
#     4   9  20  38  66  90 125 169 222 259 326 392
#
# _framework density 25.203306000000001
#
# number of rings (size 3 to 8) (size 9 to 14) (size 15 to 20)
#    0.000    1.250    3.750    2.625    5.250    0.500 
#    4.500    1.250    0.000    0.000    0.000    0.000 
#    0.000    0.000    0.000    0.000    0.000    0.000 
#
# Total GULP energy -89396.229862 kJ/mol
# GULP energy per Si atom -5587.264366 kJ/mol
# Density = 2.514594 g / cm^3
# Si number density = 25.203306 Si / 1000 Ang^3
#
#
#
# Elastic Constant Matrix: (Units=GPa)
#
#
# Indices 1 2 3 4 5 6 
#
# 1 134.4519 28.5488 19.5817 -1.4631 28.7244 -0.6294
# 2 28.5488 57.7042 6.1378 -3.7942 7.2962 5.0970
# 3 19.5817 6.1378 87.1504 7.4864 20.9562 -0.8113
# 4 -1.4631 -3.7942 7.4864 27.3550 -0.0833 8.7836
# 5 28.7244 7.2962 20.9562 -0.0833 37.2199 5.2721
# 6 -0.6294 5.0970 -0.8113 8.7836 5.2721 36.1430
#
#
#
# Elastic Compliance Matrix: (Units=1/GPa)
#
#
# Indices 1 2 3 4 5 6 
#
# 1 0.009838 -0.004183 -0.000171 -0.000648 -0.006951 0.001929
# 2 -0.004183 0.020071 -0.000961 0.004103 0.000408 -0.003982
# 3 -0.000171 -0.000961 0.013932 -0.004874 -0.007929 0.002787
# 4 -0.000648 0.004103 -0.004874 0.042146 0.004170 -0.011550
# 5 -0.006951 0.000408 -0.007929 0.004170 0.037596 -0.006854
# 6 0.001929 -0.003982 0.002787 -0.011550 -0.006854 0.032132
#
#
# Mechanical properties :
#
#
# Convention : Reuss Voigt Hill
#
# Bulk Modulus (GPa) = 30.11101 43.09365 36.60233
# Shear Modulus (GPa) = 28.18233 35.14614 31.66423
#
# Velocity S-wave (km/s) = 3.34758 3.73836 3.54835
# Velocity P-wave (km/s) = 5.18795 5.98074 5.59840
#
# Compressibility (1/GPa) = 0.03321045
#
# Stress axis : x y z
#
# Youngs Moduli (GPa) = 101.65077 49.82208 71.77784
#
# Poissons Ratio (x) = 0.20841 0.01226
# Poissons Ratio (y) = 0.42521 0.06900
# Poissons Ratio (z) = 0.01737 0.04790
#
# Static dielectric constant tensor:
#      x y z
#    x 2.065910 0.029420 -0.029600 
#    y 0.029420 1.997430 0.004840 
#    z -0.029600 0.004840 2.100190 
# 
# From -- ./inp_files/591089.got.cif
#   From: 2010.05.17/outbox.cif.g08.bks.cpg/sg2_296_cif.got.tgz:591089.got - 2010.06.03 11:33:40.
