data_PCOD9026534
_publ_section_title
;
Structure prediction by ZEFSAII (Michael W. Deem and Ramdas Pophale) SiO2 
 PCOD9026534
Probable space group: P -1
;
_chemical_formula_sum "Si O2"
_cell_formula_units_Z 14
_cell_length_a 23.406244
_cell_length_b 5.045078
_cell_length_c 9.070775
_cell_angle_alpha 56.125228
_cell_angle_beta 38.812833
_cell_angle_gamma 56.952482
_cell_volume 544.571128
_symmetry_space_group_name_H-M "P -1"
_symmetry_group_IT_number 2
_symmetry_cell_setting 'triclinic'
loop_
_space_group_symop_operation_xyz
x,y,z
-x,-y,-z
loop_
_atom_site_type_symbol
_atom_site_label
_atom_site_fract_x
_atom_site_fract_y
_atom_site_fract_z
Si Si1 0.230860 0.063672 0.267516
Si Si2 0.328015 0.308685 0.246903
Si Si3 0.286871 0.270833 0.793656
Si Si4 0.033153 0.942629 0.709119
Si Si5 0.080315 0.511890 0.043382
Si Si6 0.564468 0.366948 0.275534
Si Si7 0.439672 0.316856 0.284088
O O1 0.284521 0.686687 0.258693
O O2 0.123329 0.076523 0.442540
O O3 0.248890 0.170586 0.364082
O O4 0.268603 0.285941 0.001110
O O5 0.384168 0.149361 0.325893
O O6 0.404057 0.330302 0.961360
O O7 0.351971 0.480246 0.515749
O O8 0.347177 0.903402 0.767081
O O9 0.186816 0.332551 0.900298
O O10 0.990708 0.731151 0.742970
O O11 0.066962 0.708989 0.854886
O O12 0.951049 0.228184 0.845247
O O13 0.500000 0.500000 0.500000
O O14 0.514972 0.199372 0.296783
O O15 0.500000 0.500000 0.000000
#
# Coordination Sequence:
#
# PCOD9026534 Si02
#       7
#     2   2   2   2   2   2   2
#     4  11  23  42  68 100 138 175 220 278 335 397
#     4  10  23  41  66  97 132 178 225 272 330 398
#     4  11  24  41  66  99 137 177 226 281 341 398
#     4  10  22  43  68  99 136 175 220 272 333 404
#     4  10  23  41  67  99 134 175 221 273 332 403
#     4  10  22  41  64  95 136 177 225 283 339 394
#     4  10  22  41  64  95 130 178 228 275 330 396
#
# _framework density 25.708303999999998
#
# number of rings (size 3 to 8) (size 9 to 14) (size 15 to 20)
#    0.000    1.714    0.000    3.000    0.000   10.286 
#    0.000    8.571    0.000    0.000    0.000    0.000 
#    0.000    0.000    0.000    0.000    0.000    0.000 
#
# Total GULP energy -78298.659191 kJ/mol
# GULP energy per Si atom -5592.761371 kJ/mol
# Density = 2.564979 g / cm^3
# Si number density = 25.708304 Si / 1000 Ang^3
#
#
#
# Elastic Constant Matrix: (Units=GPa)
#
#
# Indices 1 2 3 4 5 6 
#
# 1 134.1423 68.9205 46.3101 -3.9735 -14.4146 -3.5014
# 2 68.9205 86.8977 14.6814 10.7209 -5.1379 -8.5973
# 3 46.3101 14.6814 129.3033 -1.1704 0.2549 -19.8888
# 4 -3.9735 10.7209 -1.1704 30.9685 -9.2810 -12.7867
# 5 -14.4146 -5.1379 0.2549 -9.2810 47.4645 2.3313
# 6 -3.5014 -8.5973 -19.8888 -12.7867 2.3313 43.0679
#
#
#
# Elastic Compliance Matrix: (Units=1/GPa)
#
#
# Indices 1 2 3 4 5 6 
#
# 1 0.016471 -0.013042 -0.004587 0.007387 0.005131 -0.001467
# 2 -0.013042 0.022635 0.002300 -0.009722 -0.003513 0.001824
# 3 -0.004587 0.002300 0.009878 0.000618 -0.001317 0.004903
# 4 0.007387 -0.009722 0.000618 0.044175 0.009258 0.011559
# 5 0.005131 -0.003513 -0.001317 0.009258 0.024036 0.000555
# 6 -0.001467 0.001824 0.004903 0.011559 0.000555 0.029130
#
#
# Mechanical properties :
#
#
# Convention : Reuss Voigt Hill
#
# Bulk Modulus (GPa) = 54.56541 67.79636 61.18089
# Shear Modulus (GPa) = 27.30888 38.99561 33.15224
#
# Velocity S-wave (km/s) = 3.26277 3.89890 3.59493
# Velocity P-wave (km/s) = 5.95526 6.83353 6.40946
#
# Compressibility (1/GPa) = 0.01832663
#
# Stress axis : x y z
#
# Youngs Moduli (GPa) = 60.71310 44.17969 101.23733
#
# Poissons Ratio (x) = 0.57617 0.46440
# Poissons Ratio (y) = 0.79179 -0.23288
# Poissons Ratio (z) = 0.27851 -0.10163
#
# Static dielectric constant tensor:
#      x y z
#    x 1.982230 -0.024780 0.013450 
#    y -0.024780 2.085240 -0.097330 
#    z 0.013450 -0.097330 2.091080 
# 
# From -- ./inp_files/340066.got.cif
#   From: 2010.05.17/outbox.cif.g08.bks.cpg/sg2_171_cif.got.tgz:340066.got - 2010.06.03 11:33:40.
