data_PCOD9026551
_publ_section_title
;
Structure prediction by ZEFSAII (Michael W. Deem and Ramdas Pophale) SiO2 
 PCOD9026551
Probable space group: P -1
;
_chemical_formula_sum "Si O2"
_cell_formula_units_Z 14
_cell_length_a 11.339683
_cell_length_b 11.663250
_cell_length_c 11.359267
_cell_angle_alpha 28.813054
_cell_angle_beta 61.283687
_cell_angle_gamma 50.298942
_cell_volume 544.220793
_symmetry_space_group_name_H-M "P -1"
_symmetry_group_IT_number 2
_symmetry_cell_setting 'triclinic'
loop_
_space_group_symop_operation_xyz
x,y,z
-x,-y,-z
loop_
_atom_site_type_symbol
_atom_site_label
_atom_site_fract_x
_atom_site_fract_y
_atom_site_fract_z
Si Si1 0.743461 0.070438 0.543853
Si Si2 0.886086 0.656058 0.024540
Si Si3 0.955012 0.833899 0.439242
Si Si4 0.290466 0.756712 0.976691
Si Si5 0.418845 0.373576 0.756527
Si Si6 0.274353 0.726386 0.282634
Si Si7 0.407105 0.236667 0.235850
O O1 0.610260 0.377234 0.365056
O O2 0.865330 0.031427 0.417985
O O3 0.675264 0.884391 0.695984
O O4 0.825520 0.962732 0.727684
O O5 0.723031 0.661946 0.102006
O O6 0.976488 0.476406 0.258866
O O7 0.000000 0.500000 0.000000
O O8 0.096738 0.852958 0.297686
O O9 0.827359 0.947294 0.294117
O O10 0.460461 0.724718 0.922845
O O11 0.257059 0.704750 0.171114
O O12 0.605612 0.152849 0.875026
O O13 0.373236 0.467888 0.557293
O O14 0.295041 0.524017 0.097828
O O15 0.500000 0.000000 0.500000
#
# Coordination Sequence:
#
# PCOD9026551 Si02
#       7
#     2   2   2   2   2   2   2
#     4  11  22  41  70  96 126 168 224 271 318 378
#     4   9  21  39  64  98 126 164 215 268 319 373
#     4  10  22  41  64  96 132 169 214 267 326 380
#     4  11  23  42  68  93 132 175 211 272 325 380
#     4  10  22  43  69  94 131 171 216 270 319 388
#     4  10  22  42  66  93 135 175 208 260 335 389
#     4  11  23  41  68  99 125 167 226 269 317 384
#
# _framework density 25.724854000000001
#
# number of rings (size 3 to 8) (size 9 to 14) (size 15 to 20)
#    0.000    1.714    1.429    2.143    4.000    5.143 
#    5.143   15.000    0.000    0.000    0.000    0.000 
#    0.000    0.000    0.000    0.000    0.000    0.000 
#
# Total GULP energy -78082.781447 kJ/mol
# GULP energy per Si atom -5577.341532 kJ/mol
# Density = 2.566630 g / cm^3
# Si number density = 25.724854 Si / 1000 Ang^3
#
#
#
# Elastic Constant Matrix: (Units=GPa)
#
#
# Indices 1 2 3 4 5 6 
#
# 1 140.0352 82.4080 47.0482 19.6350 11.0751 -7.8037
# 2 82.4080 143.1464 62.6685 43.1303 -11.4914 -21.1175
# 3 47.0482 62.6685 160.6285 27.4238 52.0339 11.8556
# 4 19.6350 43.1303 27.4238 54.1802 -6.6287 -5.3912
# 5 11.0751 -11.4914 52.0339 -6.6287 47.0100 -1.2263
# 6 -7.8037 -21.1175 11.8556 -5.3912 -1.2263 40.7982
#
#
#
# Elastic Compliance Matrix: (Units=1/GPa)
#
#
# Indices 1 2 3 4 5 6 
#
# 1 0.012434 -0.010327 0.003882 0.000109 -0.009849 -0.004377
# 2 -0.010327 0.025595 -0.016101 -0.003631 0.026424 0.016266
# 3 0.003882 -0.016101 0.024602 -0.006794 -0.033474 -0.016645
# 4 0.000109 -0.003631 -0.006794 0.026413 0.010433 0.003919
# 5 -0.009849 0.026424 -0.033474 0.010433 0.069226 0.024980
# 6 -0.004377 0.016266 -0.016645 0.003919 0.024980 0.038199
#
#
# Mechanical properties :
#
#
# Convention : Reuss Voigt Hill
#
# Bulk Modulus (GPa) = 57.01634 92.00661 74.51148
# Shear Modulus (GPa) = 20.20963 45.17671 32.69317
#
# Velocity S-wave (km/s) = 2.80591 4.19519 3.56881
# Velocity P-wave (km/s) = 5.71922 7.70126 6.78303
#
# Compressibility (1/GPa) = 0.01753883
#
# Stress axis : x y z
#
# Youngs Moduli (GPa) = 80.42732 39.07040 40.64652
#
# Poissons Ratio (x) = 0.40347 -0.15779
# Poissons Ratio (y) = 0.83054 0.65446
# Poissons Ratio (z) = -0.31222 0.62909
#
# Static dielectric constant tensor:
#      x y z
#    x 2.098560 -0.042590 -0.097540 
#    y -0.042590 2.194620 -0.008680 
#    z -0.097540 -0.008680 2.092550 
# 
# From -- ./inp_files/429361.got.cif
#   From: 2010.05.17/outbox.cif.g08.bks.cpg/sg2_215_cif.got.tgz:429361.got - 2010.06.03 11:33:40.
