data_PCOD9026122
_publ_section_title
;
Structure prediction by ZEFSAII (Michael W. Deem and Ramdas Pophale) SiO2 
 PCOD9026122
Probable space group: P -1
;
_chemical_formula_sum "Si O2"
_cell_formula_units_Z 14
_cell_length_a 9.630273
_cell_length_b 9.290352
_cell_length_c 12.896655
_cell_angle_alpha 69.746122
_cell_angle_beta 125.220556
_cell_angle_gamma 131.121957
_cell_volume 709.058407
_symmetry_space_group_name_H-M "P -1"
_symmetry_group_IT_number 2
_symmetry_cell_setting 'triclinic'
loop_
_space_group_symop_operation_xyz
x,y,z
-x,-y,-z
loop_
_atom_site_type_symbol
_atom_site_label
_atom_site_fract_x
_atom_site_fract_y
_atom_site_fract_z
Si Si1 0.107790 0.536447 0.784837
Si Si2 0.989710 0.656718 0.515706
Si Si3 0.352465 0.687932 0.270497
Si Si4 0.440006 0.793458 0.044574
Si Si5 0.385723 0.422308 0.860049
Si Si6 0.641243 0.953189 0.509409
Si Si7 0.488990 0.427952 0.346404
O O1 0.100876 0.676100 0.668123
O O2 0.185777 0.425878 0.786079
O O3 0.871065 0.387432 0.759285
O O4 0.261527 0.651250 0.919258
O O5 0.000000 0.500000 0.500000
O O6 0.742028 0.562458 0.445830
O O7 0.126817 0.855197 0.463063
O O8 0.362002 0.737697 0.142358
O O9 0.531378 0.861843 0.374277
O O10 0.387277 0.523509 0.329022
O O11 0.627227 0.766956 0.119255
O O12 0.500000 0.000000 0.000000
O O13 0.518269 0.558804 0.785166
O O14 0.500000 0.500000 0.000000
O O15 0.621652 0.784459 0.606617
O O16 0.500000 0.000000 0.500000
#
# Coordination Sequence:
#
# PCOD9026122 Si02
#       7
#     2   2   2   2   2   2   2
#     4  11  20  40  65  88 124 173 208 256 319 368
#     4  12  22  39  66  95 130 170 208 264 315 375
#     4  11  24  42  63  92 132 163 213 271 312 373
#     4  10  22  41  62  92 125 165 213 261 318 373
#     4   9  20  39  67  85 122 170 206 258 312 373
#     4  12  23  39  64  95 125 171 213 254 318 382
#     4  11  23  43  62  95 133 163 212 263 317 371
#
# _framework density 19.744495000000001
#
# number of rings (size 3 to 8) (size 9 to 14) (size 15 to 20)
#    0.000    1.143    4.286    1.714    0.000    1.714 
#    5.143    0.714    0.000    0.000    0.000    0.000 
#    0.000    0.000    0.000    0.000    0.000    0.000 
#
# Total GULP energy -78176.423082 kJ/mol
# GULP energy per Si atom -5584.030220 kJ/mol
# Density = 1.969956 g / cm^3
# Si number density = 19.744495 Si / 1000 Ang^3
#
#
#
# Elastic Constant Matrix: (Units=GPa)
#
#
# Indices 1 2 3 4 5 6 
#
# 1 84.7556 40.4368 9.4632 -15.0697 -2.7287 11.4443
# 2 40.4368 137.1393 38.3340 -26.7002 0.4233 3.3246
# 3 9.4632 38.3340 116.0736 -11.8517 -16.5914 2.4201
# 4 -15.0697 -26.7002 -11.8517 34.8474 -6.8520 -2.4238
# 5 -2.7287 0.4233 -16.5914 -6.8520 34.3740 3.6327
# 6 11.4443 3.3246 2.4201 -2.4238 3.6327 15.6782
#
#
#
# Elastic Compliance Matrix: (Units=1/GPa)
#
#
# Indices 1 2 3 4 5 6 
#
# 1 0.015958 -0.003958 0.001245 0.004288 0.003960 -0.011256
# 2 -0.003958 0.010158 -0.002689 0.005122 -0.000945 0.002161
# 3 0.001245 -0.002689 0.010671 0.003125 0.006216 -0.002943
# 4 0.004288 0.005122 0.003125 0.037297 0.009336 -0.001095
# 5 0.003960 -0.000945 0.006216 0.009336 0.035379 -0.010404
# 6 -0.011256 0.002161 -0.002943 -0.001095 -0.010404 0.074236
#
#
# Mechanical properties :
#
#
# Convention : Reuss Voigt Hill
#
# Bulk Modulus (GPa) = 38.48837 57.15961 47.82399
# Shear Modulus (GPa) = 24.61063 33.62890 29.11976
#
# Velocity S-wave (km/s) = 3.53435 4.13147 3.84452
# Velocity P-wave (km/s) = 6.01590 7.19522 6.63182
#
# Compressibility (1/GPa) = 0.02598188
#
# Stress axis : x y z
#
# Youngs Moduli (GPa) = 62.66609 98.44206 93.71338
#
# Poissons Ratio (x) = 0.38961 -0.11664
# Poissons Ratio (y) = 0.24802 0.25202
# Poissons Ratio (z) = -0.07800 0.26474
#
# Static dielectric constant tensor:
#      x y z
#    x 1.689230 -0.010840 -0.007970 
#    y -0.010840 1.659790 -0.014620 
#    z -0.007970 -0.014620 1.777330 
# 
# From -- ./inp_files/177193.got.cif
#   From: 2010.05.17/outbox.cif.g08.bks.cpg/sg2_89_cif.got.tgz:177193.got - 2010.06.03 11:33:40.
