data_PCOD9026385
_publ_section_title
;
Structure prediction by ZEFSAII (Michael W. Deem and Ramdas Pophale) SiO2 
 PCOD9026385
Probable space group: P -1
;
_chemical_formula_sum "Si O2"
_cell_formula_units_Z 16
_cell_length_a 19.488236
_cell_length_b 26.091442
_cell_length_c 8.137069
_cell_angle_alpha 145.221199
_cell_angle_beta 135.409664
_cell_angle_gamma 20.205553
_cell_volume 778.161374
_symmetry_space_group_name_H-M "P -1"
_symmetry_group_IT_number 2
_symmetry_cell_setting 'triclinic'
loop_
_space_group_symop_operation_xyz
x,y,z
-x,-y,-z
loop_
_atom_site_type_symbol
_atom_site_label
_atom_site_fract_x
_atom_site_fract_y
_atom_site_fract_z
Si Si1 0.946791 0.310732 0.564587
Si Si2 0.712302 0.233248 0.771610
Si Si3 0.228158 0.374444 0.734707
Si Si4 0.388116 0.043042 0.576205
Si Si5 0.156720 0.790689 0.738331
Si Si6 0.137311 0.775168 0.302773
Si Si7 0.277443 0.497311 0.647839
Si Si8 0.801183 0.634959 0.726750
O O1 0.965222 0.201107 0.399009
O O2 0.797536 0.417132 0.435680
O O3 0.167406 0.171769 0.513243
O O4 0.835680 0.474054 0.921287
O O5 0.746398 0.271517 0.774870
O O6 0.507381 0.342598 0.677116
O O7 0.706175 0.292003 0.088329
O O8 0.910721 0.005446 0.521088
O O9 0.222014 0.367996 0.512136
O O10 0.041649 0.463725 0.722062
O O11 0.447755 0.161802 0.614233
O O12 0.500000 0.000000 0.500000
O O13 0.333431 0.168950 0.938513
O O14 0.241941 0.706598 0.478144
O O15 0.000000 0.000000 0.000000
O O16 0.132315 0.673274 0.986540
O O17 0.260054 0.404803 0.387729
#
# Coordination Sequence:
#
# PCOD9026385 Si02
#       8
#     2   2   2   2   2   2   2   2
#     4  11  24  41  64  96 129 166 221 265 318 390
#     4  10  23  43  60  92 129 167 215 263 319 378
#     4  10  22  43  65  91 130 166 212 269 322 383
#     4  11  23  42  66  95 128 170 209 264 328 385
#     4  10  22  44  65  92 131 169 213 271 314 378
#     4  10  22  41  64  87 127 170 211 266 317 372
#     4  12  23  39  64  94 128 166 214 263 319 386
#     4  10  23  41  63  96 128 164 215 268 319 389
#
# _framework density 20.561288000000001
#
# number of rings (size 3 to 8) (size 9 to 14) (size 15 to 20)
#    0.000    1.500    1.250    3.000    0.000    7.500 
#    2.250    0.000    0.000    0.000    0.000    0.000 
#    0.000    0.000    0.000    0.000    0.000    0.000 
#
# Total GULP energy -89363.766271 kJ/mol
# GULP energy per Si atom -5585.235392 kJ/mol
# Density = 2.051449 g / cm^3
# Si number density = 20.561288 Si / 1000 Ang^3
#
#
#
# Elastic Constant Matrix: (Units=GPa)
#
#
# Indices 1 2 3 4 5 6 
#
# 1 86.5794 49.8413 43.3890 -3.0864 7.1197 11.6887
# 2 49.8413 92.1490 45.3422 -6.2868 -5.5109 -1.2618
# 3 43.3890 45.3422 118.6461 -7.5680 1.8065 -7.0133
# 4 -3.0864 -6.2868 -7.5680 36.9761 7.5149 -8.6438
# 5 7.1197 -5.5109 1.8065 7.5149 42.7978 -2.2848
# 6 11.6887 -1.2618 -7.0133 -8.6438 -2.2848 19.1854
#
#
#
# Elastic Compliance Matrix: (Units=1/GPa)
#
#
# Indices 1 2 3 4 5 6 
#
# 1 0.023762 -0.010837 -0.005955 -0.004694 -0.005347 -0.020118
# 2 -0.010837 0.018501 -0.002470 0.002915 0.004244 0.008735
# 3 -0.005955 -0.002470 0.012375 0.003896 -0.000014 0.009743
# 4 -0.004694 0.002915 0.003896 0.033153 -0.003817 0.018958
# 5 -0.005347 0.004244 -0.000014 -0.003817 0.025733 0.004876
# 6 -0.020118 0.008735 0.009743 0.018958 0.004876 0.077638
#
#
# Mechanical properties :
#
#
# Convention : Reuss Voigt Hill
#
# Bulk Modulus (GPa) = 62.06094 63.83550 62.94822
# Shear Modulus (GPa) = 21.27136 30.37867 25.82502
#
# Velocity S-wave (km/s) = 3.21991 3.84796 3.54786
# Velocity P-wave (km/s) = 6.63872 7.13135 6.88944
#
# Compressibility (1/GPa) = 0.01611319
#
# Stress axis : x y z
#
# Youngs Moduli (GPa) = 42.08441 54.05084 80.80984
#
# Poissons Ratio (x) = 0.58577 0.48125
# Poissons Ratio (y) = 0.45608 0.19956
# Poissons Ratio (z) = 0.25063 0.13348
#
# Static dielectric constant tensor:
#      x y z
#    x 1.741590 0.013000 -0.014630 
#    y 0.013000 1.716530 -0.005090 
#    z -0.014630 -0.005090 1.743200 
# 
# From -- ./inp_files/350207.got.cif
#   From: 2010.05.17/outbox.cif.g08.bks.cpg/sg2_176_cif.got.tgz:350207.got - 2010.06.03 11:33:40.
