data_PCOD9026238
_publ_section_title
;
Structure prediction by ZEFSAII (Michael W. Deem and Ramdas Pophale) SiO2 
 PCOD9026238
Probable space group: P -1
;
_chemical_formula_sum "Si O2"
_cell_formula_units_Z 16
_cell_length_a 12.553262
_cell_length_b 15.477757
_cell_length_c 12.351327
_cell_angle_alpha 152.285837
_cell_angle_beta 42.110400
_cell_angle_gamma 128.780172
_cell_volume 744.819954
_symmetry_space_group_name_H-M "P -1"
_symmetry_group_IT_number 2
_symmetry_cell_setting 'triclinic'
loop_
_space_group_symop_operation_xyz
x,y,z
-x,-y,-z
loop_
_atom_site_type_symbol
_atom_site_label
_atom_site_fract_x
_atom_site_fract_y
_atom_site_fract_z
Si Si1 0.981199 0.432908 0.759826
Si Si2 0.145576 0.485784 0.286592
Si Si3 0.346531 0.077463 0.271827
Si Si4 0.836340 0.111101 0.207313
Si Si5 0.819585 0.936975 0.818438
Si Si6 0.743425 0.489729 0.201943
Si Si7 0.602041 0.839780 0.178726
Si Si8 0.489897 0.793830 0.990454
O O1 0.919577 0.531902 0.805628
O O2 0.034262 0.218762 0.449869
O O3 0.135212 0.510941 0.788309
O O4 0.850173 0.432834 0.952792
O O5 0.205558 0.690234 0.485571
O O6 0.000000 0.500000 0.500000
O O7 0.283200 0.320361 0.025554
O O8 0.201693 0.016682 0.240729
O O9 0.325865 0.298397 0.533513
O O10 0.500000 0.000000 0.000000
O O11 0.377159 0.984074 0.261134
O O12 0.712979 0.967554 0.171284
O O13 0.834002 0.112141 0.079398
O O14 0.000000 0.000000 0.000000
O O15 0.664558 0.829205 0.851613
O O16 0.599181 0.361416 0.176822
O O17 0.500000 0.000000 0.500000
O O18 0.502458 0.749582 0.058944
#
# Coordination Sequence:
#
# PCOD9026238 Si02
#       8
#     2   2   2   2   2   2   2   2
#     4  10  22  41  65  94 132 166 218 266 324 393
#     4  12  24  43  71  98 129 183 224 264 337 398
#     4   9  20  37  62  91 123 164 208 259 318 378
#     4  11  21  42  67  92 132 170 215 276 318 388
#     4   9  19  39  63  96 126 162 220 268 315 390
#     4  10  23  42  64  94 130 168 206 275 326 379
#     4  11  27  42  62 100 131 168 222 270 325 394
#     4  10  22  41  63  90 128 163 217 258 319 392
#
# _framework density 21.481701999999999
#
# number of rings (size 3 to 8) (size 9 to 14) (size 15 to 20)
#    0.000    1.750    2.500    0.750    3.500    9.000 
#    0.000    5.625    0.000    0.000    0.000    0.000 
#    0.000    0.000    0.000    0.000    0.000    0.000 
#
# Total GULP energy -89207.022022 kJ/mol
# GULP energy per Si atom -5575.438876 kJ/mol
# Density = 2.143281 g / cm^3
# Si number density = 21.481702 Si / 1000 Ang^3
#
#
#
# Elastic Constant Matrix: (Units=GPa)
#
#
# Indices 1 2 3 4 5 6 
#
# 1 121.8354 36.6149 58.1925 6.9329 -5.0582 -29.7257
# 2 36.6149 26.1334 20.9399 7.1528 2.0969 -9.1644
# 3 58.1925 20.9399 128.8454 11.2992 -10.9724 -11.8957
# 4 6.9329 7.1528 11.2992 30.9356 -5.6897 -0.7436
# 5 -5.0582 2.0969 -10.9724 -5.6897 35.2888 12.2820
# 6 -29.7257 -9.1644 -11.8957 -0.7436 12.2820 37.8112
#
#
#
# Elastic Compliance Matrix: (Units=1/GPa)
#
#
# Indices 1 2 3 4 5 6 
#
# 1 0.018027 -0.019457 -0.004435 0.002254 -0.000109 0.008140
# 2 -0.019457 0.074390 -0.002597 -0.014005 -0.012229 0.005613
# 3 -0.004435 -0.002597 0.010427 -0.001681 0.003148 -0.001891
# 4 0.002254 -0.014005 -0.001681 0.037048 0.008006 -0.004023
# 5 -0.000109 -0.012229 0.003148 0.008006 0.036056 -0.013614
# 6 0.008140 0.005613 -0.001891 -0.004023 -0.013614 0.037955
#
#
# Mechanical properties :
#
#
# Convention : Reuss Voigt Hill
#
# Bulk Modulus (GPa) = 20.05384 56.47876 38.26630
# Shear Modulus (GPa) = 17.63651 31.54492 24.59071
#
# Velocity S-wave (km/s) = 2.86842 3.83620 3.38705
# Velocity P-wave (km/s) = 4.50844 6.78016 5.75746
#
# Compressibility (1/GPa) = 0.04986577
#
# Stress axis : x y z
#
# Youngs Moduli (GPa) = 55.47321 13.44276 95.90282
#
# Poissons Ratio (x) = 0.26155 0.42533
# Poissons Ratio (y) = 1.07933 0.24907
# Poissons Ratio (z) = 0.24602 0.03491
#
# Static dielectric constant tensor:
#      x y z
#    x 1.919240 -0.042790 0.039150 
#    y -0.042790 1.821330 -0.007920 
#    z 0.039150 -0.007920 1.802290 
# 
# From -- ./inp_files/433429.got.cif
#   From: 2010.05.17/outbox.cif.g08.bks.cpg/sg2_217_cif.got.tgz:433429.got - 2010.06.03 11:33:40.
