data_PCOD9026724
_publ_section_title
;
Structure prediction by ZEFSAII (Michael W. Deem and Ramdas Pophale) SiO2 
 PCOD9026724
Probable space group: P -1
;
_chemical_formula_sum "Si O2"
_cell_formula_units_Z 16
_cell_length_a 17.989138
_cell_length_b 22.572749
_cell_length_c 5.873182
_cell_angle_alpha 60.203157
_cell_angle_beta 102.088537
_cell_angle_gamma 153.987349
_cell_volume 709.882273
_symmetry_space_group_name_H-M "P -1"
_symmetry_group_IT_number 2
_symmetry_cell_setting 'triclinic'
loop_
_space_group_symop_operation_xyz
x,y,z
-x,-y,-z
loop_
_atom_site_type_symbol
_atom_site_label
_atom_site_fract_x
_atom_site_fract_y
_atom_site_fract_z
Si Si1 0.074613 0.745953 0.465673
Si Si2 0.659840 0.582349 0.824845
Si Si3 0.930071 0.474796 0.749974
Si Si4 0.538421 0.716776 0.504255
Si Si5 0.938334 0.096351 0.276847
Si Si6 0.523923 0.940073 0.599473
Si Si7 0.400234 0.091341 0.665022
Si Si8 0.277503 0.445992 0.478309
O O1 0.012269 0.621686 0.547255
O O2 0.864752 0.616177 0.622119
O O3 0.224715 0.859889 0.561992
O O4 0.240656 0.925669 0.064600
O O5 0.654619 0.565001 0.587923
O O6 0.500000 0.500000 0.000000
O O7 0.583734 0.443138 0.124588
O O8 0.907948 0.806968 0.622260
O O9 0.000000 0.500000 0.500000
O O10 0.667498 0.252515 0.003453
O O11 0.000000 0.500000 0.000000
O O12 0.464379 0.732049 0.481720
O O13 0.484045 0.654199 0.329831
O O14 0.788398 0.924451 0.345907
O O15 0.110505 0.280318 0.879531
O O16 0.759132 0.999586 0.434734
O O17 0.483753 0.871854 0.459512
O O18 0.500000 0.000000 0.500000
#
# Coordination Sequence:
#
# PCOD9026724 Si02
#       8
#     2   2   2   2   2   2   2   2
#     4  11  25  41  69  95 127 180 226 286 342 416
#     4  11  23  39  64  96 134 173 215 273 338 414
#     4  12  29  47  68 103 141 183 234 291 360 425
#     4   9  22  41  63  95 129 169 221 280 330 407
#     4   8  20  42  61  94 129 167 219 276 330 399
#     4  12  25  43  66  95 136 177 223 284 348 411
#     4   9  22  43  65  92 131 171 228 283 338 404
#     4  10  22  41  65  94 127 169 228 272 342 399
#
# _framework density 22.538945999999999
#
# number of rings (size 3 to 8) (size 9 to 14) (size 15 to 20)
#    0.750    1.000    1.250    1.500    5.250    4.500 
#    0.000    1.250    0.000    0.000    0.000    0.000 
#    0.000    0.000    0.000    0.000    0.000    0.000 
#
# Total GULP energy -89076.184868 kJ/mol
# GULP energy per Si atom -5567.261554 kJ/mol
# Density = 2.248765 g / cm^3
# Si number density = 22.538946 Si / 1000 Ang^3
#
#
#
# Elastic Constant Matrix: (Units=GPa)
#
#
# Indices 1 2 3 4 5 6 
#
# 1 81.9535 44.1282 38.1855 13.4092 -32.9200 -32.4278
# 2 44.1282 144.4285 -2.3486 -18.7798 -9.4541 -15.6431
# 3 38.1855 -2.3486 3.8053 -12.3744 24.5151 -10.3469
# 4 13.4092 -18.7798 -12.3744 29.6403 -7.8617 -1.9565
# 5 -32.9200 -9.4541 24.5151 -7.8617 17.0434 4.0715
# 6 -32.4278 -15.6431 -10.3469 -1.9565 4.0715 27.4911
#
#
#
# Elastic Compliance Matrix: (Units=1/GPa)
#
#
# Indices 1 2 3 4 5 6 
#
# 1 0.008831 -0.001212 0.014964 0.000188 -0.009046 0.016712
# 2 -0.001212 0.009105 -0.001606 0.007958 0.008088 0.002515
# 3 0.014964 -0.001606 0.001229 -0.000315 0.022804 0.013801
# 4 0.000188 0.007958 -0.000315 0.045533 0.025246 0.004133
# 5 -0.009046 0.008088 0.022804 0.025246 0.024365 0.000704
# 6 0.016712 0.002515 0.013801 0.004133 0.000704 0.062903
#
#
# Mechanical properties :
#
#
# Convention : Reuss Voigt Hill
#
# Bulk Modulus (GPa) = 23.01128 43.34638 33.17883
# Shear Modulus (GPa) = 35.17190 24.84977 30.01083
#
# Velocity S-wave (km/s) = 3.95460 3.32403 3.65295
# Velocity P-wave (km/s) = 5.57526 5.83145 5.70479
#
# Compressibility (1/GPa) = 0.04345694
#
# Stress axis : x y z
#
# Youngs Moduli (GPa) = 113.24091 109.83212 813.75069
#
# Poissons Ratio (x) = 0.13316 -12.17713
# Poissons Ratio (y) = 0.13729 1.30654
# Poissons Ratio (z) = -1.69456 0.17634
#
# Static dielectric constant tensor:
#      x y z
#    x 1.907940 0.066760 0.058030 
#    y 0.066760 1.991260 0.113750 
#    z 0.058030 0.113750 1.884320 
# 
# From -- ./inp_files/112197.got.cif
#   From: 2010.05.17/outbox.cif.g08.bks.cpg/sg2_57_cif.got.tgz:112197.got - 2010.06.03 11:33:40.
