data_PCOD9026902
_publ_section_title
;
Structure prediction by ZEFSAII (Michael W. Deem and Ramdas Pophale) SiO2 
 PCOD9026902
Probable space group: P -1
;
_chemical_formula_sum "Si O2"
_cell_formula_units_Z 14
_cell_length_a 11.972335
_cell_length_b 11.522737
_cell_length_c 19.299886
_cell_angle_alpha 152.876509
_cell_angle_beta 27.945953
_cell_angle_gamma 141.010645
_cell_volume 568.358649
_symmetry_space_group_name_H-M "P -1"
_symmetry_group_IT_number 2
_symmetry_cell_setting 'triclinic'
loop_
_space_group_symop_operation_xyz
x,y,z
-x,-y,-z
loop_
_atom_site_type_symbol
_atom_site_label
_atom_site_fract_x
_atom_site_fract_y
_atom_site_fract_z
Si Si1 0.247143 0.557307 0.859619
Si Si2 0.389177 0.858236 0.063044
Si Si3 0.006455 0.447185 0.796434
Si Si4 0.379908 0.823779 0.589223
Si Si5 0.369039 0.244521 0.915580
Si Si6 0.861459 0.744730 0.816523
Si Si7 0.178259 0.357620 0.512836
O O1 0.330976 0.800643 0.984441
O O2 0.439520 0.322580 0.639028
O O3 0.185567 0.557255 0.812273
O O4 0.000000 0.500000 0.000000
O O5 0.656245 0.748661 0.874392
O O6 0.199804 0.696476 0.126054
O O7 0.321989 0.139721 0.276930
O O8 0.122072 0.283226 0.582729
O O9 0.871827 0.669984 0.946342
O O10 0.322680 0.615655 0.569212
O O11 0.114144 0.866826 0.725055
O O12 0.490588 0.055346 0.692634
O O13 0.500000 0.500000 0.000000
O O14 0.280221 0.123382 0.970987
O O15 0.949344 0.464024 0.649011
#
# Coordination Sequence:
#
# PCOD9026902 Si02
#       7
#     2   2   2   2   2   2   2
#     4  10  25  44  63  95 143 183 233 271 341 414
#     4  11  21  44  69  98 143 187 225 277 335 416
#     4  10  22  41  66 103 133 183 229 285 334 404
#     4  10  24  44  63 106 136 176 225 287 349 395
#     4  11  21  41  71 101 136 171 230 286 338 404
#     4   9  22  40  66 104 135 169 225 283 340 398
#     4   9  23  40  70 102 134 177 229 289 341 391
#
# _framework density 24.632334
#
# number of rings (size 3 to 8) (size 9 to 14) (size 15 to 20)
#    0.857    1.143    1.429    0.857    2.000    7.429 
#    2.571    1.429    0.000    0.000    0.000    0.000 
#    0.000    0.000    0.000    0.000    0.000    0.000 
#
# Total GULP energy -78113.716913 kJ/mol
# GULP energy per Si atom -5579.551208 kJ/mol
# Density = 2.457627 g / cm^3
# Si number density = 24.632334 Si / 1000 Ang^3
#
#
#
# Elastic Constant Matrix: (Units=GPa)
#
#
# Indices 1 2 3 4 5 6 
#
# 1 143.8948 36.4238 46.1900 1.4609 4.5981 33.7572
# 2 36.4238 91.8311 45.4461 -4.0146 6.3530 30.2875
# 3 46.1900 45.4461 140.3630 -7.8365 21.5260 29.5162
# 4 1.4609 -4.0146 -7.8365 45.1344 6.8407 9.9622
# 5 4.5981 6.3530 21.5260 6.8407 28.2499 -2.4614
# 6 33.7572 30.2875 29.5162 9.9622 -2.4614 37.5939
#
#
#
# Elastic Compliance Matrix: (Units=1/GPa)
#
#
# Indices 1 2 3 4 5 6 
#
# 1 0.009201 -0.000496 -0.000922 0.001440 -0.001697 -0.007631
# 2 -0.000496 0.016872 -0.001323 0.005113 -0.005147 -0.013801
# 3 -0.000922 -0.001323 0.011868 0.005745 -0.010828 -0.009656
# 4 0.001440 0.005113 0.005745 0.029935 -0.014650 -0.018815
# 5 -0.001697 -0.005147 -0.010828 -0.014650 0.050491 0.021360
# 6 -0.007631 -0.013801 -0.009656 -0.018815 0.021360 0.058537
#
#
# Mechanical properties :
#
#
# Convention : Reuss Voigt Hill
#
# Bulk Modulus (GPa) = 30.80712 70.24540 50.52626
# Shear Modulus (GPa) = 25.87920 38.73091 32.30505
#
# Velocity S-wave (km/s) = 3.24484 3.96960 3.62538
# Velocity P-wave (km/s) = 5.15486 7.04200 6.17100
#
# Compressibility (1/GPa) = 0.03246003
#
# Stress axis : x y z
#
# Youngs Moduli (GPa) = 108.68598 59.26830 84.26162
#
# Poissons Ratio (x) = 0.02940 0.07768
# Poissons Ratio (y) = 0.05391 0.11145
# Poissons Ratio (z) = 0.10019 0.07839
#
# Static dielectric constant tensor:
#      x y z
#    x 1.976210 -0.010030 -0.023230 
#    y -0.010030 2.032300 -0.008080 
#    z -0.023230 -0.008080 2.021080 
# 
# From -- ./inp_files/595681.got.cif
#   From: 2010.05.17/outbox.cif.g08.bks.cpg/sg2_298_cif.got.tgz:595681.got - 2010.06.03 11:33:40.
