data_PCOD9026973
_publ_section_title
;
Structure prediction by ZEFSAII (Michael W. Deem and Ramdas Pophale) SiO2 
 PCOD9026973
Probable space group: P -1
;
_chemical_formula_sum "Si O2"
_cell_formula_units_Z 12
_cell_length_a 5.120890
_cell_length_b 23.493756
_cell_length_c 5.306356
_cell_angle_alpha 95.490357
_cell_angle_beta 83.985592
_cell_angle_gamma 51.573935
_cell_volume 486.669446
_symmetry_space_group_name_H-M "P -1"
_symmetry_group_IT_number 2
_symmetry_cell_setting 'triclinic'
loop_
_space_group_symop_operation_xyz
x,y,z
-x,-y,-z
loop_
_atom_site_type_symbol
_atom_site_label
_atom_site_fract_x
_atom_site_fract_y
_atom_site_fract_z
Si Si1 0.674690 0.587207 0.057603
Si Si2 0.617520 0.720234 0.977364
Si Si3 0.411489 0.446782 0.447680
Si Si4 0.916789 0.788756 0.779121
Si Si5 0.169829 0.915199 0.974759
Si Si6 0.852062 0.154294 0.572594
O O1 0.485657 0.605928 0.348307
O O2 0.769660 0.638606 0.008653
O O3 0.462983 0.593238 0.847644
O O4 0.000000 0.500000 0.000000
O O5 0.827719 0.734143 0.786919
O O6 0.263591 0.754017 0.881246
O O7 0.507908 0.770997 0.257551
O O8 0.500000 0.500000 0.500000
O O9 0.000000 0.500000 0.500000
O O10 0.575028 0.864787 0.960493
O O11 0.954200 0.814574 0.516370
O O12 0.144487 0.884149 0.698727
O O13 0.024531 0.900325 0.223862
O O14 0.000000 0.000000 0.000000
#
# Coordination Sequence:
#
# PCOD9026973 Si02
#       6
#     2   2   2   2   2   2
#     4  10  24  46  69 105 136 182 238 302 354 414
#     4  11  27  46  75 102 146 193 242 293 359 431
#     4  10  22  41  66  92 136 169 220 287 358 413
#     4  11  25  48  70 106 145 192 237 286 358 427
#     4  11  26  47  78 110 145 187 239 294 350 420
#     4  11  24  48  69 108 147 192 235 289 357 427
#
# _framework density 24.657392999999999
#
# number of rings (size 3 to 8) (size 9 to 14) (size 15 to 20)
#    0.000    1.333    3.333    1.000    7.000    6.667 
#    0.000    1.667    0.000    0.000    0.000    0.000 
#    0.000    0.000    0.000    0.000    0.000    0.000 
#
# Total GULP energy -67074.007631 kJ/mol
# GULP energy per Si atom -5589.500636 kJ/mol
# Density = 2.460127 g / cm^3
# Si number density = 24.657393 Si / 1000 Ang^3
#
#
#
# Elastic Constant Matrix: (Units=GPa)
#
#
# Indices 1 2 3 4 5 6 
#
# 1 165.0850 63.0702 72.1531 -21.3940 -14.4198 29.5692
# 2 63.0702 210.4102 64.4533 -24.8979 -13.9160 43.0690
# 3 72.1531 64.4533 205.9123 -45.6553 2.6527 35.3615
# 4 -21.3940 -24.8979 -45.6553 38.1522 15.1484 -10.2678
# 5 -14.4198 -13.9160 2.6527 15.1484 44.4513 -3.0439
# 6 29.5692 43.0690 35.3615 -10.2678 -3.0439 49.1525
#
#
#
# Elastic Compliance Matrix: (Units=1/GPa)
#
#
# Indices 1 2 3 4 5 6 
#
# 1 0.008001 -0.001183 -0.002187 -0.000412 0.002349 -0.002144
# 2 -0.001183 0.006340 -0.000590 0.001306 0.000911 -0.004090
# 3 -0.002187 -0.000590 0.008478 0.009807 -0.004915 -0.002523
# 4 -0.000412 0.001306 0.009807 0.044873 -0.015571 0.000458
# 5 0.002349 0.000911 -0.004915 -0.015571 0.029135 -0.000124
# 6 -0.002144 -0.004090 -0.002523 0.000458 -0.000124 0.027122
#
#
# Mechanical properties :
#
#
# Convention : Reuss Voigt Hill
#
# Bulk Modulus (GPa) = 67.11319 108.97342 88.04331
# Shear Modulus (GPa) = 36.54040 51.79993 44.17017
#
# Velocity S-wave (km/s) = 3.85375 4.58841 4.23703
# Velocity P-wave (km/s) = 6.86143 8.50660 7.72792
#
# Compressibility (1/GPa) = 0.01490020
#
# Stress axis : x y z
#
# Youngs Moduli (GPa) = 124.98387 157.73296 117.94797
#
# Poissons Ratio (x) = 0.18659 0.25792
# Poissons Ratio (y) = 0.14785 0.06956
# Poissons Ratio (z) = 0.27331 0.09303
#
# Static dielectric constant tensor:
#      x y z
#    x 1.987050 -0.036940 0.036160 
#    y -0.036940 2.009330 -0.079320 
#    z 0.036160 -0.079320 2.101280 
# 
# From -- ./inp_files/13252.got.cif
#   From: 2010.05.17/outbox.cif.g08.bks.cpg/sg2_7_cif.got.tgz:13252.got - 2010.06.03 11:33:40.
