data_PCOD9026359
_publ_section_title
;
Structure prediction by ZEFSAII (Michael W. Deem and Ramdas Pophale) SiO2 
 PCOD9026359
Probable space group: P -1
;
_chemical_formula_sum "Si O2"
_cell_formula_units_Z 16
_cell_length_a 12.549262
_cell_length_b 4.879137
_cell_length_c 11.508210
_cell_angle_alpha 64.389024
_cell_angle_beta 104.784853
_cell_angle_gamma 103.449237
_cell_volume 608.301839
_symmetry_space_group_name_H-M "P -1"
_symmetry_group_IT_number 2
_symmetry_cell_setting 'triclinic'
loop_
_space_group_symop_operation_xyz
x,y,z
-x,-y,-z
loop_
_atom_site_type_symbol
_atom_site_label
_atom_site_fract_x
_atom_site_fract_y
_atom_site_fract_z
Si Si1 0.068321 0.765330 0.131357
Si Si2 0.712898 0.340843 0.929824
Si Si3 0.453525 0.657565 0.302470
Si Si4 0.649359 0.115168 0.296670
Si Si5 0.840947 0.784157 0.436829
Si Si6 0.953379 0.926833 0.690116
Si Si7 0.377442 0.354415 0.947462
Si Si8 0.359435 0.741817 0.495118
O O1 0.174239 0.710415 0.092686
O O2 0.013262 0.410073 0.206061
O O3 0.094945 0.929949 0.234284
O O4 0.000000 0.000000 0.000000
O O5 0.633141 0.482020 0.790990
O O6 0.713740 0.546452 0.005854
O O7 0.646738 0.007219 0.003032
O O8 0.380188 0.791147 0.357159
O O9 0.534426 0.422990 0.409516
O O10 0.543074 0.939878 0.234913
O O11 0.636605 0.008990 0.447892
O O12 0.766886 0.022809 0.316274
O O13 0.645008 0.469307 0.208885
O O14 0.877106 0.863201 0.565418
O O15 0.757989 0.468055 0.477357
O O16 0.947522 0.819872 0.376887
O O17 0.500000 0.500000 0.000000
#
# Coordination Sequence:
#
# PCOD9026359 Si02
#       8
#     2   2   2   2   2   2   2   2
#     4  12  29  50  77 105 146 188 247 297 362 424
#     4  12  27  45  72 102 140 196 232 294 355 422
#     4  10  22  41  64 100 142 181 231 283 351 439
#     4  11  24  39  69 101 140 186 232 291 352 431
#     4  10  26  42  74 104 140 185 238 300 365 416
#     4  11  27  50  74 108 141 187 242 306 356 427
#     4  12  26  44  71 104 147 185 243 285 352 427
#     4  10  22  41  67 102 140 181 230 285 359 425
#
# _framework density 26.302734999999998
#
# number of rings (size 3 to 8) (size 9 to 14) (size 15 to 20)
#    0.000    1.000    1.250    3.375   12.250    1.000 
#    0.000    0.000    0.000    0.000    0.000    0.000 
#    0.000    0.000    0.000    0.000    0.000    0.000 
#
# Total GULP energy -89563.895331 kJ/mol
# GULP energy per Si atom -5597.743458 kJ/mol
# Density = 2.624287 g / cm^3
# Si number density = 26.302735 Si / 1000 Ang^3
#
#
#
# Elastic Constant Matrix: (Units=GPa)
#
#
# Indices 1 2 3 4 5 6 
#
# 1 132.9529 26.9777 48.3687 5.7065 -15.9927 7.4363
# 2 26.9777 78.8374 16.3925 -5.9109 -11.8607 -9.3757
# 3 48.3687 16.3925 103.0879 6.6051 -10.3327 -3.8289
# 4 5.7065 -5.9109 6.6051 47.7124 -14.3224 -9.9002
# 5 -15.9927 -11.8607 -10.3327 -14.3224 39.6897 2.5568
# 6 7.4363 -9.3757 -3.8289 -9.9002 2.5568 39.8042
#
#
#
# Elastic Compliance Matrix: (Units=1/GPa)
#
#
# Indices 1 2 3 4 5 6 
#
# 1 0.010055 -0.002757 -0.004136 -0.001066 0.001980 -0.003318
# 2 -0.002757 0.015457 -0.000815 0.004802 0.004708 0.004969
# 3 -0.004136 -0.000815 0.011957 -0.000693 0.000856 0.001504
# 4 -0.001066 0.004802 -0.000693 0.026210 0.009823 0.007152
# 5 0.001980 0.004708 0.000856 0.009823 0.031086 0.001268
# 6 -0.003318 0.004969 0.001504 0.007152 0.001268 0.028755
#
#
# Mechanical properties :
#
#
# Convention : Reuss Voigt Hill
#
# Bulk Modulus (GPa) = 45.34847 55.37288 50.36067
# Shear Modulus (GPa) = 34.17931 40.31723 37.24827
#
# Velocity S-wave (km/s) = 3.60871 3.91937 3.76724
# Velocity P-wave (km/s) = 5.88576 6.44824 6.17341
#
# Compressibility (1/GPa) = 0.02205146
#
# Stress axis : x y z
#
# Youngs Moduli (GPa) = 99.45159 64.69629 83.63553
#
# Poissons Ratio (x) = 0.17840 0.34591
# Poissons Ratio (y) = 0.27424 0.06818
# Poissons Ratio (z) = 0.41132 0.05274
#
# Static dielectric constant tensor:
#      x y z
#    x 2.064780 -0.024380 -0.023720 
#    y -0.024380 2.075890 0.018700 
#    z -0.023720 0.018700 2.098910 
# 
# From -- ./inp_files/409892.got.cif
#   From: 2010.05.17/outbox.cif.g08.bks.cpg/sg2_205_cif.got.tgz:409892.got - 2010.06.03 11:33:40.
