data_PCOD9026550
_publ_section_title
;
Structure prediction by ZEFSAII (Michael W. Deem and Ramdas Pophale) SiO2 
 PCOD9026550
Probable space group: P -1
;
_chemical_formula_sum "Si O2"
_cell_formula_units_Z 14
_cell_length_a 14.614865
_cell_length_b 13.839824
_cell_length_c 12.462845
_cell_angle_alpha 37.048726
_cell_angle_beta 28.643943
_cell_angle_gamma 29.722192
_cell_volume 592.216041
_symmetry_space_group_name_H-M "P -1"
_symmetry_group_IT_number 2
_symmetry_cell_setting 'triclinic'
loop_
_space_group_symop_operation_xyz
x,y,z
-x,-y,-z
loop_
_atom_site_type_symbol
_atom_site_label
_atom_site_fract_x
_atom_site_fract_y
_atom_site_fract_z
Si Si1 0.575473 0.810845 0.302347
Si Si2 0.677351 0.911621 0.492171
Si Si3 0.700404 0.271092 0.476396
Si Si4 0.982559 0.591013 0.699155
Si Si5 0.806926 0.890659 0.812091
Si Si6 0.837521 0.265435 0.804754
Si Si7 0.656642 0.593613 0.869501
O O1 0.377113 0.776677 0.510557
O O2 0.807435 0.611449 0.284026
O O3 0.471170 0.982905 0.342330
O O4 0.629836 0.875500 0.078923
O O5 0.755458 0.689479 0.609918
O O6 0.903472 0.915284 0.262768
O O7 0.500000 0.000000 0.500000
O O8 0.500000 0.500000 0.500000
O O9 0.955133 0.223425 0.260889
O O10 0.727274 0.112472 0.675795
O O11 0.874317 0.764494 0.745197
O O12 0.096668 0.642857 0.440732
O O13 0.784143 0.569885 0.871757
O O14 0.731634 0.396390 0.905880
O O15 0.627380 0.262757 0.973065
#
# Coordination Sequence:
#
# PCOD9026550 Si02
#       7
#     2   2   2   2   2   2   2
#     4  12  25  43  68 101 134 183 228 279 346 409
#     4  11  23  42  67  95 134 172 225 285 340 403
#     4  11  24  44  68 101 139 181 226 288 335 402
#     4  11  22  41  68  96 134 182 227 279 339 407
#     4  11  26  45  68  98 144 180 232 279 343 413
#     4  10  22  41  64  96 131 174 225 282 346 398
#     4  10  22  41  66  94 129 179 225 281 341 408
#
# _framework density 23.640021000000001
#
# number of rings (size 3 to 8) (size 9 to 14) (size 15 to 20)
#    0.000    1.143    1.429    6.000    0.000    6.286 
#    0.000    0.000    0.000    0.000    0.000    0.000 
#    0.000    0.000    0.000    0.000    0.000    0.000 
#
# Total GULP energy -78214.578502 kJ/mol
# GULP energy per Si atom -5586.755607 kJ/mol
# Density = 2.358622 g / cm^3
# Si number density = 23.640021 Si / 1000 Ang^3
#
#
#
# Elastic Constant Matrix: (Units=GPa)
#
#
# Indices 1 2 3 4 5 6 
#
# 1 143.3705 31.8992 46.4481 14.3503 -33.5716 -4.3276
# 2 31.8992 114.7205 16.1717 16.4608 -12.9157 -9.9732
# 3 46.4481 16.1717 94.5799 24.9456 -28.1600 -0.9877
# 4 14.3503 16.4608 24.9456 27.7613 -8.1458 -7.9583
# 5 -33.5716 -12.9157 -28.1600 -8.1458 43.8285 8.7464
# 6 -4.3276 -9.9732 -0.9877 -7.9583 8.7464 44.8669
#
#
#
# Elastic Compliance Matrix: (Units=1/GPa)
#
#
# Indices 1 2 3 4 5 6 
#
# 1 0.009433 -0.001705 -0.002872 0.000035 0.004984 -0.000498
# 2 -0.001705 0.010022 0.000810 -0.005219 0.001006 0.000959
# 3 -0.002872 0.000810 0.017671 -0.013689 0.007570 -0.003612
# 4 0.000035 -0.005219 -0.013689 0.053187 -0.002094 0.008384
# 5 0.004984 0.001006 0.007570 -0.002094 0.032572 -0.005850
# 6 -0.000498 0.000959 -0.003612 0.008384 -0.005850 0.025002
#
#
# Mechanical properties :
#
#
# Convention : Reuss Voigt Hill
#
# Bulk Modulus (GPa) = 33.79213 60.18988 46.99100
# Shear Modulus (GPa) = 30.25055 40.50146 35.37601
#
# Velocity S-wave (km/s) = 3.58108 4.14364 3.87259
# Velocity P-wave (km/s) = 5.60574 6.95768 6.31798
#
# Compressibility (1/GPa) = 0.02959269
#
# Stress axis : x y z
#
# Youngs Moduli (GPa) = 106.00875 99.77696 56.58853
#
# Poissons Ratio (x) = 0.17016 0.16250
# Poissons Ratio (y) = 0.18079 -0.04583
# Poissons Ratio (z) = 0.30441 -0.08080
#
# Static dielectric constant tensor:
#      x y z
#    x 1.968880 -0.105580 -0.260200 
#    y -0.105580 2.011640 0.198950 
#    z -0.260200 0.198950 2.682310 
# 
# From -- ./inp_files/533202.got.cif
#   From: 2010.05.17/outbox.cif.g08.bks.cpg/sg2_267_cif.got.tgz:533202.got - 2010.06.03 11:33:40.
