data_PCOD9026276
_publ_section_title
;
Structure prediction by ZEFSAII (Michael W. Deem and Ramdas Pophale) SiO2 
 PCOD9026276
Probable space group: P -1
;
_chemical_formula_sum "Si O2"
_cell_formula_units_Z 16
_cell_length_a 12.280299
_cell_length_b 12.141870
_cell_length_c 9.426145
_cell_angle_alpha 120.731107
_cell_angle_beta 50.380680
_cell_angle_gamma 86.937946
_cell_volume 762.810538
_symmetry_space_group_name_H-M "P -1"
_symmetry_group_IT_number 2
_symmetry_cell_setting 'triclinic'
loop_
_space_group_symop_operation_xyz
x,y,z
-x,-y,-z
loop_
_atom_site_type_symbol
_atom_site_label
_atom_site_fract_x
_atom_site_fract_y
_atom_site_fract_z
Si Si1 0.660616 0.612557 0.897992
Si Si2 0.846371 0.615848 0.484537
Si Si3 0.146313 0.651158 0.223964
Si Si4 0.729117 0.141547 0.687775
Si Si5 0.327734 0.109824 0.373984
Si Si6 0.973072 0.340141 0.978782
Si Si7 0.092517 0.058121 0.871419
Si Si8 0.628233 0.915522 0.207115
O O1 0.792519 0.554918 0.619233
O O2 0.701057 0.483669 0.894564
O O3 0.467116 0.708237 0.062331
O O4 0.680518 0.740655 0.039844
O O5 0.683759 0.781270 0.669666
O O6 0.924134 0.485990 0.211124
O O7 0.982186 0.659492 0.430440
O O8 0.152923 0.801519 0.324097
O O9 0.140162 0.614748 0.039638
O O10 0.726053 0.009845 0.692123
O O11 0.789875 0.065837 0.430872
O O12 0.511902 0.010822 0.230984
O O13 0.173973 0.234971 0.691793
O O14 0.960986 0.220164 0.006298
O O15 0.209052 0.081897 0.895050
O O16 0.000000 0.000000 0.000000
O O17 0.500000 0.000000 0.500000
#
# Coordination Sequence:
#
# PCOD9026276 Si02
#       8
#     2   2   2   2   2   2   2   2
#     4  11  24  41  63  96 124 162 209 253 307 366
#     4  11  24  38  66  96 125 157 211 262 294 364
#     4  11  23  40  65  90 129 169 199 251 312 369
#     4  10  23  41  62  88 128 169 200 251 315 365
#     4   9  20  40  65  90 122 165 209 250 300 372
#     4  10  22  41  63  93 122 166 207 250 307 365
#     4  11  24  40  64  92 126 156 211 260 301 368
#     4  11  20  40  67  87 118 166 206 246 309 364
#
# _framework density 20.975065000000001
#
# number of rings (size 3 to 8) (size 9 to 14) (size 15 to 20)
#    0.000    1.500    3.750    3.000    5.250    6.500 
#    2.250    0.625    0.000    0.000    0.000    0.000 
#    0.000    0.000    0.000    0.000    0.000    0.000 
#
# Total GULP energy -89357.712934 kJ/mol
# GULP energy per Si atom -5584.857058 kJ/mol
# Density = 2.092732 g / cm^3
# Si number density = 20.975065 Si / 1000 Ang^3
#
#
#
# Elastic Constant Matrix: (Units=GPa)
#
#
# Indices 1 2 3 4 5 6 
#
# 1 82.1233 43.7938 22.6305 1.4038 11.5522 13.9741
# 2 43.7938 135.2725 25.6505 0.0649 0.5709 -6.5478
# 3 22.6305 25.6505 62.0686 3.5081 14.8854 6.2585
# 4 1.4038 0.0649 3.5081 25.5415 5.4108 -3.0771
# 5 11.5522 0.5709 14.8854 5.4108 21.4888 5.4217
# 6 13.9741 -6.5478 6.2585 -3.0771 5.4217 40.1251
#
#
#
# Elastic Compliance Matrix: (Units=1/GPa)
#
#
# Indices 1 2 3 4 5 6 
#
# 1 0.017604 -0.005582 -0.001968 -0.000019 -0.006468 -0.005862
# 2 -0.005582 0.010016 -0.003481 0.000309 0.004165 0.003582
# 3 -0.001968 -0.003481 0.021645 -0.000187 -0.013428 -0.001459
# 4 -0.000019 0.000309 -0.000187 0.042259 -0.011749 0.004915
# 5 -0.006468 0.004165 -0.013428 -0.011749 0.063279 -0.004424
# 6 -0.005862 0.003582 -0.001459 0.004915 -0.004424 0.028750
#
#
# Mechanical properties :
#
#
# Convention : Reuss Voigt Hill
#
# Bulk Modulus (GPa) = 36.76249 51.51264 44.13756
# Shear Modulus (GPa) = 23.29008 29.92372 26.60690
#
# Velocity S-wave (km/s) = 3.33584 3.78118 3.56547
# Velocity P-wave (km/s) = 5.69226 6.60873 6.16755
#
# Compressibility (1/GPa) = 0.02720164
#
# Stress axis : x y z
#
# Youngs Moduli (GPa) = 56.80601 99.84487 46.19910
#
# Poissons Ratio (x) = 0.55737 0.09092
# Poissons Ratio (y) = 0.31711 0.16083
# Poissons Ratio (z) = 0.11180 0.34757
#
# Static dielectric constant tensor:
#      x y z
#    x 1.787970 -0.046810 -0.000680 
#    y -0.046810 1.789960 -0.001240 
#    z -0.000680 -0.001240 1.774490 
# 
# From -- ./inp_files/262922.got.cif
#   From: 2010.05.17/outbox.cif.g08.bks.cpg/sg2_132_cif.got.tgz:262922.got - 2010.06.03 11:33:40.
