data_PCOD9026677
_publ_section_title
;
Structure prediction by ZEFSAII (Michael W. Deem and Ramdas Pophale) SiO2 
 PCOD9026677
Probable space group: P -1
;
_chemical_formula_sum "Si O2"
_cell_formula_units_Z 12
_cell_length_a 12.613463
_cell_length_b 9.253052
_cell_length_c 9.349960
_cell_angle_alpha 65.418040
_cell_angle_beta 92.912462
_cell_angle_gamma 142.999661
_cell_volume 512.213490
_symmetry_space_group_name_H-M "P -1"
_symmetry_group_IT_number 2
_symmetry_cell_setting 'triclinic'
loop_
_space_group_symop_operation_xyz
x,y,z
-x,-y,-z
loop_
_atom_site_type_symbol
_atom_site_label
_atom_site_fract_x
_atom_site_fract_y
_atom_site_fract_z
Si Si1 0.916437 0.179607 0.201385
Si Si2 0.788802 0.335947 0.211778
Si Si3 0.538411 0.302326 0.179300
Si Si4 0.075588 0.755696 0.320353
Si Si5 0.466314 0.438190 0.691668
Si Si6 0.164880 0.204236 0.253755
O O1 0.802365 0.163386 0.297510
O O2 0.999787 0.129065 0.303962
O O3 0.757180 0.927575 0.170622
O O4 0.114788 0.509571 0.002455
O O5 0.582192 0.173541 0.267877
O O6 0.936529 0.593557 0.237766
O O7 0.537456 0.406677 0.279160
O O8 0.319863 0.046352 0.193349
O O9 0.720510 0.602609 0.967553
O O10 0.000000 0.500000 0.500000
O O11 0.062120 0.901124 0.349326
O O12 0.500000 0.500000 0.500000
O O13 0.648661 0.567653 0.716474
#
# Coordination Sequence:
#
# PCOD9026677 Si02
#       6
#     2   2   2   2   2   2
#     4  10  22  41  65  92 123 163 214 262 306 366
#     4  10  22  41  65  92 123 163 214 262 306 366
#     4  10  22  44  69  89 120 172 219 252 302 380
#     4  11  23  38  62  95 128 160 206 260 316 373
#     4  11  23  38  62  95 128 160 206 260 316 373
#     4  10  22  44  69  89 120 172 219 252 302 380
#
# _framework density 23.427733
#
# number of rings (size 3 to 8) (size 9 to 14) (size 15 to 20)
#    0.000    1.667    0.000    5.000    4.667    5.333 
#    6.000    5.000    0.000    0.000    0.000    0.000 
#    0.000    0.000    0.000    0.000    0.000    0.000 
#
# Total GULP energy -67101.273270 kJ/mol
# GULP energy per Si atom -5591.772773 kJ/mol
# Density = 2.337441 g / cm^3
# Si number density = 23.427733 Si / 1000 Ang^3
#
#
#
# Elastic Constant Matrix: (Units=GPa)
#
#
# Indices 1 2 3 4 5 6 
#
# 1 211.8386 68.1715 -2.1640 13.7066 14.5948 12.7698
# 2 68.1715 72.0946 -6.5813 15.1809 4.3115 9.6867
# 3 -2.1640 -6.5813 75.9628 6.6642 0.3115 -11.3573
# 4 13.7066 15.1809 6.6642 37.6374 0.5277 13.0875
# 5 14.5948 4.3115 0.3115 0.5277 22.0935 -5.0277
# 6 12.7698 9.6867 -11.3573 13.0875 -5.0277 23.9689
#
#
#
# Elastic Compliance Matrix: (Units=1/GPa)
#
#
# Indices 1 2 3 4 5 6 
#
# 1 0.007203 -0.006488 -0.000955 0.001375 -0.004266 -0.003314
# 2 -0.006488 0.021668 0.002155 -0.006508 0.000018 -0.000722
# 3 -0.000955 0.002155 0.015718 -0.007425 0.002837 0.011735
# 4 0.001375 -0.006508 -0.007425 0.038366 -0.005866 -0.023800
# 5 -0.004266 0.000018 0.002837 -0.005866 0.052220 0.017766
# 6 -0.003314 -0.000722 0.011735 -0.023800 0.017766 0.066060
#
#
# Mechanical properties :
#
#
# Convention : Reuss Voigt Hill
#
# Bulk Modulus (GPa) = 29.39935 53.19427 41.29681
# Shear Modulus (GPa) = 22.40645 36.77128 29.58887
#
# Velocity S-wave (km/s) = 3.09594 3.96607 3.55771
# Velocity P-wave (km/s) = 5.03547 6.61271 5.87724
#
# Compressibility (1/GPa) = 0.03401435
#
# Stress axis : x y z
#
# Youngs Moduli (GPa) = 138.82469 46.15015 63.62082
#
# Poissons Ratio (x) = 0.29941 0.06079
# Poissons Ratio (y) = 0.90065 -0.13713
# Poissons Ratio (z) = 0.13265 -0.09947
#
# Static dielectric constant tensor:
#      x y z
#    x 1.903830 -0.016160 0.022200 
#    y -0.016160 1.831690 -0.051750 
#    z 0.022200 -0.051750 1.965370 
# 
# From -- ./inp_files/197186.got.cif
#   From: 2010.05.17/outbox.cif.g08.bks.cpg/sg2_99_cif.got.tgz:197186.got - 2010.06.03 11:33:40.
