data_PCOD9026382
_publ_section_title
;
Structure prediction by ZEFSAII (Michael W. Deem and Ramdas Pophale) SiO2 
 PCOD9026382
Probable space group: P -1
;
_chemical_formula_sum "Si O2"
_cell_formula_units_Z 16
_cell_length_a 9.590304
_cell_length_b 17.660970
_cell_length_c 5.492238
_cell_angle_alpha 101.794617
_cell_angle_beta 101.685095
_cell_angle_gamma 129.736300
_cell_volume 627.913147
_symmetry_space_group_name_H-M "P -1"
_symmetry_group_IT_number 2
_symmetry_cell_setting 'triclinic'
loop_
_space_group_symop_operation_xyz
x,y,z
-x,-y,-z
loop_
_atom_site_type_symbol
_atom_site_label
_atom_site_fract_x
_atom_site_fract_y
_atom_site_fract_z
Si Si1 0.087131 0.618368 0.593571
Si Si2 0.654476 0.128352 0.569587
Si Si3 0.420484 0.325685 0.187721
Si Si4 0.063644 0.982431 0.761388
Si Si5 0.274621 0.264639 0.578608
Si Si6 0.540725 0.162178 0.044347
Si Si7 0.749859 0.560231 0.221990
Si Si8 0.911938 0.676359 0.947445
O O1 0.326526 0.710746 0.762910
O O2 0.000000 0.500000 0.500000
O O3 0.978047 0.613174 0.318984
O O4 0.003195 0.651036 0.772324
O O5 0.622762 0.138151 0.279723
O O6 0.500000 0.000000 0.500000
O O7 0.589010 0.164046 0.779675
O O8 0.892431 0.210348 0.771412
O O9 0.425902 0.293396 0.439414
O O10 0.609792 0.452179 0.260031
O O11 0.218468 0.299728 0.154961
O O12 0.356088 0.263161 0.867037
O O13 0.945602 0.856051 0.623135
O O14 0.000000 0.000000 0.500000
O O15 0.303067 0.068580 0.919769
O O16 0.000000 0.000000 0.000000
O O17 0.264606 0.354337 0.668082
O O18 0.722745 0.554284 0.920368
#
# Coordination Sequence:
#
# PCOD9026382 Si02
#       8
#     2   2   2   2   2   2   2   2
#     4  11  25  44  69  98 146 189 231 289 351 426
#     4  11  24  40  75 103 143 182 229 293 357 414
#     4  11  24  40  71 108 144 180 237 297 348 420
#     4  12  28  50  74 102 142 188 242 294 354 428
#     4  11  24  42  72 100 142 182 229 298 355 403
#     4  11  26  48  65 106 139 184 239 286 348 434
#     4  11  23  43  67 107 140 181 241 287 354 421
#     4  10  22  41  64 104 144 179 241 287 346 422
#
# _framework density 25.481233
#
# number of rings (size 3 to 8) (size 9 to 14) (size 15 to 20)
#    0.000    1.000    2.500    3.750    7.000    2.500 
#    0.000    0.000    0.000    0.000    0.000    0.000 
#    0.000    0.000    0.000    0.000    0.000    0.000 
#
# Total GULP energy -89149.776189 kJ/mol
# GULP energy per Si atom -5571.861012 kJ/mol
# Density = 2.542324 g / cm^3
# Si number density = 25.481233 Si / 1000 Ang^3
#
#
#
# Elastic Constant Matrix: (Units=GPa)
#
#
# Indices 1 2 3 4 5 6 
#
# 1 47.4578 -19.4947 7.6724 4.5666 -0.8825 17.9635
# 2 -19.4947 112.7327 13.1547 21.4893 -6.2667 3.5766
# 3 7.6724 13.1547 99.5345 2.5768 -3.6694 5.9354
# 4 4.5666 21.4893 2.5768 66.7045 15.2150 -5.8169
# 5 -0.8825 -6.2667 -3.6694 15.2150 41.9047 0.7728
# 6 17.9635 3.5766 5.9354 -5.8169 0.7728 37.8970
#
#
#
# Elastic Compliance Matrix: (Units=1/GPa)
#
#
# Indices 1 2 3 4 5 6 
#
# 1 0.031710 0.007869 -0.002141 -0.007109 0.004545 -0.016622
# 2 0.007869 0.011898 -0.001553 -0.005706 0.003983 -0.005567
# 3 -0.002141 -0.001553 0.010467 0.000057 0.000627 -0.000482
# 4 -0.007109 -0.005706 0.000057 0.019835 -0.008331 0.007114
# 5 0.004545 0.003983 0.000627 -0.008331 0.027717 -0.004472
# 6 -0.016622 -0.005567 -0.000482 0.007114 -0.004472 0.036050
#
#
# Mechanical properties :
#
#
# Convention : Reuss Voigt Hill
#
# Bulk Modulus (GPa) = 16.01925 29.15443 22.58684
# Shear Modulus (GPa) = 33.30295 46.52739 39.91517
#
# Velocity S-wave (km/s) = 3.61911 4.27775 3.96214
# Velocity P-wave (km/s) = 4.87486 5.98876 5.46029
#
# Compressibility (1/GPa) = 0.06242490
#
# Stress axis : x y z
#
# Youngs Moduli (GPa) = 31.53572 84.04705 95.53473
#
# Poissons Ratio (x) = -0.66133 0.20458
# Poissons Ratio (y) = -0.24814 0.14832
# Poissons Ratio (z) = 0.06753 0.13048
#
# Static dielectric constant tensor:
#      x y z
#    x 2.203270 -0.163020 0.087650 
#    y -0.163020 2.222000 -0.066080 
#    z 0.087650 -0.066080 2.194860 
# 
# From -- ./inp_files/82797.got.cif
#   From: 2010.05.17/outbox.cif.g08.bks.cpg/sg2_42_cif.got.tgz:82797.got - 2010.06.03 11:33:40.
