data_PCOD9026162
_publ_section_title
;
Structure prediction by ZEFSAII (Michael W. Deem and Ramdas Pophale) SiO2 
 PCOD9026162
Probable space group: P -1
;
_chemical_formula_sum "Si O2"
_cell_formula_units_Z 12
_cell_length_a 6.461356
_cell_length_b 14.906944
_cell_length_c 5.205498
_cell_angle_alpha 89.672334
_cell_angle_beta 99.491698
_cell_angle_gamma 83.390586
_cell_volume 491.081678
_symmetry_space_group_name_H-M "P -1"
_symmetry_group_IT_number 2
_symmetry_cell_setting 'triclinic'
loop_
_space_group_symop_operation_xyz
x,y,z
-x,-y,-z
loop_
_atom_site_type_symbol
_atom_site_label
_atom_site_fract_x
_atom_site_fract_y
_atom_site_fract_z
Si Si1 0.498797 0.217447 0.431452
Si Si2 0.178939 0.085570 0.284007
Si Si3 0.899907 0.116863 0.738688
Si Si4 0.690684 0.356014 0.160311
Si Si5 0.232089 0.546849 0.326124
Si Si6 0.873034 0.642271 0.546362
O O1 0.398065 0.127845 0.335106
O O2 0.710872 0.194345 0.638737
O O3 0.557532 0.275094 0.196771
O O4 0.316718 0.281296 0.538677
O O5 0.054655 0.106218 0.525103
O O6 0.199687 0.977746 0.251822
O O7 0.035222 0.127329 0.019359
O O8 0.657106 0.427988 0.387425
O O9 0.939484 0.321566 0.252424
O O10 0.663399 0.409051 0.890562
O O11 0.200275 0.442646 0.315411
O O12 0.994596 0.599402 0.320790
#
# Coordination Sequence:
#
# PCOD9026162 Si02
#       6
#     2   2   2   2   2   2
#     4  12  24  42  71 111 132 178 231 288 338 402
#     4  10  24  48  72  97 142 179 217 281 346 411
#     4  10  24  48  71 100 137 180 224 274 343 418
#     4  10  22  41  62  95 136 174 232 277 333 400
#     4   9  21  45  62  88 140 187 220 276 340 393
#     4   9  22  42  66  93 137 180 229 282 327 397
#
# _framework density 24.435852000000001
#
# number of rings (size 3 to 8) (size 9 to 14) (size 15 to 20)
#    1.000    1.000    0.000    2.000    0.000    6.667 
#    6.000    5.000    0.000    0.000    0.000    0.000 
#    0.000    0.000    0.000    0.000    0.000    0.000 
#
# Total GULP energy -67186.861218 kJ/mol
# GULP energy per Si atom -5598.905101 kJ/mol
# Density = 2.438024 g / cm^3
# Si number density = 24.435852 Si / 1000 Ang^3
#
#
#
# Elastic Constant Matrix: (Units=GPa)
#
#
# Indices 1 2 3 4 5 6 
#
# 1 83.4737 11.8435 18.7395 -13.7959 -0.0912 12.9315
# 2 11.8435 56.4864 20.6264 -8.9143 -0.3251 -1.4969
# 3 18.7395 20.6264 144.2844 -15.1484 -2.8745 10.3514
# 4 -13.7959 -8.9143 -15.1484 21.8841 -0.4767 2.8901
# 5 -0.0912 -0.3251 -2.8745 -0.4767 17.6323 -7.6851
# 6 12.9315 -1.4969 10.3514 2.8901 -7.6851 48.9252
#
#
#
# Elastic Compliance Matrix: (Units=1/GPa)
#
#
# Indices 1 2 3 4 5 6 
#
# 1 0.014455 -0.001628 -0.000438 0.008712 -0.001784 -0.004573
# 2 -0.001628 0.019705 -0.002118 0.005382 0.000711 0.001275
# 3 -0.000438 -0.002118 0.007913 0.004590 0.000587 -0.001802
# 4 0.008712 0.005382 0.004590 0.057415 -0.000417 -0.006566
# 5 -0.001784 0.000711 0.000587 -0.000417 0.061161 0.010001
# 6 -0.004573 0.001275 -0.001802 -0.006566 0.010001 0.024027
#
#
# Mechanical properties :
#
#
# Convention : Reuss Voigt Hill
#
# Bulk Modulus (GPa) = 29.66698 42.96260 36.31479
# Shear Modulus (GPa) = 24.47632 33.22399 28.85015
#
# Velocity S-wave (km/s) = 3.16833 3.69133 3.43978
# Velocity P-wave (km/s) = 5.05485 5.98230 5.53802
#
# Compressibility (1/GPa) = 0.03370750
#
# Stress axis : x y z
#
# Youngs Moduli (GPa) = 69.17885 50.74808 126.37043
#
# Poissons Ratio (x) = 0.08260 0.05530
# Poissons Ratio (y) = 0.11260 0.26764
# Poissons Ratio (z) = 0.03027 0.10748
#
# Static dielectric constant tensor:
#      x y z
#    x 1.980130 -0.030590 0.010250 
#    y -0.030590 1.955410 0.026580 
#    z 0.010250 0.026580 1.912440 
# 
# From -- ./inp_files/4424.got.cif
#   From: 2010.05.17/outbox.cif.g08.bks.cpg/sg2_3_cif.got.tgz:4424.got - 2010.06.03 11:33:40.
