data_PCOD9026354
_publ_section_title
;
Structure prediction by ZEFSAII (Michael W. Deem and Ramdas Pophale) SiO2 
 PCOD9026354
Probable space group: P -1
;
_chemical_formula_sum "Si O2"
_cell_formula_units_Z 16
_cell_length_a 8.640582
_cell_length_b 13.904222
_cell_length_c 12.573306
_cell_angle_alpha 116.307651
_cell_angle_beta 61.526806
_cell_angle_gamma 145.717795
_cell_volume 744.223740
_symmetry_space_group_name_H-M "P -1"
_symmetry_group_IT_number 2
_symmetry_cell_setting 'triclinic'
loop_
_space_group_symop_operation_xyz
x,y,z
-x,-y,-z
loop_
_atom_site_type_symbol
_atom_site_label
_atom_site_fract_x
_atom_site_fract_y
_atom_site_fract_z
Si Si1 0.397401 0.631640 0.182888
Si Si2 0.834362 0.805804 0.951830
Si Si3 0.324038 0.015669 0.024499
Si Si4 0.743617 0.604413 0.704506
Si Si5 0.846761 0.349254 0.895318
Si Si6 0.836141 0.146547 0.477784
Si Si7 0.873708 0.712817 0.324190
Si Si8 0.945740 0.956602 0.288389
O O1 0.288061 0.496098 0.238796
O O2 0.172919 0.604614 0.191273
O O3 0.657693 0.814684 0.244528
O O4 0.552143 0.658118 0.040563
O O5 0.784852 0.736777 0.817566
O O6 0.000000 0.000000 0.000000
O O7 0.067504 0.846596 0.956857
O O8 0.535354 0.181749 0.961126
O O9 0.192659 0.026760 0.166264
O O10 0.500000 0.000000 0.000000
O O11 0.460984 0.467500 0.658877
O O12 0.007595 0.710304 0.593900
O O13 0.999664 0.308253 0.815075
O O14 0.000000 0.500000 0.000000
O O15 0.956973 0.230050 0.595556
O O16 0.500000 0.000000 0.500000
O O17 0.949390 0.078865 0.388663
O O18 0.920172 0.856825 0.341529
#
# Coordination Sequence:
#
# PCOD9026354 Si02
#       8
#     2   2   2   2   2   2   2   2
#     4  10  22  41  64 100 135 179 225 280 349 415
#     4  11  21  38  68  96 135 180 230 280 347 409
#     4  11  23  39  66 106 140 175 228 286 351 418
#     4  11  25  44  67  95 138 184 228 287 349 404
#     4  12  25  40  65 103 146 179 227 283 352 422
#     4  12  27  47  75 102 133 188 244 290 339 410
#     4  11  25  47  68 102 143 181 232 289 349 416
#     4  10  23  45  73  98 137 181 230 292 347 406
#
# _framework density 21.498909999999999
#
# number of rings (size 3 to 8) (size 9 to 14) (size 15 to 20)
#    0.000    1.000    2.500    4.125    5.250    0.000 
#    0.000    6.875    0.000    0.000    0.000    0.000 
#    0.000    0.000    0.000    0.000    0.000    0.000 
#
# Total GULP energy -89354.983234 kJ/mol
# GULP energy per Si atom -5584.686452 kJ/mol
# Density = 2.144998 g / cm^3
# Si number density = 21.498910 Si / 1000 Ang^3
#
#
#
# Elastic Constant Matrix: (Units=GPa)
#
#
# Indices 1 2 3 4 5 6 
#
# 1 111.4530 44.5886 27.6816 5.9492 12.2338 4.1998
# 2 44.5886 89.0737 43.2074 -21.6076 -3.4254 9.1097
# 3 27.6816 43.2074 99.2855 -0.0808 7.0943 0.9974
# 4 5.9492 -21.6076 -0.0808 33.8443 -2.8132 -4.9559
# 5 12.2338 -3.4254 7.0943 -2.8132 36.9815 1.2308
# 6 4.1998 9.1097 0.9974 -4.9559 1.2308 34.8057
#
#
#
# Elastic Compliance Matrix: (Units=1/GPa)
#
#
# Indices 1 2 3 4 5 6 
#
# 1 0.013907 -0.009859 0.000864 -0.009300 -0.006380 -0.000221
# 2 -0.009859 0.025623 -0.008990 0.018373 0.008855 -0.002956
# 3 0.000864 -0.008990 0.014035 -0.006049 -0.004309 0.001138
# 4 -0.009300 0.018373 -0.006049 0.044019 0.009207 0.002429
# 5 -0.006380 0.008855 -0.004309 0.009207 0.031539 -0.001229
# 6 -0.000221 -0.002956 0.001138 0.002429 -0.001229 0.029888
#
#
# Mechanical properties :
#
#
# Convention : Reuss Voigt Hill
#
# Bulk Modulus (GPa) = 56.83795 58.97415 57.90605
# Shear Modulus (GPa) = 24.89467 33.41527 29.15497
#
# Velocity S-wave (km/s) = 3.40656 3.94671 3.68654
# Velocity P-wave (km/s) = 6.47826 6.94690 6.71667
#
# Compressibility (1/GPa) = 0.01759388
#
# Stress axis : x y z
#
# Youngs Moduli (GPa) = 71.90464 39.02792 71.25101
#
# Poissons Ratio (x) = 0.38479 -0.06154
# Poissons Ratio (y) = 0.70894 0.64053
# Poissons Ratio (z) = -0.06210 0.35085
#
# Static dielectric constant tensor:
#      x y z
#    x 1.884070 -0.023870 -0.000770 
#    y -0.023870 1.788920 -0.000900 
#    z -0.000770 -0.000900 1.808320 
# 
# From -- ./inp_files/297519.got.cif
#   From: 2010.05.17/outbox.cif.g08.bks.cpg/sg2_149_cif.got.tgz:297519.got - 2010.06.03 11:33:40.
