data_PCOD9026583
_publ_section_title
;
Structure prediction by ZEFSAII (Michael W. Deem and Ramdas Pophale) SiO2 
 PCOD9026583
Probable space group: P -1
;
_chemical_formula_sum "Si O2"
_cell_formula_units_Z 16
_cell_length_a 15.521119
_cell_length_b 15.009164
_cell_length_c 6.344320
_cell_angle_alpha 47.203540
_cell_angle_beta 135.672402
_cell_angle_gamma 130.966645
_cell_volume 715.135894
_symmetry_space_group_name_H-M "P -1"
_symmetry_group_IT_number 2
_symmetry_cell_setting 'triclinic'
loop_
_space_group_symop_operation_xyz
x,y,z
-x,-y,-z
loop_
_atom_site_type_symbol
_atom_site_label
_atom_site_fract_x
_atom_site_fract_y
_atom_site_fract_z
Si Si1 0.149385 0.545328 0.734849
Si Si2 0.550064 0.688595 0.181762
Si Si3 0.186575 0.816121 0.520062
Si Si4 0.217055 0.356946 0.455094
Si Si5 0.333083 0.104688 0.307366
Si Si6 0.582558 0.226139 0.789750
Si Si7 0.346268 0.526771 0.781462
Si Si8 0.075041 0.151182 0.843859
O O1 0.196267 0.699059 0.585770
O O2 0.217562 0.505374 0.723015
O O3 0.000000 0.500000 0.500000
O O4 0.171385 0.470838 0.101398
O O5 0.686888 0.669212 0.508859
O O6 0.467232 0.723357 0.164960
O O7 0.602032 0.807293 0.919272
O O8 0.458633 0.562283 0.099497
O O9 0.033168 0.792051 0.337054
O O10 0.253748 0.960769 0.323351
O O11 0.286490 0.810606 0.892495
O O12 0.307905 0.412284 0.730317
O O13 0.106379 0.226885 0.550314
O O14 0.454715 0.116922 0.652293
O O15 0.224065 0.154727 0.151239
O O16 0.616298 0.344546 0.497858
O O17 0.000000 0.000000 0.000000
#
# Coordination Sequence:
#
# PCOD9026583 Si02
#       8
#     2   2   2   2   2   2   2   2
#     4  12  27  41  62  98 131 174 221 262 324 390
#     4  10  22  41  64  98 128 165 219 263 327 388
#     4  11  21  43  64  93 133 170 214 268 322 385
#     4  11  23  42  68  92 131 174 213 271 320 387
#     4   9  22  42  67  93 128 171 214 271 321 384
#     4  11  22  40  66  98 130 167 215 269 328 383
#     4  11  22  41  62  95 131 168 216 262 329 382
#     4   9  21  42  69  92 123 169 219 264 324 385
#
# _framework density 22.373370000000001
#
# number of rings (size 3 to 8) (size 9 to 14) (size 15 to 20)
#    0.000    1.500    2.500    1.500    1.750    7.500 
#    2.250    0.000    0.000    8.250    0.000    0.000 
#    0.000    0.000    0.000    0.000    0.000    0.000 
#
# Total GULP energy -89103.724337 kJ/mol
# GULP energy per Si atom -5568.982771 kJ/mol
# Density = 2.232245 g / cm^3
# Si number density = 22.373370 Si / 1000 Ang^3
#
#
#
# Elastic Constant Matrix: (Units=GPa)
#
#
# Indices 1 2 3 4 5 6 
#
# 1 91.2639 8.4177 22.2325 -11.5717 -6.9232 24.3218
# 2 8.4177 90.1668 23.8617 -20.6628 -15.3640 20.7938
# 3 22.2325 23.8617 49.3003 -14.6036 3.0339 0.4611
# 4 -11.5717 -20.6628 -14.6036 29.3491 1.8325 3.1189
# 5 -6.9232 -15.3640 3.0339 1.8325 28.2286 -2.0675
# 6 24.3218 20.7938 0.4611 3.1189 -2.0675 30.8700
#
#
#
# Elastic Compliance Matrix: (Units=1/GPa)
#
#
# Indices 1 2 3 4 5 6 
#
# 1 0.022316 0.012069 -0.012388 0.013250 0.010598 -0.026156
# 2 0.012069 0.027285 -0.013675 0.019204 0.015942 -0.028557
# 3 -0.012388 -0.013675 0.033433 0.001067 -0.012862 0.017503
# 4 0.013250 0.019204 0.001067 0.055886 0.007871 -0.028510
# 5 0.010598 0.015942 -0.012862 0.007871 0.046358 -0.016587
# 6 -0.026156 -0.028557 0.017503 -0.028510 -0.016587 0.073745
#
#
# Mechanical properties :
#
#
# Convention : Reuss Voigt Hill
#
# Bulk Modulus (GPa) = 18.16613 37.75053 27.95833
# Shear Modulus (GPa) = 16.37411 29.43749 22.90580
#
# Velocity S-wave (km/s) = 2.70822 3.63125 3.20315
# Velocity P-wave (km/s) = 4.23278 5.87289 5.11895
#
# Compressibility (1/GPa) = 0.05504751
#
# Stress axis : x y z
#
# Youngs Moduli (GPa) = 44.81005 36.64951 29.91067
#
# Poissons Ratio (x) = -0.44233 0.37054
# Poissons Ratio (y) = -0.54082 0.40902
# Poissons Ratio (z) = 0.55511 0.50117
#
# Static dielectric constant tensor:
#      x y z
#    x 1.813340 -0.017550 0.029890 
#    y -0.017550 1.878440 0.013180 
#    z 0.029890 0.013180 1.865820 
# 
# From -- ./inp_files/68997.got.cif
#   From: 2010.05.17/outbox.cif.g08.bks.cpg/sg2_35_cif.got.tgz:68997.got - 2010.06.03 11:33:40.
