data_PCOD9026794
_publ_section_title
;
Structure prediction by ZEFSAII (Michael W. Deem and Ramdas Pophale) SiO2 
 PCOD9026794
Probable space group: P -1
;
_chemical_formula_sum "Si O2"
_cell_formula_units_Z 14
_cell_length_a 6.865885
_cell_length_b 9.640911
_cell_length_c 16.323615
_cell_angle_alpha 117.042004
_cell_angle_beta 114.665920
_cell_angle_gamma 111.552270
_cell_volume 634.469211
_symmetry_space_group_name_H-M "P -1"
_symmetry_group_IT_number 2
_symmetry_cell_setting 'triclinic'
loop_
_space_group_symop_operation_xyz
x,y,z
-x,-y,-z
loop_
_atom_site_type_symbol
_atom_site_label
_atom_site_fract_x
_atom_site_fract_y
_atom_site_fract_z
Si Si1 0.276899 0.027153 0.988873
Si Si2 0.829142 0.438401 0.362065
Si Si3 0.156139 0.670668 0.147669
Si Si4 0.224484 0.354658 0.472545
Si Si5 0.837892 0.903890 0.355824
Si Si6 0.824635 0.006595 0.855199
Si Si7 0.805272 0.523345 0.209814
O O1 0.126994 0.917123 0.020823
O O2 0.478850 0.284497 0.092361
O O3 0.500000 0.000000 0.000000
O O4 0.014947 0.944832 0.859532
O O5 0.736128 0.568030 0.406248
O O6 0.519010 0.199297 0.256180
O O7 0.952930 0.521052 0.314747
O O8 0.044754 0.418980 0.433195
O O9 0.500712 0.802204 0.262267
O O10 0.967199 0.552041 0.164169
O O11 0.124768 0.834500 0.158264
O O12 0.000000 0.500000 0.000000
O O13 0.500000 0.500000 0.500000
O O14 0.039155 0.104783 0.381301
O O15 0.817255 0.714554 0.273094
O O16 0.000000 0.000000 0.500000
#
# Coordination Sequence:
#
# PCOD9026794 Si02
#       7
#     2   2   2   2   2   2   2
#     4  10  22  42  68  99 140 193 245 303 365 438
#     4  10  23  45  66 105 142 191 249 307 363 453
#     4  12  27  47  74 107 154 200 247 313 379 444
#     4  11  25  44  73 101 142 195 254 302 374 446
#     4  12  27  49  74 112 152 197 251 314 383 446
#     4  10  22  41  65  96 140 184 244 301 357 440
#     4  11  26  43  73 107 150 191 250 308 374 448
#
# _framework density 22.065684999999998
#
# number of rings (size 3 to 8) (size 9 to 14) (size 15 to 20)
#    0.000    1.143    2.857    1.714    4.000    8.571 
#    0.000    0.000    0.000    0.000    0.000    0.000 
#    0.000    0.000    0.000    0.000    0.000    0.000 
#
# Total GULP energy -78003.351905 kJ/mol
# GULP energy per Si atom -5571.667993 kJ/mol
# Density = 2.201546 g / cm^3
# Si number density = 22.065685 Si / 1000 Ang^3
#
#
#
# Elastic Constant Matrix: (Units=GPa)
#
#
# Indices 1 2 3 4 5 6 
#
# 1 103.6360 -0.7742 18.6354 43.6809 9.1744 -5.5288
# 2 -0.7742 6.4208 -44.6318 111.8250 -20.3478 8.9938
# 3 18.6354 -44.6318 28.1408 58.7704 -4.4688 -2.3976
# 4 43.6809 111.8250 58.7704 -40.5903 10.6487 9.7227
# 5 9.1744 -20.3478 -4.4688 10.6487 33.3601 -5.4641
# 6 -5.5288 8.9938 -2.3976 9.7227 -5.4641 41.9386
#
#
#
# Elastic Compliance Matrix: (Units=1/GPa)
#
#
# Indices 1 2 3 4 5 6 
#
# 1 0.012621 -0.002576 -0.006231 -0.003235 -0.004513 0.002022
# 2 -0.002576 0.006081 -0.004169 0.007362 0.000942 -0.003466
# 3 -0.006231 -0.004169 0.017809 0.007204 -0.000857 -0.000691
# 4 -0.003235 0.007362 0.007204 0.003472 0.004950 -0.001753
# 5 -0.004513 0.000942 -0.000857 0.004950 0.030419 0.001970
# 6 0.002022 -0.003466 -0.000691 -0.001753 0.001970 0.025478
#
#
# Mechanical properties :
#
#
# Convention : Reuss Voigt Hill
#
# Bulk Modulus (GPa) = 94.70110 9.40627 52.05369
# Shear Modulus (GPa) = 39.88734 17.93957 28.91345
#
# Velocity S-wave (km/s) = 4.25628 2.85442 3.62378
# Velocity P-wave (km/s) = 8.19546 3.89047 6.41487
#
# Compressibility (1/GPa) = 0.01055954
#
# Stress axis : x y z
#
# Youngs Moduli (GPa) = 79.23046 164.44134 56.15063
#
# Poissons Ratio (x) = 0.42359 0.34987
# Poissons Ratio (y) = 0.20409 0.23411
# Poissons Ratio (z) = 0.49368 0.68560
#
# Static dielectric constant tensor:
#      x y z
#    x 1.718730 -0.156840 0.150370 
#    y -0.156840 1.626250 0.236760 
#    z 0.150370 0.236760 1.499140 
# 
# From -- ./inp_files/548343.got.cif
#   From: 2010.05.17/outbox.cif.g08.bks.cpg/sg2_275_cif.got.tgz:548343.got - 2010.06.03 11:33:40.
