data_PCOD9026714
_publ_section_title
;
Structure prediction by ZEFSAII (Michael W. Deem and Ramdas Pophale) SiO2 
 PCOD9026714
Probable space group: P -1
;
_chemical_formula_sum "Si O2"
_cell_formula_units_Z 16
_cell_length_a 10.765197
_cell_length_b 11.219656
_cell_length_c 15.596551
_cell_angle_alpha 70.277868
_cell_angle_beta 41.698179
_cell_angle_gamma 40.724079
_cell_volume 695.164482
_symmetry_space_group_name_H-M "P -1"
_symmetry_group_IT_number 2
_symmetry_cell_setting 'triclinic'
loop_
_space_group_symop_operation_xyz
x,y,z
-x,-y,-z
loop_
_atom_site_type_symbol
_atom_site_label
_atom_site_fract_x
_atom_site_fract_y
_atom_site_fract_z
Si Si1 0.833065 0.745946 0.385779
Si Si2 0.860463 0.453781 0.456170
Si Si3 0.056134 0.316987 0.019973
Si Si4 0.862953 0.483365 0.896595
Si Si5 0.763592 0.215355 0.412876
Si Si6 0.794719 0.218115 0.772381
Si Si7 0.736659 0.830296 0.826091
Si Si8 0.611018 0.340220 0.654826
O O1 0.817815 0.618323 0.471378
O O2 0.931886 0.658035 0.258563
O O3 0.099922 0.695678 0.293160
O O4 0.500000 0.000000 0.500000
O O5 0.584826 0.572757 0.498334
O O6 0.820610 0.350773 0.556913
O O7 0.192706 0.260913 0.283571
O O8 0.013082 0.322817 0.937622
O O9 0.378776 0.078716 0.947517
O O10 0.000000 0.500000 0.000000
O O11 0.756985 0.425551 0.199696
O O12 0.833043 0.653937 0.875364
O O13 0.491522 0.649516 0.047374
O O14 0.697950 0.227927 0.546446
O O15 0.025134 0.182698 0.281045
O O16 0.890566 0.037773 0.326118
O O17 0.677750 0.231759 0.735401
#
# Coordination Sequence:
#
# PCOD9026714 Si02
#       8
#     2   2   2   2   2   2   2   2
#     4  11  23  42  68  91 123 176 221 263 314 380
#     4  10  23  42  63  92 127 174 215 260 326 378
#     4  11  25  38  64 101 133 169 210 258 329 390
#     4  10  25  44  64  97 133 168 216 265 325 389
#     4  11  22  41  64  94 131 171 210 261 331 380
#     4  11  23  41  65  93 128 174 209 268 326 373
#     4  10  22  41  65  93 131 172 205 264 328 381
#     4  10  23  40  60  96 132 158 214 271 316 394
#
# _framework density 23.016137000000001
#
# number of rings (size 3 to 8) (size 9 to 14) (size 15 to 20)
#    0.000    1.500    1.250    3.750    7.000    4.500 
#    0.000    1.250    0.000    8.250    0.000    0.000 
#    0.000    0.000    0.000    0.000    0.000    0.000 
#
# Total GULP energy -89169.584189 kJ/mol
# GULP energy per Si atom -5573.099012 kJ/mol
# Density = 2.296375 g / cm^3
# Si number density = 23.016137 Si / 1000 Ang^3
#
#
#
# Elastic Constant Matrix: (Units=GPa)
#
#
# Indices 1 2 3 4 5 6 
#
# 1 46.0061 14.7146 14.0376 2.0510 2.1530 12.7280
# 2 14.7146 67.0727 22.7353 9.5055 10.7124 14.1480
# 3 14.0376 22.7353 120.9486 16.7086 12.0640 4.2213
# 4 2.0510 9.5055 16.7086 41.3021 8.4238 0.5890
# 5 2.1530 10.7124 12.0640 8.4238 33.4772 -5.2210
# 6 12.7280 14.1480 4.2213 0.5890 -5.2210 44.4696
#
#
#
# Elastic Compliance Matrix: (Units=1/GPa)
#
#
# Indices 1 2 3 4 5 6 
#
# 1 0.025157 -0.003514 -0.002055 0.000650 -0.000852 -0.005996
# 2 -0.003514 0.018657 -0.002093 -0.002118 -0.005287 -0.005324
# 3 -0.002055 -0.002093 0.009477 -0.002872 -0.001863 0.000174
# 4 0.000650 -0.002118 -0.002872 0.026877 -0.005123 -0.000197
# 5 -0.000852 -0.005287 -0.001863 -0.005123 0.034549 0.006227
# 6 -0.005996 -0.005324 0.000174 -0.000197 0.006227 0.026614
#
#
# Mechanical properties :
#
#
# Convention : Reuss Voigt Hill
#
# Bulk Modulus (GPa) = 26.33905 37.44474 31.89189
# Shear Modulus (GPa) = 29.53155 36.01912 32.77534
#
# Velocity S-wave (km/s) = 3.58590 3.96024 3.77771
# Velocity P-wave (km/s) = 5.34915 6.10045 5.73712
#
# Compressibility (1/GPa) = 0.03796644
#
# Stress axis : x y z
#
# Youngs Moduli (GPa) = 39.75074 53.59828 105.52365
#
# Poissons Ratio (x) = 0.18833 0.21683
# Poissons Ratio (y) = 0.13968 0.22091
# Poissons Ratio (z) = 0.08168 0.11221
#
# Static dielectric constant tensor:
#      x y z
#    x 1.947820 -0.074000 0.020600 
#    y -0.074000 2.016580 -0.009860 
#    z 0.020600 -0.009860 1.913890 
# 
# From -- ./inp_files/568712.got.cif
#   From: 2010.05.17/outbox.cif.g08.bks.cpg/sg2_285_cif.got.tgz:568712.got - 2010.06.03 11:33:40.
