data_PCOD9026831
_publ_section_title
;
Structure prediction by ZEFSAII (Michael W. Deem and Ramdas Pophale) SiO2 
 PCOD9026831
Probable space group: P -1
;
_chemical_formula_sum "Si O2"
_cell_formula_units_Z 16
_cell_length_a 5.546951
_cell_length_b 14.035220
_cell_length_c 13.875843
_cell_angle_alpha 43.550938
_cell_angle_beta 124.097195
_cell_angle_gamma 119.490699
_cell_volume 609.311934
_symmetry_space_group_name_H-M "P -1"
_symmetry_group_IT_number 2
_symmetry_cell_setting 'triclinic'
loop_
_space_group_symop_operation_xyz
x,y,z
-x,-y,-z
loop_
_atom_site_type_symbol
_atom_site_label
_atom_site_fract_x
_atom_site_fract_y
_atom_site_fract_z
Si Si1 0.563211 0.124820 0.163850
Si Si2 0.236561 0.933539 0.368284
Si Si3 0.224233 0.412221 0.055027
Si Si4 0.412119 0.894950 0.144496
Si Si5 0.299018 0.669562 0.121637
Si Si6 0.561446 0.473549 0.422115
Si Si7 0.036556 0.737601 0.317474
Si Si8 0.803610 0.853198 0.638036
O O1 0.847838 0.162696 0.269872
O O2 0.288756 0.065559 0.211444
O O3 0.586512 0.990376 0.198542
O O4 0.535320 0.251693 0.991196
O O5 0.996799 0.817146 0.349770
O O6 0.552174 0.877251 0.487967
O O7 0.175503 0.999726 0.406974
O O8 0.326116 0.291862 0.232298
O O9 0.500000 0.500000 0.000000
O O10 0.000000 0.500000 0.000000
O O11 0.030945 0.331437 0.985367
O O12 0.403697 0.752704 0.182124
O O13 0.099623 0.848859 0.164443
O O14 0.500000 0.000000 0.000000
O O15 0.311704 0.507369 0.269424
O O16 0.500000 0.500000 0.500000
O O17 0.659759 0.324073 0.553434
O O18 0.818629 0.596202 0.352230
#
# Coordination Sequence:
#
# PCOD9026831 Si02
#       8
#     2   2   2   2   2   2   2   2
#     4   9  20  40  63  94 133 166 227 288 356 422
#     4  10  22  41  65  98 132 179 231 296 356 426
#     4  11  28  49  72 102 142 188 240 295 354 431
#     4   9  18  39  62  94 129 166 216 285 351 414
#     4  10  22  41  68  95 133 180 230 287 353 424
#     4  11  23  41  63  96 136 184 231 289 349 432
#     4  10  23  39  64  99 137 179 237 285 360 425
#     4  10  23  41  67  96 134 181 235 289 359 419
#
# _framework density 26.259125999999998
#
# number of rings (size 3 to 8) (size 9 to 14) (size 15 to 20)
#    0.000    2.000    1.250    0.375    7.000    2.000 
#    4.500    1.875    0.000    0.000    0.000    0.000 
#    0.000    0.000    0.000    0.000    0.000    0.000 
#
# Total GULP energy -89098.412565 kJ/mol
# GULP energy per Si atom -5568.650785 kJ/mol
# Density = 2.619936 g / cm^3
# Si number density = 26.259126 Si / 1000 Ang^3
#
#
#
# Elastic Constant Matrix: (Units=GPa)
#
#
# Indices 1 2 3 4 5 6 
#
# 1 42.4468 14.8207 25.0315 -7.7234 -3.5415 0.2221
# 2 14.8207 100.7436 13.8723 11.8743 -0.6556 6.0234
# 3 25.0315 13.8723 145.2253 -4.2343 -11.7285 5.1777
# 4 -7.7234 11.8743 -4.2343 34.4502 1.2003 -2.9810
# 5 -3.5415 -0.6556 -11.7285 1.2003 32.1899 -21.2581
# 6 0.2221 6.0234 5.1777 -2.9810 -21.2581 42.0462
#
#
#
# Elastic Compliance Matrix: (Units=1/GPa)
#
#
# Indices 1 2 3 4 5 6 
#
# 1 0.029472 -0.004873 -0.004216 0.007941 0.003579 0.003434
# 2 -0.004873 0.011508 -0.000492 -0.005308 -0.002347 -0.003125
# 3 -0.004216 -0.000492 0.007866 0.000141 0.002725 0.000512
# 4 0.007941 -0.005308 0.000141 0.032939 0.002393 0.004246
# 5 0.003579 -0.002347 0.002725 0.002393 0.048663 0.024755
# 6 0.003434 -0.003125 0.000512 0.004246 0.024755 0.036967
#
#
# Mechanical properties :
#
#
# Convention : Reuss Voigt Hill
#
# Bulk Modulus (GPa) = 33.68988 43.98498 38.83743
# Shear Modulus (GPa) = 25.44883 37.38334 31.41608
#
# Velocity S-wave (km/s) = 3.11648 3.77720 3.46264
# Velocity P-wave (km/s) = 5.08012 5.98412 5.55055
#
# Compressibility (1/GPa) = 0.02968250
#
# Stress axis : x y z
#
# Youngs Moduli (GPa) = 33.92998 86.89503 127.13738
#
# Poissons Ratio (x) = 0.42346 0.53605
# Poissons Ratio (y) = 0.16535 0.06258
# Poissons Ratio (z) = 0.14306 0.04277
#
# Static dielectric constant tensor:
#      x y z
#    x 2.367160 0.024700 0.130890 
#    y 0.024700 2.135790 -0.010430 
#    z 0.130890 -0.010430 2.100800 
# 
# From -- ./inp_files/484307.got.cif
#   From: 2010.05.17/outbox.cif.g08.bks.cpg/sg2_243_cif.got.tgz:484307.got - 2010.06.03 11:33:40.
