data_PCOD9026429
_publ_section_title
;
Structure prediction by ZEFSAII (Michael W. Deem and Ramdas Pophale) SiO2 
 PCOD9026429
Probable space group: P -1
;
_chemical_formula_sum "Si O2"
_cell_formula_units_Z 16
_cell_length_a 20.734646
_cell_length_b 12.629247
_cell_length_c 8.354199
_cell_angle_alpha 57.314233
_cell_angle_beta 110.666062
_cell_angle_gamma 156.443499
_cell_volume 666.956974
_symmetry_space_group_name_H-M "P -1"
_symmetry_group_IT_number 2
_symmetry_cell_setting 'triclinic'
loop_
_space_group_symop_operation_xyz
x,y,z
-x,-y,-z
loop_
_atom_site_type_symbol
_atom_site_label
_atom_site_fract_x
_atom_site_fract_y
_atom_site_fract_z
Si Si1 0.937607 0.383313 0.356572
Si Si2 0.620887 0.433415 0.489203
Si Si3 0.880322 0.519647 0.986687
Si Si4 0.920593 0.789472 0.250562
Si Si5 0.625567 0.090394 0.545032
Si Si6 0.161711 0.278688 0.286453
Si Si7 0.689572 0.056305 0.940528
Si Si8 0.260796 0.097582 0.685955
O O1 0.891292 0.444279 0.203950
O O2 0.000000 0.500000 0.500000
O O3 0.118970 0.651072 0.207783
O O4 0.788604 0.041561 0.420184
O O5 0.778431 0.645311 0.334078
O O6 0.662053 0.428796 0.693518
O O7 0.635182 0.599537 0.430679
O O8 0.442581 0.107331 0.501549
O O9 0.850553 0.615145 0.912017
O O10 0.726542 0.220489 0.974480
O O11 0.067405 0.810089 0.823767
O O12 0.816922 0.482782 0.392364
O O13 0.098210 0.062231 0.290255
O O14 0.000000 0.000000 0.000000
O O15 0.588467 0.948030 0.790789
O O16 0.500000 0.000000 0.500000
O O17 0.000000 0.000000 0.500000
O O18 0.647874 0.858463 0.162232
#
# Coordination Sequence:
#
# PCOD9026429 Si02
#       8
#     2   2   2   2   2   2   2   2
#     4   9  19  31  52  85 115 143 187 248 294 336
#     4  10  20  36  58  84 116 158 195 236 288 353
#     4   9  15  30  50  78 109 141 192 236 281 339
#     4  10  21  35  56  86 114 149 196 249 286 333
#     4  10  21  36  57  86 118 152 198 239 288 345
#     4  10  17  31  56  79 109 151 194 233 284 337
#     4   9  18  32  53  80 114 148 189 237 288 341
#     4   9  17  32  54  80 112 146 196 234 287 347
#
# _framework density 23.989554999999999
#
# number of rings (size 3 to 8) (size 9 to 14) (size 15 to 20)
#    0.000    2.500    2.500    3.750    1.750    1.500 
#    0.000    0.625    0.000    6.750    0.000    0.000 
#    0.000    0.000    0.000    0.000    0.000    0.000 
#
# Total GULP energy -89141.078408 kJ/mol
# GULP energy per Si atom -5571.317400 kJ/mol
# Density = 2.393495 g / cm^3
# Si number density = 23.989555 Si / 1000 Ang^3
#
#
#
# Elastic Constant Matrix: (Units=GPa)
#
#
# Indices 1 2 3 4 5 6 
#
# 1 84.6832 53.3821 52.2898 -3.9225 21.7596 -23.1430
# 2 53.3821 179.2433 84.0273 43.5545 16.8914 -43.9508
# 3 52.2898 84.0273 96.1585 21.9549 21.1236 -14.6797
# 4 -3.9225 43.5545 21.9549 37.2337 8.0721 1.2225
# 5 21.7596 16.8914 21.1236 8.0721 49.7432 -7.8577
# 6 -23.1430 -43.9508 -14.6797 1.2225 -7.8577 47.7937
#
#
#
# Elastic Compliance Matrix: (Units=1/GPa)
#
#
# Indices 1 2 3 4 5 6 
#
# 1 0.024997 -0.004894 -0.011150 0.016313 -0.006767 0.002649
# 2 -0.004894 0.017815 -0.007766 -0.018141 0.004356 0.012808
# 3 -0.011150 -0.007766 0.024324 -0.005661 -0.002745 -0.005376
# 4 0.016313 -0.018141 -0.005661 0.055693 -0.009750 -0.013549
# 5 -0.006767 0.004356 -0.002745 -0.009750 0.025003 0.004246
# 6 0.002649 0.012808 -0.005376 -0.013549 0.004246 0.033377
#
#
# Mechanical properties :
#
#
# Convention : Reuss Voigt Hill
#
# Bulk Modulus (GPa) = 51.24135 82.16483 66.70309
# Shear Modulus (GPa) = 21.24627 38.31319 29.77973
#
# Velocity S-wave (km/s) = 2.97921 4.00068 3.52712
# Velocity P-wave (km/s) = 5.76546 7.46091 6.66730
#
# Compressibility (1/GPa) = 0.01951549
#
# Stress axis : x y z
#
# Youngs Moduli (GPa) = 40.00456 56.13139 41.11189
#
# Poissons Ratio (x) = 0.27473 0.45840
# Poissons Ratio (y) = 0.19580 0.31928
# Poissons Ratio (z) = 0.44605 0.43592
#
# Static dielectric constant tensor:
#      x y z
#    x 1.953480 0.035560 -0.020970 
#    y 0.035560 2.054960 -0.004370 
#    z -0.020970 -0.004370 1.890480 
# 
# From -- ./inp_files/357379.got.cif
#   From: 2010.05.17/outbox.cif.g08.bks.cpg/sg2_179_cif.got.tgz:357379.got - 2010.06.03 11:33:40.
