data_PCOD9026163
_publ_section_title
;
Structure prediction by ZEFSAII (Michael W. Deem and Ramdas Pophale) SiO2 
 PCOD9026163
Probable space group: P -1
;
_chemical_formula_sum "Si O2"
_cell_formula_units_Z 14
_cell_length_a 9.197328
_cell_length_b 13.059828
_cell_length_c 9.677918
_cell_angle_alpha 110.614416
_cell_angle_beta 32.315113
_cell_angle_gamma 103.678491
_cell_volume 577.288061
_symmetry_space_group_name_H-M "P -1"
_symmetry_group_IT_number 2
_symmetry_cell_setting 'triclinic'
loop_
_space_group_symop_operation_xyz
x,y,z
-x,-y,-z
loop_
_atom_site_type_symbol
_atom_site_label
_atom_site_fract_x
_atom_site_fract_y
_atom_site_fract_z
Si Si1 0.599811 0.581540 0.789354
Si Si2 0.807774 0.939136 0.225421
Si Si3 0.576175 0.765464 0.690030
Si Si4 0.940332 0.102602 0.698765
Si Si5 0.492202 0.750115 0.432579
Si Si6 0.148648 0.468308 0.006418
Si Si7 0.942814 0.355643 0.373775
O O1 0.622510 0.640746 0.650305
O O2 0.281916 0.562386 0.028149
O O3 0.753351 0.459587 0.644234
O O4 0.758938 0.656806 0.799598
O O5 0.727912 0.815397 0.209498
O O6 0.940605 0.938607 0.268543
O O7 0.500000 0.000000 0.500000
O O8 0.000000 0.000000 0.000000
O O9 0.452469 0.780558 0.640683
O O10 0.869476 0.808301 0.465084
O O11 0.366216 0.838513 0.996318
O O12 0.000000 0.000000 0.500000
O O13 0.606185 0.622462 0.280105
O O14 0.217498 0.751021 0.562402
O O15 0.000000 0.500000 0.000000
O O16 0.975175 0.404713 0.219482
#
# Coordination Sequence:
#
# PCOD9026163 Si02
#       7
#     2   2   2   2   2   2   2
#     4  10  23  40  61 101 138 191 228 287 355 412
#     4  11  25  45  73 102 139 182 234 303 359 421
#     4  11  24  43  73  98 135 182 235 288 350 429
#     4  11  26  49  70 100 137 178 235 301 358 430
#     4  10  24  41  66 104 131 186 235 289 349 426
#     4  11  22  37  68  98 143 180 233 281 348 426
#     4  10  22  41  62  95 149 177 237 288 344 426
#
# _framework density 24.251325000000001
#
# number of rings (size 3 to 8) (size 9 to 14) (size 15 to 20)
#    0.000    1.429    0.000    4.286   12.000    3.429 
#    2.571    0.000    0.000    0.000    0.000    0.000 
#    0.000    0.000    0.000    0.000    0.000    0.000 
#
# Total GULP energy -78155.663515 kJ/mol
# GULP energy per Si atom -5582.547394 kJ/mol
# Density = 2.419613 g / cm^3
# Si number density = 24.251325 Si / 1000 Ang^3
#
#
#
# Elastic Constant Matrix: (Units=GPa)
#
#
# Indices 1 2 3 4 5 6 
#
# 1 129.6362 52.1454 40.2006 -20.6054 -9.6456 19.2819
# 2 52.1454 101.4675 41.1384 -27.5910 0.7999 11.6858
# 3 40.2006 41.1384 129.2394 -24.3730 -6.8553 8.7013
# 4 -20.6054 -27.5910 -24.3730 50.5747 -1.9472 -6.7387
# 5 -9.6456 0.7999 -6.8553 -1.9472 28.3599 -0.3320
# 6 19.2819 11.6858 8.7013 -6.7387 -0.3320 43.8059
#
#
#
# Elastic Compliance Matrix: (Units=1/GPa)
#
#
# Indices 1 2 3 4 5 6 
#
# 1 0.010790 -0.004367 -0.001368 0.001073 0.003499 -0.003121
# 2 -0.004367 0.014479 -0.002415 0.004774 -0.002158 -0.000743
# 3 -0.001368 -0.002415 0.009586 0.002798 0.002109 -0.000211
# 4 0.001073 0.004774 0.002798 0.024461 0.002603 0.001481
# 5 0.003499 -0.002158 0.002109 0.002603 0.037193 -0.000701
# 6 -0.003121 -0.000743 -0.000211 0.001481 -0.000701 0.024664
#
#
# Mechanical properties :
#
#
# Convention : Reuss Voigt Hill
#
# Bulk Modulus (GPa) = 53.89193 69.70132 61.79663
# Shear Modulus (GPa) = 34.80534 39.67199 37.23866
#
# Velocity S-wave (km/s) = 3.79250 4.04898 3.92284
# Velocity P-wave (km/s) = 6.43801 7.11776 6.78640
#
# Compressibility (1/GPa) = 0.01855565
#
# Stress axis : x y z
#
# Youngs Moduli (GPa) = 92.68013 69.06444 104.32408
#
# Poissons Ratio (x) = 0.30158 0.14273
# Poissons Ratio (y) = 0.40470 0.25191
# Poissons Ratio (z) = 0.12680 0.16677
#
# Static dielectric constant tensor:
#      x y z
#    x 1.969170 0.035780 -0.061970 
#    y 0.035780 1.641840 -0.182510 
#    z -0.061970 -0.182510 1.878700 
# 
# From -- ./inp_files/188109.got.cif
#   From: 2010.05.17/outbox.cif.g08.bks.cpg/sg2_95_cif.got.tgz:188109.got - 2010.06.03 11:33:40.
