data_PCOD9026729
_publ_section_title
;
Structure prediction by ZEFSAII (Michael W. Deem and Ramdas Pophale) SiO2 
 PCOD9026729
Probable space group: P -1
;
_chemical_formula_sum "Si O2"
_cell_formula_units_Z 16
_cell_length_a 8.724667
_cell_length_b 14.826408
_cell_length_c 26.188256
_cell_angle_alpha 149.116922
_cell_angle_beta 150.753185
_cell_angle_gamma 48.339501
_cell_volume 800.342243
_symmetry_space_group_name_H-M "P -1"
_symmetry_group_IT_number 2
_symmetry_cell_setting 'triclinic'
loop_
_space_group_symop_operation_xyz
x,y,z
-x,-y,-z
loop_
_atom_site_type_symbol
_atom_site_label
_atom_site_fract_x
_atom_site_fract_y
_atom_site_fract_z
Si Si1 0.522916 0.630553 0.354083
Si Si2 0.305355 0.839015 0.666165
Si Si3 0.197329 0.883620 0.444516
Si Si4 0.421498 0.627415 0.102732
Si Si5 0.328767 0.378763 0.271615
Si Si6 0.459153 0.322851 0.728678
Si Si7 0.735133 0.299499 0.524566
Si Si8 0.620683 0.270658 0.967345
O O1 0.353406 0.771044 0.397204
O O2 0.473400 0.470035 0.303678
O O3 0.386545 0.584305 0.234320
O O4 0.917155 0.732510 0.511445
O O5 0.517866 0.770973 0.735963
O O6 0.393258 0.781994 0.607481
O O7 0.383579 0.059229 0.798161
O O8 0.325262 0.859078 0.526659
O O9 0.802218 0.773927 0.278445
O O10 0.302486 0.099144 0.565894
O O11 0.326569 0.647852 0.143325
O O12 0.247385 0.678024 0.027486
O O13 0.443155 0.421148 0.001827
O O14 0.395818 0.544465 0.413542
O O15 0.934149 0.299044 0.108738
O O16 0.137727 0.383840 0.677151
#
# Coordination Sequence:
#
# PCOD9026729 Si02
#       8
#     2   2   2   2   2   2   2   2
#     4  10  21  35  55  84 114 144 189 226 280 326
#     4  11  22  36  61  84 109 148 194 230 268 326
#     4  10  17  33  58  85 115 142 181 232 278 331
#     4  10  19  35  59  80 117 146 175 232 283 334
#     4  11  21  40  58  80 115 150 187 232 273 321
#     4  10  17  31  56  85 110 144 184 229 273 335
#     4   9  18  34  56  85 107 140 193 229 272 324
#     4  11  21  36  59  85 113 145 187 225 285 330
#
# _framework density 19.991447000000001
#
# number of rings (size 3 to 8) (size 9 to 14) (size 15 to 20)
#    0.000    1.750    3.750    5.250    0.000    0.000 
#    0.000    0.625    5.500    0.750    0.000    0.000 
#    0.000    0.000    0.000    0.000    0.000    0.000 
#
# Total GULP energy -89357.047391 kJ/mol
# GULP energy per Si atom -5584.815462 kJ/mol
# Density = 1.994595 g / cm^3
# Si number density = 19.991447 Si / 1000 Ang^3
#
#
#
# Elastic Constant Matrix: (Units=GPa)
#
#
# Indices 1 2 3 4 5 6 
#
# 1 100.1740 16.5832 0.3384 -0.3292 -13.4619 23.7005
# 2 16.5832 79.8361 13.5923 3.8314 -9.4445 12.7229
# 3 0.3384 13.5923 49.9978 3.6896 -11.8314 11.5391
# 4 -0.3292 3.8314 3.6896 27.8991 4.5103 0.8250
# 5 -13.4619 -9.4445 -11.8314 4.5103 27.0302 -6.4167
# 6 23.7005 12.7229 11.5391 0.8250 -6.4167 21.5415
#
#
#
# Elastic Compliance Matrix: (Units=1/GPa)
#
#
# Indices 1 2 3 4 5 6 
#
# 1 0.014895 -0.000560 0.005434 -0.000869 0.005651 -0.017252
# 2 -0.000560 0.014326 -0.001664 -0.002047 0.002914 -0.006008
# 3 0.005434 -0.001664 0.027042 -0.004573 0.010913 -0.016056
# 4 -0.000869 -0.002047 -0.004573 0.038237 -0.009451 0.000336
# 5 0.005651 0.002914 0.010913 -0.009451 0.047343 0.000680
# 6 -0.017252 -0.006008 -0.016056 0.000336 0.000680 0.077742
#
#
# Mechanical properties :
#
#
# Convention : Reuss Voigt Hill
#
# Bulk Modulus (GPa) = 15.95276 32.33730 24.14503
# Shear Modulus (GPa) = 21.36228 28.59378 24.97803
#
# Velocity S-wave (km/s) = 3.27245 3.78603 3.53857
# Velocity P-wave (km/s) = 4.71971 5.94329 5.36649
#
# Compressibility (1/GPa) = 0.06268508
#
# Stress axis : x y z
#
# Youngs Moduli (GPa) = 67.13594 69.80556 36.97955
#
# Poissons Ratio (x) = 0.03906 -0.20096
# Poissons Ratio (y) = 0.03757 0.06152
# Poissons Ratio (z) = -0.36484 0.11612
#
# Static dielectric constant tensor:
#      x y z
#    x 1.737670 0.021530 -0.019620 
#    y 0.021530 1.699040 -0.034120 
#    z -0.019620 -0.034120 1.731090 
# 
# From -- ./inp_files/187907.got.cif
#   From: 2010.05.17/outbox.cif.g08.bks.cpg/sg2_94_cif.got.tgz:187907.got - 2010.06.03 11:33:40.
