data_PCOD9026596
_publ_section_title
;
Structure prediction by ZEFSAII (Michael W. Deem and Ramdas Pophale) SiO2 
 PCOD9026596
Probable space group: P -1
;
_chemical_formula_sum "Si O2"
_cell_formula_units_Z 15
_cell_length_a 19.033222
_cell_length_b 8.445040
_cell_length_c 16.751114
_cell_angle_alpha 131.327776
_cell_angle_beta 22.025725
_cell_angle_gamma 139.988090
_cell_volume 635.307788
_symmetry_space_group_name_H-M "P -1"
_symmetry_group_IT_number 2
_symmetry_cell_setting 'triclinic'
loop_
_space_group_symop_operation_xyz
x,y,z
-x,-y,-z
loop_
_atom_site_type_symbol
_atom_site_label
_atom_site_fract_x
_atom_site_fract_y
_atom_site_fract_z
Si Si1 0.607351 0.548179 0.626071
Si Si2 0.630269 0.349305 0.371811
Si Si3 0.017342 0.266589 0.989880
Si Si4 0.000000 0.500000 0.500000
Si Si5 0.035596 0.052778 0.386353
Si Si6 0.879885 0.706625 0.922954
Si Si7 0.490116 0.746770 0.091294
Si Si8 0.684973 0.199446 0.541533
O O1 0.557675 0.445416 0.554480
O O2 0.669832 0.380919 0.556158
O O3 0.819130 0.827807 0.495558
O O4 0.378922 0.500542 0.887099
O O5 0.753599 0.547394 0.236754
O O6 0.426558 0.077661 0.469219
O O7 0.827421 0.318031 0.185596
O O8 0.055295 0.302599 0.056630
O O9 0.920909 0.982835 0.967826
O O10 0.944186 0.692308 0.577226
O O11 0.272291 0.690234 0.254976
O O12 0.000000 0.000000 0.500000
O O13 0.256552 0.049739 0.133697
O O14 0.056617 0.697157 0.676604
O O15 0.450418 0.817665 0.244216
O O16 0.500000 0.500000 0.000000
#
# Coordination Sequence:
#
# PCOD9026596 Si02
#       8
#     2   2   2   1   2   2   2   2
#     4  12  25  43  71 105 147 187 234 290 359 424
#     4  11  23  41  67 102 146 193 230 287 359 419
#     4  10  22  41  64  98 145 189 241 286 338 427
#     4  10  24  52  78 104 138 182 242 292 368 426
#     4  11  27  50  77 109 142 185 242 307 360 431
#     4  11  24  41  66 100 142 191 237 284 347 427
#     4  10  25  48  75 103 140 182 241 301 355 422
#     4  12  25  43  70 104 147 187 236 293 357 419
#
# _framework density 23.610602
#
# number of rings (size 3 to 8) (size 9 to 14) (size 15 to 20)
#    0.000    1.067    2.667    3.600    3.733    9.067 
#    0.000    0.000    0.000    0.000    0.000    0.000 
#    0.000    0.000    0.000    0.000    0.000    0.000 
#
# Total GULP energy -83771.677177 kJ/mol
# GULP energy per Si atom -5584.778478 kJ/mol
# Density = 2.355686 g / cm^3
# Si number density = 23.610602 Si / 1000 Ang^3
#
#
#
# Elastic Constant Matrix: (Units=GPa)
#
#
# Indices 1 2 3 4 5 6 
#
# 1 52.7184 29.6133 32.7065 11.6170 -6.9143 -13.8809
# 2 29.6133 70.8686 32.5986 -10.5902 1.3060 5.4262
# 3 32.7065 32.5986 205.0449 -1.3477 -15.5148 -2.3653
# 4 11.6170 -10.5902 -1.3477 36.2227 4.8401 -0.9144
# 5 -6.9143 1.3060 -15.5148 4.8401 52.4914 -0.4786
# 6 -13.8809 5.4262 -2.3653 -0.9144 -0.4786 39.1021
#
#
#
# Elastic Compliance Matrix: (Units=1/GPa)
#
#
# Indices 1 2 3 4 5 6 
#
# 1 0.042624 -0.021043 -0.002830 -0.020468 0.007348 0.017491
# 2 -0.021043 0.026676 -0.001314 0.014930 -0.005301 -0.010967
# 3 -0.002830 -0.001314 0.005632 0.000552 0.001269 -0.000453
# 4 -0.020468 0.014930 0.000552 0.039225 -0.006598 -0.008468
# 5 0.007348 -0.005301 0.001269 -0.006598 0.021166 0.003526
# 6 0.017491 -0.010967 -0.000453 -0.008468 0.003526 0.033123
#
#
# Mechanical properties :
#
#
# Convention : Reuss Voigt Hill
#
# Bulk Modulus (GPa) = 40.71853 57.60765 49.16309
# Shear Modulus (GPa) = 22.02577 41.14414 31.58495
#
# Velocity S-wave (km/s) = 3.05762 4.17899 3.66149
# Velocity P-wave (km/s) = 5.45423 6.90922 6.22439
#
# Compressibility (1/GPa) = 0.02455884
#
# Stress axis : x y z
#
# Youngs Moduli (GPa) = 23.46075 37.48622 177.56284
#
# Poissons Ratio (x) = 0.78880 0.50256
# Poissons Ratio (y) = 0.49367 0.23333
# Poissons Ratio (z) = 0.06640 0.04926
#
# Static dielectric constant tensor:
#      x y z
#    x 1.734820 -0.112800 -0.031810 
#    y -0.112800 1.772880 -0.053260 
#    z -0.031810 -0.053260 1.927800 
# 
# From -- ./inp_files/577422.got.cif
#   From: 2010.05.17/outbox.cif.g08.bks.cpg/sg2_289_cif.got.tgz:577422.got - 2010.06.03 11:33:40.
