data_PCOD9026321
_publ_section_title
;
Structure prediction by ZEFSAII (Michael W. Deem and Ramdas Pophale) SiO2 
 PCOD9026321
Probable space group: P -1
;
_chemical_formula_sum "Si O2"
_cell_formula_units_Z 16
_cell_length_a 5.402748
_cell_length_b 6.540268
_cell_length_c 22.052530
_cell_angle_alpha 80.571329
_cell_angle_beta 119.227387
_cell_angle_gamma 103.922455
_cell_volume 659.063944
_symmetry_space_group_name_H-M "P -1"
_symmetry_group_IT_number 2
_symmetry_cell_setting 'triclinic'
loop_
_space_group_symop_operation_xyz
x,y,z
-x,-y,-z
loop_
_atom_site_type_symbol
_atom_site_label
_atom_site_fract_x
_atom_site_fract_y
_atom_site_fract_z
Si Si1 0.680937 0.319972 0.524811
Si Si2 0.748402 0.442001 0.740722
Si Si3 0.607954 0.078077 0.411084
Si Si4 0.964918 0.047897 0.847146
Si Si5 0.205055 0.201077 0.639840
Si Si6 0.273864 0.424443 0.923997
Si Si7 0.980798 0.883089 0.728991
Si Si8 0.324581 0.397523 0.148394
O O1 0.500000 0.500000 0.500000
O O2 0.711472 0.265849 0.460455
O O3 0.984849 0.353522 0.593579
O O4 0.517188 0.116102 0.550887
O O5 0.521005 0.340175 0.668629
O O6 0.981829 0.634908 0.733079
O O7 0.600609 0.541893 0.775221
O O8 0.855132 0.243462 0.792635
O O9 0.350154 0.110042 0.332765
O O10 0.846935 0.990763 0.405156
O O11 0.176681 0.170889 0.916752
O O12 0.069137 0.934708 0.806457
O O13 0.734016 0.855199 0.855087
O O14 0.165642 0.070642 0.703645
O O15 0.442566 0.498314 0.877795
O O16 0.984760 0.521866 0.898197
O O17 0.500000 0.500000 0.000000
#
# Coordination Sequence:
#
# PCOD9026321 Si02
#       8
#     2   2   2   2   2   2   2   2
#     4  10  24  43  63  89 129 169 216 272 339 413
#     4  10  22  42  66  99 125 171 223 267 340 407
#     4  10  22  43  60  93 125 161 220 271 332 406
#     4  10  22  43  66  96 142 172 223 282 341 397
#     4  11  22  42  70  90 127 171 217 281 343 399
#     4  11  24  43  70 103 140 187 235 275 334 407
#     4  10  22  41  63  96 128 161 215 280 325 402
#     4  10  24  43  68 102 141 182 228 286 337 401
#
# _framework density 24.276852999999999
#
# number of rings (size 3 to 8) (size 9 to 14) (size 15 to 20)
#    0.000    1.750    1.250    1.500    1.750    6.500 
#    9.000    0.000    0.000    0.000    0.000    0.000 
#    0.000    0.000    0.000    0.000    0.000    0.000 
#
# Total GULP energy -89385.413341 kJ/mol
# GULP energy per Si atom -5586.588334 kJ/mol
# Density = 2.422160 g / cm^3
# Si number density = 24.276853 Si / 1000 Ang^3
#
#
#
# Elastic Constant Matrix: (Units=GPa)
#
#
# Indices 1 2 3 4 5 6 
#
# 1 71.3233 18.7500 7.7856 -8.3439 4.1283 -4.4221
# 2 18.7500 134.0338 11.3660 11.0744 7.3714 7.2511
# 3 7.7856 11.3660 59.4474 19.5118 6.2582 -16.3387
# 4 -8.3439 11.0744 19.5118 37.5691 -1.8426 -1.6843
# 5 4.1283 7.3714 6.2582 -1.8426 32.7724 -9.4234
# 6 -4.4221 7.2511 -16.3387 -1.6843 -9.4234 30.1640
#
#
#
# Elastic Compliance Matrix: (Units=1/GPa)
#
#
# Indices 1 2 3 4 5 6 
#
# 1 0.015816 -0.002521 -0.003103 0.005935 -0.000051 0.001559
# 2 -0.002521 0.008513 -0.001235 -0.002743 -0.002688 -0.004078
# 3 -0.003103 -0.001235 0.025260 -0.012953 -0.001321 0.012388
# 4 0.005935 -0.002743 -0.012953 0.035546 0.003663 -0.002358
# 5 -0.000051 -0.002688 -0.001321 0.003663 0.034740 0.010981
# 6 0.001559 -0.004078 0.012388 -0.002358 0.010981 0.044370
#
#
# Mechanical properties :
#
#
# Convention : Reuss Voigt Hill
#
# Bulk Modulus (GPa) = 27.87901 37.84529 32.86215
# Shear Modulus (GPa) = 26.32669 35.22797 30.77733
#
# Velocity S-wave (km/s) = 3.29665 3.81345 3.56443
# Velocity P-wave (km/s) = 5.09895 5.91716 5.52323
#
# Compressibility (1/GPa) = 0.03586928
#
# Stress axis : x y z
#
# Youngs Moduli (GPa) = 63.22630 117.46280 39.58892
#
# Poissons Ratio (x) = 0.29616 0.12286
# Poissons Ratio (y) = 0.15941 0.04890
# Poissons Ratio (z) = 0.19622 0.14508
#
# Static dielectric constant tensor:
#      x y z
#    x 1.973030 -0.023470 0.008350 
#    y -0.023470 1.978630 0.032310 
#    z 0.008350 0.032310 1.979090 
# 
# From -- ./inp_files/11024.got.cif
#   From: 2010.05.17/outbox.cif.g08.bks.cpg/sg2_6_cif.got.tgz:11024.got - 2010.06.03 11:33:40.
