data_PCOD9026667
_publ_section_title
;
Structure prediction by ZEFSAII (Michael W. Deem and Ramdas Pophale) SiO2 
 PCOD9026667
Probable space group: P -1
;
_chemical_formula_sum "Si O2"
_cell_formula_units_Z 14
_cell_length_a 22.242817
_cell_length_b 8.054829
_cell_length_c 8.532876
_cell_angle_alpha 54.807244
_cell_angle_beta 145.143313
_cell_angle_gamma 134.838014
_cell_volume 619.555028
_symmetry_space_group_name_H-M "P -1"
_symmetry_group_IT_number 2
_symmetry_cell_setting 'triclinic'
loop_
_space_group_symop_operation_xyz
x,y,z
-x,-y,-z
loop_
_atom_site_type_symbol
_atom_site_label
_atom_site_fract_x
_atom_site_fract_y
_atom_site_fract_z
Si Si1 0.370020 0.971448 0.270874
Si Si2 0.627666 0.222512 0.109858
Si Si3 0.382677 0.393912 0.914651
Si Si4 0.765914 0.457440 0.987839
Si Si5 0.845806 0.704564 0.692148
Si Si6 0.937222 0.942209 0.225002
Si Si7 0.793098 0.223260 0.694649
O O1 0.328705 0.886619 0.402564
O O2 0.500000 0.000000 0.500000
O O3 0.261376 0.783265 0.028455
O O4 0.386044 0.220825 0.140427
O O5 0.631013 0.414128 0.127132
O O6 0.649390 0.331136 0.923140
O O7 0.743591 0.195177 0.425983
O O8 0.500000 0.000000 0.000000
O O9 0.262906 0.268160 0.624953
O O10 0.500000 0.500000 0.000000
O O11 0.864329 0.659670 0.202749
O O12 0.799592 0.619364 0.815869
O O13 0.859769 0.494927 0.748590
O O14 0.965351 0.940297 0.770623
O O15 0.000000 0.000000 0.500000
O O16 0.856547 0.071077 0.958960
#
# Coordination Sequence:
#
# PCOD9026667 Si02
#       7
#     2   2   2   2   2   2   2
#     4  11  22  41  64  93 130 171 215 272 337 398
#     4  11  23  41  66 100 132 167 217 275 337 403
#     4  11  22  41  66  92 129 172 216 273 335 396
#     4  11  24  41  63  96 130 167 219 270 328 397
#     4  10  23  43  64  93 129 172 218 270 333 393
#     4  12  24  44  67  93 131 177 225 276 326 391
#     4  10  22  41  65  91 127 172 218 268 330 396
#
# _framework density 22.596862999999999
#
# number of rings (size 3 to 8) (size 9 to 14) (size 15 to 20)
#    0.000    1.143    0.000    8.571    0.000    3.429 
#    0.000   15.000    0.000    0.000    0.000    0.000 
#    0.000    0.000    0.000    0.000    0.000    0.000 
#
# Total GULP energy -77957.523390 kJ/mol
# GULP energy per Si atom -5568.394528 kJ/mol
# Density = 2.254543 g / cm^3
# Si number density = 22.596863 Si / 1000 Ang^3
#
#
#
# Elastic Constant Matrix: (Units=GPa)
#
#
# Indices 1 2 3 4 5 6 
#
# 1 87.1261 11.2703 20.2521 -2.0265 -5.9503 37.1671
# 2 11.2703 118.0825 34.2956 1.7880 -3.8068 33.0365
# 3 20.2521 34.2956 89.7498 -8.8651 2.1482 -12.7483
# 4 -2.0265 1.7880 -8.8651 30.6944 0.7743 2.9641
# 5 -5.9503 -3.8068 2.1482 0.7743 32.7349 4.8326
# 6 37.1671 33.0365 -12.7483 2.9641 4.8326 41.3805
#
#
#
# Elastic Compliance Matrix: (Units=1/GPa)
#
#
# Indices 1 2 3 4 5 6 
#
# 1 0.064526 0.037642 -0.044959 -0.001576 0.034713 -0.105800
# 2 0.037642 0.037265 -0.034534 -0.002861 0.024862 -0.076898
# 3 -0.044959 -0.034534 0.047837 0.005303 -0.028089 0.085590
# 4 -0.001576 -0.002861 0.005303 0.033924 -0.002237 0.003165
# 5 0.034713 0.024862 -0.028089 -0.002237 0.051318 -0.065514
# 6 -0.105800 -0.076898 0.085590 0.003165 -0.065514 0.214379
#
#
# Mechanical properties :
#
#
# Convention : Reuss Voigt Hill
#
# Bulk Modulus (GPa) = 15.16852 47.39941 31.28396
# Shear Modulus (GPa) = 9.01020 36.23798 22.62409
#
# Velocity S-wave (km/s) = 1.99901 4.00893 3.16761
# Velocity P-wave (km/s) = 3.47207 6.51539 5.22042
#
# Compressibility (1/GPa) = 0.06592599
#
# Stress axis : x y z
#
# Youngs Moduli (GPa) = 15.49755 26.83482 20.90424
#
# Poissons Ratio (x) = -1.01013 0.93984
# Poissons Ratio (y) = -0.58336 0.72192
# Poissons Ratio (z) = 0.69676 0.92672
#
# Static dielectric constant tensor:
#      x y z
#    x 1.856300 0.007800 -0.032840 
#    y 0.007800 1.775890 -0.019680 
#    z -0.032840 -0.019680 1.926870 
# 
# From -- ./inp_files/352088.got.cif
#   From: 2010.05.17/outbox.cif.g08.bks.cpg/sg2_177_cif.got.tgz:352088.got - 2010.06.03 11:33:40.
