data_PCOD9026173
_publ_section_title
;
Structure prediction by ZEFSAII (Michael W. Deem and Ramdas Pophale) SiO2 
 PCOD9026173
Probable space group: P -1
;
_chemical_formula_sum "Si O2"
_cell_formula_units_Z 14
_cell_length_a 16.166707
_cell_length_b 18.858322
_cell_length_c 6.919323
_cell_angle_alpha 49.667223
_cell_angle_beta 124.116957
_cell_angle_gamma 159.378822
_cell_volume 558.385700
_symmetry_space_group_name_H-M "P -1"
_symmetry_group_IT_number 2
_symmetry_cell_setting 'triclinic'
loop_
_space_group_symop_operation_xyz
x,y,z
-x,-y,-z
loop_
_atom_site_type_symbol
_atom_site_label
_atom_site_fract_x
_atom_site_fract_y
_atom_site_fract_z
Si Si1 0.728980 0.631755 0.989280
Si Si2 0.082510 0.810210 0.399734
Si Si3 0.847419 0.801487 0.429643
Si Si4 0.488382 0.330841 0.686528
Si Si5 0.638284 0.812956 0.676894
Si Si6 0.016191 0.564518 0.607209
Si Si7 0.259604 0.621866 0.093411
O O1 0.922823 0.751283 0.177974
O O2 0.683382 0.579848 0.519101
O O3 0.581580 0.418539 0.092805
O O4 0.500000 0.500000 0.000000
O O5 0.929866 0.623400 0.692142
O O6 0.124848 0.760068 0.397184
O O7 0.291954 0.031804 0.407744
O O8 0.847670 0.779540 0.698380
O O9 0.725845 0.798388 0.260550
O O10 0.104968 0.020710 0.285665
O O11 0.440437 0.266130 0.510884
O O12 0.530015 0.260007 0.930767
O O13 0.000000 0.500000 0.500000
O O14 0.759519 0.357291 0.747143
O O15 0.175367 0.634153 0.830093
#
# Coordination Sequence:
#
# PCOD9026173 Si02
#       7
#     2   2   2   2   2   2   2
#     4  12  25  41  64  97 134 176 217 273 321 391
#     4  10  22  41  62  97 133 169 220 272 336 389
#     4  11  24  41  64  96 133 175 227 256 325 402
#     4  11  22  41  62  93 134 173 215 274 324 389
#     4  12  22  43  65  91 139 174 214 269 329 384
#     4   9  19  36  68  92 121 177 217 270 347 392
#     4   9  18  40  61  91 132 168 210 283 333 376
#
# _framework density 25.072275000000001
#
# number of rings (size 3 to 8) (size 9 to 14) (size 15 to 20)
#    0.857    0.571    4.286    0.429    4.000    1.714 
#    0.000    0.714    0.000    3.429    0.000    0.000 
#    0.000    0.000    0.000    0.000    0.000    0.000 
#
# Total GULP energy -78056.035908 kJ/mol
# GULP energy per Si atom -5575.431136 kJ/mol
# Density = 2.501521 g / cm^3
# Si number density = 25.072275 Si / 1000 Ang^3
#
#
#
# Elastic Constant Matrix: (Units=GPa)
#
#
# Indices 1 2 3 4 5 6 
#
# 1 159.6897 31.7590 41.9089 8.2126 22.3110 -36.8714
# 2 31.7590 129.2610 34.1908 -1.0617 3.3986 -28.6311
# 3 41.9089 34.1908 98.4306 2.2734 11.3356 -5.1543
# 4 8.2126 -1.0617 2.2734 30.2165 2.2311 -6.6901
# 5 22.3110 3.3986 11.3356 2.2311 48.6613 -0.3505
# 6 -36.8714 -28.6311 -5.1543 -6.6901 -0.3505 47.4917
#
#
#
# Elastic Compliance Matrix: (Units=1/GPa)
#
#
# Indices 1 2 3 4 5 6 
#
# 1 0.009119 0.000184 -0.003193 -0.000488 -0.003379 0.006751
# 2 0.000184 0.009899 -0.003237 0.001880 -0.000064 0.006023
# 3 -0.003193 -0.003237 0.012638 -0.000810 -0.001240 -0.003182
# 4 -0.000488 0.001880 -0.000810 0.034675 -0.001269 0.005542
# 5 -0.003379 -0.000064 -0.001240 -0.001269 0.022431 -0.002810
# 6 0.006751 0.006023 -0.003182 0.005542 -0.002810 0.030344
#
#
# Mechanical properties :
#
#
# Convention : Reuss Voigt Hill
#
# Bulk Modulus (GPa) = 52.18060 67.01095 59.59577
# Shear Modulus (GPa) = 36.23566 43.90875 40.07221
#
# Velocity S-wave (km/s) = 3.80577 4.18938 4.00217
# Velocity P-wave (km/s) = 6.33791 7.08423 6.72144
#
# Compressibility (1/GPa) = 0.01916421
#
# Stress axis : x y z
#
# Youngs Moduli (GPa) = 109.65612 101.02350 79.12499
#
# Poissons Ratio (x) = -0.01860 0.25263
# Poissons Ratio (y) = -0.02019 0.25616
# Poissons Ratio (z) = 0.35011 0.32705
#
# Static dielectric constant tensor:
#      x y z
#    x 2.156920 0.080480 -0.008740 
#    y 0.080480 2.071230 0.036960 
#    z -0.008740 0.036960 2.066220 
# 
# From -- ./inp_files/336712.got.cif
#   From: 2010.05.17/outbox.cif.g08.bks.cpg/sg2_169_cif.got.tgz:336712.got - 2010.06.03 11:33:40.
