data_PCOD9026008
_publ_section_title
;
Structure prediction by ZEFSAII (Michael W. Deem and Ramdas Pophale) SiO2 
 PCOD9026008
Probable space group: P -1
;
_chemical_formula_sum "Si O2"
_cell_formula_units_Z 16
_cell_length_a 8.904639
_cell_length_b 12.372323
_cell_length_c 14.587688
_cell_angle_alpha 30.536728
_cell_angle_beta 70.912624
_cell_angle_gamma 71.393781
_cell_volume 769.333494
_symmetry_space_group_name_H-M "P -1"
_symmetry_group_IT_number 2
_symmetry_cell_setting 'triclinic'
loop_
_space_group_symop_operation_xyz
x,y,z
-x,-y,-z
loop_
_atom_site_type_symbol
_atom_site_label
_atom_site_fract_x
_atom_site_fract_y
_atom_site_fract_z
Si Si1 0.913285 0.769632 0.912308
Si Si2 0.342777 0.926719 0.629320
Si Si3 0.912664 0.281582 0.277694
Si Si4 0.249723 0.729602 0.967673
Si Si5 0.682761 0.962983 0.104098
Si Si6 0.112283 0.475112 0.584166
Si Si7 0.125470 0.321091 0.368353
Si Si8 0.680237 0.134504 0.773369
O O1 0.971202 0.749417 0.810712
O O2 0.069876 0.805752 0.914931
O O3 0.779389 0.954393 0.824992
O O4 0.865989 0.533583 0.118240
O O5 0.244606 0.823932 0.643028
O O6 0.356654 0.769584 0.828139
O O7 0.500000 0.000000 0.500000
O O8 0.236092 0.138237 0.528930
O O9 0.014114 0.211612 0.397215
O O10 0.301467 0.864107 0.945347
O O11 0.234943 0.483471 0.176729
O O12 0.809498 0.762508 0.242569
O O13 0.506518 0.877305 0.200749
O O14 0.707593 0.069945 0.921868
O O15 0.248830 0.640905 0.426008
O O16 0.000000 0.500000 0.500000
O O17 0.994652 0.545671 0.638878
#
# Coordination Sequence:
#
# PCOD9026008 Si02
#       8
#     2   2   2   2   2   2   2   2
#     4   9  18  37  63  86 115 158 201 247 292 347
#     4  11  24  39  59  90 123 154 194 247 302 357
#     4   9  19  37  60  86 117 154 201 244 289 355
#     4  10  22  41  61  87 121 156 203 246 293 362
#     4  11  24  41  62  90 126 163 197 250 312 359
#     4  12  24  41  66  91 120 160 209 254 295 358
#     4  11  23  39  64  88 113 160 203 243 300 352
#     4  11  24  40  61  92 126 159 201 251 307 362
#
# _framework density 20.797222000000001
#
# number of rings (size 3 to 8) (size 9 to 14) (size 15 to 20)
#    0.000    1.500    0.000    6.750    0.000    5.000 
#    0.000    2.500    0.000    0.000    0.000    0.000 
#    0.000    0.000    0.000    0.000    0.000    0.000 
#
# Total GULP energy -89467.066058 kJ/mol
# GULP energy per Si atom -5591.691629 kJ/mol
# Density = 2.074989 g / cm^3
# Si number density = 20.797222 Si / 1000 Ang^3
#
#
#
# Elastic Constant Matrix: (Units=GPa)
#
#
# Indices 1 2 3 4 5 6 
#
# 1 57.4725 36.2942 19.1114 2.7033 -10.0870 11.3207
# 2 36.2942 66.5860 11.0263 4.9398 -10.2222 27.6455
# 3 19.1114 11.0263 106.1747 2.7312 -19.6429 3.0278
# 4 2.7033 4.9398 2.7312 27.2047 -2.0951 0.3221
# 5 -10.0870 -10.2222 -19.6429 -2.0951 36.4587 5.8305
# 6 11.3207 27.6455 3.0278 0.3221 5.8305 23.8908
#
#
#
# Elastic Compliance Matrix: (Units=1/GPa)
#
#
# Indices 1 2 3 4 5 6 
#
# 1 0.028577 -0.018809 -0.003586 0.000780 -0.000667 0.008831
# 2 -0.018809 0.051062 0.003404 -0.005591 0.019466 -0.055280
# 3 -0.003586 0.003404 0.011132 -0.000796 0.006761 -0.005290
# 4 0.000780 -0.005591 -0.000796 0.037665 -0.000548 0.005827
# 5 -0.000667 0.019466 0.006761 -0.000548 0.041625 -0.033217
# 6 0.008831 -0.055280 -0.005290 0.005827 -0.033217 0.110340
#
#
# Mechanical properties :
#
#
# Convention : Reuss Voigt Hill
#
# Bulk Modulus (GPa) = 18.94307 40.34410 29.64358
# Shear Modulus (GPa) = 14.88192 28.43091 21.65641
#
# Velocity S-wave (km/s) = 2.67792 3.70138 3.23044
# Velocity P-wave (km/s) = 4.32318 6.14067 5.31026
#
# Compressibility (1/GPa) = 0.05278976
#
# Stress axis : x y z
#
# Youngs Moduli (GPa) = 34.99309 19.58415 89.82793
#
# Poissons Ratio (x) = 0.36837 0.32210
# Poissons Ratio (y) = 0.65820 -0.30581
# Poissons Ratio (z) = 0.12547 -0.06667
#
# Static dielectric constant tensor:
#      x y z
#    x 1.724870 0.011900 -0.004090 
#    y 0.011900 1.740450 0.004850 
#    z -0.004090 0.004850 1.767790 
# 
# From -- ./inp_files/477769.got.cif
#   From: 2010.05.17/outbox.cif.g08.bks.cpg/sg2_239_cif.got.tgz:477769.got - 2010.06.03 11:33:40.
