data_PCOD9026453
_publ_section_title
;
Structure prediction by ZEFSAII (Michael W. Deem and Ramdas Pophale) SiO2 
 PCOD9026453
Probable space group: P -1
;
_chemical_formula_sum "Si O2"
_cell_formula_units_Z 16
_cell_length_a 11.868352
_cell_length_b 15.234619
_cell_length_c 9.769802
_cell_angle_alpha 145.448742
_cell_angle_beta 56.726914
_cell_angle_gamma 107.908357
_cell_volume 797.841634
_symmetry_space_group_name_H-M "P -1"
_symmetry_group_IT_number 2
_symmetry_cell_setting 'triclinic'
loop_
_space_group_symop_operation_xyz
x,y,z
-x,-y,-z
loop_
_atom_site_type_symbol
_atom_site_label
_atom_site_fract_x
_atom_site_fract_y
_atom_site_fract_z
Si Si1 0.866336 0.630090 0.183207
Si Si2 0.856306 0.349589 0.423463
Si Si3 0.117548 0.310424 0.056815
Si Si4 0.670603 0.325057 0.271647
Si Si5 0.360982 0.549628 0.849501
Si Si6 0.348583 0.020864 0.196558
Si Si7 0.606054 0.320138 0.727932
Si Si8 0.573171 0.908173 0.466918
O O1 0.748893 0.535662 0.124748
O O2 0.770976 0.806201 0.533204
O O3 0.919156 0.677937 0.064358
O O4 0.000000 0.500000 0.000000
O O5 0.880777 0.510333 0.674092
O O6 0.767821 0.385808 0.388591
O O7 0.757644 0.290918 0.518196
O O8 0.012173 0.246851 0.138362
O O9 0.276887 0.203379 0.828189
O O10 0.510319 0.415182 0.543746
O O11 0.689593 0.371937 0.163086
O O12 0.700984 0.131949 0.010777
O O13 0.379253 0.677984 0.114922
O O14 0.387580 0.009339 0.317982
O O15 0.500000 0.000000 0.000000
O O16 0.528183 0.198928 0.563254
O O17 0.500000 0.500000 0.000000
O O18 0.500000 0.000000 0.500000
#
# Coordination Sequence:
#
# PCOD9026453 Si02
#       8
#     2   2   2   2   2   2   2   2
#     4  11  22  42  64  90 128 171 209 256 323 381
#     4  11  21  38  66  89 121 163 212 257 313 368
#     4  10  22  41  64  92 126 165 213 260 317 375
#     4  11  22  36  61  93 126 161 207 266 312 370
#     4  11  21  36  59  94 122 158 219 257 305 378
#     4  11  22  41  61  94 128 164 210 264 313 376
#     4  12  19  38  64  91 117 165 213 258 305 365
#     4  11  23  41  63  91 128 167 206 258 321 375
#
# _framework density 20.054106000000001
#
# number of rings (size 3 to 8) (size 9 to 14) (size 15 to 20)
#    0.000    1.000    5.000    3.000    0.000    1.000 
#    4.500    7.500    0.000    0.000    0.000    0.000 
#    0.000    0.000    0.000    0.000    0.000    0.000 
#
# Total GULP energy -89241.850291 kJ/mol
# GULP energy per Si atom -5577.615643 kJ/mol
# Density = 2.000846 g / cm^3
# Si number density = 20.054106 Si / 1000 Ang^3
#
#
#
# Elastic Constant Matrix: (Units=GPa)
#
#
# Indices 1 2 3 4 5 6 
#
# 1 8.0232 0.3950 2.3782 -12.4748 -22.8952 9.9665
# 2 0.3950 55.2884 25.4586 -15.9189 -21.3784 -0.5734
# 3 2.3782 25.4586 77.2322 -19.1320 -22.7437 4.5806
# 4 -12.4748 -15.9189 -19.1320 34.4573 -0.8887 -4.7613
# 5 -22.8952 -21.3784 -22.7437 -0.8887 29.5074 -5.4607
# 6 9.9665 -0.5734 4.5806 -4.7613 -5.4607 35.5668
#
#
#
# Elastic Compliance Matrix: (Units=1/GPa)
#
#
# Indices 1 2 3 4 5 6 
#
# 1 -0.023776 -0.017390 -0.011532 -0.024334 -0.040980 -0.001682
# 2 -0.017390 0.020173 -0.007713 -0.000594 -0.003818 0.005526
# 3 -0.011532 -0.007713 0.015205 0.000753 -0.002637 0.000845
# 4 -0.024334 -0.000594 0.000753 0.020878 -0.016821 0.006925
# 5 -0.040980 -0.003818 -0.002637 -0.016821 -0.001496 0.009280
# 6 -0.001682 0.005526 0.000845 0.006925 0.009280 0.030920
#
#
# Mechanical properties :
#
#
# Convention : Reuss Voigt Hill
#
# Bulk Modulus (GPa) = -16.21576 21.88970 2.83697
# Shear Modulus (GPa) = 43.62291 27.39376 35.50834
#
# Velocity S-wave (km/s) = 4.66903 3.69994 4.21245
# Velocity P-wave (km/s) = 4.57852 5.40294 5.00773
#
# Compressibility (1/GPa) = -0.06166840
#
# Stress axis : x y z
#
# Youngs Moduli (GPa) = -42.05850 49.57111 65.76586
#
# Poissons Ratio (x) = 0.86203 0.75841
# Poissons Ratio (y) = -0.73139 0.50728
# Poissons Ratio (z) = -0.48502 0.38237
#
# Static dielectric constant tensor:
#      x y z
#    x 1.710580 -0.020120 0.008200 
#    y -0.020120 1.753270 -0.015040 
#    z 0.008200 -0.015040 1.723880 
# 
# From -- ./inp_files/274586.got.cif
#   From: 2010.05.17/outbox.cif.g08.bks.cpg/sg2_138_cif.got.tgz:274586.got - 2010.06.03 11:33:40.
