data_PCOD9026355
_publ_section_title
;
Structure prediction by ZEFSAII (Michael W. Deem and Ramdas Pophale) SiO2 
 PCOD9026355
Probable space group: P -1
;
_chemical_formula_sum "Si O2"
_cell_formula_units_Z 14
_cell_length_a 11.580167
_cell_length_b 11.794829
_cell_length_c 5.274852
_cell_angle_alpha 110.756391
_cell_angle_beta 114.604726
_cell_angle_gamma 80.980484
_cell_volume 612.502064
_symmetry_space_group_name_H-M "P -1"
_symmetry_group_IT_number 2
_symmetry_cell_setting 'triclinic'
loop_
_space_group_symop_operation_xyz
x,y,z
-x,-y,-z
loop_
_atom_site_type_symbol
_atom_site_label
_atom_site_fract_x
_atom_site_fract_y
_atom_site_fract_z
Si Si1 0.613463 0.470747 0.396680
Si Si2 0.112224 0.503532 0.317786
Si Si3 0.038371 0.136677 0.710958
Si Si4 0.681729 0.890403 0.164500
Si Si5 0.447382 0.905539 0.583776
Si Si6 0.535805 0.697808 0.186315
Si Si7 0.005070 0.712370 0.722013
O O1 0.500000 0.500000 0.500000
O O2 0.749979 0.474742 0.654132
O O3 0.603005 0.577817 0.263057
O O4 0.570431 0.344154 0.142123
O O5 0.106454 0.373328 0.344043
O O6 0.097090 0.606500 0.604570
O O7 0.000000 0.500000 0.000000
O O8 0.190722 0.135651 0.891354
O O9 0.021086 0.209954 0.490905
O O10 0.970313 0.200761 0.942476
O O11 0.000000 0.000000 0.500000
O O12 0.644524 0.786185 0.247804
O O13 0.680416 0.026946 0.387229
O O14 0.557049 0.894791 0.882831
O O15 0.449839 0.773397 0.364493
O O16 0.500000 0.000000 0.500000
#
# Coordination Sequence:
#
# PCOD9026355 Si02
#       7
#     2   2   2   2   2   2   2
#     4  11  25  41  68 108 138 178 238 295 361 421
#     4  11  25  48  76 108 147 198 245 299 373 438
#     4  12  27  47  73 107 144 189 245 303 360 433
#     4  10  22  41  68  95 135 182 233 284 356 421
#     4   9  20  39  62  96 124 179 222 279 347 423
#     4  10  22  41  64 100 137 181 229 298 351 428
#     4  11  26  49  73 105 143 197 244 296 362 441
#
# _framework density 22.857064000000001
#
# number of rings (size 3 to 8) (size 9 to 14) (size 15 to 20)
#    0.000    1.429    1.429    2.143    8.000    5.714 
#   10.286    0.000    0.000    0.000    0.000    0.000 
#    0.000    0.000    0.000    0.000    0.000    0.000 
#
# Total GULP energy -78060.154903 kJ/mol
# GULP energy per Si atom -5575.725350 kJ/mol
# Density = 2.280504 g / cm^3
# Si number density = 22.857064 Si / 1000 Ang^3
#
#
#
# Elastic Constant Matrix: (Units=GPa)
#
#
# Indices 1 2 3 4 5 6 
#
# 1 90.7068 11.3422 52.3857 8.4384 2.8929 -5.5500
# 2 11.3422 84.4656 43.4747 13.5512 -4.0082 -1.8898
# 3 52.3857 43.4747 126.6754 20.4610 -17.7967 -11.9564
# 4 8.4384 13.5512 20.4610 43.1244 -5.1196 -12.4460
# 5 2.8929 -4.0082 -17.7967 -5.1196 39.3742 4.1152
# 6 -5.5500 -1.8898 -11.9564 -12.4460 4.1152 13.0029
#
#
#
# Elastic Compliance Matrix: (Units=1/GPa)
#
#
# Indices 1 2 3 4 5 6 
#
# 1 0.015305 0.001571 -0.007346 -0.000169 -0.004437 0.001248
# 2 0.001571 0.015155 -0.005922 -0.004191 -0.001144 -0.006222
# 3 -0.007346 -0.005922 0.014553 -0.001025 0.005691 0.006603
# 4 -0.000169 -0.004191 -0.001025 0.033942 0.000321 0.030762
# 5 -0.004437 -0.001144 0.005691 0.000321 0.028810 -0.005638
# 6 0.001248 -0.006222 0.006603 0.030762 -0.005638 0.113834
#
#
# Mechanical properties :
#
#
# Convention : Reuss Voigt Hill
#
# Bulk Modulus (GPa) = 46.25847 57.36144 51.80996
# Shear Modulus (GPa) = 19.82557 32.07664 25.95111
#
# Velocity S-wave (km/s) = 2.94831 3.75021 3.37317
# Velocity P-wave (km/s) = 5.64554 6.62588 6.15526
#
# Compressibility (1/GPa) = 0.02161766
#
# Stress axis : x y z
#
# Youngs Moduli (GPa) = 65.34016 65.98439 68.71466
#
# Poissons Ratio (x) = -0.10364 0.50481
# Poissons Ratio (y) = -0.10262 0.40691
# Poissons Ratio (z) = 0.48002 0.39074
#
# Static dielectric constant tensor:
#      x y z
#    x 3.424730 0.418580 -0.955810 
#    y 0.418580 1.600340 -0.247840 
#    z -0.955810 -0.247840 2.494310 
# 
# From -- ./inp_files/72472.got.cif
#   From: 2010.05.17/outbox.cif.g08.bks.cpg/sg2_37_cif.got.tgz:72472.got - 2010.06.03 11:33:40.
