data_PCOD9026315
_publ_section_title
;
Structure prediction by ZEFSAII (Michael W. Deem and Ramdas Pophale) SiO2 
 PCOD9026315
Probable space group: P -1
;
_chemical_formula_sum "Si O2"
_cell_formula_units_Z 16
_cell_length_a 9.249838
_cell_length_b 14.819010
_cell_length_c 15.570455
_cell_angle_alpha 42.737813
_cell_angle_beta 97.131375
_cell_angle_gamma 132.055272
_cell_volume 735.031535
_symmetry_space_group_name_H-M "P -1"
_symmetry_group_IT_number 2
_symmetry_cell_setting 'triclinic'
loop_
_space_group_symop_operation_xyz
x,y,z
-x,-y,-z
loop_
_atom_site_type_symbol
_atom_site_label
_atom_site_fract_x
_atom_site_fract_y
_atom_site_fract_z
Si Si1 0.028640 0.897875 0.168245
Si Si2 0.954976 0.091446 0.493244
Si Si3 0.477640 0.880596 0.659222
Si Si4 0.928242 0.591494 0.857020
Si Si5 0.621441 0.014040 0.757196
Si Si6 0.205544 0.919240 0.820838
Si Si7 0.571757 0.635388 0.547406
Si Si8 0.129713 0.273020 0.905654
O O1 0.685410 0.644369 0.322021
O O2 0.086049 0.906193 0.066645
O O3 0.121721 0.848983 0.268268
O O4 0.175334 0.153969 0.018459
O O5 0.045462 0.289301 0.304970
O O6 0.154661 0.230202 0.494198
O O7 0.000000 0.000000 0.500000
O O8 0.628899 0.862296 0.657768
O O9 0.662805 0.078689 0.615016
O O10 0.147094 0.639187 0.827975
O O11 0.500000 0.000000 0.500000
O O12 0.037698 0.753952 0.835831
O O13 0.613732 0.288153 0.051815
O O14 0.462710 0.016277 0.783577
O O15 0.333245 0.165040 0.640486
O O16 0.002971 0.759276 0.000487
O O17 0.408329 0.549243 0.685126
#
# Coordination Sequence:
#
# PCOD9026315 Si02
#       8
#     2   2   2   2   2   2   2   2
#     4   9  22  45  64  91 133 170 217 266 317 392
#     4  11  21  38  63  91 128 162 215 265 325 381
#     4   9  21  39  58  90 128 163 205 261 317 382
#     4  10  22  42  62  93 131 163 214 267 328 384
#     4  11  23  42  66  91 130 172 219 253 330 394
#     4  11  22  40  66  95 128 170 216 270 319 383
#     4  10  22  41  63  95 133 163 215 274 313 378
#     4   9  22  44  65  91 133 165 215 269 321 367
#
# _framework density 21.767775
#
# number of rings (size 3 to 8) (size 9 to 14) (size 15 to 20)
#    0.750    1.250    1.250    2.250    1.750    3.500 
#    4.500    1.875    0.000    0.000    0.000    0.000 
#    0.000    0.000    0.000    0.000    0.000    0.000 
#
# Total GULP energy -89240.105389 kJ/mol
# GULP energy per Si atom -5577.506587 kJ/mol
# Density = 2.171823 g / cm^3
# Si number density = 21.767775 Si / 1000 Ang^3
#
#
#
# Elastic Constant Matrix: (Units=GPa)
#
#
# Indices 1 2 3 4 5 6 
#
# 1 99.0020 44.4704 10.6463 15.3495 -13.8615 21.1555
# 2 44.4704 64.6716 11.1747 8.7371 -7.3100 22.6458
# 3 10.6463 11.1747 70.2249 13.1850 -4.7510 -1.9608
# 4 15.3495 8.7371 13.1850 31.8496 -0.5033 0.2780
# 5 -13.8615 -7.3100 -4.7510 -0.5033 39.5429 11.4375
# 6 21.1555 22.6458 -1.9608 0.2780 11.4375 40.3229
#
#
#
# Elastic Compliance Matrix: (Units=1/GPa)
#
#
# Indices 1 2 3 4 5 6 
#
# 1 0.016661 -0.007922 0.000052 -0.005731 0.006033 -0.005961
# 2 -0.007922 0.026626 -0.002602 -0.002215 0.005403 -0.012441
# 3 0.000052 -0.002602 0.015860 -0.005882 0.000783 0.002023
# 4 -0.005731 -0.002215 -0.005882 0.037096 -0.004059 0.004860
# 5 0.006033 0.005403 0.000783 -0.004059 0.032920 -0.015471
# 6 -0.005961 -0.012441 0.002023 0.004860 -0.015471 0.039368
#
#
# Mechanical properties :
#
#
# Convention : Reuss Voigt Hill
#
# Bulk Modulus (GPa) = 26.17522 40.72015 33.44768
# Shear Modulus (GPa) = 24.72709 33.51689 29.12199
#
# Velocity S-wave (km/s) = 3.37404 3.92822 3.66163
# Velocity P-wave (km/s) = 5.21821 6.27071 5.76851
#
# Compressibility (1/GPa) = 0.03820408
#
# Stress axis : x y z
#
# Youngs Moduli (GPa) = 60.02165 37.55725 63.05188
#
# Poissons Ratio (x) = 0.29752 -0.00331
# Poissons Ratio (y) = 0.47548 0.16405
# Poissons Ratio (z) = -0.00315 0.09772
#
# Static dielectric constant tensor:
#      x y z
#    x 1.792110 -0.014350 -0.022660 
#    y -0.014350 1.846310 0.026400 
#    z -0.022660 0.026400 1.839660 
# 
# From -- ./inp_files/353716.got.cif
#   From: 2010.05.17/outbox.cif.g08.bks.cpg/sg2_177_cif.got.tgz:353716.got - 2010.06.03 11:33:40.
