data_PCOD9026230
_publ_section_title
;
Structure prediction by ZEFSAII (Michael W. Deem and Ramdas Pophale) SiO2 
 PCOD9026230
Probable space group: P -1
;
_chemical_formula_sum "Si O2"
_cell_formula_units_Z 14
_cell_length_a 16.871967
_cell_length_b 11.377882
_cell_length_c 7.855714
_cell_angle_alpha 51.843941
_cell_angle_beta 133.056040
_cell_angle_gamma 145.942487
_cell_volume 612.053209
_symmetry_space_group_name_H-M "P -1"
_symmetry_group_IT_number 2
_symmetry_cell_setting 'triclinic'
loop_
_space_group_symop_operation_xyz
x,y,z
-x,-y,-z
loop_
_atom_site_type_symbol
_atom_site_label
_atom_site_fract_x
_atom_site_fract_y
_atom_site_fract_z
Si Si1 0.695352 0.393344 0.316584
Si Si2 0.949480 0.983742 0.749330
Si Si3 0.366224 0.418467 0.500536
Si Si4 0.665240 0.172344 0.172264
Si Si5 0.733130 0.774252 0.119246
Si Si6 0.447021 0.159504 0.417121
Si Si7 0.025179 0.633359 0.583005
O O1 0.687757 0.349362 0.145273
O O2 0.697907 0.573245 0.182038
O O3 0.545900 0.192773 0.375925
O O4 0.852901 0.474840 0.548590
O O5 0.939576 0.154792 0.573869
O O6 0.082910 0.046197 0.768813
O O7 0.792414 0.750751 0.679291
O O8 0.000000 0.000000 0.000000
O O9 0.500000 0.500000 0.500000
O O10 0.341875 0.290384 0.746513
O O11 0.421947 0.632123 0.462556
O O12 0.815745 0.278482 0.188341
O O13 0.652521 0.043655 0.427511
O O14 0.500000 0.000000 0.000000
O O15 0.663491 0.824633 0.842579
O O16 0.000000 0.500000 0.500000
#
# Coordination Sequence:
#
# PCOD9026230 Si02
#       7
#     2   2   2   2   2   2   2
#     4   9  20  40  61  84 118 160 200 246 304 363
#     4  11  22  38  62  92 124 161 200 250 308 368
#     4  11  22  36  59  92 122 156 204 255 304 360
#     4  11  23  39  60  90 121 158 205 253 300 361
#     4  10  22  41  63  89 125 164 204 254 307 364
#     4  11  23  40  62  90 122 163 202 251 309 364
#     4   9  20  38  59  81 114 156 196 239 295 356
#
# _framework density 22.873826999999999
#
# number of rings (size 3 to 8) (size 9 to 14) (size 15 to 20)
#    0.000    1.714    0.000    5.143    0.000    9.143 
#    0.000    0.714    0.000    0.000    0.000    0.000 
#    0.000    0.000    0.000    0.000    0.000    0.000 
#
# Total GULP energy -78172.136170 kJ/mol
# GULP energy per Si atom -5583.724012 kJ/mol
# Density = 2.282176 g / cm^3
# Si number density = 22.873827 Si / 1000 Ang^3
#
#
#
# Elastic Constant Matrix: (Units=GPa)
#
#
# Indices 1 2 3 4 5 6 
#
# 1 103.0366 15.0640 43.0581 5.4914 25.5502 22.8736
# 2 15.0640 92.5551 39.6266 20.4618 13.4877 8.8616
# 3 43.0581 39.6266 91.4960 22.1083 11.8351 4.7923
# 4 5.4914 20.4618 22.1083 42.6370 8.9978 1.8075
# 5 25.5502 13.4877 11.8351 8.9978 33.9903 11.1484
# 6 22.8736 8.8616 4.7923 1.8075 11.1484 34.5503
#
#
#
# Elastic Compliance Matrix: (Units=1/GPa)
#
#
# Indices 1 2 3 4 5 6 
#
# 1 0.016347 0.001973 -0.007783 0.003141 -0.008698 -0.007607
# 2 0.001973 0.014481 -0.005799 -0.003365 -0.003349 -0.002959
# 3 -0.007783 -0.005799 0.018125 -0.006251 0.002276 0.003719
# 4 0.003141 -0.003365 -0.006251 0.029307 -0.006699 0.000279
# 5 -0.008698 -0.003349 0.002276 -0.006699 0.040357 -0.006370
# 6 -0.007607 -0.002959 0.003719 0.000279 -0.006370 0.036264
#
#
# Mechanical properties :
#
#
# Convention : Reuss Voigt Hill
#
# Bulk Modulus (GPa) = 38.85745 53.62056 46.23900
# Shear Modulus (GPa) = 26.78400 34.85812 30.82106
#
# Velocity S-wave (km/s) = 3.42562 3.90799 3.67473
# Velocity P-wave (km/s) = 5.71586 6.62238 6.18575
#
# Compressibility (1/GPa) = 0.02573509
#
# Stress axis : x y z
#
# Youngs Moduli (GPa) = 61.17172 69.05459 55.17249
#
# Poissons Ratio (x) = -0.13624 0.42942
# Poissons Ratio (y) = -0.12069 0.31995
# Poissons Ratio (z) = 0.47611 0.40045
#
# Static dielectric constant tensor:
#      x y z
#    x 1.870170 0.044730 0.039990 
#    y 0.044730 1.863280 -0.030130 
#    z 0.039990 -0.030130 1.826820 
# 
# From -- ./inp_files/332976.got.cif
#   From: 2010.05.17/outbox.cif.g08.bks.cpg/sg2_167_cif.got.tgz:332976.got - 2010.06.03 11:33:40.
