data_PCOD9026236
_publ_section_title
;
Structure prediction by ZEFSAII (Michael W. Deem and Ramdas Pophale) SiO2 
 PCOD9026236
Probable space group: P -1
;
_chemical_formula_sum "Si O2"
_cell_formula_units_Z 12
_cell_length_a 9.456506
_cell_length_b 7.355247
_cell_length_c 16.914593
_cell_angle_alpha 72.733536
_cell_angle_beta 146.828048
_cell_angle_gamma 91.027806
_cell_volume 551.659424
_symmetry_space_group_name_H-M "P -1"
_symmetry_group_IT_number 2
_symmetry_cell_setting 'triclinic'
loop_
_space_group_symop_operation_xyz
x,y,z
-x,-y,-z
loop_
_atom_site_type_symbol
_atom_site_label
_atom_site_fract_x
_atom_site_fract_y
_atom_site_fract_z
Si Si1 0.866326 0.075632 0.826649
Si Si2 0.986804 0.660823 0.353550
Si Si3 0.539104 0.211907 0.500087
Si Si4 0.803353 0.422818 0.970717
Si Si5 0.590718 0.699294 0.292538
Si Si6 0.917094 0.600642 0.149081
O O1 0.131250 0.371280 0.782767
O O2 0.627361 0.209082 0.632398
O O3 0.687252 0.125118 0.816939
O O4 0.016849 0.831676 0.903866
O O5 0.197925 0.771796 0.424510
O O6 0.175921 0.438237 0.515194
O O7 0.733479 0.782219 0.281476
O O8 0.241690 0.412140 0.315700
O O9 0.500000 0.000000 0.500000
O O10 0.738973 0.532353 0.012408
O O11 0.000000 0.500000 0.000000
O O12 0.077310 0.186271 0.907106
O O13 0.476862 0.547169 0.213708
#
# Coordination Sequence:
#
# PCOD9026236 Si02
#       6
#     2   2   2   2   2   2
#     4  11  21  39  67  89 122 168 204 254 304 365
#     4  10  22  41  63  90 126 165 200 256 311 359
#     4  11  19  38  67  93 117 162 220 248 292 371
#     4  12  24  38  65  97 120 160 214 253 304 367
#     4  11  22  40  62  92 129 160 200 257 315 357
#     4  11  21  41  65  91 121 164 213 248 300 370
#
# _framework density 21.752551
#
# number of rings (size 3 to 8) (size 9 to 14) (size 15 to 20)
#    0.000    1.000    6.667    1.500    0.000    0.667 
#    0.000    5.833    0.000    0.000    0.000    0.000 
#    0.000    0.000    0.000    0.000    0.000    0.000 
#
# Total GULP energy -67032.200361 kJ/mol
# GULP energy per Si atom -5586.016697 kJ/mol
# Density = 2.170304 g / cm^3
# Si number density = 21.752551 Si / 1000 Ang^3
#
#
#
# Elastic Constant Matrix: (Units=GPa)
#
#
# Indices 1 2 3 4 5 6 
#
# 1 160.9552 36.8669 17.5524 2.4990 -15.9454 2.2238
# 2 36.8669 101.2281 2.3085 -6.2900 -10.4318 -1.1479
# 3 17.5524 2.3085 61.6478 -2.0987 -23.3422 -5.6898
# 4 2.4990 -6.2900 -2.0987 33.1720 -4.8298 -7.1127
# 5 -15.9454 -10.4318 -23.3422 -4.8298 34.0499 4.9035
# 6 2.2238 -1.1479 -5.6898 -7.1127 4.9035 27.9184
#
#
#
# Elastic Compliance Matrix: (Units=1/GPa)
#
#
# Indices 1 2 3 4 5 6 
#
# 1 0.007150 -0.002498 -0.001526 -0.001214 0.001591 -0.001572
# 2 -0.002498 0.011374 0.002025 0.003317 0.003997 0.001222
# 3 -0.001526 0.002025 0.023111 0.005013 0.015972 0.003387
# 4 -0.001214 0.003317 0.005013 0.034124 0.007481 0.008635
# 5 0.001591 0.003997 0.015972 0.007481 0.043705 -0.002478
# 6 -0.001572 0.001222 0.003387 0.008635 -0.002478 0.039319
#
#
# Mechanical properties :
#
#
# Convention : Reuss Voigt Hill
#
# Bulk Modulus (GPa) = 26.57131 48.58739 37.57935
# Shear Modulus (GPa) = 28.51785 36.83494 32.67640
#
# Velocity S-wave (km/s) = 3.62472 4.11951 3.88001
# Velocity P-wave (km/s) = 5.45526 6.70910 6.11441
#
# Compressibility (1/GPa) = 0.03763458
#
# Stress axis : x y z
#
# Youngs Moduli (GPa) = 139.86429 87.91715 43.26990
#
# Poissons Ratio (x) = 0.21966 0.06604
# Poissons Ratio (y) = 0.34945 -0.08761
# Poissons Ratio (z) = 0.21348 -0.17800
#
# Static dielectric constant tensor:
#      x y z
#    x 1.826360 0.003270 -0.023270 
#    y 0.003270 1.911610 0.113780 
#    z -0.023270 0.113780 1.864850 
# 
# From -- ./inp_files/94125.got.cif
#   From: 2010.05.17/outbox.cif.g08.bks.cpg/sg2_48_cif.got.tgz:94125.got - 2010.06.03 11:33:40.
