data_PCOD9026496
_publ_section_title
;
Structure prediction by ZEFSAII (Michael W. Deem and Ramdas Pophale) SiO2 
 PCOD9026496
Probable space group: P -1
;
_chemical_formula_sum "Si O2"
_cell_formula_units_Z 16
_cell_length_a 18.102144
_cell_length_b 5.476380
_cell_length_c 9.010443
_cell_angle_alpha 118.592790
_cell_angle_beta 112.629783
_cell_angle_gamma 58.040858
_cell_volume 654.983488
_symmetry_space_group_name_H-M "P -1"
_symmetry_group_IT_number 2
_symmetry_cell_setting 'triclinic'
loop_
_space_group_symop_operation_xyz
x,y,z
-x,-y,-z
loop_
_atom_site_type_symbol
_atom_site_label
_atom_site_fract_x
_atom_site_fract_y
_atom_site_fract_z
Si Si1 0.482276 0.075089 0.837138
Si Si2 0.924562 0.950088 0.081270
Si Si3 0.224048 0.538958 0.063998
Si Si4 0.897622 0.411065 0.763248
Si Si5 0.377046 0.496680 0.320010
Si Si6 0.711018 0.841462 0.281133
Si Si7 0.817536 0.218571 0.370428
Si Si8 0.465060 0.353137 0.627534
O O1 0.394171 0.016389 0.722313
O O2 0.453428 0.382679 0.804104
O O3 0.580280 0.865837 0.787937
O O4 0.500000 0.000000 0.000000
O O5 0.023422 0.883610 0.186038
O O6 0.873650 0.992237 0.213139
O O7 0.930320 0.677600 0.894534
O O8 0.862667 0.253448 0.034085
O O9 0.190820 0.456301 0.166789
O O10 0.287779 0.686946 0.219306
O O11 0.281589 0.284730 0.917983
O O12 0.876046 0.311740 0.558973
O O13 0.379475 0.508480 0.502106
O O14 0.455973 0.566079 0.337872
O O15 0.755154 0.543343 0.336877
O O16 0.769584 0.036285 0.368483
O O17 0.500000 0.000000 0.500000
#
# Coordination Sequence:
#
# PCOD9026496 Si02
#       8
#     2   2   2   2   2   2   2   2
#     4  11  23  40  64  95 135 188 238 286 363 417
#     4  10  24  47  69 106 143 182 239 304 359 443
#     4  11  23  43  68 100 140 188 240 298 365 432
#     4  11  24  44  75 102 139 191 237 295 374 432
#     4  10  22  41  64  93 133 184 233 294 364 418
#     4  11  26  46  68 107 149 187 242 305 351 432
#     4  11  26  48  73 108 147 191 240 299 364 432
#     4   9  22  40  58  91 131 175 232 298 342 431
#
# _framework density 24.428097000000001
#
# number of rings (size 3 to 8) (size 9 to 14) (size 15 to 20)
#    0.000    1.500    2.500    0.750    5.250    6.500 
#    0.000    1.875    0.000    0.000    0.000    0.000 
#    0.000    0.000    0.000    0.000    0.000    0.000 
#
# Total GULP energy -89082.199882 kJ/mol
# GULP energy per Si atom -5567.637493 kJ/mol
# Density = 2.437250 g / cm^3
# Si number density = 24.428097 Si / 1000 Ang^3
#
#
#
# Elastic Constant Matrix: (Units=GPa)
#
#
# Indices 1 2 3 4 5 6 
#
# 1 71.6523 23.9179 16.7257 -18.9228 0.2960 -2.4600
# 2 23.9179 53.8103 39.6952 -6.4316 6.0838 -4.9207
# 3 16.7257 39.6952 162.6719 -32.2765 8.5765 2.6977
# 4 -18.9228 -6.4316 -32.2765 26.8497 0.7559 -0.9334
# 5 0.2960 6.0838 8.5765 0.7559 38.5880 -5.4586
# 6 -2.4600 -4.9207 2.6977 -0.9334 -5.4586 34.1334
#
#
#
# Elastic Compliance Matrix: (Units=1/GPa)
#
#
# Indices 1 2 3 4 5 6 
#
# 1 0.020812 -0.009890 0.003534 0.016548 0.000332 0.000300
# 2 -0.009890 0.028016 -0.007600 -0.009222 -0.001997 0.003355
# 3 0.003534 -0.007600 0.010349 0.013102 -0.001606 -0.001557
# 4 0.016548 -0.009222 0.013102 0.062530 -0.002797 0.000090
# 5 0.000332 -0.001997 -0.001606 -0.002797 0.027224 0.004140
# 6 0.000300 0.003355 -0.001557 0.000090 0.004140 0.030590
#
#
# Mechanical properties :
#
#
# Convention : Reuss Voigt Hill
#
# Bulk Modulus (GPa) = 31.98383 49.86801 40.92592
# Shear Modulus (GPa) = 22.95122 33.76728 28.35925
#
# Velocity S-wave (km/s) = 3.06852 3.72198 3.41093
# Velocity P-wave (km/s) = 5.06714 6.23934 5.68354
#
# Compressibility (1/GPa) = 0.03126580
#
# Stress axis : x y z
#
# Youngs Moduli (GPa) = 48.04972 35.69335 96.63218
#
# Poissons Ratio (x) = 0.35301 -0.34154
# Poissons Ratio (y) = 0.47521 0.73439
# Poissons Ratio (z) = -0.16983 0.27126
#
# Static dielectric constant tensor:
#      x y z
#    x 1.977290 0.006990 -0.040030 
#    y 0.006990 2.153700 0.006060 
#    z -0.040030 0.006060 2.055990 
# 
# From -- ./inp_files/324018.got.cif
#   From: 2010.05.17/outbox.cif.g08.bks.cpg/sg2_163_cif.got.tgz:324018.got - 2010.06.03 11:33:40.
