data_PCOD9026834
_publ_section_title
;
Structure prediction by ZEFSAII (Michael W. Deem and Ramdas Pophale) SiO2 
 PCOD9026834
Probable space group: P -1
;
_chemical_formula_sum "Si O2"
_cell_formula_units_Z 16
_cell_length_a 6.909848
_cell_length_b 13.660931
_cell_length_c 13.707245
_cell_angle_alpha 40.072731
_cell_angle_beta 119.542396
_cell_angle_gamma 123.765707
_cell_volume 686.879561
_symmetry_space_group_name_H-M "P -1"
_symmetry_group_IT_number 2
_symmetry_cell_setting 'triclinic'
loop_
_space_group_symop_operation_xyz
x,y,z
-x,-y,-z
loop_
_atom_site_type_symbol
_atom_site_label
_atom_site_fract_x
_atom_site_fract_y
_atom_site_fract_z
Si Si1 0.734824 0.084518 0.107346
Si Si2 0.692848 0.566341 0.418596
Si Si3 0.916945 0.710732 0.107004
Si Si4 0.181385 0.632489 0.556700
Si Si5 0.346936 0.151622 0.400154
Si Si6 0.259861 0.133784 0.901612
Si Si7 0.491796 0.321323 0.107740
Si Si8 0.873028 0.170241 0.296363
O O1 0.816223 0.091638 0.233878
O O2 0.784280 0.951596 0.150383
O O3 0.460351 0.069814 0.046765
O O4 0.889588 0.241090 0.966217
O O5 0.500000 0.500000 0.500000
O O6 0.736640 0.417602 0.487960
O O7 0.618109 0.678279 0.238732
O O8 0.940600 0.666484 0.452093
O O9 0.882015 0.532227 0.271106
O O10 0.953379 0.841111 0.104605
O O11 0.674959 0.720786 0.994479
O O12 0.396204 0.768078 0.553007
O O13 0.371710 0.196898 0.258325
O O14 0.152369 0.227762 0.334526
O O15 0.242654 0.967283 0.547582
O O16 0.746113 0.304162 0.168099
O O17 0.500000 0.500000 0.000000
#
# Coordination Sequence:
#
# PCOD9026834 Si02
#       8
#     2   2   2   2   2   2   2   2
#     4  11  22  41  67  96 132 173 222 279 337 406
#     4  10  22  41  65  98 135 171 222 275 338 407
#     4  11  21  42  65  97 133 169 225 279 334 405
#     4  10  23  42  65  99 133 175 222 278 336 409
#     4  11  25  47  68 100 140 182 231 279 353 401
#     4  10  23  40  64  98 130 176 218 271 347 399
#     4  12  24  45  69  98 133 181 229 281 345 399
#     4  11  26  45  69 100 140 181 234 287 334 417
#
# _framework density 23.293751
#
# number of rings (size 3 to 8) (size 9 to 14) (size 15 to 20)
#    0.000    1.250    3.750    1.500    1.750    2.500 
#   11.250    0.000    0.000    0.000    0.000    0.000 
#    0.000    0.000    0.000    0.000    0.000    0.000 
#
# Total GULP energy -89388.696356 kJ/mol
# GULP energy per Si atom -5586.793522 kJ/mol
# Density = 2.324073 g / cm^3
# Si number density = 23.293751 Si / 1000 Ang^3
#
#
#
# Elastic Constant Matrix: (Units=GPa)
#
#
# Indices 1 2 3 4 5 6 
#
# 1 106.2662 20.8905 44.9787 5.8340 8.8353 -0.4436
# 2 20.8905 49.8175 8.0122 12.0245 6.3833 -0.6412
# 3 44.9787 8.0122 77.5166 18.1847 4.1264 -3.9389
# 4 5.8340 12.0245 18.1847 21.7010 -3.0503 5.7159
# 5 8.8353 6.3833 4.1264 -3.0503 48.5962 7.3857
# 6 -0.4436 -0.6412 -3.9389 5.7159 7.3857 27.5529
#
#
#
# Elastic Compliance Matrix: (Units=1/GPa)
#
#
# Indices 1 2 3 4 5 6 
#
# 1 0.014429 -0.006705 -0.009990 0.009098 0.000176 -0.003286
# 2 -0.006705 0.027972 0.006918 -0.022300 -0.005607 0.007661
# 3 -0.009990 0.006918 0.024545 -0.024893 -0.004230 0.009807
# 4 0.009098 -0.022300 -0.024893 0.085187 0.012530 -0.024962
# 5 0.000176 -0.005607 -0.004230 0.012530 0.023908 -0.009740
# 6 -0.003286 0.007661 0.009807 -0.024962 -0.009740 0.045610
#
#
# Mechanical properties :
#
#
# Convention : Reuss Voigt Hill
#
# Bulk Modulus (GPa) = 21.10011 42.37370 31.73690
# Shear Modulus (GPa) = 19.45510 30.21795 24.83652
#
# Velocity S-wave (km/s) = 2.89313 3.60565 3.26886
# Velocity P-wave (km/s) = 4.49869 5.96362 5.28219
#
# Compressibility (1/GPa) = 0.04739313
#
# Stress axis : x y z
#
# Youngs Moduli (GPa) = 69.30517 35.75044 40.74108
#
# Poissons Ratio (x) = 0.23970 0.40700
# Poissons Ratio (y) = 0.46467 -0.28186
# Poissons Ratio (z) = 0.69235 -0.24733
#
# Static dielectric constant tensor:
#      x y z
#    x 1.934720 -0.005520 -0.036290 
#    y -0.005520 1.933720 -0.007980 
#    z -0.036290 -0.007980 1.876000 
# 
# From -- ./inp_files/447034.got.cif
#   From: 2010.05.17/outbox.cif.g08.bks.cpg/sg2_224_cif.got.tgz:447034.got - 2010.06.03 11:33:40.
