data_PCOD9026762
_publ_section_title
;
Structure prediction by ZEFSAII (Michael W. Deem and Ramdas Pophale) SiO2 
 PCOD9026762
Probable space group: P -1
;
_chemical_formula_sum "Si O2"
_cell_formula_units_Z 15
_cell_length_a 12.245866
_cell_length_b 8.902352
_cell_length_c 7.318378
_cell_angle_alpha 125.124300
_cell_angle_beta 63.888259
_cell_angle_gamma 108.688999
_cell_volume 583.488765
_symmetry_space_group_name_H-M "P -1"
_symmetry_group_IT_number 2
_symmetry_cell_setting 'triclinic'
loop_
_space_group_symop_operation_xyz
x,y,z
-x,-y,-z
loop_
_atom_site_type_symbol
_atom_site_label
_atom_site_fract_x
_atom_site_fract_y
_atom_site_fract_z
Si Si1 0.729533 0.933398 0.779315
Si Si2 0.178046 0.679955 0.482061
Si Si3 0.059701 0.810136 0.289079
Si Si4 0.361886 0.441520 0.000744
Si Si5 0.858420 0.573009 0.380851
Si Si6 0.637730 0.967186 0.439381
Si Si7 0.611511 0.387504 0.277109
Si Si8 0.500000 0.000000 0.000000
O O1 0.812737 0.766725 0.619878
O O2 0.661538 0.966910 0.648411
O O3 0.821430 0.117605 0.865244
O O4 0.602770 0.872087 0.929523
O O5 0.104609 0.735623 0.397353
O O6 0.091796 0.582190 0.633614
O O7 0.267277 0.866137 0.586023
O O8 0.263664 0.516620 0.259729
O O9 0.950740 0.656375 0.212553
O O10 0.000000 0.000000 0.500000
O O11 0.338310 0.234164 0.794299
O O12 0.352880 0.574752 0.929402
O O13 0.500000 0.500000 0.000000
O O14 0.732257 0.464931 0.341611
O O15 0.500000 0.000000 0.500000
O O16 0.500000 0.500000 0.500000
O O17 0.571308 0.175044 0.172501
#
# Coordination Sequence:
#
# PCOD9026762 Si02
#       8
#     2   2   2   2   2   2   2   1
#     4  10  22  41  65  95 132 177 214 276 326 400
#     4  11  24  40  68  99 127 173 223 276 336 383
#     4   9  21  44  72  92 127 183 227 264 336 396
#     4  12  24  39  62  95 139 178 213 268 334 406
#     4  11  22  43  69  94 132 174 225 276 326 396
#     4  11  22  38  61  92 137 176 216 261 336 399
#     4  12  24  40  63  97 135 176 217 273 332 395
#     4  12  24  36  64  96 136 156 226 260 338 378
#
# _framework density 25.707433999999999
#
# number of rings (size 3 to 8) (size 9 to 14) (size 15 to 20)
#    0.000    1.067    4.000    2.800    1.867    0.000 
#    0.000    2.667    0.000    4.000    0.000    0.000 
#    0.000    0.000    0.000    0.000    0.000    0.000 
#
# Total GULP energy -83509.088643 kJ/mol
# GULP energy per Si atom -5567.272576 kJ/mol
# Density = 2.564892 g / cm^3
# Si number density = 25.707434 Si / 1000 Ang^3
#
#
#
# Elastic Constant Matrix: (Units=GPa)
#
#
# Indices 1 2 3 4 5 6 
#
# 1 80.5627 29.8376 8.4151 7.1270 -3.8768 10.7901
# 2 29.8376 156.0534 14.7470 22.6408 11.6641 23.2626
# 3 8.4151 14.7470 48.1556 29.0816 -3.8565 4.1030
# 4 7.1270 22.6408 29.0816 49.7334 -6.9948 9.0361
# 5 -3.8768 11.6641 -3.8565 -6.9948 37.1544 2.7800
# 6 10.7901 23.2626 4.1030 9.0361 2.7800 60.3745
#
#
#
# Elastic Compliance Matrix: (Units=1/GPa)
#
#
# Indices 1 2 3 4 5 6 
#
# 1 0.013789 -0.002523 -0.001836 0.000864 0.002323 -0.001604
# 2 -0.002523 0.007907 -0.000088 -0.003286 -0.003228 -0.001949
# 3 -0.001836 -0.000088 0.032399 -0.018885 -0.000432 0.001007
# 4 0.000864 -0.003286 -0.018885 0.033866 0.005757 -0.002939
# 5 0.002323 -0.003228 -0.000432 0.005757 0.029311 -0.001353
# 6 -0.001604 -0.001949 0.001007 -0.002939 -0.001353 0.018035
#
#
# Mechanical properties :
#
#
# Convention : Reuss Voigt Hill
#
# Bulk Modulus (GPa) = 22.12399 43.41899 32.77149
# Shear Modulus (GPa) = 31.39345 44.90392 38.14869
#
# Velocity S-wave (km/s) = 3.49833 4.18392 3.85639
# Velocity P-wave (km/s) = 4.99425 6.34560 5.71004
#
# Compressibility (1/GPa) = 0.04519981
#
# Stress axis : x y z
#
# Youngs Moduli (GPa) = 72.52142 126.46312 30.86545
#
# Poissons Ratio (x) = 0.31905 0.05668
# Poissons Ratio (y) = 0.18296 0.00273
# Poissons Ratio (z) = 0.13317 0.01118
#
# Static dielectric constant tensor:
#      x y z
#    x 2.585600 0.189080 -0.599560 
#    y 0.189080 2.135520 -0.520910 
#    z -0.599560 -0.520910 3.096290 
# 
# From -- ./inp_files/241297.got.cif
#   From: 2010.05.17/outbox.cif.g08.bks.cpg/sg2_121_cif.got.tgz:241297.got - 2010.06.03 11:33:40.
