data_PCOD9026910
_publ_section_title
;
Structure prediction by ZEFSAII (Michael W. Deem and Ramdas Pophale) SiO2 
 PCOD9026910
Probable space group: P -1
;
_chemical_formula_sum "Si O2"
_cell_formula_units_Z 16
_cell_length_a 11.071727
_cell_length_b 9.293182
_cell_length_c 11.490188
_cell_angle_alpha 122.532851
_cell_angle_beta 56.647148
_cell_angle_gamma 136.596239
_cell_volume 658.560271
_symmetry_space_group_name_H-M "P -1"
_symmetry_group_IT_number 2
_symmetry_cell_setting 'triclinic'
loop_
_space_group_symop_operation_xyz
x,y,z
-x,-y,-z
loop_
_atom_site_type_symbol
_atom_site_label
_atom_site_fract_x
_atom_site_fract_y
_atom_site_fract_z
Si Si1 0.882427 0.506446 0.162130
Si Si2 0.532065 0.642879 0.429745
Si Si3 0.683241 0.272382 0.757336
Si Si4 0.313001 0.828025 0.683099
Si Si5 0.399311 0.438118 0.155347
Si Si6 0.956554 0.943645 0.365221
Si Si7 0.087547 0.749701 0.548717
Si Si8 0.439290 0.765499 0.950006
O O1 0.842544 0.352717 0.224912
O O2 0.973500 0.756623 0.245464
O O3 0.677852 0.383580 0.162548
O O4 0.000000 0.500000 0.000000
O O5 0.500000 0.500000 0.500000
O O6 0.412119 0.725767 0.546323
O O7 0.494363 0.558852 0.280225
O O8 0.745614 0.829807 0.403847
O O9 0.723048 0.483858 0.769922
O O10 0.804075 0.209669 0.612167
O O11 0.472168 0.062269 0.754077
O O12 0.698316 0.319128 0.905422
O O13 0.222775 0.856084 0.633597
O O14 0.388870 0.228502 0.100926
O O15 0.500000 0.500000 0.000000
O O16 0.039563 0.172785 0.359193
O O17 0.000000 0.000000 0.500000
O O18 0.000000 0.500000 0.500000
O O19 0.500000 0.000000 0.000000
#
# Coordination Sequence:
#
# PCOD9026910 Si02
#       8
#     2   2   2   2   2   2   2   2
#     4  12  28  49  69 104 153 193 243 306 377 449
#     4  12  22  42  79 111 140 184 254 316 355 443
#     4  11  23  42  72 103 137 187 234 307 365 445
#     4  12  23  45  75 107 137 185 248 303 367 438
#     4  10  22  41  66 104 150 178 239 305 378 431
#     4  12  27  48  73 108 151 199 244 306 379 443
#     4  12  27  44  69 107 148 186 247 307 375 435
#     4  11  23  44  70 102 141 188 244 298 366 442
#
# _framework density 24.29542
#
# number of rings (size 3 to 8) (size 9 to 14) (size 15 to 20)
#    0.000    0.500    6.250    1.875    3.500    0.000 
#    2.250    0.625    0.000    0.000    0.000    0.000 
#    0.000    0.000    0.000    0.000    0.000    0.000 
#
# Total GULP energy -89262.737008 kJ/mol
# GULP energy per Si atom -5578.921063 kJ/mol
# Density = 2.424012 g / cm^3
# Si number density = 24.295420 Si / 1000 Ang^3
#
#
#
# Elastic Constant Matrix: (Units=GPa)
#
#
# Indices 1 2 3 4 5 6 
#
# 1 100.2703 25.5859 34.7029 5.1589 16.6910 -42.4768
# 2 25.5859 131.3388 34.1887 14.1170 0.2944 -38.4507
# 3 34.7029 34.1887 138.3157 14.9971 6.9541 -16.0031
# 4 5.1589 14.1170 14.9971 42.6973 -6.8919 -4.0279
# 5 16.6910 0.2944 6.9541 -6.8919 54.5433 8.0559
# 6 -42.4768 -38.4507 -16.0031 -4.0279 8.0559 51.8977
#
#
#
# Elastic Compliance Matrix: (Units=1/GPa)
#
#
# Indices 1 2 3 4 5 6 
#
# 1 0.019482 0.002436 -0.002769 -0.001858 -0.008526 0.018076
# 2 0.002436 0.010673 -0.001740 -0.002690 -0.002327 0.009517
# 3 -0.002769 -0.001740 0.008492 -0.002229 -0.000352 -0.001055
# 4 -0.001858 -0.002690 -0.002229 0.025778 0.004554 -0.002907
# 5 -0.008526 -0.002327 -0.000352 0.004554 0.023361 -0.012084
# 6 0.018076 0.009517 -0.001055 -0.002907 -0.012084 0.042439
#
#
# Mechanical properties :
#
#
# Convention : Reuss Voigt Hill
#
# Bulk Modulus (GPa) = 28.98336 62.09777 45.54056
# Shear Modulus (GPa) = 34.27712 48.19082 41.23397
#
# Velocity S-wave (km/s) = 3.76020 4.45852 4.12417
# Velocity P-wave (km/s) = 5.55046 7.21938 6.43922
#
# Compressibility (1/GPa) = 0.03450255
#
# Stress axis : x y z
#
# Youngs Moduli (GPa) = 51.32978 93.69668 117.76020
#
# Poissons Ratio (x) = -0.22826 0.32603
# Poissons Ratio (y) = -0.12505 0.20485
# Poissons Ratio (z) = 0.14211 0.16299
#
# Static dielectric constant tensor:
#      x y z
#    x 1.966610 -0.010730 -0.036200 
#    y -0.010730 2.079060 -0.051520 
#    z -0.036200 -0.051520 1.963090 
# 
# From -- ./inp_files/418064.got.cif
#   From: 2010.05.17/outbox.cif.g08.bks.cpg/sg2_210_cif.got.tgz:418064.got - 2010.06.03 11:33:40.
