data_PCOD9026639
_publ_section_title
;
Structure prediction by ZEFSAII (Michael W. Deem and Ramdas Pophale) SiO2 
 PCOD9026639
Probable space group: P -1
;
_chemical_formula_sum "Si O2"
_cell_formula_units_Z 16
_cell_length_a 11.856380
_cell_length_b 13.305085
_cell_length_c 18.686374
_cell_angle_alpha 149.206305
_cell_angle_beta 132.022880
_cell_angle_gamma 31.894533
_cell_volume 777.555213
_symmetry_space_group_name_H-M "P -1"
_symmetry_group_IT_number 2
_symmetry_cell_setting 'triclinic'
loop_
_space_group_symop_operation_xyz
x,y,z
-x,-y,-z
loop_
_atom_site_type_symbol
_atom_site_label
_atom_site_fract_x
_atom_site_fract_y
_atom_site_fract_z
Si Si1 0.031418 0.110990 0.399106
Si Si2 0.132380 0.736419 0.340040
Si Si3 0.142670 0.305408 0.873813
Si Si4 0.589563 0.329901 0.359535
Si Si5 0.597781 0.722261 0.143366
Si Si6 0.475297 0.719597 0.297959
Si Si7 0.750911 0.231848 0.013023
Si Si8 0.344326 0.069964 0.578773
O O1 0.105985 0.860363 0.327280
O O2 0.211982 0.955469 0.317834
O O3 0.097048 0.237709 0.554203
O O4 0.780302 0.298274 0.392599
O O5 0.381615 0.498513 0.323924
O O6 0.017602 0.634479 0.218640
O O7 0.000000 0.000000 0.500000
O O8 0.281074 0.349365 0.923151
O O9 0.303050 0.980362 0.767323
O O10 0.000000 0.500000 0.000000
O O11 0.500000 0.500000 0.500000
O O12 0.709645 0.441071 0.064252
O O13 0.616120 0.907552 0.309646
O O14 0.349550 0.878192 0.125215
O O15 0.602300 0.422541 0.135933
O O16 0.482449 0.766644 0.414145
O O17 0.581827 0.805673 0.356197
O O18 0.000000 0.000000 0.000000
#
# Coordination Sequence:
#
# PCOD9026639 Si02
#       8
#     2   2   2   2   2   2   2   2
#     4   9  18  35  62  85 124 157 199 262 316 363
#     4  11  21  40  61  90 125 167 217 258 317 387
#     4  11  26  43  64  93 135 170 218 276 317 373
#     4  11  23  39  64  94 123 171 217 259 326 389
#     4  10  22  41  65  86 126 165 209 256 323 372
#     4   8  17  35  62  85 121 151 200 257 315 362
#     4  10  22  42  64  92 124 168 203 254 325 399
#     4   8  16  35  62  88 109 159 198 255 306 366
#
# _framework density 20.577317000000001
#
# number of rings (size 3 to 8) (size 9 to 14) (size 15 to 20)
#    0.750    1.500    2.500    0.750    3.500    1.500 
#    4.500    0.625    0.000    0.000    0.000    0.000 
#    0.000    0.000    0.000    0.000    0.000    0.000 
#
# Total GULP energy -89079.037561 kJ/mol
# GULP energy per Si atom -5567.439848 kJ/mol
# Density = 2.053048 g / cm^3
# Si number density = 20.577317 Si / 1000 Ang^3
#
#
#
# Elastic Constant Matrix: (Units=GPa)
#
#
# Indices 1 2 3 4 5 6 
#
# 1 97.7682 45.1061 21.8220 -2.5705 2.0692 -28.4215
# 2 45.1061 157.1539 26.6998 4.4012 1.2422 -36.8184
# 3 21.8220 26.6998 93.1719 -1.9610 -17.6692 -8.9342
# 4 -2.5705 4.4012 -1.9610 20.0423 -1.5187 0.8639
# 5 2.0692 1.2422 -17.6692 -1.5187 19.7514 -5.0545
# 6 -28.4215 -36.8184 -8.9342 0.8639 -5.0545 36.9649
#
#
#
# Elastic Compliance Matrix: (Units=1/GPa)
#
#
# Indices 1 2 3 4 5 6 
#
# 1 0.013992 -0.001733 -0.002143 0.001529 -0.001022 0.008339
# 2 -0.001733 0.008879 -0.001524 -0.002639 -0.000103 0.007190
# 3 -0.002143 -0.001524 0.014626 0.002468 0.014170 0.002250
# 4 0.001529 -0.002639 0.002468 0.051409 0.005844 -0.001259
# 5 -0.001022 -0.000103 0.014170 0.005844 0.066821 0.011537
# 6 0.008339 0.007190 0.002250 -0.001259 0.011537 0.042777
#
#
# Mechanical properties :
#
#
# Convention : Reuss Voigt Hill
#
# Bulk Modulus (GPa) = 37.45637 59.48330 48.46984
# Shear Modulus (GPa) = 22.91457 32.31612 27.61534
#
# Velocity S-wave (km/s) = 3.34066 3.96722 3.66734
# Velocity P-wave (km/s) = 5.75520 7.06789 6.44505
#
# Compressibility (1/GPa) = 0.02669773
#
# Stress axis : x y z
#
# Youngs Moduli (GPa) = 71.46983 112.62724 68.37006
#
# Poissons Ratio (x) = 0.19519 0.14648
# Poissons Ratio (y) = 0.12386 0.10420
# Poissons Ratio (z) = 0.15312 0.17165
#
# Static dielectric constant tensor:
#      x y z
#    x 1.765980 -0.025900 -0.023670 
#    y -0.025900 1.767740 -0.052400 
#    z -0.023670 -0.052400 1.879600 
# 
# From -- ./inp_files/595658.got.cif
#   From: 2010.05.17/outbox.cif.g08.bks.cpg/sg2_298_cif.got.tgz:595658.got - 2010.06.03 11:33:40.
