data_PCOD9026223
_publ_section_title
;
Structure prediction by ZEFSAII (Michael W. Deem and Ramdas Pophale) SiO2 
 PCOD9026223
Probable space group: P -1
;
_chemical_formula_sum "Si O2"
_cell_formula_units_Z 14
_cell_length_a 7.620934
_cell_length_b 13.482877
_cell_length_c 13.684820
_cell_angle_alpha 149.136545
_cell_angle_beta 67.243875
_cell_angle_gamma 96.148117
_cell_volume 585.185784
_symmetry_space_group_name_H-M "P -1"
_symmetry_group_IT_number 2
_symmetry_cell_setting 'triclinic'
loop_
_space_group_symop_operation_xyz
x,y,z
-x,-y,-z
loop_
_atom_site_type_symbol
_atom_site_label
_atom_site_fract_x
_atom_site_fract_y
_atom_site_fract_z
Si Si1 0.710957 0.242325 0.652746
Si Si2 0.174774 0.612117 0.634827
Si Si3 0.205643 0.550989 0.000806
Si Si4 0.515975 0.805384 0.901487
Si Si5 0.082340 0.181356 0.858827
Si Si6 0.843823 0.557333 0.788744
Si Si7 0.922018 0.986811 0.875022
O O1 0.451900 0.358466 0.793164
O O2 0.805809 0.351027 0.644613
O O3 0.799868 0.987904 0.395691
O O4 0.790680 0.288271 0.778484
O O5 0.380734 0.418837 0.375455
O O6 0.069846 0.522170 0.662704
O O7 0.184900 0.821687 0.857189
O O8 0.004185 0.747090 0.698923
O O9 0.000000 0.500000 0.000000
O O10 0.157566 0.661673 0.997382
O O11 0.666818 0.728515 0.898066
O O12 0.267229 0.930969 0.093064
O O13 0.500000 0.000000 0.000000
O O14 0.099017 0.033392 0.824673
O O15 0.180222 0.330729 0.005846
#
# Coordination Sequence:
#
# PCOD9026223 Si02
#       7
#     2   2   2   2   2   2   2
#     4  11  25  46  76  99 139 176 216 286 342 404
#     4  10  22  41  63  88 135 181 225 281 328 390
#     4  11  24  50  73 103 134 173 223 278 346 418
#     4  12  23  37  60  94 131 182 228 271 330 391
#     4  11  24  45  69 102 134 177 226 278 343 403
#     4  11  23  44  64 100 138 175 229 279 327 405
#     4  10  22  41  64  91 132 178 230 278 332 391
#
# _framework density 23.924026999999999
#
# number of rings (size 3 to 8) (size 9 to 14) (size 15 to 20)
#    0.000    1.143    2.857    3.000    2.000    0.571 
#   12.857    0.000    0.000    0.000    0.000    0.000 
#    0.000    0.000    0.000    0.000    0.000    0.000 
#
# Total GULP energy -78030.851590 kJ/mol
# GULP energy per Si atom -5573.632256 kJ/mol
# Density = 2.386957 g / cm^3
# Si number density = 23.924027 Si / 1000 Ang^3
#
#
#
# Elastic Constant Matrix: (Units=GPa)
#
#
# Indices 1 2 3 4 5 6 
#
# 1 80.7725 12.2490 35.8040 7.0090 4.0039 -12.8203
# 2 12.2490 78.4294 -16.9458 17.7176 -0.5274 -0.2501
# 3 35.8040 -16.9458 118.8478 16.4051 11.4878 -16.7633
# 4 7.0090 17.7176 16.4051 24.3140 -3.1950 1.3678
# 5 4.0039 -0.5274 11.4878 -3.1950 41.1949 -2.1922
# 6 -12.8203 -0.2501 -16.7633 1.3678 -2.1922 51.9329
#
#
#
# Elastic Compliance Matrix: (Units=1/GPa)
#
#
# Indices 1 2 3 4 5 6 
#
# 1 0.015440 -0.003934 -0.005184 0.001816 0.000146 0.002078
# 2 -0.003934 0.018775 0.006761 -0.017536 -0.002535 0.001657
# 3 -0.005184 0.006761 0.013650 -0.013366 -0.004075 0.003339
# 4 0.001816 -0.017536 -0.013366 0.063749 0.007989 -0.005292
# 5 0.000146 -0.002535 -0.004075 0.007989 0.025963 -0.000406
# 6 0.002078 0.001657 0.003339 -0.005292 -0.000406 0.020976
#
#
# Mechanical properties :
#
#
# Convention : Reuss Voigt Hill
#
# Bulk Modulus (GPa) = 23.17428 37.80713 30.49070
# Shear Modulus (GPa) = 28.14519 39.95118 34.04819
#
# Velocity S-wave (km/s) = 3.43365 4.09090 3.77660
# Velocity P-wave (km/s) = 5.04258 6.17667 5.63821
#
# Compressibility (1/GPa) = 0.04315129
#
# Stress axis : x y z
#
# Youngs Moduli (GPa) = 64.76701 53.26143 73.26178
#
# Poissons Ratio (x) = 0.20954 0.37980
# Poissons Ratio (y) = 0.25480 -0.49536
# Poissons Ratio (z) = 0.33576 -0.36012
#
# Static dielectric constant tensor:
#      x y z
#    x 2.094190 0.074910 0.047140 
#    y 0.074910 2.106110 -0.026860 
#    z 0.047140 -0.026860 1.907380 
# 
# From -- ./inp_files/505735.got.cif
#   From: 2010.05.17/outbox.cif.g08.bks.cpg/sg2_253_cif.got.tgz:505735.got - 2010.06.03 11:33:40.
