data_PCOD9026329
_publ_section_title
;
Structure prediction by ZEFSAII (Michael W. Deem and Ramdas Pophale) SiO2 
 PCOD9026329
Probable space group: P -1
;
_chemical_formula_sum "Si O2"
_cell_formula_units_Z 16
_cell_length_a 7.813305
_cell_length_b 19.561258
_cell_length_c 8.855139
_cell_angle_alpha 31.924996
_cell_angle_beta 88.371862
_cell_angle_gamma 86.598080
_cell_volume 713.811751
_symmetry_space_group_name_H-M "P -1"
_symmetry_group_IT_number 2
_symmetry_cell_setting 'triclinic'
loop_
_space_group_symop_operation_xyz
x,y,z
-x,-y,-z
loop_
_atom_site_type_symbol
_atom_site_label
_atom_site_fract_x
_atom_site_fract_y
_atom_site_fract_z
Si Si1 0.268321 0.150741 0.827353
Si Si2 0.959721 0.457489 0.909649
Si Si3 0.637383 0.236703 0.723328
Si Si4 0.628198 0.115792 0.500746
Si Si5 0.374683 0.615426 0.845280
Si Si6 0.961252 0.299555 0.729041
Si Si7 0.275589 0.054818 0.672669
Si Si8 0.987459 0.191880 0.252837
O O1 0.430508 0.231847 0.727396
O O2 0.085632 0.213478 0.772045
O O3 0.269970 0.141486 0.662774
O O4 0.307498 0.004698 0.165987
O O5 0.019011 0.554662 0.600182
O O6 0.755436 0.453909 0.915813
O O7 0.014967 0.308845 0.150460
O O8 0.000000 0.500000 0.000000
O O9 0.703338 0.319355 0.427341
O O10 0.755366 0.284745 0.764228
O O11 0.703255 0.087786 0.992324
O O12 0.573813 0.255797 0.314290
O O13 0.443969 0.073851 0.530754
O O14 0.794767 0.145734 0.345450
O O15 0.500000 0.500000 0.000000
O O16 0.029177 0.251164 0.979942
O O17 0.112905 0.076718 0.528917
#
# Coordination Sequence:
#
# PCOD9026329 Si02
#       8
#     2   2   2   2   2   2   2   2
#     4  11  22  39  70  99 128 167 224 277 327 376
#     4  11  23  42  68  93 123 169 224 276 314 375
#     4  11  22  40  66  98 132 167 217 274 333 377
#     4  10  22  41  63  96 135 165 218 278 323 377
#     4  11  21  37  64  99 126 156 213 275 332 375
#     4  12  26  43  64  94 140 178 213 264 326 403
#     4  11  22  39  71  98 129 169 220 280 327 377
#     4  11  27  43  62  97 138 179 213 257 333 401
#
# _framework density 22.414874000000001
#
# number of rings (size 3 to 8) (size 9 to 14) (size 15 to 20)
#    0.000    1.000    3.750    3.375    3.500    4.000 
#    0.000    2.500    0.000    5.250    0.000    0.000 
#    0.000    0.000    0.000    0.000    0.000    0.000 
#
# Total GULP energy -89177.494064 kJ/mol
# GULP energy per Si atom -5573.593379 kJ/mol
# Density = 2.236386 g / cm^3
# Si number density = 22.414874 Si / 1000 Ang^3
#
#
#
# Elastic Constant Matrix: (Units=GPa)
#
#
# Indices 1 2 3 4 5 6 
#
# 1 91.8865 16.5439 50.4566 -1.5737 -10.0846 -1.4864
# 2 16.5439 29.9430 19.7577 2.7122 -8.4475 -5.3396
# 3 50.4566 19.7577 101.0413 2.3571 -7.4404 -4.2980
# 4 -1.5737 2.7122 2.3571 35.2398 -1.5081 4.1546
# 5 -10.0846 -8.4475 -7.4404 -1.5081 30.4525 -3.3736
# 6 -1.4864 -5.3396 -4.2980 4.1546 -3.3736 15.1115
#
#
#
# Elastic Compliance Matrix: (Units=1/GPa)
#
#
# Indices 1 2 3 4 5 6 
#
# 1 0.015692 -0.003866 -0.007029 0.001779 0.002296 -0.001798
# 2 -0.003866 0.046188 -0.005310 -0.005039 0.012035 0.018502
# 3 -0.007029 -0.005310 0.014543 -0.001100 -0.000097 0.001849
# 4 0.001779 -0.005039 -0.001100 0.030108 -0.000734 -0.010360
# 5 0.002296 0.012035 -0.000097 -0.000734 0.038340 0.013212
# 6 -0.001798 0.018502 0.001849 -0.010360 0.013212 0.078859
#
#
# Mechanical properties :
#
#
# Convention : Reuss Voigt Hill
#
# Bulk Modulus (GPa) = 22.72133 44.04305 33.38219
# Shear Modulus (GPa) = 18.46303 25.23491 21.84897
#
# Velocity S-wave (km/s) = 2.87312 3.35895 3.12549
# Velocity P-wave (km/s) = 4.60056 5.89365 5.28679
#
# Compressibility (1/GPa) = 0.04401150
#
# Stress axis : x y z
#
# Youngs Moduli (GPa) = 63.72576 21.65074 68.76367
#
# Poissons Ratio (x) = 0.08371 0.48335
# Poissons Ratio (y) = 0.24638 0.36515
# Poissons Ratio (z) = 0.44794 0.11497
#
# Static dielectric constant tensor:
#      x y z
#    x 1.892430 -0.039420 0.043080 
#    y -0.039420 1.590980 0.235940 
#    z 0.043080 0.235940 1.549430 
# 
# From -- ./inp_files/221557.got.cif
#   From: 2010.05.17/outbox.cif.g08.bks.cpg/sg2_111_cif.got.tgz:221557.got - 2010.06.03 11:33:40.
