data_PCOD9026018
_publ_section_title
;
Structure prediction by ZEFSAII (Michael W. Deem and Ramdas Pophale) SiO2 
 PCOD9026018
Probable space group: P -1
;
_chemical_formula_sum "Si O2"
_cell_formula_units_Z 12
_cell_length_a 28.822666
_cell_length_b 6.626717
_cell_length_c 23.529065
_cell_angle_alpha 41.122103
_cell_angle_beta 11.337225
_cell_angle_gamma 43.218950
_cell_volume 579.322161
_symmetry_space_group_name_H-M "P -1"
_symmetry_group_IT_number 2
_symmetry_cell_setting 'triclinic'
loop_
_space_group_symop_operation_xyz
x,y,z
-x,-y,-z
loop_
_atom_site_type_symbol
_atom_site_label
_atom_site_fract_x
_atom_site_fract_y
_atom_site_fract_z
Si Si1 0.328082 0.762751 0.220805
Si Si2 0.167938 0.240552 0.874946
Si Si3 0.074362 0.825010 0.711903
Si Si4 0.895156 0.845834 0.802938
Si Si5 0.437831 0.879987 0.937320
Si Si6 0.294470 0.663852 0.783061
O O1 0.433077 0.431581 0.160642
O O2 0.086924 0.747390 0.548817
O O3 0.316645 0.874961 0.145638
O O4 0.500000 0.000000 0.000000
O O5 0.430348 0.349305 0.560294
O O6 0.231641 0.007726 0.798233
O O7 0.000000 0.500000 0.000000
O O8 0.024010 0.049966 0.137922
O O9 0.011975 0.975590 0.694288
O O10 0.355652 0.842862 0.372058
O O11 0.917490 0.498684 0.965743
O O12 0.735385 0.547402 0.079577
O O13 0.743172 0.083628 0.903516
#
# Coordination Sequence:
#
# PCOD9026018 Si02
#       6
#     2   2   2   2   2   2
#     4  11  22  43  61  92 124 153 206 247 290 370
#     4  11  21  39  64  87 121 161 196 246 304 350
#     4  10  22  41  61  90 122 154 205 248 290 363
#     4  10  22  42  60  90 121 158 199 248 302 345
#     4  11  23  41  65  86 123 163 195 249 303 348
#     4   9  22  40  58  90 122 149 207 247 286 363
#
# _framework density 20.713864999999998
#
# number of rings (size 3 to 8) (size 9 to 14) (size 15 to 20)
#    1.000    0.667    1.667    3.000    0.000    1.333 
#    6.000    5.000    0.000    0.000    0.000    0.000 
#    0.000    0.000    0.000    0.000    0.000    0.000 
#
# Total GULP energy -66844.283887 kJ/mol
# GULP energy per Si atom -5570.356991 kJ/mol
# Density = 2.066672 g / cm^3
# Si number density = 20.713865 Si / 1000 Ang^3
#
#
#
# Elastic Constant Matrix: (Units=GPa)
#
#
# Indices 1 2 3 4 5 6 
#
# 1 90.7766 1.8816 35.2019 22.2331 6.6829 -1.7023
# 2 1.8816 49.2578 9.4334 8.2137 -8.6883 0.2383
# 3 35.2019 9.4334 77.9131 17.8232 32.1099 -9.2691
# 4 22.2331 8.2137 17.8232 26.7734 0.5706 -8.2638
# 5 6.6829 -8.6883 32.1099 0.5706 38.2983 -3.5972
# 6 -1.7023 0.2383 -9.2691 -8.2638 -3.5972 19.1724
#
#
#
# Elastic Compliance Matrix: (Units=1/GPa)
#
#
# Indices 1 2 3 4 5 6 
#
# 1 0.016298 0.003437 -0.007386 -0.011771 0.003689 -0.006548
# 2 0.003437 0.025022 -0.008550 -0.006553 0.011898 -0.004731
# 3 -0.007386 -0.008550 0.030550 -0.009377 -0.025620 0.005372
# 4 -0.011771 -0.006553 -0.009377 0.062327 0.009678 0.023184
# 5 0.003689 0.011898 -0.025620 0.009678 0.049622 0.001275
# 6 -0.006548 -0.004731 0.005372 0.023184 0.001275 0.064465
#
#
# Mechanical properties :
#
#
# Convention : Reuss Voigt Hill
#
# Bulk Modulus (GPa) = 21.33502 34.55348 27.94425
# Shear Modulus (GPa) = 17.30676 28.27753 22.79214
#
# Velocity S-wave (km/s) = 2.89366 3.69880 3.32073
# Velocity P-wave (km/s) = 4.63537 5.91262 5.31252
#
# Compressibility (1/GPa) = 0.04687130
#
# Stress axis : x y z
#
# Youngs Moduli (GPa) = 61.35841 39.96541 32.73360
#
# Poissons Ratio (x) = -0.13737 0.24177
# Poissons Ratio (y) = -0.21090 0.27987
# Poissons Ratio (z) = 0.45320 0.34170
#
# Static dielectric constant tensor:
#      x y z
#    x 1.761380 0.029200 0.007240 
#    y 0.029200 1.752600 -0.035190 
#    z 0.007240 -0.035190 1.739140 
# 
# From -- ./inp_files/5115.got.cif
#   From: 2010.05.17/outbox.cif.g08.bks.cpg/sg2_3_cif.got.tgz:5115.got - 2010.06.03 11:33:40.
