data_PCOD9026658
_publ_section_title
;
Structure prediction by ZEFSAII (Michael W. Deem and Ramdas Pophale) SiO2 
 PCOD9026658
Probable space group: P -1
;
_chemical_formula_sum "Si O2"
_cell_formula_units_Z 16
_cell_length_a 11.061981
_cell_length_b 15.517979
_cell_length_c 6.522318
_cell_angle_alpha 51.350834
_cell_angle_beta 106.634386
_cell_angle_gamma 124.006430
_cell_volume 721.415416
_symmetry_space_group_name_H-M "P -1"
_symmetry_group_IT_number 2
_symmetry_cell_setting 'triclinic'
loop_
_space_group_symop_operation_xyz
x,y,z
-x,-y,-z
loop_
_atom_site_type_symbol
_atom_site_label
_atom_site_fract_x
_atom_site_fract_y
_atom_site_fract_z
Si Si1 0.783018 0.023157 0.096315
Si Si2 0.576949 0.789994 0.596166
Si Si3 0.073150 0.417280 0.706955
Si Si4 0.617129 0.704048 0.154430
Si Si5 0.053301 0.194493 0.733730
Si Si6 0.411691 0.559145 0.613400
Si Si7 0.376703 0.897547 0.436849
Si Si8 0.893689 0.213399 0.249769
O O1 0.814978 0.114561 0.172575
O O2 0.703178 0.884646 0.364903
O O3 0.682042 0.041275 0.852174
O O4 0.938436 0.071007 0.992031
O O5 0.515487 0.644356 0.718705
O O6 0.450928 0.826294 0.469215
O O7 0.624434 0.798430 0.841386
O O8 0.046691 0.310864 0.678254
O O9 0.246146 0.512295 0.657179
O O10 0.000000 0.500000 0.500000
O O11 0.003730 0.344464 0.994109
O O12 0.779124 0.767684 0.233080
O O13 0.481914 0.659589 0.309411
O O14 0.586939 0.568232 0.252999
O O15 0.990765 0.181305 0.495539
O O16 0.235952 0.799404 0.649217
O O17 0.500000 0.000000 0.500000
#
# Coordination Sequence:
#
# PCOD9026658 Si02
#       8
#     2   2   2   2   2   2   2   2
#     4  10  23  41  65 100 130 164 213 270 325 390
#     4  12  25  38  70  98 129 176 214 265 332 384
#     4  10  23  38  65  95 128 167 220 270 327 386
#     4  10  24  46  66  93 129 177 224 267 313 385
#     4   9  22  44  64  91 132 170 214 272 322 380
#     4  10  25  43  64  94 134 167 226 269 316 377
#     4  11  24  40  67  98 139 168 210 266 331 397
#     4  10  22  41  65  90 135 170 206 266 332 375
#
# _framework density 22.178623000000002
#
# number of rings (size 3 to 8) (size 9 to 14) (size 15 to 20)
#    0.000    1.750    1.250    0.750    8.750    7.000 
#    0.000    1.250    0.000    0.000    0.000    0.000 
#    0.000    0.000    0.000    0.000    0.000    0.000 
#
# Total GULP energy -89428.489874 kJ/mol
# GULP energy per Si atom -5589.280617 kJ/mol
# Density = 2.212814 g / cm^3
# Si number density = 22.178623 Si / 1000 Ang^3
#
#
#
# Elastic Constant Matrix: (Units=GPa)
#
#
# Indices 1 2 3 4 5 6 
#
# 1 81.6503 29.3363 64.0837 -22.0507 -31.1102 21.1540
# 2 29.3363 93.2959 49.7390 -6.5511 -15.1662 25.8400
# 3 64.0837 49.7390 159.4651 -2.4930 -29.0809 29.2032
# 4 -22.0507 -6.5511 -2.4930 32.0173 8.0699 -6.6445
# 5 -31.1102 -15.1662 -29.0809 8.0699 26.5729 -4.0428
# 6 21.1540 25.8400 29.2032 -6.6445 -4.0428 31.8673
#
#
#
# Elastic Compliance Matrix: (Units=1/GPa)
#
#
# Indices 1 2 3 4 5 6 
#
# 1 0.034410 0.001469 -0.007020 0.014226 0.027424 -0.011155
# 2 0.001469 0.015457 -0.002325 0.000212 0.006330 -0.010530
# 3 -0.007020 -0.002325 0.011310 -0.006420 0.004075 -0.004641
# 4 0.014226 0.000212 -0.006420 0.042148 -0.002326 0.004761
# 5 0.027424 0.006330 0.004075 -0.002326 0.075789 -0.017943
# 6 -0.011155 -0.010530 -0.004641 0.004761 -0.017943 0.050292
#
#
# Mechanical properties :
#
#
# Convention : Reuss Voigt Hill
#
# Bulk Modulus (GPa) = 22.01461 68.96991 45.49226
# Shear Modulus (GPa) = 19.20852 30.84165 25.02509
#
# Velocity S-wave (km/s) = 2.94612 3.73312 3.36273
# Velocity P-wave (km/s) = 4.63901 7.05313 5.96938
#
# Compressibility (1/GPa) = 0.04542437
#
# Stress axis : x y z
#
# Youngs Moduli (GPa) = 29.06116 64.69597 88.41644
#
# Poissons Ratio (x) = -0.09504 0.62069
# Poissons Ratio (y) = -0.04269 0.20560
# Poissons Ratio (z) = 0.20401 0.15044
#
# Static dielectric constant tensor:
#      x y z
#    x 1.801570 -0.001660 -0.024400 
#    y -0.001660 1.935290 0.007980 
#    z -0.024400 0.007980 1.793750 
# 
# From -- ./inp_files/71417.got.cif
#   From: 2010.05.17/outbox.cif.g08.bks.cpg/sg2_36_cif.got.tgz:71417.got - 2010.06.03 11:33:40.
