data_PCOD9026407
_publ_section_title
;
Structure prediction by ZEFSAII (Michael W. Deem and Ramdas Pophale) SiO2 
 PCOD9026407
Probable space group: P -1
;
_chemical_formula_sum "Si O2"
_cell_formula_units_Z 16
_cell_length_a 7.318790
_cell_length_b 7.927236
_cell_length_c 16.761110
_cell_angle_alpha 67.753063
_cell_angle_beta 50.889179
_cell_angle_gamma 63.906985
_cell_volume 670.466139
_symmetry_space_group_name_H-M "P -1"
_symmetry_group_IT_number 2
_symmetry_cell_setting 'triclinic'
loop_
_space_group_symop_operation_xyz
x,y,z
-x,-y,-z
loop_
_atom_site_type_symbol
_atom_site_label
_atom_site_fract_x
_atom_site_fract_y
_atom_site_fract_z
Si Si1 0.333115 0.355428 0.578128
Si Si2 0.665279 0.819114 0.028382
Si Si3 0.082215 0.317799 0.309047
Si Si4 0.629559 0.536748 0.200302
Si Si5 0.603166 0.246597 0.374616
Si Si6 0.211498 0.787040 0.923043
Si Si7 0.180391 0.492928 0.096651
Si Si8 0.540928 0.003740 0.291739
O O1 0.500000 0.500000 0.500000
O O2 0.408720 0.235961 0.497576
O O3 0.059177 0.493399 0.636932
O O4 0.415527 0.213352 0.655743
O O5 0.746282 0.659778 0.966411
O O6 0.916844 0.853846 0.984666
O O7 0.520751 0.734068 0.150401
O O8 0.500000 0.000000 0.000000
O O9 0.233581 0.393714 0.185324
O O10 0.263595 0.140368 0.335514
O O11 0.863101 0.249041 0.340977
O O12 0.500988 0.446357 0.319356
O O13 0.703108 0.374983 0.140359
O O14 0.884827 0.554520 0.162879
O O15 0.650307 0.088468 0.322246
O O16 0.326167 0.951912 0.832654
O O17 0.268923 0.673598 0.011730
#
# Coordination Sequence:
#
# PCOD9026407 Si02
#       8
#     2   2   2   2   2   2   2   2
#     4  10  23  43  64  91 126 158 208 269 309 365
#     4   9  15  28  54  91 120 153 204 244 294 367
#     4  10  22  41  64  90 126 168 201 249 319 367
#     4   7  13  29  54  77 114 155 191 240 293 351
#     4   9  19  40  66  87 119 163 206 260 309 357
#     4   8  16  32  54  80 120 158 193 247 292 358
#     4   8  15  33  53  78 121 161 191 236 305 358
#     4  11  22  41  65  92 124 161 212 256 306 372
#
# _framework density 23.863994000000002
#
# number of rings (size 3 to 8) (size 9 to 14) (size 15 to 20)
#    0.000    3.000    0.000    2.625    0.000    3.000 
#   15.750    3.125    2.750    0.000    0.000    0.000 
#    0.000    0.000    0.000    0.000    0.000    0.000 
#
# Total GULP energy -89343.752196 kJ/mol
# GULP energy per Si atom -5583.984512 kJ/mol
# Density = 2.380968 g / cm^3
# Si number density = 23.863994 Si / 1000 Ang^3
#
#
#
# Elastic Constant Matrix: (Units=GPa)
#
#
# Indices 1 2 3 4 5 6 
#
# 1 72.7728 27.2419 12.5723 0.1774 -6.2107 -14.6041
# 2 27.2419 127.9943 54.6141 -34.6481 1.0029 -20.3942
# 3 12.5723 54.6141 128.9149 -24.5611 1.0889 -7.0259
# 4 0.1774 -34.6481 -24.5611 50.1631 0.3799 10.6413
# 5 -6.2107 1.0029 1.0889 0.3799 16.5262 -4.2227
# 6 -14.6041 -20.3942 -7.0259 10.6413 -4.2227 34.6023
#
#
#
# Elastic Compliance Matrix: (Units=1/GPa)
#
#
# Indices 1 2 3 4 5 6 
#
# 1 0.017476 -0.003472 -0.000752 -0.004519 0.008887 0.007651
# 2 -0.003472 0.012172 -0.003485 0.006089 -0.001192 0.002983
# 3 -0.000752 -0.003485 0.009750 0.002664 -0.001119 -0.001348
# 4 -0.004519 0.006089 0.002664 0.026897 -0.004549 -0.006604
# 5 0.008887 -0.001192 -0.001119 -0.004549 0.067276 0.012430
# 6 0.007651 0.002983 -0.001348 -0.006604 0.012430 0.037161
#
#
# Mechanical properties :
#
#
# Convention : Reuss Voigt Hill
#
# Bulk Modulus (GPa) = 41.70362 57.61539 49.65950
# Shear Modulus (GPa) = 25.75394 35.94191 30.84792
#
# Velocity S-wave (km/s) = 3.28868 3.88508 3.59925
# Velocity P-wave (km/s) = 5.65102 6.65738 6.17474
#
# Compressibility (1/GPa) = 0.02397874
#
# Stress axis : x y z
#
# Youngs Moduli (GPa) = 57.22131 82.15573 102.55969
#
# Poissons Ratio (x) = 0.28528 0.07716
# Poissons Ratio (y) = 0.19869 0.35744
# Poissons Ratio (z) = 0.04305 0.28633
#
# Static dielectric constant tensor:
#      x y z
#    x 1.941980 0.016020 0.018560 
#    y 0.016020 1.983270 -0.002680 
#    z 0.018560 -0.002680 1.954880 
# 
# From -- ./inp_files/556041.got.cif
#   From: 2010.05.17/outbox.cif.g08.bks.cpg/sg2_279_cif.got.tgz:556041.got - 2010.06.03 11:33:40.
