data_PCOD9026741
_publ_section_title
;
Structure prediction by ZEFSAII (Michael W. Deem and Ramdas Pophale) SiO2 
 PCOD9026741
Probable space group: P -1
;
_chemical_formula_sum "Si O2"
_cell_formula_units_Z 16
_cell_length_a 14.823659
_cell_length_b 14.474833
_cell_length_c 14.333840
_cell_angle_alpha 144.787177
_cell_angle_beta 149.525304
_cell_angle_gamma 31.623343
_cell_volume 776.867730
_symmetry_space_group_name_H-M "P -1"
_symmetry_group_IT_number 2
_symmetry_cell_setting 'triclinic'
loop_
_space_group_symop_operation_xyz
x,y,z
-x,-y,-z
loop_
_atom_site_type_symbol
_atom_site_label
_atom_site_fract_x
_atom_site_fract_y
_atom_site_fract_z
Si Si1 0.123178 0.910235 0.942545
Si Si2 0.029655 0.357180 0.490312
Si Si3 0.781123 0.852011 0.894997
Si Si4 0.017662 0.449003 0.864830
Si Si5 0.649441 0.635715 0.479872
Si Si6 0.509160 0.860019 0.971828
Si Si7 0.534086 0.812385 0.325669
Si Si8 0.626215 0.421395 0.450798
O O1 0.055925 0.773487 0.727470
O O2 0.356897 0.818892 0.109641
O O3 0.086485 0.068568 0.967699
O O4 0.000000 0.000000 0.000000
O O5 0.273919 0.247306 0.621786
O O6 0.000000 0.500000 0.500000
O O7 0.888613 0.474174 0.546477
O O8 0.655612 0.811456 0.671110
O O9 0.926630 0.651058 0.903441
O O10 0.620125 0.007106 0.948998
O O11 0.252572 0.295188 0.923836
O O12 0.856907 0.378749 0.642210
O O13 0.000000 0.500000 0.000000
O O14 0.566092 0.681471 0.337239
O O15 0.554266 0.564687 0.416254
O O16 0.398667 0.749323 0.744896
O O17 0.500000 0.000000 0.000000
O O18 0.500000 0.000000 0.500000
O O19 0.500000 0.500000 0.500000
#
# Coordination Sequence:
#
# PCOD9026741 Si02
#       8
#     2   2   2   2   2   2   2   2
#     4  12  23  40  66  99 135 178 221 276 331 397
#     4  10  22  41  65  94 136 173 224 280 330 394
#     4  11  24  43  69 100 139 174 228 278 329 405
#     4  11  23  47  69  98 135 176 217 280 342 391
#     4  10  22  43  65  96 135 176 220 279 331 395
#     4  12  24  45  72 100 135 177 226 279 332 404
#     4  11  21  42  67  95 132 172 222 273 332 388
#     4  11  23  43  70  98 138 174 222 278 338 400
#
# _framework density 20.595526
#
# number of rings (size 3 to 8) (size 9 to 14) (size 15 to 20)
#    0.000    1.000    5.000    2.250    0.000    5.500 
#    0.000    0.000    0.000    0.000    0.000    0.000 
#    0.000    0.000    0.000    0.000    0.000    0.000 
#
# Total GULP energy -89312.801632 kJ/mol
# GULP energy per Si atom -5582.050102 kJ/mol
# Density = 2.054865 g / cm^3
# Si number density = 20.595526 Si / 1000 Ang^3
#
#
#
# Elastic Constant Matrix: (Units=GPa)
#
#
# Indices 1 2 3 4 5 6 
#
# 1 144.3062 56.3501 46.4640 15.4206 7.3414 -8.9095
# 2 56.3501 119.2192 56.2398 -2.4027 10.1574 -13.7293
# 3 46.4640 56.2398 162.3568 11.0668 21.0653 -4.9071
# 4 15.4206 -2.4027 11.0668 41.3929 -0.8005 -2.5178
# 5 7.3414 10.1574 21.0653 -0.8005 37.8243 9.5409
# 6 -8.9095 -13.7293 -4.9071 -2.5178 9.5409 51.1158
#
#
#
# Elastic Compliance Matrix: (Units=1/GPa)
#
#
# Indices 1 2 3 4 5 6 
#
# 1 0.009154 -0.003850 -0.001001 -0.003350 -0.000348 0.000365
# 2 -0.003850 0.012143 -0.003046 0.003091 -0.001437 0.002718
# 3 -0.001001 -0.003046 0.008123 -0.002024 -0.003647 0.000368
# 4 -0.003350 0.003091 -0.002024 0.026219 0.001221 0.001116
# 5 -0.000348 -0.001437 -0.003647 0.001221 0.030574 -0.006443
# 6 0.000365 0.002718 0.000368 0.001116 -0.006443 0.021650
#
#
# Mechanical properties :
#
#
# Convention : Reuss Voigt Hill
#
# Bulk Modulus (GPa) = 73.39961 82.66557 78.03259
# Shear Modulus (GPa) = 39.00155 43.85516 41.42836
#
# Velocity S-wave (km/s) = 4.35638 4.61950 4.48987
# Velocity P-wave (km/s) = 7.81153 8.28721 8.05288
#
# Compressibility (1/GPa) = 0.01362405
#
# Stress axis : x y z
#
# Youngs Moduli (GPa) = 109.24363 82.35506 123.10046
#
# Poissons Ratio (x) = 0.31707 0.12328
# Poissons Ratio (y) = 0.42059 0.37501
# Poissons Ratio (z) = 0.10940 0.25089
#
# Static dielectric constant tensor:
#      x y z
#    x 1.754020 0.010160 -0.010060 
#    y 0.010160 1.809710 -0.040970 
#    z -0.010060 -0.040970 1.723540 
# 
# From -- ./inp_files/493455.got.cif
#   From: 2010.05.17/outbox.cif.g08.bks.cpg/sg2_247_cif.got.tgz:493455.got - 2010.06.03 11:33:40.
