data_PCOD9026686
_publ_section_title
;
Structure prediction by ZEFSAII (Michael W. Deem and Ramdas Pophale) SiO2 
 PCOD9026686
Probable space group: P -1
;
_chemical_formula_sum "Si O2"
_cell_formula_units_Z 16
_cell_length_a 17.110310
_cell_length_b 10.666887
_cell_length_c 11.925608
_cell_angle_alpha 141.226316
_cell_angle_beta 37.229531
_cell_angle_gamma 116.266027
_cell_volume 727.754885
_symmetry_space_group_name_H-M "P -1"
_symmetry_group_IT_number 2
_symmetry_cell_setting 'triclinic'
loop_
_space_group_symop_operation_xyz
x,y,z
-x,-y,-z
loop_
_atom_site_type_symbol
_atom_site_label
_atom_site_fract_x
_atom_site_fract_y
_atom_site_fract_z
Si Si1 0.639624 0.763707 0.660165
Si Si2 0.984282 0.266222 0.852878
Si Si3 0.157568 0.845021 0.846344
Si Si4 0.051099 0.610799 0.361120
Si Si5 0.195505 0.056533 0.276788
Si Si6 0.735889 0.575484 0.199880
Si Si7 0.902218 0.331494 0.422039
Si Si8 0.591792 0.320874 0.394825
O O1 0.747357 0.758991 0.631584
O O2 0.700461 0.763867 0.466252
O O3 0.606347 0.552128 0.546129
O O4 0.500000 0.000000 0.000000
O O5 0.121101 0.066950 0.491157
O O6 0.000000 0.500000 0.000000
O O7 0.933311 0.216339 0.996803
O O8 0.845227 0.344632 0.981504
O O9 0.304664 0.818115 0.717418
O O10 0.188329 0.696567 0.595352
O O11 0.053146 0.097790 0.099954
O O12 0.943842 0.523479 0.472760
O O13 0.938716 0.838714 0.584228
O O14 0.147422 0.631877 0.366469
O O15 0.162263 0.431130 0.021679
O O16 0.331577 0.842581 0.914553
O O17 0.579533 0.607365 0.359962
#
# Coordination Sequence:
#
# PCOD9026686 Si02
#       8
#     2   2   2   2   2   2   2   2
#     4  12  24  39  61  98 140 173 201 257 338 411
#     4  11  21  38  66 103 133 165 214 268 327 392
#     4  11  22  39  65  94 129 172 213 273 319 378
#     4  10  22  43  67  94 124 168 221 274 319 382
#     4  11  23  39  69  98 130 173 212 269 334 380
#     4  11  23  39  66  97 134 166 209 268 329 394
#     4  10  22  41  65  92 126 169 224 269 320 370
#     4  12  24  43  63  99 137 171 215 260 333 407
#
# _framework density 21.985424999999999
#
# number of rings (size 3 to 8) (size 9 to 14) (size 15 to 20)
#    0.000    1.000    5.000    2.625    0.000    1.500 
#    0.000    1.250    0.000    0.000    0.000    0.000 
#    0.000    0.000    0.000    0.000    0.000    0.000 
#
# Total GULP energy -89173.027390 kJ/mol
# GULP energy per Si atom -5573.314212 kJ/mol
# Density = 2.193538 g / cm^3
# Si number density = 21.985425 Si / 1000 Ang^3
#
#
#
# Elastic Constant Matrix: (Units=GPa)
#
#
# Indices 1 2 3 4 5 6 
#
# 1 144.8229 13.9359 17.4518 -8.3589 7.0519 -5.8328
# 2 13.9359 34.5197 -1.5785 5.0587 -1.2209 -6.4808
# 3 17.4518 -1.5785 113.7900 -12.0508 9.6390 -3.9580
# 4 -8.3589 5.0587 -12.0508 26.8887 -0.8322 7.1810
# 5 7.0519 -1.2209 9.6390 -0.8322 45.5602 -2.6863
# 6 -5.8328 -6.4808 -3.9580 7.1810 -2.6863 35.4031
#
#
#
# Elastic Compliance Matrix: (Units=1/GPa)
#
#
# Indices 1 2 3 4 5 6 
#
# 1 0.007544 -0.003527 -0.000843 0.002628 -0.001042 -0.000109
# 2 -0.003527 0.033224 0.000142 -0.009239 0.001681 0.007518
# 3 -0.000843 0.000142 0.009486 0.003901 -0.001800 0.000020
# 4 0.002628 -0.009239 0.003901 0.044088 -0.001256 -0.009860
# 5 -0.001042 0.001681 -0.001800 -0.001256 0.022626 0.001906
# 6 -0.000109 0.007518 0.000020 -0.009860 0.001906 0.031751
#
#
# Mechanical properties :
#
#
# Convention : Reuss Voigt Hill
#
# Bulk Modulus (GPa) = 23.92380 39.19456 31.55918
# Shear Modulus (GPa) = 29.22156 39.12529 34.17342
#
# Velocity S-wave (km/s) = 3.64968 4.22311 3.94682
# Velocity P-wave (km/s) = 5.35402 6.45335 5.92922
#
# Compressibility (1/GPa) = 0.04179938
#
# Stress axis : x y z
#
# Youngs Moduli (GPa) = 132.55643 30.09863 105.42136
#
# Poissons Ratio (x) = 0.10614 0.08889
# Poissons Ratio (y) = 0.46746 -0.01502
# Poissons Ratio (z) = 0.11177 -0.00429
#
# Static dielectric constant tensor:
#      x y z
#    x 1.925210 0.021430 0.036330 
#    y 0.021430 1.870510 0.004920 
#    z 0.036330 0.004920 1.855180 
# 
# From -- ./inp_files/463298.got.cif
#   From: 2010.05.17/outbox.cif.g08.bks.cpg/sg2_232_cif.got.tgz:463298.got - 2010.06.03 11:33:40.
