data_PCOD9026600
_publ_section_title
;
Structure prediction by ZEFSAII (Michael W. Deem and Ramdas Pophale) SiO2 
 PCOD9026600
Probable space group: P -1
;
_chemical_formula_sum "Si O2"
_cell_formula_units_Z 16
_cell_length_a 17.608451
_cell_length_b 8.724214
_cell_length_c 7.052808
_cell_angle_alpha 105.897152
_cell_angle_beta 127.869573
_cell_angle_gamma 59.044082
_cell_volume 732.060653
_symmetry_space_group_name_H-M "P -1"
_symmetry_group_IT_number 2
_symmetry_cell_setting 'triclinic'
loop_
_space_group_symop_operation_xyz
x,y,z
-x,-y,-z
loop_
_atom_site_type_symbol
_atom_site_label
_atom_site_fract_x
_atom_site_fract_y
_atom_site_fract_z
Si Si1 0.669716 0.359094 0.267974
Si Si2 0.892946 0.004187 0.427873
Si Si3 0.119756 0.464344 0.490005
Si Si4 0.231783 0.204960 0.907770
Si Si5 0.525561 0.977079 0.751589
Si Si6 0.534207 0.706865 0.972013
Si Si7 0.788249 0.479130 0.740790
Si Si8 0.971999 0.284716 0.214772
O O1 0.785550 0.192073 0.343844
O O2 0.574943 0.305397 0.146642
O O3 0.686074 0.451586 0.515490
O O4 0.629397 0.507976 0.089031
O O5 0.000000 0.000000 0.500000
O O6 0.935066 0.911825 0.666558
O O7 0.852302 0.874334 0.213636
O O8 0.165600 0.500643 0.382912
O O9 0.077501 0.629505 0.627201
O O10 0.024915 0.411915 0.274908
O O11 0.202480 0.300675 0.690495
O O12 0.352900 0.051846 0.043048
O O13 0.229935 0.350584 0.103382
O O14 0.524084 0.803379 0.787532
O O15 0.500000 0.000000 0.500000
O O16 0.450998 0.155900 0.813826
O O17 0.877845 0.311745 0.936573
#
# Coordination Sequence:
#
# PCOD9026600 Si02
#       8
#     2   2   2   2   2   2   2   2
#     4  11  23  44  68 101 139 181 221 279 357 396
#     4  11  23  42  64  94 143 185 215 275 344 400
#     4   9  18  36  62  87 131 176 218 274 324 382
#     4  10  22  41  64  99 131 174 233 271 329 414
#     4  11  22  44  74 103 126 174 235 286 336 406
#     4  10  24  46  72  96 138 177 222 290 344 402
#     4  11  21  37  65  96 130 173 223 274 329 400
#     4   9  20  36  57  91 127 173 232 265 317 395
#
# _framework density 21.856113000000001
#
# number of rings (size 3 to 8) (size 9 to 14) (size 15 to 20)
#    0.000    1.750    1.250    3.375    0.000    3.500 
#    2.250    6.875    0.000    0.000    0.000    0.000 
#    0.000    0.000    0.000    0.000    0.000    0.000 
#
# Total GULP energy -89369.552867 kJ/mol
# GULP energy per Si atom -5585.597054 kJ/mol
# Density = 2.180637 g / cm^3
# Si number density = 21.856113 Si / 1000 Ang^3
#
#
#
# Elastic Constant Matrix: (Units=GPa)
#
#
# Indices 1 2 3 4 5 6 
#
# 1 85.3037 44.9146 18.1396 -10.6646 5.7981 11.1183
# 2 44.9146 130.9026 62.2777 -22.2904 6.8537 2.6581
# 3 18.1396 62.2777 67.7625 -16.2908 -0.6434 9.8923
# 4 -10.6646 -22.2904 -16.2908 37.9770 1.6275 6.0939
# 5 5.7981 6.8537 -0.6434 1.6275 31.0908 -3.3880
# 6 11.1183 2.6581 9.8923 6.0939 -3.3880 35.0654
#
#
#
# Elastic Compliance Matrix: (Units=1/GPa)
#
#
# Indices 1 2 3 4 5 6 
#
# 1 0.015593 -0.005952 0.002942 0.003230 -0.002370 -0.006113
# 2 -0.005952 0.016616 -0.013914 0.001571 -0.002483 0.004040
# 3 0.002942 -0.013914 0.029779 0.006850 0.001763 -0.009299
# 4 0.003230 0.001571 0.006850 0.032710 -0.003511 -0.009100
# 5 -0.002370 -0.002483 0.001763 -0.003511 0.033844 0.004323
# 6 -0.006113 0.004040 -0.009299 -0.009100 0.004323 0.034773
#
#
# Mechanical properties :
#
#
# Convention : Reuss Voigt Hill
#
# Bulk Modulus (GPa) = 35.53503 59.40363 47.46933
# Shear Modulus (GPa) = 24.20819 31.40244 27.80531
#
# Velocity S-wave (km/s) = 3.33170 3.79460 3.57066
# Velocity P-wave (km/s) = 5.57622 6.81448 6.22621
#
# Compressibility (1/GPa) = 0.02814125
#
# Stress axis : x y z
#
# Youngs Moduli (GPa) = 64.13331 60.18119 33.58118
#
# Poissons Ratio (x) = 0.35817 -0.09881
# Poissons Ratio (y) = 0.38170 0.46724
# Poissons Ratio (z) = -0.18870 0.83735
#
# Static dielectric constant tensor:
#      x y z
#    x 1.821620 -0.002040 0.030240 
#    y -0.002040 1.892160 -0.007920 
#    z 0.030240 -0.007920 1.779340 
# 
# From -- ./inp_files/107274.got.cif
#   From: 2010.05.17/outbox.cif.g08.bks.cpg/sg2_54_cif.got.tgz:107274.got - 2010.06.03 11:33:40.
