data_PCOD9026870
_publ_section_title
;
Structure prediction by ZEFSAII (Michael W. Deem and Ramdas Pophale) SiO2 
 PCOD9026870
Probable space group: P -1
;
_chemical_formula_sum "Si O2"
_cell_formula_units_Z 16
_cell_length_a 10.722087
_cell_length_b 11.477280
_cell_length_c 8.102797
_cell_angle_alpha 83.860403
_cell_angle_beta 60.471679
_cell_angle_gamma 59.413088
_cell_volume 732.996409
_symmetry_space_group_name_H-M "P -1"
_symmetry_group_IT_number 2
_symmetry_cell_setting 'triclinic'
loop_
_space_group_symop_operation_xyz
x,y,z
-x,-y,-z
loop_
_atom_site_type_symbol
_atom_site_label
_atom_site_fract_x
_atom_site_fract_y
_atom_site_fract_z
Si Si1 0.910641 0.646162 0.127642
Si Si2 0.739199 0.299656 0.319568
Si Si3 0.105306 0.131360 0.144453
Si Si4 0.890221 0.442831 0.654511
Si Si5 0.537253 0.620399 0.991264
Si Si6 0.994346 0.146886 0.512181
Si Si7 0.183630 0.846189 0.057499
Si Si8 0.611559 0.617151 0.327147
O O1 0.729457 0.672954 0.294770
O O2 0.029767 0.619129 0.208884
O O3 0.889530 0.758673 0.990785
O O4 0.000000 0.500000 0.000000
O O5 0.698551 0.454558 0.335477
O O6 0.573283 0.304670 0.484900
O O7 0.908147 0.195942 0.326268
O O8 0.789108 0.238752 0.113173
O O9 0.165424 0.111003 0.298288
O O10 0.156390 0.996287 0.029299
O O11 0.699841 0.572437 0.779681
O O12 0.897121 0.319830 0.566231
O O13 0.000000 0.500000 0.500000
O O14 0.500000 0.500000 0.000000
O O15 0.361726 0.759015 0.049301
O O16 0.588265 0.624415 0.144502
O O17 0.966310 0.136485 0.733444
O O18 0.000000 0.000000 0.500000
#
# Coordination Sequence:
#
# PCOD9026870 Si02
#       8
#     2   2   2   2   2   2   2   2
#     4  12  23  45  67  97 140 177 225 276 348 410
#     4  11  22  38  66  98 130 173 228 278 333 395
#     4  11  23  41  69  94 134 179 226 275 342 409
#     4  12  26  40  72 105 136 178 227 286 344 409
#     4  12  22  41  67  95 139 168 230 284 338 399
#     4  10  22  41  66 100 134 175 225 280 338 406
#     4  11  23  41  66  98 132 175 226 284 333 397
#     4  11  24  39  67 101 131 175 222 281 336 403
#
# _framework density 21.828209999999999
#
# number of rings (size 3 to 8) (size 9 to 14) (size 15 to 20)
#    0.000    0.750    5.000    2.625    1.750    1.000 
#    0.000    1.250    5.500    0.000    0.000    0.000 
#    0.000    0.000    0.000    0.000    0.000    0.000 
#
# Total GULP energy -89111.457539 kJ/mol
# GULP energy per Si atom -5569.466096 kJ/mol
# Density = 2.177853 g / cm^3
# Si number density = 21.828210 Si / 1000 Ang^3
#
#
#
# Elastic Constant Matrix: (Units=GPa)
#
#
# Indices 1 2 3 4 5 6 
#
# 1 55.3698 11.5127 7.4347 6.3164 4.8324 -6.3800
# 2 11.5127 117.5555 22.3500 -20.5360 2.9543 10.0932
# 3 7.4347 22.3500 108.6491 -7.0225 1.3223 17.3694
# 4 6.3164 -20.5360 -7.0225 35.4829 8.4757 0.9217
# 5 4.8324 2.9543 1.3223 8.4757 43.3872 3.7596
# 6 -6.3800 10.0932 17.3694 0.9217 3.7596 21.6328
#
#
#
# Elastic Compliance Matrix: (Units=1/GPa)
#
#
# Indices 1 2 3 4 5 6 
#
# 1 0.021278 -0.003515 -0.002836 -0.006243 -0.001757 0.010764
# 2 -0.003515 0.010730 -0.000583 0.007161 -0.001229 -0.005666
# 3 -0.002836 -0.000583 0.011239 0.002560 0.000359 -0.009760
# 4 -0.006243 0.007161 0.002560 0.035617 -0.006162 -0.007684
# 5 -0.001757 -0.001229 0.000359 -0.006162 0.024893 -0.004296
# 6 0.010764 -0.005666 -0.009760 -0.007684 -0.004296 0.060955
#
#
# Mechanical properties :
#
#
# Convention : Reuss Voigt Hill
#
# Bulk Modulus (GPa) = 34.03786 40.46322 37.25054
# Shear Modulus (GPa) = 26.54304 36.11904 31.33104
#
# Velocity S-wave (km/s) = 3.49090 4.07221 3.79271
# Velocity P-wave (km/s) = 5.64587 6.37870 6.02344
#
# Compressibility (1/GPa) = 0.02937905
#
# Stress axis : x y z
#
# Youngs Moduli (GPa) = 46.99706 93.19499 88.97355
#
# Poissons Ratio (x) = 0.32761 0.25231
# Poissons Ratio (y) = 0.16521 0.05187
# Poissons Ratio (z) = 0.13327 0.05433
#
# Static dielectric constant tensor:
#      x y z
#    x 1.810460 -0.060020 0.090300 
#    y -0.060020 1.836000 -0.061170 
#    z 0.090300 -0.061170 1.935890 
# 
# From -- ./inp_files/244713.got.cif
#   From: 2010.05.17/outbox.cif.g08.bks.cpg/sg2_123_cif.got.tgz:244713.got - 2010.06.03 11:33:40.
