data_PCOD9026782
_publ_section_title
;
Structure prediction by ZEFSAII (Michael W. Deem and Ramdas Pophale) SiO2 
 PCOD9026782
Probable space group: P -1
;
_chemical_formula_sum "Si O2"
_cell_formula_units_Z 15
_cell_length_a 7.750274
_cell_length_b 9.657708
_cell_length_c 21.268955
_cell_angle_alpha 141.640841
_cell_angle_beta 143.557006
_cell_angle_gamma 57.776412
_cell_volume 565.943461
_symmetry_space_group_name_H-M "P -1"
_symmetry_group_IT_number 2
_symmetry_cell_setting 'triclinic'
loop_
_space_group_symop_operation_xyz
x,y,z
-x,-y,-z
loop_
_atom_site_type_symbol
_atom_site_label
_atom_site_fract_x
_atom_site_fract_y
_atom_site_fract_z
Si Si1 0.777142 0.755009 0.404611
Si Si2 0.223576 0.523055 0.805349
Si Si3 0.721235 0.002914 0.648288
Si Si4 0.500000 0.000000 0.000000
Si Si5 0.524990 0.726809 0.817111
Si Si6 0.413593 0.497864 0.365048
Si Si7 0.477326 0.936856 0.690005
Si Si8 0.609021 0.831660 0.124834
O O1 0.657891 0.653707 0.264955
O O2 0.736819 0.508812 0.339818
O O3 0.121442 0.891884 0.553870
O O4 0.549727 0.888974 0.413410
O O5 0.871993 0.411358 0.669359
O O6 0.406574 0.604131 0.951302
O O7 0.242984 0.762947 0.859682
O O8 0.676001 0.734264 0.521401
O O9 0.685279 0.005637 0.714469
O O10 0.038343 0.150801 0.766538
O O11 0.302986 0.180914 0.036014
O O12 0.698011 0.664678 0.786901
O O13 0.403948 0.957098 0.854058
O O14 0.495305 0.317058 0.371580
O O15 0.514148 0.095161 0.820073
#
# Coordination Sequence:
#
# PCOD9026782 Si02
#       8
#     2   2   2   1   2   2   2   2
#     4  11  23  43  66  94 134 173 220 264 329 387
#     4  10  22  41  65  96 133 166 212 278 324 389
#     4  12  25  42  69  95 131 181 217 266 328 391
#     4   8  18  34  60  86 126 162 198 254 324 368
#     4   9  20  39  63  96 126 165 211 273 317 387
#     4  11  23  39  70 100 126 168 225 268 329 378
#     4  11  24  41  67  99 128 167 223 277 314 391
#     4  10  24  44  66  97 133 164 222 274 330 379
#
# _framework density 26.504413
#
# number of rings (size 3 to 8) (size 9 to 14) (size 15 to 20)
#    0.000    1.600    1.333    2.400    5.600    9.600 
#    2.400    0.667    0.000    0.000    0.000    0.000 
#    0.000    0.000    0.000    0.000    0.000    0.000 
#
# Total GULP energy -83623.614063 kJ/mol
# GULP energy per Si atom -5574.907604 kJ/mol
# Density = 2.644409 g / cm^3
# Si number density = 26.504413 Si / 1000 Ang^3
#
#
#
# Elastic Constant Matrix: (Units=GPa)
#
#
# Indices 1 2 3 4 5 6 
#
# 1 88.2483 18.7268 26.4457 4.1216 -21.7585 -18.8173
# 2 18.7268 86.1609 31.8360 9.3591 -8.8075 -13.2276
# 3 26.4457 31.8360 94.6027 9.5046 -24.4884 -11.0787
# 4 4.1216 9.3591 9.5046 39.0577 -6.6848 -3.2147
# 5 -21.7585 -8.8075 -24.4884 -6.6848 37.7683 15.3981
# 6 -18.8173 -13.2276 -11.0787 -3.2147 15.3981 44.3596
#
#
#
# Elastic Compliance Matrix: (Units=1/GPa)
#
#
# Indices 1 2 3 4 5 6 
#
# 1 0.014179 -0.001429 -0.001733 0.000472 0.005451 0.003298
# 2 -0.001429 0.013990 -0.004229 -0.002255 -0.001932 0.003016
# 3 -0.001733 -0.004229 0.014434 -0.001102 0.007637 -0.001122
# 4 0.000472 -0.002255 -0.001102 0.027013 0.003867 -0.000132
# 5 0.005451 -0.001932 0.007637 0.003867 0.038677 -0.009502
# 6 0.003298 0.003016 -0.001122 -0.000132 -0.009502 0.027850
#
#
# Mechanical properties :
#
#
# Convention : Reuss Voigt Hill
#
# Bulk Modulus (GPa) = 35.94336 47.00321 41.47329
# Shear Modulus (GPa) = 31.21122 37.03734 34.12428
#
# Velocity S-wave (km/s) = 3.43532 3.74224 3.59206
# Velocity P-wave (km/s) = 5.41534 6.03698 5.73459
#
# Compressibility (1/GPa) = 0.02782155
#
# Stress axis : x y z
#
# Youngs Moduli (GPa) = 70.52451 71.48051 69.28022
#
# Poissons Ratio (x) = 0.10217 0.12007
# Poissons Ratio (y) = 0.10080 0.29296
# Poissons Ratio (z) = 0.12222 0.30226
#
# Static dielectric constant tensor:
#      x y z
#    x 2.211600 0.033770 0.223730 
#    y 0.033770 2.026660 0.089810 
#    z 0.223730 0.089810 1.745280 
# 
# From -- ./inp_files/617009.got.cif
#   From: 2010.05.17/outbox.cif.g08.bks.cpg/sg2_309_cif.got.tgz:617009.got - 2010.06.03 11:33:40.
