data_PCOD9026077
_publ_section_title
;
Structure prediction by ZEFSAII (Michael W. Deem and Ramdas Pophale) SiO2 
 PCOD9026077
Probable space group: P -1
;
_chemical_formula_sum "Si O2"
_cell_formula_units_Z 16
_cell_length_a 21.544765
_cell_length_b 12.522478
_cell_length_c 11.848511
_cell_angle_alpha 122.120441
_cell_angle_beta 154.886584
_cell_angle_gamma 39.449085
_cell_volume 675.597146
_symmetry_space_group_name_H-M "P -1"
_symmetry_group_IT_number 2
_symmetry_cell_setting 'triclinic'
loop_
_space_group_symop_operation_xyz
x,y,z
-x,-y,-z
loop_
_atom_site_type_symbol
_atom_site_label
_atom_site_fract_x
_atom_site_fract_y
_atom_site_fract_z
Si Si1 0.091818 0.310056 0.427267
Si Si2 0.813770 0.009405 0.203081
Si Si3 0.312474 0.000579 0.434730
Si Si4 0.937852 0.369425 0.451968
Si Si5 0.457975 0.177412 0.514452
Si Si6 0.439426 0.626845 0.862138
Si Si7 0.555040 0.600110 0.609581
Si Si8 0.821130 0.400191 0.711018
O O1 0.091526 0.258918 0.525997
O O2 0.302583 0.097252 0.578990
O O3 0.107292 0.449076 0.512422
O O4 0.816797 0.462587 0.016108
O O5 0.928229 0.799100 0.320090
O O6 0.627927 0.190229 0.095375
O O7 0.000000 0.000000 0.500000
O O8 0.678040 0.083459 0.901803
O O9 0.536646 0.832766 0.620134
O O10 0.325040 0.847765 0.408872
O O11 0.079824 0.203244 0.089509
O O12 0.669750 0.487008 0.078487
O O13 0.225805 0.425333 0.314601
O O14 0.500000 0.000000 0.500000
O O15 0.225154 0.690842 0.490226
O O16 0.500000 0.500000 0.000000
O O17 0.500000 0.500000 0.500000
O O18 0.597262 0.557111 0.520932
#
# Coordination Sequence:
#
# PCOD9026077 Si02
#       8
#     2   2   2   2   2   2   2   2
#     4  10  25  46  67 100 139 183 232 286 349 418
#     4  12  25  43  71 104 141 184 236 290 355 417
#     4  10  24  42  69  94 135 179 224 279 356 411
#     4  11  26  44  68 100 140 181 235 289 343 423
#     4  11  25  40  66 101 137 176 228 291 345 413
#     4  12  23  41  68  98 136 182 228 283 350 409
#     4  10  22  41  68  96 134 171 229 289 335 409
#     4  10  22  41  61  98 132 169 223 278 341 416
#
# _framework density 23.682753999999999
#
# number of rings (size 3 to 8) (size 9 to 14) (size 15 to 20)
#    0.000    1.250    2.500    1.500    7.000    7.500 
#    0.000    2.500    0.000    0.000    0.000    0.000 
#    0.000    0.000    0.000    0.000    0.000    0.000 
#
# Total GULP energy -89155.811269 kJ/mol
# GULP energy per Si atom -5572.238204 kJ/mol
# Density = 2.362885 g / cm^3
# Si number density = 23.682754 Si / 1000 Ang^3
#
#
#
# Elastic Constant Matrix: (Units=GPa)
#
#
# Indices 1 2 3 4 5 6 
#
# 1 82.4297 20.8276 9.0410 12.7948 -1.1526 4.4751
# 2 20.8276 120.0442 8.8101 3.2079 2.6025 5.6889
# 3 9.0410 8.8101 64.6605 12.6668 3.8113 14.5982
# 4 12.7948 3.2079 12.6668 37.5468 7.1932 -5.2552
# 5 -1.1526 2.6025 3.8113 7.1932 20.8216 2.0683
# 6 4.4751 5.6889 14.5982 -5.2552 2.0683 46.0755
#
#
#
# Elastic Compliance Matrix: (Units=1/GPa)
#
#
# Indices 1 2 3 4 5 6 
#
# 1 0.013661 -0.002190 -0.000411 -0.005144 0.003046 -0.001649
# 2 -0.002190 0.008807 -0.000786 0.000409 -0.001167 -0.000527
# 3 -0.000411 -0.000786 0.018456 -0.006872 -0.000285 -0.006481
# 4 -0.005144 0.000409 -0.006872 0.033846 -0.011466 0.007001
# 5 0.003046 -0.001167 -0.000285 -0.011466 0.052726 -0.003736
# 6 -0.001649 -0.000527 -0.006481 0.007001 -0.003736 0.024949
#
#
# Mechanical properties :
#
#
# Convention : Reuss Voigt Hill
#
# Bulk Modulus (GPa) = 29.28358 38.27686 33.78022
# Shear Modulus (GPa) = 29.30774 36.11914 32.71344
#
# Velocity S-wave (km/s) = 3.52165 3.90952 3.72064
# Velocity P-wave (km/s) = 5.37846 6.04786 5.72295
#
# Compressibility (1/GPa) = 0.03414883
#
# Stress axis : x y z
#
# Youngs Moduli (GPa) = 73.20300 113.54192 54.18213
#
# Poissons Ratio (x) = 0.24870 0.02228
# Poissons Ratio (y) = 0.16034 0.04260
# Poissons Ratio (z) = 0.03010 0.08927
#
# Static dielectric constant tensor:
#      x y z
#    x 2.234940 0.282430 -0.069260 
#    y 0.282430 2.392260 -0.169390 
#    z -0.069260 -0.169390 1.970880 
# 
# From -- ./inp_files/471064.got.cif
#   From: 2010.05.17/outbox.cif.g08.bks.cpg/sg2_236_cif.got.tgz:471064.got - 2010.06.03 11:33:40.
