data_PCOD9026383
_publ_section_title
;
Structure prediction by ZEFSAII (Michael W. Deem and Ramdas Pophale) SiO2 
 PCOD9026383
Probable space group: P -1
;
_chemical_formula_sum "Si O2"
_cell_formula_units_Z 16
_cell_length_a 19.880651
_cell_length_b 10.495935
_cell_length_c 6.706790
_cell_angle_alpha 65.994174
_cell_angle_beta 97.912764
_cell_angle_gamma 146.708235
_cell_volume 642.026876
_symmetry_space_group_name_H-M "P -1"
_symmetry_group_IT_number 2
_symmetry_cell_setting 'triclinic'
loop_
_space_group_symop_operation_xyz
x,y,z
-x,-y,-z
loop_
_atom_site_type_symbol
_atom_site_label
_atom_site_fract_x
_atom_site_fract_y
_atom_site_fract_z
Si Si1 0.469110 0.855303 0.274233
Si Si2 0.372030 0.400519 0.642763
Si Si3 0.339743 0.106162 0.097563
Si Si4 0.185983 0.215945 0.998445
Si Si5 0.659866 0.159870 0.525534
Si Si6 0.093983 0.369804 0.889469
Si Si7 0.798512 0.958192 0.573152
Si Si8 0.926985 0.483755 0.841467
O O1 0.456385 0.664648 0.384521
O O2 0.342481 0.714887 0.404511
O O3 0.584480 0.074339 0.349302
O O4 0.500000 0.000000 0.000000
O O5 0.300196 0.371023 0.795661
O O6 0.268829 0.154148 0.598258
O O7 0.420286 0.353868 0.825631
O O8 0.409401 0.093830 0.230587
O O9 0.278356 0.085225 0.268868
O O10 0.211165 0.818182 0.109546
O O11 0.145844 0.304516 0.926384
O O12 0.216333 0.223624 0.230182
O O13 0.058189 0.900367 0.071680
O O14 0.805594 0.368764 0.379223
O O15 0.103050 0.440266 0.072528
O O16 0.955666 0.270582 0.421190
O O17 0.000000 0.500000 0.000000
#
# Coordination Sequence:
#
# PCOD9026383 Si02
#       8
#     2   2   2   2   2   2   2   2
#     4  11  28  49  75  95 132 180 238 297 345 400
#     4  11  23  46  68 102 136 182 228 280 347 407
#     4  11  25  41  71 100 143 181 230 281 335 418
#     4  10  22  41  64 105 141 179 220 281 344 413
#     4  11  26  47  70 102 135 180 230 291 342 402
#     4  11  22  40  69  99 145 178 225 278 340 420
#     4  11  22  39  66  98 146 185 214 277 338 411
#     4  12  21  38  65 103 145 189 220 264 344 416
#
# _framework density 24.921074999999998
#
# number of rings (size 3 to 8) (size 9 to 14) (size 15 to 20)
#    0.000    1.000    3.750    2.625    3.500    2.000 
#    0.000    1.250    0.000    0.000    0.000    0.000 
#    0.000    0.000    0.000    0.000    0.000    0.000 
#
# Total GULP energy -89506.328661 kJ/mol
# GULP energy per Si atom -5594.145541 kJ/mol
# Density = 2.486435 g / cm^3
# Si number density = 24.921075 Si / 1000 Ang^3
#
#
#
# Elastic Constant Matrix: (Units=GPa)
#
#
# Indices 1 2 3 4 5 6 
#
# 1 86.7035 13.4872 42.5267 3.6567 0.0005 -13.7678
# 2 13.4872 96.7252 34.6317 0.2468 -12.0497 -2.8958
# 3 42.5267 34.6317 169.0766 1.5076 39.8805 -7.4163
# 4 3.6567 0.2468 1.5076 34.0148 -3.8219 4.9858
# 5 0.0005 -12.0497 39.8805 -3.8219 39.4834 -1.9942
# 6 -13.7678 -2.8958 -7.4163 4.9858 -1.9942 29.0448
#
#
#
# Elastic Compliance Matrix: (Units=1/GPa)
#
#
# Indices 1 2 3 4 5 6 
#
# 1 0.014902 0.000451 -0.004735 -0.001786 0.005078 0.006555
# 2 0.000451 0.013215 -0.004962 0.001001 0.009179 0.000722
# 3 -0.004735 -0.004962 0.011163 -0.001324 -0.012946 -0.000550
# 4 -0.001786 0.001001 -0.001324 0.031026 0.004337 -0.006113
# 5 0.005078 0.009179 -0.012946 0.004337 0.041732 0.002138
# 6 0.006555 0.000722 -0.000550 -0.006113 0.002138 0.038664
#
#
# Mechanical properties :
#
#
# Convention : Reuss Voigt Hill
#
# Bulk Modulus (GPa) = 48.10703 59.31071 53.70887
# Shear Modulus (GPa) = 28.38914 37.96591 33.17752
#
# Velocity S-wave (km/s) = 3.37881 3.90737 3.65266
# Velocity P-wave (km/s) = 5.87941 6.64889 6.27596
#
# Compressibility (1/GPa) = 0.02078698
#
# Stress axis : x y z
#
# Youngs Moduli (GPa) = 67.10524 75.67154 89.58140
#
# Poissons Ratio (x) = -0.03411 0.42416
# Poissons Ratio (y) = -0.03025 0.44454
# Poissons Ratio (z) = 0.31773 0.37552
#
# Static dielectric constant tensor:
#      x y z
#    x 1.974860 0.008790 0.035840 
#    y 0.008790 1.991190 -0.073580 
#    z 0.035840 -0.073580 2.050820 
# 
# From -- ./inp_files/123598.got.cif
#   From: 2010.05.17/outbox.cif.g08.bks.cpg/sg2_62_cif.got.tgz:123598.got - 2010.06.03 11:33:40.
