data_PCOD9026619
_publ_section_title
;
Structure prediction by ZEFSAII (Michael W. Deem and Ramdas Pophale) SiO2 
 PCOD9026619
Probable space group: P -1
;
_chemical_formula_sum "Si O2"
_cell_formula_units_Z 16
_cell_length_a 8.655990
_cell_length_b 15.281230
_cell_length_c 15.564887
_cell_angle_alpha 142.093983
_cell_angle_beta 55.490507
_cell_angle_gamma 95.317508
_cell_volume 744.439701
_symmetry_space_group_name_H-M "P -1"
_symmetry_group_IT_number 2
_symmetry_cell_setting 'triclinic'
loop_
_space_group_symop_operation_xyz
x,y,z
-x,-y,-z
loop_
_atom_site_type_symbol
_atom_site_label
_atom_site_fract_x
_atom_site_fract_y
_atom_site_fract_z
Si Si1 0.222855 0.263610 0.517617
Si Si2 0.737290 0.590129 0.203497
Si Si3 0.213636 0.764348 0.061241
Si Si4 0.282783 0.778242 0.855446
Si Si5 0.618661 0.083046 0.558336
Si Si6 0.887586 0.425087 0.331629
Si Si7 0.335338 0.055097 0.005780
Si Si8 0.223594 0.965470 0.350974
O O1 0.293054 0.300476 0.615412
O O2 0.080691 0.459699 0.655925
O O3 0.099877 0.176131 0.514767
O O4 0.465311 0.080580 0.240815
O O5 0.519748 0.723037 0.302184
O O6 0.721926 0.435137 0.115076
O O7 0.000000 0.500000 0.000000
O O8 0.353264 0.795303 0.107881
O O9 0.242995 0.808118 0.991983
O O10 0.917384 0.925828 0.313480
O O11 0.595200 0.600233 0.599281
O O12 0.137626 0.714260 0.817062
O O13 0.191979 0.978700 0.003508
O O14 0.500000 0.000000 0.500000
O O15 0.576299 0.107620 0.692319
O O16 0.118355 0.284644 0.220556
O O17 0.500000 0.000000 0.000000
O O18 0.000000 0.000000 0.500000
#
# Coordination Sequence:
#
# PCOD9026619 Si02
#       8
#     2   2   2   2   2   2   2   2
#     4  11  23  41  69  96 128 178 231 264 336 401
#     4  12  23  39  64  97 129 171 225 268 319 395
#     4  11  23  41  66  96 133 169 221 275 335 394
#     4  10  22  41  65 101 129 173 224 274 332 397
#     4  11  22  40  66  94 130 179 219 275 324 389
#     4  10  23  43  69  95 133 171 225 280 325 404
#     4  11  25  44  67  99 137 175 217 280 346 402
#     4  10  22  43  63  95 137 169 217 275 329 389
#
# _framework density 21.492674999999998
#
# number of rings (size 3 to 8) (size 9 to 14) (size 15 to 20)
#    0.000    1.250    3.750    1.875    1.750    4.500 
#    0.000    6.250    0.000    0.000    0.000    0.000 
#    0.000    0.000    0.000    0.000    0.000    0.000 
#
# Total GULP energy -89252.717587 kJ/mol
# GULP energy per Si atom -5578.294849 kJ/mol
# Density = 2.144376 g / cm^3
# Si number density = 21.492675 Si / 1000 Ang^3
#
#
#
# Elastic Constant Matrix: (Units=GPa)
#
#
# Indices 1 2 3 4 5 6 
#
# 1 82.7586 36.4410 21.5682 -9.2516 23.0786 -9.4118
# 2 36.4410 153.7639 25.2535 8.7452 8.7551 11.5569
# 3 21.5682 25.2535 43.8774 -2.5084 18.9449 -10.7241
# 4 -9.2516 8.7452 -2.5084 39.6013 -14.1718 13.0008
# 5 23.0786 8.7551 18.9449 -14.1718 31.8755 3.3589
# 6 -9.4118 11.5569 -10.7241 13.0008 3.3589 42.5075
#
#
#
# Elastic Compliance Matrix: (Units=1/GPa)
#
#
# Indices 1 2 3 4 5 6 
#
# 1 0.018230 -0.004146 0.001541 -0.002516 -0.014885 0.007498
# 2 -0.004146 0.008644 -0.006500 0.000364 0.005225 -0.005432
# 3 0.001541 -0.006500 0.044975 -0.014556 -0.034708 0.020649
# 4 -0.002516 0.000364 -0.014556 0.040939 0.030605 -0.019268
# 5 -0.014885 0.005225 -0.034708 0.030605 0.078004 -0.028997
# 6 0.007498 -0.005432 0.020649 -0.019268 -0.028997 0.040056
#
#
# Mechanical properties :
#
#
# Convention : Reuss Voigt Hill
#
# Bulk Modulus (GPa) = 18.64348 49.65838 34.15093
# Shear Modulus (GPa) = 18.73099 35.93934 27.33516
#
# Velocity S-wave (km/s) = 2.95533 4.09365 3.57015
# Velocity P-wave (km/s) = 4.50982 6.74529 5.73748
#
# Compressibility (1/GPa) = 0.05363805
#
# Stress axis : x y z
#
# Youngs Moduli (GPa) = 54.85533 115.69189 22.23474
#
# Poissons Ratio (x) = 0.47970 -0.03426
# Poissons Ratio (y) = 0.22745 0.14452
# Poissons Ratio (z) = -0.08453 0.75195
#
# Static dielectric constant tensor:
#      x y z
#    x 1.886510 0.112020 0.049490 
#    y 0.112020 1.641960 -0.044530 
#    z 0.049490 -0.044530 1.748320 
# 
# From -- ./inp_files/504366.got.cif
#   From: 2010.05.17/outbox.cif.g08.bks.cpg/sg2_253_cif.got.tgz:504366.got - 2010.06.03 11:33:40.
