data_PCOD9026194
_publ_section_title
;
Structure prediction by ZEFSAII (Michael W. Deem and Ramdas Pophale) SiO2 
 PCOD9026194
Probable space group: P -1
;
_chemical_formula_sum "Si O2"
_cell_formula_units_Z 16
_cell_length_a 17.321987
_cell_length_b 5.459297
_cell_length_c 8.184321
_cell_angle_alpha 115.947963
_cell_angle_beta 61.102324
_cell_angle_gamma 112.291102
_cell_volume 595.268045
_symmetry_space_group_name_H-M "P -1"
_symmetry_group_IT_number 2
_symmetry_cell_setting 'triclinic'
loop_
_space_group_symop_operation_xyz
x,y,z
-x,-y,-z
loop_
_atom_site_type_symbol
_atom_site_label
_atom_site_fract_x
_atom_site_fract_y
_atom_site_fract_z
Si Si1 0.812996 0.824278 0.934893
Si Si2 0.034813 0.785176 0.278848
Si Si3 0.645523 0.981873 0.819699
Si Si4 0.159072 0.684792 0.378197
Si Si5 0.676238 0.484014 0.455522
Si Si6 0.498440 0.200444 0.839200
Si Si7 0.131941 0.204509 0.758715
Si Si8 0.369332 0.173246 0.701185
O O1 0.819335 0.617802 0.715699
O O2 0.875117 0.105050 0.887202
O O3 0.857265 0.779162 0.052813
O O4 0.708532 0.791227 0.078962
O O5 0.072390 0.606538 0.324729
O O6 0.955218 0.715335 0.208969
O O7 0.000000 0.000000 0.500000
O O8 0.748218 0.149716 0.754407
O O9 0.584598 0.088225 0.774934
O O10 0.648603 0.663591 0.683641
O O11 0.588281 0.004858 0.046842
O O12 0.138779 0.890180 0.599980
O O13 0.782234 0.590763 0.346447
O O14 0.657917 0.155926 0.404843
O O15 0.634402 0.610392 0.376834
O O16 0.468217 0.224696 0.692387
O O17 0.500000 0.500000 0.000000
#
# Coordination Sequence:
#
# PCOD9026194 Si02
#       8
#     2   2   2   2   2   2   2   2
#     4  11  23  41  69  93 136 183 225 288 348 410
#     4  10  22  41  63 102 132 180 230 287 344 414
#     4  10  24  44  68  99 138 179 232 286 349 415
#     4  10  22  44  67  95 133 180 227 285 353 407
#     4  10  25  48  68 102 138 186 227 293 341 417
#     4  11  25  41  69 103 137 180 231 283 345 424
#     4   9  22  43  63 101 134 173 239 278 348 410
#     4  11  26  45  73  99 141 179 237 278 356 411
#
# _framework density 26.878648999999999
#
# number of rings (size 3 to 8) (size 9 to 14) (size 15 to 20)
#    0.000    1.750    0.000    1.875   12.250    3.500 
#   24.750    0.000    0.000    0.000    0.000    0.000 
#    0.000    0.000    0.000    0.000    0.000    0.000 
#
# Total GULP energy -89523.476823 kJ/mol
# GULP energy per Si atom -5595.217301 kJ/mol
# Density = 2.681747 g / cm^3
# Si number density = 26.878649 Si / 1000 Ang^3
#
#
#
# Elastic Constant Matrix: (Units=GPa)
#
#
# Indices 1 2 3 4 5 6 
#
# 1 177.3674 3.4954 25.3714 -3.8404 10.8755 -14.9675
# 2 3.4954 68.4063 31.2978 4.4983 9.8502 -4.6541
# 3 25.3714 31.2978 114.7172 7.1861 -10.9483 -9.2544
# 4 -3.8404 4.4983 7.1861 60.7697 1.8501 -2.7423
# 5 10.8755 9.8502 -10.9483 1.8501 27.0279 2.8757
# 6 -14.9675 -4.6541 -9.2544 -2.7423 2.8757 26.9045
#
#
#
# Elastic Compliance Matrix: (Units=1/GPa)
#
#
# Indices 1 2 3 4 5 6 
#
# 1 0.006497 0.001410 -0.001993 0.000844 -0.004390 0.003728
# 2 0.001410 0.019126 -0.006269 -0.000132 -0.010391 0.003034
# 3 -0.001993 -0.006269 0.011767 -0.001252 0.007844 0.000888
# 4 0.000844 -0.000132 -0.001252 0.016821 -0.002159 0.001961
# 5 -0.004390 -0.010391 0.007844 -0.002159 0.046595 -0.006742
# 6 0.003728 0.003034 0.000888 0.001961 -0.006742 0.040994
#
#
# Mechanical properties :
#
#
# Convention : Reuss Voigt Hill
#
# Bulk Modulus (GPa) = 42.21634 53.42444 47.82039
# Shear Modulus (GPa) = 30.60026 42.96216 36.78121
#
# Velocity S-wave (km/s) = 3.37777 4.00231 3.70323
# Velocity P-wave (km/s) = 5.56352 6.42474 6.00958
#
# Compressibility (1/GPa) = 0.02368751
#
# Stress axis : x y z
#
# Youngs Moduli (GPa) = 153.90918 52.28532 84.98538
#
# Poissons Ratio (x) = -0.07372 0.16935
# Poissons Ratio (y) = -0.21702 0.53273
# Poissons Ratio (z) = 0.30670 0.32775
#
# Static dielectric constant tensor:
#      x y z
#    x 2.127200 -0.012810 0.009620 
#    y -0.012810 2.122100 -0.017700 
#    z 0.009620 -0.017700 2.123290 
# 
# From -- ./inp_files/55485.got.cif
#   From: 2010.05.17/outbox.cif.g08.bks.cpg/sg2_28_cif.got.tgz:55485.got - 2010.06.03 11:33:40.
