data_PCOD9026555
_publ_section_title
;
Structure prediction by ZEFSAII (Michael W. Deem and Ramdas Pophale) SiO2 
 PCOD9026555
Probable space group: P -1
;
_chemical_formula_sum "Si O2"
_cell_formula_units_Z 16
_cell_length_a 13.943592
_cell_length_b 11.767509
_cell_length_c 9.233359
_cell_angle_alpha 148.631034
_cell_angle_beta 100.792898
_cell_angle_gamma 67.506879
_cell_volume 697.369960
_symmetry_space_group_name_H-M "P -1"
_symmetry_group_IT_number 2
_symmetry_cell_setting 'triclinic'
loop_
_space_group_symop_operation_xyz
x,y,z
-x,-y,-z
loop_
_atom_site_type_symbol
_atom_site_label
_atom_site_fract_x
_atom_site_fract_y
_atom_site_fract_z
Si Si1 0.131448 0.083635 0.878545
Si Si2 0.606976 0.844414 0.770247
Si Si3 0.934853 0.558377 0.266760
Si Si4 0.224805 0.979978 0.099809
Si Si5 0.365327 0.561149 0.880288
Si Si6 0.716499 0.700934 0.922601
Si Si7 0.448235 0.261167 0.844328
Si Si8 0.089764 0.703685 0.290590
O O1 0.238484 0.096824 0.859052
O O2 0.089291 0.956960 0.607491
O O3 0.162552 0.967456 0.921362
O O4 0.035965 0.356377 0.162797
O O5 0.665178 0.005107 0.903827
O O6 0.591202 0.683543 0.467328
O O7 0.690661 0.657117 0.704960
O O8 0.500000 0.000000 0.000000
O O9 0.847205 0.762867 0.563314
O O10 0.983744 0.692063 0.316392
O O11 0.892043 0.408384 0.986275
O O12 0.259728 0.764344 0.992578
O O13 0.362197 0.468058 0.940270
O O14 0.456240 0.660464 0.015643
O O15 0.611528 0.764792 0.058656
O O16 0.811153 0.477526 0.781466
O O17 0.500000 0.000000 0.500000
#
# Coordination Sequence:
#
# PCOD9026555 Si02
#       8
#     2   2   2   2   2   2   2   2
#     4  10  22  43  70  96 132 184 220 275 342 405
#     4  11  24  44  66  97 136 177 221 280 332 406
#     4  10  23  42  63 100 137 175 220 288 333 395
#     4  11  24  42  69 101 137 172 231 277 335 407
#     4  11  25  42  69  98 131 183 218 275 348 388
#     4  10  23  41  65  94 132 169 225 274 333 394
#     4  11  25  45  64  97 137 171 224 281 327 400
#     4  10  22  41  64  96 134 178 225 273 340 406
#
# _framework density 22.943342999999999
#
# number of rings (size 3 to 8) (size 9 to 14) (size 15 to 20)
#    0.000    1.500    0.000    3.750    3.500    7.500 
#    4.500    0.000    0.000    0.000    0.000    0.000 
#    0.000    0.000    0.000    0.000    0.000    0.000 
#
# Total GULP energy -89442.208106 kJ/mol
# GULP energy per Si atom -5590.138007 kJ/mol
# Density = 2.289112 g / cm^3
# Si number density = 22.943343 Si / 1000 Ang^3
#
#
#
# Elastic Constant Matrix: (Units=GPa)
#
#
# Indices 1 2 3 4 5 6 
#
# 1 66.2413 8.1032 15.1691 -8.8968 4.9369 3.9210
# 2 8.1032 152.2232 12.8477 2.2599 -1.8234 -6.6107
# 3 15.1691 12.8477 78.6108 -14.2106 17.8173 -2.4765
# 4 -8.8968 2.2599 -14.2106 30.5155 -5.0253 -2.1221
# 5 4.9369 -1.8234 17.8173 -5.0253 24.2295 -8.4057
# 6 3.9210 -6.6107 -2.4765 -2.1221 -8.4057 23.1950
#
#
#
# Elastic Compliance Matrix: (Units=1/GPa)
#
#
# Indices 1 2 3 4 5 6 
#
# 1 0.016536 -0.000968 -0.001955 0.003262 -0.002702 -0.003961
# 2 -0.000968 0.006930 -0.001639 -0.000909 0.002731 0.002870
# 3 -0.001955 -0.001639 0.016943 0.005349 -0.011809 -0.002118
# 4 0.003262 -0.000909 0.005349 0.037413 0.004801 0.004923
# 5 -0.002702 0.002731 -0.011809 0.004801 0.059307 0.021906
# 6 -0.003961 0.002870 -0.002118 0.004923 0.021906 0.052763
#
#
# Mechanical properties :
#
#
# Convention : Reuss Voigt Hill
#
# Bulk Modulus (GPa) = 31.96428 41.03502 36.49965
# Shear Modulus (GPa) = 23.87255 32.98500 28.42878
#
# Velocity S-wave (km/s) = 3.22918 3.79578 3.52388
# Velocity P-wave (km/s) = 5.27878 6.09383 5.70089
#
# Compressibility (1/GPa) = 0.03128492
#
# Stress axis : x y z
#
# Youngs Moduli (GPa) = 60.47242 144.30010 59.02166
#
# Poissons Ratio (x) = 0.13969 0.11542
# Poissons Ratio (y) = 0.05854 0.09672
# Poissons Ratio (z) = 0.11825 0.23647
#
# Static dielectric constant tensor:
#      x y z
#    x 1.856140 -0.023160 0.016760 
#    y -0.023160 1.921170 0.024100 
#    z 0.016760 0.024100 1.823960 
# 
# From -- ./inp_files/308954.got.cif
#   From: 2010.05.17/outbox.cif.g08.bks.cpg/sg2_155_cif.got.tgz:308954.got - 2010.06.03 11:33:40.
