data_PCOD9026209
_publ_section_title
;
Structure prediction by ZEFSAII (Michael W. Deem and Ramdas Pophale) SiO2 
 PCOD9026209
Probable space group: P -1
;
_chemical_formula_sum "Si O2"
_cell_formula_units_Z 14
_cell_length_a 16.048640
_cell_length_b 7.484102
_cell_length_c 19.545930
_cell_angle_alpha 117.928767
_cell_angle_beta 162.824862
_cell_angle_gamma 70.320102
_cell_volume 554.612552
_symmetry_space_group_name_H-M "P -1"
_symmetry_group_IT_number 2
_symmetry_cell_setting 'triclinic'
loop_
_space_group_symop_operation_xyz
x,y,z
-x,-y,-z
loop_
_atom_site_type_symbol
_atom_site_label
_atom_site_fract_x
_atom_site_fract_y
_atom_site_fract_z
Si Si1 0.176661 0.130716 0.798280
Si Si2 0.320488 0.650531 0.367006
Si Si3 0.644646 0.477737 0.767241
Si Si4 0.714050 0.289179 0.150503
Si Si5 0.515527 0.144019 0.813941
Si Si6 0.248702 0.070771 0.146500
Si Si7 0.381775 0.522141 0.701304
O O1 0.202541 0.896090 0.779223
O O2 0.416638 0.284766 0.956539
O O3 0.330710 0.248292 0.011642
O O4 0.818809 0.074188 0.492252
O O5 0.500000 0.500000 0.500000
O O6 0.415620 0.704527 0.371794
O O7 0.431045 0.847221 0.543604
O O8 0.953027 0.505363 0.054519
O O9 0.745086 0.716058 0.851219
O O10 0.382465 0.454185 0.610831
O O11 0.041913 0.507463 0.449240
O O12 0.621327 0.207684 0.985780
O O13 0.453170 0.341761 0.767103
O O14 0.757156 0.101127 0.946625
O O15 0.000000 0.000000 0.000000
#
# Coordination Sequence:
#
# PCOD9026209 Si02
#       7
#     2   2   2   2   2   2   2
#     4  10  22  45  66  95 133 169 211 268 329 388
#     4   9  21  39  62  86 116 164 213 258 317 374
#     4  10  22  41  63  87 124 170 206 268 322 375
#     4  10  23  42  69  97 129 169 214 265 327 395
#     4  11  25  40  63  98 130 169 220 268 321 388
#     4  11  25  40  61  91 128 169 217 265 319 380
#     4  11  24  39  67  96 131 167 218 264 326 391
#
# _framework density 25.242846
#
# number of rings (size 3 to 8) (size 9 to 14) (size 15 to 20)
#    0.000    1.714    0.000    2.571    8.000    5.714 
#    0.000    0.000    0.000    0.000    0.000    0.000 
#    0.000    0.000    0.000    0.000    0.000    0.000 
#
# Total GULP energy -78294.285555 kJ/mol
# GULP energy per Si atom -5592.448968 kJ/mol
# Density = 2.518539 g / cm^3
# Si number density = 25.242846 Si / 1000 Ang^3
#
#
#
# Elastic Constant Matrix: (Units=GPa)
#
#
# Indices 1 2 3 4 5 6 
#
# 1 149.2090 7.8399 21.0969 -4.3120 -1.1537 -3.1439
# 2 7.8399 55.5456 -2.7230 -4.9967 5.9813 6.3962
# 3 21.0969 -2.7230 97.9003 -5.4866 -0.6048 0.0885
# 4 -4.3120 -4.9967 -5.4866 20.9120 -7.2324 -5.7330
# 5 -1.1537 5.9813 -0.6048 -7.2324 39.6219 5.4332
# 6 -3.1439 6.3962 0.0885 -5.7330 5.4332 34.1571
#
#
#
# Elastic Compliance Matrix: (Units=1/GPa)
#
#
# Indices 1 2 3 4 5 6 
#
# 1 0.007029 -0.001116 -0.001476 0.001219 0.000437 0.000995
# 2 -0.001116 0.019022 0.000935 0.003114 -0.001932 -0.002837
# 3 -0.001476 0.000935 0.010726 0.002927 0.000504 0.000072
# 4 0.001219 0.003114 0.002927 0.054550 0.008564 0.007315
# 5 0.000437 -0.001932 0.000504 0.008564 0.027461 -0.002530
# 6 0.000995 -0.002837 0.000072 0.007315 -0.002530 0.031529
#
#
# Mechanical properties :
#
#
# Convention : Reuss Voigt Hill
#
# Bulk Modulus (GPa) = 29.88498 39.45360 34.66929
# Shear Modulus (GPa) = 30.34265 37.36762 33.85514
#
# Velocity S-wave (km/s) = 3.47079 3.85167 3.66618
# Velocity P-wave (km/s) = 5.28456 5.95349 5.62897
#
# Compressibility (1/GPa) = 0.03346163
#
# Stress axis : x y z
#
# Youngs Moduli (GPa) = 142.27022 52.57203 93.23531
#
# Poissons Ratio (x) = 0.05869 0.13758
# Poissons Ratio (y) = 0.15882 -0.08715
# Poissons Ratio (z) = 0.20993 -0.04914
#
# Static dielectric constant tensor:
#      x y z
#    x 2.014480 0.020350 0.017390 
#    y 0.020350 2.023210 0.060280 
#    z 0.017390 0.060280 2.052550 
# 
# From -- ./inp_files/39128.got.cif
#   From: 2010.05.17/outbox.cif.g08.bks.cpg/sg2_20_cif.got.tgz:39128.got - 2010.06.03 11:33:40.
