data_PCOD9026929
_publ_section_title
;
Structure prediction by ZEFSAII (Michael W. Deem and Ramdas Pophale) SiO2 
 PCOD9026929
Probable space group: P -1
;
_chemical_formula_sum "Si O2"
_cell_formula_units_Z 14
_cell_length_a 13.812080
_cell_length_b 9.325203
_cell_length_c 14.293001
_cell_angle_alpha 142.777409
_cell_angle_beta 139.723588
_cell_angle_gamma 30.724012
_cell_volume 550.330931
_symmetry_space_group_name_H-M "P -1"
_symmetry_group_IT_number 2
_symmetry_cell_setting 'triclinic'
loop_
_space_group_symop_operation_xyz
x,y,z
-x,-y,-z
loop_
_atom_site_type_symbol
_atom_site_label
_atom_site_fract_x
_atom_site_fract_y
_atom_site_fract_z
Si Si1 0.728641 0.436598 0.218758
Si Si2 0.072753 0.839272 0.262853
Si Si3 0.749709 0.487290 0.950257
Si Si4 0.499503 0.545186 0.652616
Si Si5 0.139493 0.567995 0.373647
Si Si6 0.750565 0.844192 0.310189
Si Si7 0.282081 0.888155 0.138969
O O1 0.763394 0.654162 0.307641
O O2 0.510842 0.673505 0.222003
O O3 0.725247 0.245131 0.033358
O O4 0.889159 0.185131 0.279280
O O5 0.109461 0.616634 0.088023
O O6 0.280436 0.770477 0.369999
O O7 0.075906 0.702495 0.291942
O O8 0.538353 0.651974 0.832470
O O9 0.815262 0.175243 0.886504
O O10 0.744493 0.681548 0.128788
O O11 0.326305 0.533701 0.523714
O O12 0.439335 0.798262 0.660669
O O13 0.948117 0.792690 0.414051
O O14 0.194657 0.236277 0.247620
#
# Coordination Sequence:
#
# PCOD9026929 Si02
#       7
#     2   2   2   2   2   2   2
#     4  10  22  42  63  96 122 162 213 255 307 363
#     4  10  23  39  63  93 125 162 207 253 304 373
#     4   9  22  41  67  88 124 158 214 249 309 357
#     4  10  24  43  61  91 130 165 203 255 309 369
#     4  12  24  40  65  92 131 163 204 251 318 365
#     4  11  22  42  67  91 122 166 206 260 304 366
#     4  10  22  41  66  90 128 163 203 261 310 364
#
# _framework density 25.439238
#
# number of rings (size 3 to 8) (size 9 to 14) (size 15 to 20)
#    0.857    0.857    0.000    3.857    2.000    5.143 
#    0.000    1.429    0.000    0.000    0.000    0.000 
#    0.000    0.000    0.000    0.000    0.000    0.000 
#
# Total GULP energy -78401.858114 kJ/mol
# GULP energy per Si atom -5600.132722 kJ/mol
# Density = 2.538134 g / cm^3
# Si number density = 25.439238 Si / 1000 Ang^3
#
#
#
# Elastic Constant Matrix: (Units=GPa)
#
#
# Indices 1 2 3 4 5 6 
#
# 1 101.1328 44.9391 14.1860 -13.4780 11.4051 -7.7646
# 2 44.9391 204.4320 43.7042 -11.4002 12.8614 -2.1587
# 3 14.1860 43.7042 88.5005 -11.8832 9.8544 14.9315
# 4 -13.4780 -11.4002 -11.8832 51.4528 3.1708 0.5192
# 5 11.4051 12.8614 9.8544 3.1708 32.6894 -5.0346
# 6 -7.7646 -2.1587 14.9315 0.5192 -5.0346 38.8627
#
#
#
# Elastic Compliance Matrix: (Units=1/GPa)
#
#
# Indices 1 2 3 4 5 6 
#
# 1 0.011750 -0.002119 -0.000469 0.002670 -0.003079 0.001976
# 2 -0.002119 0.005989 -0.002654 0.000194 -0.000707 0.000835
# 3 -0.000469 -0.002654 0.014693 0.003027 -0.004518 -0.006512
# 4 0.002670 0.000194 0.003027 0.021150 -0.004194 -0.001445
# 5 -0.003079 -0.000707 -0.004518 -0.004194 0.034577 0.005617
# 6 0.001976 0.000835 -0.006512 -0.001445 0.005617 0.029422
#
#
# Mechanical properties :
#
#
# Convention : Reuss Voigt Hill
#
# Bulk Modulus (GPa) = 45.56119 66.63599 56.09859
# Shear Modulus (GPa) = 36.93264 44.01669 40.47467
#
# Velocity S-wave (km/s) = 3.81438 4.16416 3.99310
# Velocity P-wave (km/s) = 6.11130 7.02648 6.58481
#
# Compressibility (1/GPa) = 0.02194850
#
# Stress axis : x y z
#
# Youngs Moduli (GPa) = 85.10477 166.97434 68.05822
#
# Poissons Ratio (x) = 0.35387 0.03191
# Poissons Ratio (y) = 0.18036 0.18062
# Poissons Ratio (z) = 0.03990 0.44312
#
# Static dielectric constant tensor:
#      x y z
#    x 1.986160 -0.029450 -0.026410 
#    y -0.029450 1.953510 -0.004300 
#    z -0.026410 -0.004300 2.144930 
# 
# From -- ./inp_files/294934.got.cif
#   From: 2010.05.17/outbox.cif.g08.bks.cpg/sg2_148_cif.got.tgz:294934.got - 2010.06.03 11:33:40.
