data_PCOD9026547
_publ_section_title
;
Structure prediction by ZEFSAII (Michael W. Deem and Ramdas Pophale) SiO2 
 PCOD9026547
Probable space group: P -1
;
_chemical_formula_sum "Si O2"
_cell_formula_units_Z 13
_cell_length_a 11.664115
_cell_length_b 9.217972
_cell_length_c 5.350539
_cell_angle_alpha 97.037616
_cell_angle_beta 89.246628
_cell_angle_gamma 55.997254
_cell_volume 470.988721
_symmetry_space_group_name_H-M "P -1"
_symmetry_group_IT_number 2
_symmetry_cell_setting 'triclinic'
loop_
_space_group_symop_operation_xyz
x,y,z
-x,-y,-z
loop_
_atom_site_type_symbol
_atom_site_label
_atom_site_fract_x
_atom_site_fract_y
_atom_site_fract_z
Si Si1 0.287764 0.227731 0.122599
Si Si2 0.184184 0.728941 0.869029
Si Si3 0.500000 0.500000 0.000000
Si Si4 0.962490 0.685555 0.628073
Si Si5 0.377142 0.433061 0.461338
Si Si6 0.049440 0.088290 0.707212
Si Si7 0.522290 0.166508 0.772164
O O1 0.135897 0.266541 0.119345
O O2 0.282371 0.375180 0.329042
O O3 0.379502 0.037723 0.213240
O O4 0.368049 0.222433 0.873497
O O5 0.337140 0.554574 0.753331
O O6 0.095775 0.686461 0.682044
O O7 0.151435 0.921481 0.848364
O O8 0.096106 0.762213 0.126909
O O9 0.598387 0.468662 0.734748
O O10 0.557338 0.285324 0.954110
O O11 0.000000 0.500000 0.500000
O O12 0.886128 0.829934 0.441425
O O13 0.505711 0.240416 0.510174
O O14 0.000000 0.000000 0.500000
#
# Coordination Sequence:
#
# PCOD9026547 Si02
#       7
#     2   2   1   2   2   2   2
#     4  10  23  42  63  93 133 171 219 269 320 388
#     4  10  22  41  64  96 128 173 216 262 334 390
#     4  10  24  42  64  98 126 168 224 270 324 382
#     4  11  22  39  64  95 134 167 211 268 325 393
#     4  11  22  41  69  93 129 171 220 272 325 391
#     4   9  22  41  60  91 132 169 214 263 321 389
#     4  10  23  43  64  92 126 175 220 271 325 378
#
# _framework density 27.601510999999999
#
# number of rings (size 3 to 8) (size 9 to 14) (size 15 to 20)
#    0.000    1.846    1.538    0.923    4.308    3.077 
#    5.538    0.000    0.000    0.000    0.000    0.000 
#    0.000    0.000    0.000    0.000    0.000    0.000 
#
# Total GULP energy -72499.459650 kJ/mol
# GULP energy per Si atom -5576.881512 kJ/mol
# Density = 2.753869 g / cm^3
# Si number density = 27.601511 Si / 1000 Ang^3
#
#
#
# Elastic Constant Matrix: (Units=GPa)
#
#
# Indices 1 2 3 4 5 6 
#
# 1 63.5199 50.3378 -11.2071 -6.4229 -19.3280 2.7946
# 2 50.3378 173.4507 47.9333 -8.1143 -28.0049 34.4909
# 3 -11.2071 47.9333 137.2560 -4.5670 -17.4042 7.9560
# 4 -6.4229 -8.1143 -4.5670 50.6095 8.3456 -8.5514
# 5 -19.3280 -28.0049 -17.4042 8.3456 32.2257 1.5148
# 6 2.7946 34.4909 7.9560 -8.5514 1.5148 40.3253
#
#
#
# Elastic Compliance Matrix: (Units=1/GPa)
#
#
# Indices 1 2 3 4 5 6 
#
# 1 0.027218 -0.008494 0.006518 0.001380 0.011921 0.003938
# 2 -0.008494 0.011633 -0.003798 -0.001731 0.003841 -0.009124
# 3 0.006518 -0.003798 0.009852 0.000263 0.005829 0.000690
# 4 0.001380 -0.001731 0.000263 0.021795 -0.006470 0.006197
# 5 0.011921 0.003841 0.005829 -0.006470 0.046737 -0.008389
# 6 0.003938 -0.009124 0.000690 0.006197 -0.008389 0.033822
#
#
# Mechanical properties :
#
#
# Convention : Reuss Voigt Hill
#
# Bulk Modulus (GPa) = 26.91400 60.92828 43.92114
# Shear Modulus (GPa) = 28.57301 43.77627 36.17464
#
# Velocity S-wave (km/s) = 3.22094 3.98679 3.62415
# Velocity P-wave (km/s) = 4.85846 6.58140 5.78444
#
# Compressibility (1/GPa) = 0.03715538
#
# Stress axis : x y z
#
# Youngs Moduli (GPa) = 36.74042 85.95913 101.50124
#
# Poissons Ratio (x) = 0.73014 -0.66158
# Poissons Ratio (y) = 0.31208 0.38549
# Poissons Ratio (z) = -0.23947 0.32647
#
# Static dielectric constant tensor:
#      x y z
#    x 1.956460 -0.023430 -0.162400 
#    y -0.023430 2.041450 0.103760 
#    z -0.162400 0.103760 2.021540 
# 
# From -- ./inp_files/59360.got.cif
#   From: 2010.05.17/outbox.cif.g08.bks.cpg/sg2_30_cif.got.tgz:59360.got - 2010.06.03 11:33:40.
