data_PCOD9026165
_publ_section_title
;
Structure prediction by ZEFSAII (Michael W. Deem and Ramdas Pophale) SiO2 
 PCOD9026165
Probable space group: P -1
;
_chemical_formula_sum "Si O2"
_cell_formula_units_Z 16
_cell_length_a 12.800813
_cell_length_b 9.661852
_cell_length_c 15.736893
_cell_angle_alpha 46.347788
_cell_angle_beta 143.685900
_cell_angle_gamma 130.504884
_cell_volume 813.975624
_symmetry_space_group_name_H-M "P -1"
_symmetry_group_IT_number 2
_symmetry_cell_setting 'triclinic'
loop_
_space_group_symop_operation_xyz
x,y,z
-x,-y,-z
loop_
_atom_site_type_symbol
_atom_site_label
_atom_site_fract_x
_atom_site_fract_y
_atom_site_fract_z
Si Si1 0.208022 0.515539 0.604264
Si Si2 0.502082 0.055705 0.879230
Si Si3 0.020131 0.044802 0.895850
Si Si4 0.113155 0.721000 0.975007
Si Si5 0.688319 0.053801 0.551035
Si Si6 0.627582 0.682909 0.052640
Si Si7 0.092156 0.105852 0.375947
Si Si8 0.161231 0.233956 0.547130
O O1 0.305501 0.740275 0.577621
O O2 0.303801 0.386708 0.783299
O O3 0.213367 0.435055 0.546759
O O4 0.000000 0.500000 0.500000
O O5 0.319320 0.115698 0.708742
O O6 0.670562 0.239750 0.898598
O O7 0.500000 0.000000 0.000000
O O8 0.533530 0.865577 0.929603
O O9 0.188254 0.226633 0.914949
O O10 0.847621 0.080336 0.715016
O O11 0.063381 0.851495 0.963060
O O12 0.000000 0.000000 0.000000
O O13 0.055032 0.825767 0.808662
O O14 0.000000 0.500000 0.000000
O O15 0.500000 0.000000 0.500000
O O16 0.746551 0.916102 0.573564
O O17 0.500000 0.500000 0.000000
O O18 0.131715 0.250632 0.420679
O O19 0.006789 0.898575 0.454275
#
# Coordination Sequence:
#
# PCOD9026165 Si02
#       8
#     2   2   2   2   2   2   2   2
#     4  12  22  43  65  93 129 167 218 264 323 380
#     4  11  21  41  62  93 129 159 209 262 316 369
#     4  10  23  43  60  90 132 164 207 266 316 371
#     4  10  22  41  63  89 129 167 201 258 319 389
#     4  11  25  42  64  91 132 172 208 265 324 386
#     4  11  25  40  66  98 126 166 218 267 316 385
#     4  10  22  41  62  96 127 163 213 260 330 370
#     4  11  22  39  69  95 127 164 211 275 312 379
#
# _framework density 19.656610000000001
#
# number of rings (size 3 to 8) (size 9 to 14) (size 15 to 20)
#    0.000    1.250    5.000    0.750    3.500    5.000 
#    0.000    1.250    0.000    0.000    0.000    0.000 
#    0.000    0.000    0.000    0.000    0.000    0.000 
#
# Total GULP energy -89323.116721 kJ/mol
# GULP energy per Si atom -5582.694795 kJ/mol
# Density = 1.961187 g / cm^3
# Si number density = 19.656610 Si / 1000 Ang^3
#
#
#
# Elastic Constant Matrix: (Units=GPa)
#
#
# Indices 1 2 3 4 5 6 
#
# 1 123.4768 40.9664 44.7783 20.0035 -3.3864 3.2866
# 2 40.9664 104.5860 3.5758 13.1209 2.6134 6.1869
# 3 44.7783 3.5758 41.6006 10.5385 -0.6422 -12.3791
# 4 20.0035 13.1209 10.5385 27.1017 -1.9598 -6.7516
# 5 -3.3864 2.6134 -0.6422 -1.9598 42.7497 10.9088
# 6 3.2866 6.1869 -12.3791 -6.7516 10.9088 36.9911
#
#
#
# Elastic Compliance Matrix: (Units=1/GPa)
#
#
# Indices 1 2 3 4 5 6 
#
# 1 0.018967 -0.005547 -0.021565 -0.005154 0.003846 -0.010049
# 2 -0.005547 0.012077 0.005996 -0.004152 -0.001305 0.000107
# 3 -0.021565 0.005996 0.053444 -0.003224 -0.006560 0.020144
# 4 -0.005154 -0.004152 -0.003224 0.046080 -0.000276 0.008565
# 5 0.003846 -0.001305 -0.006560 -0.000276 0.026245 -0.010109
# 6 -0.010049 0.000107 0.020144 0.008565 -0.010109 0.039194
#
#
# Mechanical properties :
#
#
# Convention : Reuss Voigt Hill
#
# Bulk Modulus (GPa) = 23.66456 49.81163 36.73810
# Shear Modulus (GPa) = 19.81583 33.39136 26.60360
#
# Velocity S-wave (km/s) = 3.17850 4.12604 3.68287
# Velocity P-wave (km/s) = 5.05328 6.93505 6.06756
#
# Compressibility (1/GPa) = 0.04225727
#
# Stress axis : x y z
#
# Youngs Moduli (GPa) = 52.72235 82.80530 18.71103
#
# Poissons Ratio (x) = 0.45934 0.40350
# Poissons Ratio (y) = 0.29247 -0.11220
# Poissons Ratio (z) = 1.13693 -0.49653
#
# Static dielectric constant tensor:
#      x y z
#    x 1.731870 -0.016960 -0.044910 
#    y -0.016960 1.706610 0.059520 
#    z -0.044910 0.059520 1.919370 
# 
# From -- ./inp_files/187831.got.cif
#   From: 2010.05.17/outbox.cif.g08.bks.cpg/sg2_94_cif.got.tgz:187831.got - 2010.06.03 11:33:40.
