data_PCOD9026492
_publ_section_title
;
Structure prediction by ZEFSAII (Michael W. Deem and Ramdas Pophale) SiO2 
 PCOD9026492
Probable space group: P -1
;
_chemical_formula_sum "Si O2"
_cell_formula_units_Z 16
_cell_length_a 7.905363
_cell_length_b 5.443457
_cell_length_c 20.822703
_cell_angle_alpha 90.176759
_cell_angle_beta 50.981078
_cell_angle_gamma 110.872260
_cell_volume 619.552999
_symmetry_space_group_name_H-M "P -1"
_symmetry_group_IT_number 2
_symmetry_cell_setting 'triclinic'
loop_
_space_group_symop_operation_xyz
x,y,z
-x,-y,-z
loop_
_atom_site_type_symbol
_atom_site_label
_atom_site_fract_x
_atom_site_fract_y
_atom_site_fract_z
Si Si1 0.078186 0.292271 0.446036
Si Si2 0.369458 0.311445 0.870628
Si Si3 0.155610 0.872402 0.030250
Si Si4 0.617375 0.814584 0.902331
Si Si5 0.968463 0.739561 0.267813
Si Si6 0.254224 0.108461 0.566895
Si Si7 0.542267 0.768160 0.292537
Si Si8 0.561976 0.170370 0.379689
O O1 0.360904 0.466433 0.362611
O O2 0.000000 0.500000 0.500000
O O3 0.000000 0.000000 0.500000
O O4 0.926372 0.192713 0.417091
O O5 0.562149 0.559112 0.868205
O O6 0.469200 0.255004 0.780751
O O7 0.244546 0.038757 0.943129
O O8 0.128177 0.346350 0.906560
O O9 0.217178 0.098465 0.072721
O O10 0.348994 0.752743 0.992551
O O11 0.760106 0.087288 0.823576
O O12 0.919487 0.796230 0.352966
O O13 0.804321 0.830747 0.260233
O O14 0.827301 0.409991 0.298381
O O15 0.420913 0.271290 0.465947
O O16 0.420196 0.063978 0.580075
O O17 0.460560 0.991048 0.339300
#
# Coordination Sequence:
#
# PCOD9026492 Si02
#       8
#     2   2   2   2   2   2   2   2
#     4  12  26  44  69 100 144 191 244 304 368 435
#     4  11  23  46  71 101 139 178 233 294 365 432
#     4  10  24  45  70 101 133 180 226 299 369 435
#     4  11  23  44  69 103 134 178 236 286 366 442
#     4  11  23  40  67  97 135 182 231 300 349 441
#     4  10  22  41  64  93 130 183 239 286 354 426
#     4  11  24  42  65 102 138 182 237 290 356 434
#     4  10  22  41  65  93 134 178 234 286 357 420
#
# _framework density 25.825071000000001
#
# number of rings (size 3 to 8) (size 9 to 14) (size 15 to 20)
#    0.000    1.250    2.500    2.625    1.750    4.000 
#    9.000    0.000    0.000    0.000    0.000    0.000 
#    0.000    0.000    0.000    0.000    0.000    0.000 
#
# Total GULP energy -89364.183154 kJ/mol
# GULP energy per Si atom -5585.261447 kJ/mol
# Density = 2.576629 g / cm^3
# Si number density = 25.825071 Si / 1000 Ang^3
#
#
#
# Elastic Constant Matrix: (Units=GPa)
#
#
# Indices 1 2 3 4 5 6 
#
# 1 40.1434 3.7017 14.5443 14.1478 1.3157 9.7255
# 2 3.7017 135.0593 54.1295 18.8952 13.6373 11.7511
# 3 14.5443 54.1295 154.9806 8.6147 19.5136 6.3539
# 4 14.1478 18.8952 8.6147 41.9780 15.8987 9.5814
# 5 1.3157 13.6373 19.5136 15.8987 47.3612 0.0162
# 6 9.7255 11.7511 6.3539 9.5814 0.0162 34.1926
#
#
#
# Elastic Compliance Matrix: (Units=1/GPa)
#
#
# Indices 1 2 3 4 5 6 
#
# 1 0.030981 0.002113 -0.003243 -0.010678 0.003454 -0.005945
# 2 0.002113 0.009331 -0.003135 -0.003687 -0.000215 -0.002192
# 3 -0.003243 -0.003135 0.008125 0.001998 -0.003025 -0.000068
# 4 -0.010678 -0.003687 0.001998 0.034081 -0.010904 -0.005612
# 5 0.003454 -0.000215 -0.003025 -0.010904 0.025986 0.002697
# 6 -0.005945 -0.002192 -0.000068 -0.005612 0.002697 0.033274
#
#
# Mechanical properties :
#
#
# Convention : Reuss Voigt Hill
#
# Bulk Modulus (GPa) = 25.05881 52.77047 38.91464
# Shear Modulus (GPa) = 30.56022 41.89356 36.22689
#
# Velocity S-wave (km/s) = 3.44372 4.03203 3.74943
# Velocity P-wave (km/s) = 5.05338 6.49265 5.81770
#
# Compressibility (1/GPa) = 0.03990612
#
# Stress axis : x y z
#
# Youngs Moduli (GPa) = 32.27755 107.16795 123.08437
#
# Poissons Ratio (x) = -0.22646 0.39917
# Poissons Ratio (y) = -0.06821 0.38592
# Poissons Ratio (z) = 0.10468 0.33602
#
# Static dielectric constant tensor:
#      x y z
#    x 2.293840 -0.028890 -0.071080 
#    y -0.028890 2.029770 0.063260 
#    z -0.071080 0.063260 2.039280 
# 
# From -- ./inp_files/585724.got.cif
#   From: 2010.05.17/outbox.cif.g08.bks.cpg/sg2_293_cif.got.tgz:585724.got - 2010.06.03 11:33:40.
