data_PCOD9026725
_publ_section_title
;
Structure prediction by ZEFSAII (Michael W. Deem and Ramdas Pophale) SiO2 
 PCOD9026725
Probable space group: P -1
;
_chemical_formula_sum "Si O2"
_cell_formula_units_Z 16
_cell_length_a 6.655821
_cell_length_b 6.054638
_cell_length_c 18.484091
_cell_angle_alpha 84.814144
_cell_angle_beta 82.161915
_cell_angle_gamma 80.294604
_cell_volume 725.627597
_symmetry_space_group_name_H-M "P -1"
_symmetry_group_IT_number 2
_symmetry_cell_setting 'triclinic'
loop_
_space_group_symop_operation_xyz
x,y,z
-x,-y,-z
loop_
_atom_site_type_symbol
_atom_site_label
_atom_site_fract_x
_atom_site_fract_y
_atom_site_fract_z
Si Si1 0.506940 0.981136 0.708057
Si Si2 0.894680 0.261744 0.517289
Si Si3 0.284867 0.510494 0.973991
Si Si4 0.060915 0.324210 0.277861
Si Si5 0.688857 0.374309 0.671688
Si Si6 0.175732 0.832514 0.833573
Si Si7 0.047786 0.188538 0.936843
Si Si8 0.341170 0.740286 0.610167
O O1 0.529409 0.232629 0.718847
O O2 0.366074 0.868635 0.772964
O O3 0.741498 0.858288 0.706193
O O4 0.398850 0.970170 0.634901
O O5 0.822651 0.253010 0.603399
O O6 0.703031 0.287185 0.470609
O O7 0.000000 0.500000 0.500000
O O8 0.000000 0.000000 0.500000
O O9 0.068252 0.073912 0.861694
O O10 0.254575 0.271934 0.949949
O O11 0.500000 0.500000 0.000000
O O12 0.121573 0.596806 0.042977
O O13 0.153066 0.549783 0.281668
O O14 0.869616 0.306296 0.340499
O O15 0.980010 0.282718 0.203714
O O16 0.539571 0.575107 0.633687
O O17 0.251253 0.682090 0.903431
O O18 0.000000 0.000000 0.000000
#
# Coordination Sequence:
#
# PCOD9026725 Si02
#       8
#     2   2   2   2   2   2   2   2
#     4  10  24  40  64  94 128 180 222 284 335 419
#     4  12  26  44  74 104 138 190 239 294 365 419
#     4  10  22  41  65  94 129 168 215 276 334 402
#     4  10  22  43  61  90 132 171 223 273 342 409
#     4  11  24  42  69  95 134 176 232 287 347 407
#     4  10  23  41  63  94 133 172 222 267 343 409
#     4   9  21  40  62  91 124 164 208 267 328 394
#     4  10  23  43  65  96 136 175 231 286 348 413
#
# _framework density 22.049879000000001
#
# number of rings (size 3 to 8) (size 9 to 14) (size 15 to 20)
#    0.000    1.750    1.250    1.125    3.500   12.500 
#    0.000    0.000    0.000    0.000    0.000    0.000 
#    0.000    0.000    0.000    0.000    0.000    0.000 
#
# Total GULP energy -89193.262843 kJ/mol
# GULP energy per Si atom -5574.578928 kJ/mol
# Density = 2.199969 g / cm^3
# Si number density = 22.049879 Si / 1000 Ang^3
#
#
#
# Elastic Constant Matrix: (Units=GPa)
#
#
# Indices 1 2 3 4 5 6 
#
# 1 125.0298 39.6336 60.9123 14.5066 34.7839 25.4147
# 2 39.6336 78.8374 41.2186 13.0217 14.7683 24.2434
# 3 60.9123 41.2186 109.7115 21.4210 30.3513 17.4675
# 4 14.5066 13.0217 21.4210 34.1599 5.3972 0.3120
# 5 34.7839 14.7683 30.3513 5.3972 42.9068 9.5793
# 6 25.4147 24.2434 17.4675 0.3120 9.5793 38.5064
#
#
#
# Elastic Compliance Matrix: (Units=1/GPa)
#
#
# Indices 1 2 3 4 5 6 
#
# 1 0.013289 -0.001903 -0.004018 -0.001386 -0.006163 -0.004206
# 2 -0.001903 0.019089 -0.004001 -0.003925 0.000304 -0.008991
# 3 -0.004018 -0.004001 0.015563 -0.005645 -0.005562 -0.000459
# 4 -0.001386 -0.003925 -0.005645 0.034709 0.000886 0.005445
# 5 -0.006163 0.000304 -0.005562 0.000886 0.032392 -0.001667
# 6 -0.004206 -0.008991 -0.000459 0.005445 -0.001667 0.034985
#
#
# Mechanical properties :
#
#
# Convention : Reuss Voigt Hill
#
# Bulk Modulus (GPa) = 35.59239 66.34531 50.96885
# Shear Modulus (GPa) = 27.89581 34.56892 31.23236
#
# Velocity S-wave (km/s) = 3.56072 3.96379 3.76765
# Velocity P-wave (km/s) = 5.75167 7.14863 6.48786
#
# Compressibility (1/GPa) = 0.02809589
#
# Stress axis : x y z
#
# Youngs Moduli (GPa) = 75.24954 52.38486 64.25615
#
# Poissons Ratio (x) = 0.09971 0.25818
# Poissons Ratio (y) = 0.14323 0.25711
# Poissons Ratio (z) = 0.30235 0.20961
#
# Static dielectric constant tensor:
#      x y z
#    x 1.653280 -0.139460 0.049320 
#    y -0.139460 1.800460 0.130520 
#    z 0.049320 0.130520 1.771210 
# 
# From -- ./inp_files/581166.got.cif
#   From: 2010.05.17/outbox.cif.g08.bks.cpg/sg2_291_cif.got.tgz:581166.got - 2010.06.03 11:33:40.
