data_PCOD9026993
_publ_section_title
;
Structure prediction by ZEFSAII (Michael W. Deem and Ramdas Pophale) SiO2 
 PCOD9026993
Probable space group: P -1
;
_chemical_formula_sum "Si O2"
_cell_formula_units_Z 16
_cell_length_a 14.667230
_cell_length_b 9.596635
_cell_length_c 10.000501
_cell_angle_alpha 46.449503
_cell_angle_beta 123.348512
_cell_angle_gamma 88.872702
_cell_volume 641.660603
_symmetry_space_group_name_H-M "P -1"
_symmetry_group_IT_number 2
_symmetry_cell_setting 'triclinic'
loop_
_space_group_symop_operation_xyz
x,y,z
-x,-y,-z
loop_
_atom_site_type_symbol
_atom_site_label
_atom_site_fract_x
_atom_site_fract_y
_atom_site_fract_z
Si Si1 0.023385 0.652346 0.521984
Si Si2 0.001683 0.783377 0.704254
Si Si3 0.430491 0.734209 0.654574
Si Si4 0.506249 0.272016 0.591069
Si Si5 0.208713 0.516634 0.301224
Si Si6 0.159174 0.786840 0.337211
Si Si7 0.659929 0.140930 0.245563
Si Si8 0.269126 0.087462 0.803443
O O1 0.855508 0.910953 0.243957
O O2 0.000000 0.500000 0.500000
O O3 0.068153 0.585049 0.761210
O O4 0.121858 0.684846 0.496388
O O5 0.084666 0.674272 0.984836
O O6 0.000000 0.000000 0.500000
O O7 0.833646 0.935946 0.505491
O O8 0.457020 0.774029 0.503160
O O9 0.272617 0.808575 0.472960
O O10 0.403220 0.897935 0.653132
O O11 0.576736 0.439378 0.992696
O O12 0.500000 0.500000 0.500000
O O13 0.353521 0.354233 0.441844
O O14 0.629629 0.994340 0.937898
O O15 0.235788 0.638543 0.359163
O O16 0.190049 0.354397 0.490425
O O17 0.000000 0.000000 0.000000
O O18 0.618749 0.116521 0.082120
#
# Coordination Sequence:
#
# PCOD9026993 Si02
#       8
#     2   2   2   2   2   2   2   2
#     4  11  24  44  68 101 138 177 223 281 343 407
#     4  11  24  43  72 100 135 179 231 284 340 409
#     4  11  22  40  67 101 129 174 233 282 329 405
#     4  12  23  42  70  98 131 179 230 277 334 408
#     4  12  25  43  67  98 138 176 222 279 347 402
#     4  12  23  40  66 100 132 174 229 279 337 406
#     4  10  22  41  66  93 137 174 221 279 344 393
#     4  11  24  45  65  96 138 179 220 277 347 409
#
# _framework density 24.935302
#
# number of rings (size 3 to 8) (size 9 to 14) (size 15 to 20)
#    0.000    0.750    3.750    4.125    1.750    3.000 
#    4.500    0.625    0.000    0.000    0.000    0.000 
#    0.000    0.000    0.000    0.000    0.000    0.000 
#
# Total GULP energy -89101.138975 kJ/mol
# GULP energy per Si atom -5568.821186 kJ/mol
# Density = 2.487855 g / cm^3
# Si number density = 24.935302 Si / 1000 Ang^3
#
#
#
# Elastic Constant Matrix: (Units=GPa)
#
#
# Indices 1 2 3 4 5 6 
#
# 1 80.4457 13.9624 17.9824 9.3402 -7.3424 -41.9112
# 2 13.9624 129.5159 5.3795 24.7210 -21.7478 -47.3209
# 3 17.9824 5.3795 125.4908 29.7262 -12.7745 -10.6099
# 4 9.3402 24.7210 29.7262 27.8096 -11.6160 -11.5654
# 5 -7.3424 -21.7478 -12.7745 -11.6160 34.0653 12.2430
# 6 -41.9112 -47.3209 -10.6099 -11.5654 12.2430 55.4150
#
#
#
# Elastic Compliance Matrix: (Units=1/GPa)
#
#
# Indices 1 2 3 4 5 6 
#
# 1 0.023562 0.006205 -0.001037 -0.003226 -0.000483 0.022354
# 2 0.006205 0.014981 0.002562 -0.010686 0.002780 0.015132
# 3 -0.001037 0.002562 0.011327 -0.013433 0.000872 0.000576
# 4 -0.003226 -0.010686 -0.013433 0.063945 0.010357 -0.003079
# 5 -0.000483 0.002780 0.000872 0.010357 0.036201 -0.003661
# 6 0.022354 0.015132 0.000576 -0.003079 -0.003661 0.048150
#
#
# Mechanical properties :
#
#
# Convention : Reuss Voigt Hill
#
# Bulk Modulus (GPa) = 15.30697 45.56677 30.43687
# Shear Modulus (GPa) = 24.45187 43.33320 33.89254
#
# Velocity S-wave (km/s) = 3.13487 4.17325 3.69076
# Velocity P-wave (km/s) = 4.38808 6.44476 5.51318
#
# Compressibility (1/GPa) = 0.06532973
#
# Stress axis : x y z
#
# Youngs Moduli (GPa) = 42.44064 66.75215 88.28437
#
# Poissons Ratio (x) = -0.41420 0.09159
# Poissons Ratio (y) = -0.26335 -0.22620
# Poissons Ratio (z) = 0.04403 -0.17103
#
# Static dielectric constant tensor:
#      x y z
#    x 1.904110 -0.037600 -0.185780 
#    y -0.037600 2.266910 -0.212090 
#    z -0.185780 -0.212090 1.885060 
# 
# From -- ./inp_files/306525.got.cif
#   From: 2010.05.17/outbox.cif.g08.bks.cpg/sg2_154_cif.got.tgz:306525.got - 2010.06.03 11:33:40.
