data_PCOD9026980
_publ_section_title
;
Structure prediction by ZEFSAII (Michael W. Deem and Ramdas Pophale) SiO2 
 PCOD9026980
Probable space group: P -1
;
_chemical_formula_sum "Si O2"
_cell_formula_units_Z 14
_cell_length_a 21.119850
_cell_length_b 9.634137
_cell_length_c 17.300328
_cell_angle_alpha 129.453258
_cell_angle_beta 20.151814
_cell_angle_gamma 141.237413
_cell_volume 678.933809
_symmetry_space_group_name_H-M "P -1"
_symmetry_group_IT_number 2
_symmetry_cell_setting 'triclinic'
loop_
_space_group_symop_operation_xyz
x,y,z
-x,-y,-z
loop_
_atom_site_type_symbol
_atom_site_label
_atom_site_fract_x
_atom_site_fract_y
_atom_site_fract_z
Si Si1 0.436136 0.113617 0.891227
Si Si2 0.991143 0.418299 0.568044
Si Si3 0.842126 0.345027 0.252836
Si Si4 0.333316 0.998882 0.793843
Si Si5 0.960615 0.992638 0.453022
Si Si6 0.722490 0.342665 0.006606
Si Si7 0.557714 0.494100 0.650691
O O1 0.718681 0.382901 0.662803
O O2 0.346912 0.983460 0.863654
O O3 0.423008 0.939574 0.905218
O O4 0.226611 0.120154 0.154673
O O5 0.000000 0.500000 0.500000
O O6 0.888533 0.148724 0.577916
O O7 0.831039 0.402536 0.815529
O O8 0.875062 0.242307 0.104111
O O9 0.736704 0.470767 0.393386
O O10 0.602923 0.105572 0.490900
O O11 0.060264 0.505383 0.122895
O O12 0.351641 0.223691 0.831326
O O13 0.000000 0.000000 0.500000
O O14 0.745805 0.710737 0.573086
O O15 0.564249 0.420101 0.222441
#
# Coordination Sequence:
#
# PCOD9026980 Si02
#       7
#     2   2   2   2   2   2   2
#     4  12  23  43  67  93 127 176 213 262 322 379
#     4  12  27  40  61  97 129 170 217 262 316 382
#     4   9  19  45  65  93 132 164 211 265 320 377
#     4   9  20  41  70  91 127 170 212 260 323 383
#     4  12  23  42  65  90 130 173 214 263 319 373
#     4  12  24  43  66  96 134 162 217 271 309 382
#     4  10  22  41  66  93 127 169 209 264 318 373
#
# _framework density 20.620567000000001
#
# number of rings (size 3 to 8) (size 9 to 14) (size 15 to 20)
#    0.857    0.286    4.286    2.143    4.000    2.286 
#    0.000    0.714    0.000    0.000    0.000    0.000 
#    0.000    0.000    0.000    0.000    0.000    0.000 
#
# Total GULP energy -78048.449836 kJ/mol
# GULP energy per Si atom -5574.889274 kJ/mol
# Density = 2.057363 g / cm^3
# Si number density = 20.620567 Si / 1000 Ang^3
#
#
#
# Elastic Constant Matrix: (Units=GPa)
#
#
# Indices 1 2 3 4 5 6 
#
# 1 59.7734 15.8836 6.4060 10.9055 15.9079 13.9303
# 2 15.8836 103.1463 0.2560 9.9993 -2.6120 14.8197
# 3 6.4060 0.2560 41.9204 9.0515 -2.2413 16.0653
# 4 10.9055 9.9993 9.0515 21.6437 -6.0942 -3.1083
# 5 15.9079 -2.6120 -2.2413 -6.0942 30.5150 5.7900
# 6 13.9303 14.8197 16.0653 -3.1083 5.7900 32.9514
#
#
#
# Elastic Compliance Matrix: (Units=1/GPa)
#
#
# Indices 1 2 3 4 5 6 
#
# 1 0.027718 -0.000713 0.004573 -0.021934 -0.016114 -0.012864
# 2 -0.000713 0.011852 0.005165 -0.008007 0.001802 -0.008619
# 3 0.004573 0.005165 0.037997 -0.023961 0.000843 -0.025190
# 4 -0.021934 -0.008007 -0.023961 0.080629 0.019644 0.028710
# 5 -0.016114 0.001802 0.000843 0.019644 0.045412 -0.000536
# 6 -0.012864 -0.008619 -0.025190 0.028710 -0.000536 0.054746
#
#
# Mechanical properties :
#
#
# Convention : Reuss Voigt Hill
#
# Bulk Modulus (GPa) = 10.45849 27.77015 19.11432
# Shear Modulus (GPa) = 18.37048 29.17497 23.77273
#
# Velocity S-wave (km/s) = 2.98800 3.76553 3.39907
# Velocity P-wave (km/s) = 4.12154 5.69228 4.96936
#
# Compressibility (1/GPa) = 0.09561612
#
# Stress axis : x y z
#
# Youngs Moduli (GPa) = 36.07814 84.37309 26.31807
#
# Poissons Ratio (x) = 0.06017 -0.12036
# Poissons Ratio (y) = 0.02573 -0.13593
# Poissons Ratio (z) = -0.16499 -0.43577
#
# Static dielectric constant tensor:
#      x y z
#    x 1.719940 0.023250 0.010550 
#    y 0.023250 1.738760 -0.033280 
#    z 0.010550 -0.033280 1.741760 
# 
# From -- ./inp_files/577413.got.cif
#   From: 2010.05.17/outbox.cif.g08.bks.cpg/sg2_289_cif.got.tgz:577413.got - 2010.06.03 11:33:40.
