data_PCOD9026844
_publ_section_title
;
Structure prediction by ZEFSAII (Michael W. Deem and Ramdas Pophale) SiO2 
 PCOD9026844
Probable space group: P -1
;
_chemical_formula_sum "Si O2"
_cell_formula_units_Z 15
_cell_length_a 7.548939
_cell_length_b 9.264884
_cell_length_c 11.550911
_cell_angle_alpha 78.052744
_cell_angle_beta 55.519564
_cell_angle_gamma 79.477408
_cell_volume 649.370990
_symmetry_space_group_name_H-M "P -1"
_symmetry_group_IT_number 2
_symmetry_cell_setting 'triclinic'
loop_
_space_group_symop_operation_xyz
x,y,z
-x,-y,-z
loop_
_atom_site_type_symbol
_atom_site_label
_atom_site_fract_x
_atom_site_fract_y
_atom_site_fract_z
Si Si1 0.290627 0.599188 0.518984
Si Si2 0.049117 0.340110 0.728474
Si Si3 0.000000 0.000000 0.500000
Si Si4 0.307388 0.804700 0.265970
Si Si5 0.733667 0.926139 0.398518
Si Si6 0.095999 0.783638 0.766263
Si Si7 0.389197 0.279162 0.017221
Si Si8 0.736960 0.382117 0.041929
O O1 0.500000 0.500000 0.500000
O O2 0.336488 0.670116 0.368428
O O3 0.208029 0.733987 0.611741
O O4 0.100222 0.488541 0.618634
O O5 0.863972 0.255154 0.750316
O O6 0.956103 0.374150 0.884558
O O7 0.255688 0.223337 0.654673
O O8 0.212453 0.945061 0.350164
O O9 0.146970 0.093849 0.518647
O O10 0.512959 0.822224 0.106669
O O11 0.858859 0.046961 0.262432
O O12 0.500000 0.000000 0.500000
O O13 0.203160 0.683033 0.844550
O O14 0.843933 0.765278 0.853134
O O15 0.557221 0.292174 0.058375
O O16 0.354660 0.447219 0.952461
#
# Coordination Sequence:
#
# PCOD9026844 Si02
#       8
#     2   2   1   2   2   2   2   2
#     4  12  23  38  67 102 126 168 226 274 327 388
#     4  10  23  42  64  92 133 175 214 272 331 385
#     4  10  22  44  66  92 136 172 216 268 330 392
#     4  10  22  42  67  96 130 174 217 273 329 394
#     4  11  25  44  64  94 134 179 217 271 333 390
#     4  12  24  41  68  98 132 172 222 273 325 396
#     4  10  22  41  68  97 133 172 217 271 338 385
#     4  10  22  41  65  99 134 168 214 277 330 392
#
# _framework density 23.099276
#
# number of rings (size 3 to 8) (size 9 to 14) (size 15 to 20)
#    0.000    1.333    2.667    2.400    1.867    1.600 
#    2.400    6.000    0.000    0.000    0.000    0.000 
#    0.000    0.000    0.000    0.000    0.000    0.000 
#
# Total GULP energy -83631.926657 kJ/mol
# GULP energy per Si atom -5575.461777 kJ/mol
# Density = 2.304670 g / cm^3
# Si number density = 23.099276 Si / 1000 Ang^3
#
#
#
# Elastic Constant Matrix: (Units=GPa)
#
#
# Indices 1 2 3 4 5 6 
#
# 1 56.0543 -4.4339 26.4022 -6.3668 -18.0671 -0.1471
# 2 -4.4339 58.7645 5.5929 10.5136 -5.7642 9.2896
# 3 26.4022 5.5929 89.9500 21.4509 -13.9769 -0.0448
# 4 -6.3668 10.5136 21.4509 49.7213 -4.6156 -6.0511
# 5 -18.0671 -5.7642 -13.9769 -4.6156 29.3198 0.8976
# 6 -0.1471 9.2896 -0.0448 -6.0511 0.8976 22.4540
#
#
#
# Elastic Compliance Matrix: (Units=1/GPa)
#
#
# Indices 1 2 3 4 5 6 
#
# 1 0.027395 0.002818 -0.007728 0.007691 0.014948 0.000473
# 2 0.002818 0.020099 -0.000203 -0.004503 0.005180 -0.009718
# 3 -0.007728 -0.000203 0.015462 -0.007739 0.001415 -0.002078
# 4 0.007691 -0.004503 -0.007739 0.026862 0.004119 0.008972
# 5 0.014948 0.005180 0.001415 0.004119 0.045743 -0.002761
# 6 0.000473 -0.009718 -0.002078 0.008972 -0.002761 0.051083
#
#
# Mechanical properties :
#
#
# Convention : Reuss Voigt Hill
#
# Bulk Modulus (GPa) = 18.96396 28.87680 23.92038
# Shear Modulus (GPa) = 23.31574 32.11285 27.71429
#
# Velocity S-wave (km/s) = 3.18051 3.73260 3.46756
# Velocity P-wave (km/s) = 4.65994 5.57716 5.13905
#
# Compressibility (1/GPa) = 0.05273160
#
# Stress axis : x y z
#
# Youngs Moduli (GPa) = 36.50285 49.75369 64.67285
#
# Poissons Ratio (x) = -0.14020 0.49976
# Poissons Ratio (y) = -0.10286 0.01312
# Poissons Ratio (z) = 0.28208 0.01009
#
# Static dielectric constant tensor:
#      x y z
#    x 1.941180 -0.062280 -0.042630 
#    y -0.062280 1.954090 -0.026500 
#    z -0.042630 -0.026500 1.868370 
# 
# From -- ./inp_files/258329.got.cif
#   From: 2010.05.17/outbox.cif.g08.bks.cpg/sg2_130_cif.got.tgz:258329.got - 2010.06.03 11:33:40.
