data_PCOD9026150
_publ_section_title
;
Structure prediction by ZEFSAII (Michael W. Deem and Ramdas Pophale) SiO2 
 PCOD9026150
Probable space group: P -1
;
_chemical_formula_sum "Si O2"
_cell_formula_units_Z 14
_cell_length_a 20.037010
_cell_length_b 5.284310
_cell_length_c 20.918547
_cell_angle_alpha 59.819219
_cell_angle_beta 161.306386
_cell_angle_gamma 127.916530
_cell_volume 531.733896
_symmetry_space_group_name_H-M "P -1"
_symmetry_group_IT_number 2
_symmetry_cell_setting 'triclinic'
loop_
_space_group_symop_operation_xyz
x,y,z
-x,-y,-z
loop_
_atom_site_type_symbol
_atom_site_label
_atom_site_fract_x
_atom_site_fract_y
_atom_site_fract_z
Si Si1 0.530458 0.798306 0.731982
Si Si2 0.245113 0.823800 0.356528
Si Si3 0.467747 0.635193 0.034479
Si Si4 0.391435 0.015760 0.704111
Si Si5 0.072037 0.336110 0.143247
Si Si6 0.085845 0.155111 0.644897
Si Si7 0.830148 0.330939 0.138411
O O1 0.468607 0.907650 0.594118
O O2 0.461710 0.408582 0.709853
O O3 0.384812 0.861797 0.648384
O O4 0.811619 0.045481 0.969582
O O5 0.216879 0.608169 0.295298
O O6 0.212128 0.143875 0.272479
O O7 0.023616 0.572739 0.233331
O O8 0.747884 0.728559 0.282639
O O9 0.312909 0.518796 0.972866
O O10 0.288079 0.412299 0.844456
O O11 0.500000 0.000000 0.000000
O O12 0.611348 0.024191 0.940778
O O13 0.156447 0.846461 0.557625
O O14 0.000000 0.500000 0.000000
O O15 0.054624 0.803960 0.687938
#
# Coordination Sequence:
#
# PCOD9026150 Si02
#       7
#     2   2   2   2   2   2   2
#     4  12  25  45  68 107 137 176 234 280 340 410
#     4  12  25  44  75 101 139 187 224 280 345 401
#     4   9  21  40  61  92 136 176 226 284 345 397
#     4  12  25  39  70 100 135 177 234 289 327 404
#     4  12  27  48  72 106 143 176 224 283 345 417
#     4  10  22  41  62  94 133 181 227 285 344 396
#     4  11  22  39  67  95 129 180 228 281 335 396
#
# _framework density 26.328956999999999
#
# number of rings (size 3 to 8) (size 9 to 14) (size 15 to 20)
#    0.000    0.857    4.286    2.143    6.000    1.714 
#    0.000    6.429    0.000    0.000    0.000    0.000 
#    0.000    0.000    0.000    0.000    0.000    0.000 
#
# Total GULP energy -78402.445741 kJ/mol
# GULP energy per Si atom -5600.174696 kJ/mol
# Density = 2.626903 g / cm^3
# Si number density = 26.328957 Si / 1000 Ang^3
#
#
#
# Elastic Constant Matrix: (Units=GPa)
#
#
# Indices 1 2 3 4 5 6 
#
# 1 113.8243 30.1054 21.5806 11.2734 0.9450 -12.5110
# 2 30.1054 115.9040 22.5720 -17.1116 2.5333 -24.1364
# 3 21.5806 22.5720 108.6370 -4.9381 1.9705 -12.9956
# 4 11.2734 -17.1116 -4.9381 45.0112 3.6646 -3.8060
# 5 0.9450 2.5333 1.9705 3.6646 49.0133 7.1166
# 6 -12.5110 -24.1364 -12.9956 -3.8060 7.1166 51.5348
#
#
#
# Elastic Compliance Matrix: (Units=1/GPa)
#
#
# Indices 1 2 3 4 5 6 
#
# 1 0.010256 -0.002828 -0.001572 -0.003796 0.000229 0.000457
# 2 -0.002828 0.011453 -0.000929 0.005524 -0.001651 0.005079
# 3 -0.001572 -0.000929 0.010013 0.001357 -0.000702 0.001905
# 4 -0.003796 0.005524 0.001357 0.026013 -0.002839 0.004321
# 5 0.000229 -0.001651 -0.000702 -0.002839 0.021312 -0.004047
# 6 0.000457 0.005079 0.001905 0.004321 -0.004047 0.023252
#
#
# Mechanical properties :
#
#
# Convention : Reuss Voigt Hill
#
# Bulk Modulus (GPa) = 47.47674 54.09793 50.78734
# Shear Modulus (GPa) = 41.67458 46.71901 44.19680
#
# Velocity S-wave (km/s) = 3.98281 4.21697 4.10156
# Velocity P-wave (km/s) = 6.26272 6.65598 6.46234
#
# Compressibility (1/GPa) = 0.02106294
#
# Stress axis : x y z
#
# Youngs Moduli (GPa) = 97.50597 87.31605 99.87405
#
# Poissons Ratio (x) = 0.24694 0.15698
# Poissons Ratio (y) = 0.27576 0.09280
# Poissons Ratio (z) = 0.15326 0.08113
#
# Static dielectric constant tensor:
#      x y z
#    x 2.221160 -0.059820 -0.020310 
#    y -0.059820 2.141700 -0.002830 
#    z -0.020310 -0.002830 2.079330 
# 
# From -- ./inp_files/47689.got.cif
#   From: 2010.05.17/outbox.cif.g08.bks.cpg/sg2_24_cif.got.tgz:47689.got - 2010.06.03 11:33:40.
