data_PCOD9026319
_publ_section_title
;
Structure prediction by ZEFSAII (Michael W. Deem and Ramdas Pophale) SiO2 
 PCOD9026319
Probable space group: P -1
;
_chemical_formula_sum "Si O2"
_cell_formula_units_Z 14
_cell_length_a 4.906682
_cell_length_b 6.794017
_cell_length_c 21.743060
_cell_angle_alpha 105.669178
_cell_angle_beta 108.831829
_cell_angle_gamma 48.847751
_cell_volume 514.860589
_symmetry_space_group_name_H-M "P -1"
_symmetry_group_IT_number 2
_symmetry_cell_setting 'triclinic'
loop_
_space_group_symop_operation_xyz
x,y,z
-x,-y,-z
loop_
_atom_site_type_symbol
_atom_site_label
_atom_site_fract_x
_atom_site_fract_y
_atom_site_fract_z
Si Si1 0.130805 0.185983 0.053782
Si Si2 0.914955 0.728062 0.807113
Si Si3 0.013875 0.816799 0.694606
Si Si4 0.399285 0.811234 0.485231
Si Si5 0.998220 0.722452 0.076642
Si Si6 0.402694 0.411228 0.389025
Si Si7 0.025852 0.198158 0.783784
O O1 0.961788 0.244695 0.114491
O O2 0.143504 0.427297 0.065423
O O3 0.551740 0.923604 0.062932
O O4 0.916777 0.215125 0.978248
O O5 0.143849 0.723116 0.767239
O O6 0.960146 0.463506 0.786156
O O7 0.472567 0.968956 0.789476
O O8 0.251155 0.750491 0.645640
O O9 0.820429 0.685044 0.659718
O O10 0.825245 0.122507 0.719074
O O11 0.365860 0.673963 0.414000
O O12 0.636675 0.618440 0.542837
O O13 0.500000 0.000000 0.500000
O O14 0.000000 0.000000 0.500000
O O15 0.104929 0.777813 0.153294
#
# Coordination Sequence:
#
# PCOD9026319 Si02
#       7
#     2   2   2   2   2   2   2
#     4   8  14  28  54  85 121 169 228 290 349 405
#     4  10  22  41  63  95 138 185 235 292 351 416
#     4  12  24  45  65 102 140 190 230 282 346 420
#     4  11  24  47  76 106 138 177 220 281 335 402
#     4   8  14  28  54  85 121 169 228 290 349 405
#     4  11  26  46  70 106 139 176 230 274 341 412
#     4  10  22  41  63  95 138 185 235 292 351 416
#
# _framework density 27.191824
#
# number of rings (size 3 to 8) (size 9 to 14) (size 15 to 20)
#    0.000    2.000    1.429    1.714    0.000    6.857 
#    5.143    0.714    0.000    0.000    0.000   20.000 
#    0.000    0.000    0.000    0.000    0.000    0.000 
#
# Total GULP energy -78186.522727 kJ/mol
# GULP energy per Si atom -5584.751623 kJ/mol
# Density = 2.712993 g / cm^3
# Si number density = 27.191824 Si / 1000 Ang^3
#
#
#
# Elastic Constant Matrix: (Units=GPa)
#
#
# Indices 1 2 3 4 5 6 
#
# 1 126.6644 50.1176 35.9584 15.5620 2.1236 31.9519
# 2 50.1176 133.4630 49.4131 17.9177 -3.9434 5.5455
# 3 35.9584 49.4131 178.2344 35.2899 -1.5831 25.1460
# 4 15.5620 17.9177 35.2899 60.4165 11.3489 -11.3630
# 5 2.1236 -3.9434 -1.5831 11.3489 40.7184 -2.1739
# 6 31.9519 5.5455 25.1460 -11.3630 -2.1739 39.9565
#
#
#
# Elastic Compliance Matrix: (Units=1/GPa)
#
#
# Indices 1 2 3 4 5 6 
#
# 1 0.012767 -0.004092 0.001205 -0.004952 -0.000266 -0.011823
# 2 -0.004092 0.009805 -0.002353 -0.000072 0.001275 0.003441
# 3 0.001205 -0.002353 0.008310 -0.006137 0.001340 -0.007539
# 4 -0.004952 -0.000072 -0.006137 0.025378 -0.006275 0.014708
# 5 -0.000266 0.001275 0.001340 -0.006275 0.026436 -0.001154
# 6 -0.011823 0.003441 -0.007539 0.014708 -0.001154 0.042868
#
#
# Mechanical properties :
#
#
# Convention : Reuss Voigt Hill
#
# Bulk Modulus (GPa) = 49.01313 78.81556 63.91435
# Shear Modulus (GPa) = 35.00290 48.40980 41.70635
#
# Velocity S-wave (km/s) = 3.59173 4.22395 3.92060
# Velocity P-wave (km/s) = 5.93842 7.26890 6.63708
#
# Compressibility (1/GPa) = 0.02040269
#
# Stress axis : x y z
#
# Youngs Moduli (GPa) = 78.32535 101.99123 120.33272
#
# Poissons Ratio (x) = 0.41737 -0.14499
# Poissons Ratio (y) = 0.32052 0.28309
# Poissons Ratio (z) = -0.09438 0.23994
#
# Static dielectric constant tensor:
#      x y z
#    x 2.053200 0.014170 0.045960 
#    y 0.014170 2.246010 -0.003460 
#    z 0.045960 -0.003460 2.139700 
# 
# From -- ./inp_files/602991.got.cif
#   From: 2010.05.17/outbox.cif.g08.bks.cpg/sg2_302_cif.got.tgz:602991.got - 2010.06.03 11:33:40.
