data_PCOD9026629
_publ_section_title
;
Structure prediction by ZEFSAII (Michael W. Deem and Ramdas Pophale) SiO2 
 PCOD9026629
Probable space group: P -1
;
_chemical_formula_sum "Si O2"
_cell_formula_units_Z 16
_cell_length_a 4.891752
_cell_length_b 8.913520
_cell_length_c 18.034199
_cell_angle_alpha 52.218108
_cell_angle_beta 92.935128
_cell_angle_gamma 93.776593
_cell_volume 620.074727
_symmetry_space_group_name_H-M "P -1"
_symmetry_group_IT_number 2
_symmetry_cell_setting 'triclinic'
loop_
_space_group_symop_operation_xyz
x,y,z
-x,-y,-z
loop_
_atom_site_type_symbol
_atom_site_label
_atom_site_fract_x
_atom_site_fract_y
_atom_site_fract_z
Si Si1 0.507280 0.025747 0.348816
Si Si2 0.328312 0.463284 0.710334
Si Si3 0.268924 0.848069 0.012556
Si Si4 0.555706 0.101237 0.154511
Si Si5 0.268525 0.611158 0.502821
Si Si6 0.144666 0.779681 0.186842
Si Si7 0.791610 0.560280 0.915636
Si Si8 0.003809 0.251751 0.285734
O O1 0.583247 0.040395 0.258204
O O2 0.811783 0.074186 0.367779
O O3 0.313163 0.192135 0.324104
O O4 0.337071 0.831046 0.418735
O O5 0.310165 0.583111 0.599256
O O6 0.625750 0.384172 0.755876
O O7 0.159398 0.573536 0.736702
O O8 0.119186 0.280930 0.750964
O O9 0.062762 0.824650 0.086651
O O10 0.338370 0.625377 0.071673
O O11 0.226614 0.898275 0.910256
O O12 0.500000 0.000000 0.000000
O O13 0.439266 0.310348 0.094728
O O14 0.312645 0.959896 0.165481
O O15 0.500000 0.500000 0.500000
O O16 0.000000 0.500000 0.500000
O O17 0.959229 0.691558 0.817755
O O18 0.000000 0.500000 0.000000
#
# Coordination Sequence:
#
# PCOD9026629 Si02
#       8
#     2   2   2   2   2   2   2   2
#     4  11  24  44  67 102 143 175 240 288 346 426
#     4  12  25  45  73  99 141 180 233 290 357 417
#     4  10  22  41  65 102 139 187 235 292 352 426
#     4  10  23  40  66  99 139 187 233 289 355 405
#     4  12  26  46  74 104 136 184 234 290 361 423
#     4  11  25  44  69 101 142 182 236 291 348 428
#     4  11  23  40  68 102 145 191 243 291 351 427
#     4  11  25  42  69 101 138 188 227 288 359 410
#
# _framework density 25.803342000000001
#
# number of rings (size 3 to 8) (size 9 to 14) (size 15 to 20)
#    0.000    1.000    1.250    4.875    3.500    6.000 
#    0.000    4.375    0.000    0.000    0.000    0.000 
#    0.000    0.000    0.000    0.000    0.000    0.000 
#
# Total GULP energy -89385.358416 kJ/mol
# GULP energy per Si atom -5586.584901 kJ/mol
# Density = 2.574461 g / cm^3
# Si number density = 25.803342 Si / 1000 Ang^3
#
#
#
# Elastic Constant Matrix: (Units=GPa)
#
#
# Indices 1 2 3 4 5 6 
#
# 1 160.6331 14.5172 31.6672 -3.8534 -7.9222 -2.9146
# 2 14.5172 95.5236 5.9201 -19.7946 -1.4609 -7.5172
# 3 31.6672 5.9201 118.6227 -6.8046 -16.8664 2.8638
# 4 -3.8534 -19.7946 -6.8046 53.1716 3.6473 -17.7349
# 5 -7.9222 -1.4609 -16.8664 3.6473 38.4519 -9.9849
# 6 -2.9146 -7.5172 2.8638 -17.7349 -9.9849 34.4452
#
#
#
# Elastic Compliance Matrix: (Units=1/GPa)
#
#
# Indices 1 2 3 4 5 6 
#
# 1 0.006681 -0.000786 -0.001634 0.000221 0.000839 0.000887
# 2 -0.000786 0.012502 0.000006 0.006669 0.001369 0.006492
# 3 -0.001634 0.000006 0.009466 0.001083 0.003912 0.000768
# 4 0.000221 0.006669 0.001083 0.026527 0.002340 0.015721
# 5 0.000839 0.001369 0.003912 0.002340 0.030333 0.010042
# 6 0.000887 0.006492 0.000768 0.015721 0.010042 0.041465
#
#
# Mechanical properties :
#
#
# Convention : Reuss Voigt Hill
#
# Bulk Modulus (GPa) = 41.97776 53.22092 47.59934
# Shear Modulus (GPa) = 35.78037 46.72539 41.25288
#
# Velocity S-wave (km/s) = 3.72782 4.26000 4.00276
# Velocity P-wave (km/s) = 5.90191 6.69829 6.31267
#
# Compressibility (1/GPa) = 0.02382214
#
# Stress axis : x y z
#
# Youngs Moduli (GPa) = 149.67270 79.99034 105.64350
#
# Poissons Ratio (x) = 0.06285 0.17260
# Poissons Ratio (y) = 0.11761 -0.00067
# Poissons Ratio (z) = 0.24453 -0.00051
#
# Static dielectric constant tensor:
#      x y z
#    x 1.989680 -0.005520 0.047060 
#    y -0.005520 2.102380 -0.040380 
#    z 0.047060 -0.040380 1.998300 
# 
# From -- ./inp_files/547762.got.cif
#   From: 2010.05.17/outbox.cif.g08.bks.cpg/sg2_274_cif.got.tgz:547762.got - 2010.06.03 11:33:40.
