data_PCOD9026473
_publ_section_title
;
Structure prediction by ZEFSAII (Michael W. Deem and Ramdas Pophale) SiO2 
 PCOD9026473
Probable space group: P -1
;
_chemical_formula_sum "Si O2"
_cell_formula_units_Z 16
_cell_length_a 31.750112
_cell_length_b 8.555887
_cell_length_c 4.940865
_cell_angle_alpha 86.960681
_cell_angle_beta 96.850239
_cell_angle_gamma 149.660427
_cell_volume 669.788530
_symmetry_space_group_name_H-M "P -1"
_symmetry_group_IT_number 2
_symmetry_cell_setting 'triclinic'
loop_
_space_group_symop_operation_xyz
x,y,z
-x,-y,-z
loop_
_atom_site_type_symbol
_atom_site_label
_atom_site_fract_x
_atom_site_fract_y
_atom_site_fract_z
Si Si1 0.263092 0.208341 0.354518
Si Si2 0.343271 0.711980 0.017437
Si Si3 0.189719 0.699667 0.012373
Si Si4 0.501906 0.851365 0.201419
Si Si5 0.800358 0.691305 0.415582
Si Si6 0.904465 0.734180 0.519227
Si Si7 0.666531 0.046550 0.680060
Si Si8 0.596720 0.558706 0.324151
O O1 0.207294 0.161792 0.468787
O O2 0.316830 0.267883 0.593132
O O3 0.208233 0.929167 0.131410
O O4 0.333518 0.525506 0.203491
O O5 0.246524 0.441057 0.894191
O O6 0.382229 0.982351 0.179119
O O7 0.399444 0.873708 0.778850
O O8 0.122490 0.402250 0.188229
O O9 0.278891 0.896088 0.097503
O O10 0.154560 0.557043 0.700440
O O11 0.441510 0.552726 0.993015
O O12 0.468059 0.731447 0.488342
O O13 0.500000 0.000000 0.000000
O O14 0.884073 0.854189 0.450369
O O15 0.737425 0.374531 0.553631
O O16 0.000000 0.000000 0.500000
O O17 0.614891 0.783968 0.449160
#
# Coordination Sequence:
#
# PCOD9026473 Si02
#       8
#     2   2   2   2   2   2   2   2
#     4  10  23  39  66  91 123 170 209 261 298 367
#     4  11  22  38  63  84 127 164 209 259 315 362
#     4  10  22  42  67  97 123 163 213 245 302 376
#     4  12  25  39  58  86 124 165 209 263 321 360
#     4  10  22  41  64  93 124 163 211 250 314 375
#     4  11  23  44  70  95 129 163 197 252 311 373
#     4   9  22  39  61  89 119 164 211 262 300 367
#     4  11  25  41  61  87 122 164 217 261 310 359
#
# _framework density 23.888135999999999
#
# number of rings (size 3 to 8) (size 9 to 14) (size 15 to 20)
#    0.000    1.500    2.500    1.500    7.000    3.000 
#    0.000    1.250    0.000    0.000    0.000    0.000 
#    0.000    0.000    0.000    0.000    0.000    0.000 
#
# Total GULP energy -89532.876005 kJ/mol
# GULP energy per Si atom -5595.804750 kJ/mol
# Density = 2.383377 g / cm^3
# Si number density = 23.888136 Si / 1000 Ang^3
#
#
#
# Elastic Constant Matrix: (Units=GPa)
#
#
# Indices 1 2 3 4 5 6 
#
# 1 119.7027 20.5420 11.7566 7.7249 -6.1901 1.1851
# 2 20.5420 57.7372 -0.1955 -3.8538 1.5782 11.7526
# 3 11.7566 -0.1955 92.5121 0.1380 -9.3345 -3.6249
# 4 7.7249 -3.8538 0.1380 32.0491 -5.4347 -10.1615
# 5 -6.1901 1.5782 -9.3345 -5.4347 33.4637 11.7199
# 6 1.1851 11.7526 -3.6249 -10.1615 11.7199 44.1025
#
#
#
# Elastic Compliance Matrix: (Units=1/GPa)
#
#
# Indices 1 2 3 4 5 6 
#
# 1 0.009283 -0.003440 -0.001067 -0.002538 0.001292 -0.000348
# 2 -0.003440 0.019634 0.000338 0.001739 0.000512 -0.004847
# 3 -0.001067 0.000338 0.011254 0.000838 0.002968 0.000268
# 4 -0.002538 0.001739 0.000838 0.034698 0.002902 0.006897
# 5 0.001292 0.000512 0.002968 0.002902 0.034333 -0.008382
# 6 -0.000348 -0.004847 0.000268 0.006897 -0.008382 0.027814
#
#
# Mechanical properties :
#
#
# Convention : Reuss Voigt Hill
#
# Bulk Modulus (GPa) = 31.41352 37.12868 34.27110
# Shear Modulus (GPa) = 32.05834 37.77967 34.91900
#
# Velocity S-wave (km/s) = 3.66733 3.98115 3.82746
# Velocity P-wave (km/s) = 5.57775 6.05881 5.82325
#
# Compressibility (1/GPa) = 0.03183343
#
# Stress axis : x y z
#
# Youngs Moduli (GPa) = 107.72158 50.93280 88.85417
#
# Poissons Ratio (x) = 0.17522 0.09476
# Poissons Ratio (y) = 0.37059 -0.03002
# Poissons Ratio (z) = 0.11489 -0.01721
#
# Static dielectric constant tensor:
#      x y z
#    x 2.021030 -0.025610 -0.007130 
#    y -0.025610 1.909450 -0.009460 
#    z -0.007130 -0.009460 1.935910 
# 
# From -- ./inp_files/43386.got.cif
#   From: 2010.05.17/outbox.cif.g08.bks.cpg/sg2_22_cif.got.tgz:43386.got - 2010.06.03 11:33:40.
