data_PCOD9026224
_publ_section_title
;
Structure prediction by ZEFSAII (Michael W. Deem and Ramdas Pophale) SiO2 
 PCOD9026224
Probable space group: P -1
;
_chemical_formula_sum "Si O2"
_cell_formula_units_Z 12
_cell_length_a 15.142382
_cell_length_b 9.836697
_cell_length_c 12.170119
_cell_angle_alpha 39.306318
_cell_angle_beta 151.375992
_cell_angle_gamma 148.686486
_cell_volume 449.258511
_symmetry_space_group_name_H-M "P -1"
_symmetry_group_IT_number 2
_symmetry_cell_setting 'triclinic'
loop_
_space_group_symop_operation_xyz
x,y,z
-x,-y,-z
loop_
_atom_site_type_symbol
_atom_site_label
_atom_site_fract_x
_atom_site_fract_y
_atom_site_fract_z
Si Si1 0.917032 0.245404 0.667850
Si Si2 0.976786 0.687966 0.591202
Si Si3 0.381878 0.242083 0.755192
Si Si4 0.816621 0.951747 0.973386
Si Si5 0.519828 0.993829 0.785439
Si Si6 0.795890 0.504800 0.883770
O O1 0.955696 0.516704 0.572402
O O2 0.720530 0.089987 0.463398
O O3 0.831370 0.073622 0.794383
O O4 0.142347 0.270102 0.864371
O O5 0.740868 0.645070 0.387403
O O6 0.177283 0.996722 0.616244
O O7 0.057556 0.581855 0.842275
O O8 0.591404 0.433318 0.786104
O O9 0.465838 0.123078 0.010537
O O10 0.031472 0.184692 0.132389
O O11 0.606935 0.891062 0.851034
O O12 0.681849 0.309987 0.778667
#
# Coordination Sequence:
#
# PCOD9026224 Si02
#       6
#     2   2   2   2   2   2
#     4  10  23  40  61  89 124 159 198 249 302 353
#     4   9  20  40  63  85 121 160 195 244 300 354
#     4  10  22  41  64  90 119 158 202 246 299 356
#     4  10  23  42  61  87 123 162 199 244 302 357
#     4  11  22  38  63  93 119 155 206 247 293 357
#     4  10  22  41  63  89 122 158 200 247 297 357
#
# _framework density 26.71068
#
# number of rings (size 3 to 8) (size 9 to 14) (size 15 to 20)
#    0.000    2.000    0.000    3.000    0.000   13.333 
#    0.000   10.000    0.000    0.000    0.000    0.000 
#    0.000    0.000    0.000    0.000    0.000    0.000 
#
# Total GULP energy -67349.004314 kJ/mol
# GULP energy per Si atom -5612.417026 kJ/mol
# Density = 2.664988 g / cm^3
# Si number density = 26.710680 Si / 1000 Ang^3
#
#
#
# Elastic Constant Matrix: (Units=GPa)
#
#
# Indices 1 2 3 4 5 6 
#
# 1 100.1303 9.8435 34.1872 -12.9694 20.9097 -7.4893
# 2 9.8435 77.3002 20.6941 2.4148 2.5527 -25.5443
# 3 34.1872 20.6941 127.1193 -0.8832 1.1218 -6.7267
# 4 -12.9694 2.4148 -0.8832 34.7312 -11.0621 3.2708
# 5 20.9097 2.5527 1.1218 -11.0621 51.2268 -3.4113
# 6 -7.4893 -25.5443 -6.7267 3.2708 -3.4113 44.6232
#
#
#
# Elastic Compliance Matrix: (Units=1/GPa)
#
#
# Indices 1 2 3 4 5 6 
#
# 1 0.012478 -0.000427 -0.003184 0.003174 -0.004263 0.000811
# 2 -0.000427 0.016735 -0.002128 -0.002419 -0.000514 0.009325
# 3 -0.003184 -0.002128 0.009042 -0.000436 0.001095 -0.000274
# 4 0.003174 -0.002419 -0.000436 0.032185 0.005595 -0.002849
# 5 -0.004263 -0.000514 0.001095 0.005595 0.022502 0.000465
# 6 0.000811 0.009325 -0.000274 -0.002849 0.000465 0.028087
#
#
# Mechanical properties :
#
#
# Convention : Reuss Voigt Hill
#
# Bulk Modulus (GPa) = 37.34534 48.22217 42.78375
# Shear Modulus (GPa) = 35.35243 42.10457 38.72850
#
# Velocity S-wave (km/s) = 3.64198 3.97460 3.81192
# Velocity P-wave (km/s) = 5.63002 6.25747 5.95202
#
# Compressibility (1/GPa) = 0.02677710
#
# Stress axis : x y z
#
# Youngs Moduli (GPa) = 80.14135 59.75550 110.59341
#
# Poissons Ratio (x) = 0.02551 0.35210
# Poissons Ratio (y) = 0.03421 0.23538
# Poissons Ratio (z) = 0.25515 0.12718
#
# Static dielectric constant tensor:
#      x y z
#    x 2.103620 -0.009870 -0.038700 
#    y -0.009870 2.114810 -0.016630 
#    z -0.038700 -0.016630 2.014000 
# 
# From -- ./inp_files/241229.got.cif
#   From: 2010.05.17/outbox.cif.g08.bks.cpg/sg2_121_cif.got.tgz:241229.got - 2010.06.03 11:33:40.
