data_PCOD9026367
_publ_section_title
;
Structure prediction by ZEFSAII (Michael W. Deem and Ramdas Pophale) SiO2 
 PCOD9026367
Probable space group: P -1
;
_chemical_formula_sum "Si O2"
_cell_formula_units_Z 15
_cell_length_a 18.351268
_cell_length_b 14.608984
_cell_length_c 12.133609
_cell_angle_alpha 44.953228
_cell_angle_beta 150.587688
_cell_angle_gamma 154.196197
_cell_volume 649.237628
_symmetry_space_group_name_H-M "P -1"
_symmetry_group_IT_number 2
_symmetry_cell_setting 'triclinic'
loop_
_space_group_symop_operation_xyz
x,y,z
-x,-y,-z
loop_
_atom_site_type_symbol
_atom_site_label
_atom_site_fract_x
_atom_site_fract_y
_atom_site_fract_z
Si Si1 0.157977 0.218526 0.771120
Si Si2 0.753954 0.469731 0.007936
Si Si3 0.288563 0.268154 0.490472
Si Si4 0.949542 0.638163 0.876973
Si Si5 0.973017 0.131529 0.829209
Si Si6 0.000000 0.500000 0.500000
Si Si7 0.632740 0.375239 0.301071
Si Si8 0.604575 0.215273 0.626476
O O1 0.223110 0.398220 0.642019
O O2 0.154965 0.275422 0.841814
O O3 0.369579 0.256829 0.015179
O O4 0.884534 0.957668 0.610723
O O5 0.825356 0.407485 0.237519
O O6 0.930328 0.715331 0.072658
O O7 0.461718 0.310970 0.766176
O O8 0.828262 0.502831 0.949912
O O9 0.500000 0.500000 0.500000
O O10 0.103241 0.248269 0.306032
O O11 0.789395 0.448235 0.734852
O O12 0.249461 0.814272 0.131053
O O13 0.689523 0.980964 0.553704
O O14 0.000000 0.000000 0.000000
O O15 0.782509 0.411759 0.369638
O O16 0.588388 0.239998 0.455418
#
# Coordination Sequence:
#
# PCOD9026367 Si02
#       8
#     2   2   2   2   2   1   2   2
#     4  11  24  45  71 104 139 192 236 279 354 424
#     4  11  23  41  69  98 139 180 233 284 349 413
#     4  10  22  42  69  99 138 181 230 289 341 411
#     4  10  22  41  64 101 139 178 229 296 348 408
#     4  12  21  37  70 103 133 182 235 293 341 412
#     4  12  24  48  68 104 146 186 226 294 352 422
#     4  11  25  45  71 100 146 184 237 284 349 430
#     4  11  23  40  70  99 140 183 235 292 351 414
#
# _framework density 23.104022000000001
#
# number of rings (size 3 to 8) (size 9 to 14) (size 15 to 20)
#    0.000    1.067    4.000    4.000    0.000    1.600 
#    0.000    6.000    0.000    0.000    0.000    0.000 
#    0.000    0.000    0.000    0.000    0.000    0.000 
#
# Total GULP energy -83529.360675 kJ/mol
# GULP energy per Si atom -5568.624045 kJ/mol
# Density = 2.305144 g / cm^3
# Si number density = 23.104022 Si / 1000 Ang^3
#
#
#
# Elastic Constant Matrix: (Units=GPa)
#
#
# Indices 1 2 3 4 5 6 
#
# 1 87.6772 -4.7742 53.6977 6.8223 21.5341 10.8606
# 2 -4.7742 38.9667 11.7730 24.1562 -1.5910 -3.6306
# 3 53.6977 11.7730 166.0943 8.9813 24.8416 18.3954
# 4 6.8223 24.1562 8.9813 25.5940 1.0427 -7.6266
# 5 21.5341 -1.5910 24.8416 1.0427 43.1533 4.7363
# 6 10.8606 -3.6306 18.3954 -7.6266 4.7363 13.6707
#
#
#
# Elastic Compliance Matrix: (Units=1/GPa)
#
#
# Indices 1 2 3 4 5 6 
#
# 1 0.020333 0.018583 -0.003452 -0.027645 -0.004565 -0.020414
# 2 0.018583 0.085467 -0.002137 -0.098344 0.002411 -0.044890
# 3 -0.003452 -0.002137 0.009049 -0.003470 -0.002257 -0.011156
# 4 -0.027645 -0.098344 -0.003470 0.169090 -0.002420 0.095685
# 5 -0.004565 0.002411 -0.002257 -0.002420 0.027282 -0.003498
# 6 -0.020414 -0.044890 -0.011156 0.095685 -0.003498 0.147049
#
#
# Mechanical properties :
#
#
# Convention : Reuss Voigt Hill
#
# Bulk Modulus (GPa) = 7.10041 46.01456 26.55748
# Shear Modulus (GPa) = 10.43348 31.95303 21.19326
#
# Velocity S-wave (km/s) = 2.12736 3.72292 3.03198
# Velocity P-wave (km/s) = 3.01896 6.19997 4.87615
#
# Compressibility (1/GPa) = 0.14083698
#
# Stress axis : x y z
#
# Youngs Moduli (GPa) = 49.18193 11.70043 110.51000
#
# Poissons Ratio (x) = -0.21743 0.38150
# Poissons Ratio (y) = -0.91397 0.23616
# Poissons Ratio (z) = 0.16978 0.02500
#
# Static dielectric constant tensor:
#      x y z
#    x 1.886960 0.075730 -0.073770 
#    y 0.075730 2.088140 -0.214580 
#    z -0.073770 -0.214580 2.144850 
# 
# From -- ./inp_files/465834.got.cif
#   From: 2010.05.17/outbox.cif.g08.bks.cpg/sg2_233_cif.got.tgz:465834.got - 2010.06.03 11:33:40.
