data_PCOD9026671
_publ_section_title
;
Structure prediction by ZEFSAII (Michael W. Deem and Ramdas Pophale) SiO2 
 PCOD9026671
Probable space group: P -1
;
_chemical_formula_sum "Si O2"
_cell_formula_units_Z 14
_cell_length_a 10.870785
_cell_length_b 9.662190
_cell_length_c 9.561278
_cell_angle_alpha 108.763420
_cell_angle_beta 119.402982
_cell_angle_gamma 44.744239
_cell_volume 615.289660
_symmetry_space_group_name_H-M "P -1"
_symmetry_group_IT_number 2
_symmetry_cell_setting 'triclinic'
loop_
_space_group_symop_operation_xyz
x,y,z
-x,-y,-z
loop_
_atom_site_type_symbol
_atom_site_label
_atom_site_fract_x
_atom_site_fract_y
_atom_site_fract_z
Si Si1 0.400460 0.965449 0.543090
Si Si2 0.350407 0.723749 0.937178
Si Si3 0.982936 0.799774 0.734004
Si Si4 0.963360 0.501753 0.142513
Si Si5 0.052340 0.730072 0.434583
Si Si6 0.558290 0.855841 0.114895
Si Si7 0.682324 0.202841 0.379167
O O1 0.373794 0.097804 0.699546
O O2 0.225032 0.014847 0.376293
O O3 0.500000 0.000000 0.500000
O O4 0.472387 0.773564 0.605492
O O5 0.135001 0.816305 0.869020
O O6 0.382115 0.721809 0.788516
O O7 0.500000 0.500000 0.000000
O O8 0.396688 0.851889 0.064705
O O9 0.952413 0.699092 0.801695
O O10 0.068402 0.680639 0.593648
O O11 0.739567 0.641646 0.092571
O O12 0.032268 0.598709 0.292520
O O13 0.000000 0.500000 0.000000
O O14 0.228318 0.710508 0.484735
O O15 0.865257 0.964348 0.388300
O O16 0.500000 0.000000 0.000000
#
# Coordination Sequence:
#
# PCOD9026671 Si02
#       7
#     2   2   2   2   2   2   2
#     4  11  24  42  68  97 131 176 226 276 332 402
#     4  11  21  38  68  97 131 175 218 279 338 390
#     4  10  22  41  65  91 132 172 229 261 335 403
#     4  12  24  38  65  99 136 175 220 277 339 394
#     4   9  18  38  66  90 120 177 219 275 323 401
#     4  12  24  44  68  97 138 178 224 275 340 402
#     4   9  18  37  66  90 126 168 227 266 336 392
#
# _framework density 22.753509999999999
#
# number of rings (size 3 to 8) (size 9 to 14) (size 15 to 20)
#    0.000    1.429    5.714    1.286    2.000    0.000 
#    2.571    0.714    0.000    3.429    0.000    0.000 
#    0.000    0.000    0.000    0.000    0.000    0.000 
#
# Total GULP energy -78099.144539 kJ/mol
# GULP energy per Si atom -5578.510324 kJ/mol
# Density = 2.270172 g / cm^3
# Si number density = 22.753510 Si / 1000 Ang^3
#
#
#
# Elastic Constant Matrix: (Units=GPa)
#
#
# Indices 1 2 3 4 5 6 
#
# 1 136.9343 19.2675 55.2212 8.4935 6.3028 45.0134
# 2 19.2675 52.6393 25.1051 -17.2485 -3.9162 23.0244
# 3 55.2212 25.1051 84.6937 -8.4171 3.8728 15.0063
# 4 8.4935 -17.2485 -8.4171 37.6877 17.2294 -0.7943
# 5 6.3028 -3.9162 3.8728 17.2294 60.3767 -3.8516
# 6 45.0134 23.0244 15.0063 -0.7943 -3.8516 39.5795
#
#
#
# Elastic Compliance Matrix: (Units=1/GPa)
#
#
# Indices 1 2 3 4 5 6 
#
# 1 0.016849 0.005479 -0.009546 -0.003343 -0.001043 -0.018899
# 2 0.005479 0.035950 -0.008397 0.014360 -0.003330 -0.023996
# 3 -0.009546 -0.008397 0.019439 0.003388 -0.001231 0.008319
# 4 -0.003343 0.014360 0.003388 0.039307 -0.010541 -0.006072
# 5 -0.001043 -0.003330 -0.001231 -0.010541 0.019881 0.005313
# 6 -0.018899 -0.023996 0.008319 -0.006072 0.005313 0.057959
#
#
# Mechanical properties :
#
#
# Convention : Reuss Voigt Hill
#
# Bulk Modulus (GPa) = 21.13751 52.60610 36.87181
# Shear Modulus (GPa) = 21.73102 39.17369 30.45236
#
# Velocity S-wave (km/s) = 3.09376 4.15378 3.66233
# Velocity P-wave (km/s) = 4.69806 6.79525 5.84154
#
# Compressibility (1/GPa) = 0.04730926
#
# Stress axis : x y z
#
# Youngs Moduli (GPa) = 59.34940 27.81630 51.44179
#
# Poissons Ratio (x) = -0.15239 0.49106
# Poissons Ratio (y) = -0.32515 0.43198
# Poissons Ratio (z) = 0.56655 0.23359
#
# Static dielectric constant tensor:
#      x y z
#    x 1.988980 -0.028950 0.026680 
#    y -0.028950 1.916490 -0.057430 
#    z 0.026680 -0.057430 1.887380 
# 
# From -- ./inp_files/245188.got.cif
#   From: 2010.05.17/outbox.cif.g08.bks.cpg/sg2_123_cif.got.tgz:245188.got - 2010.06.03 11:33:40.
