data_PCOD9026967
_publ_section_title
;
Structure prediction by ZEFSAII (Michael W. Deem and Ramdas Pophale) SiO2 
 PCOD9026967
Probable space group: P -1
;
_chemical_formula_sum "Si O2"
_cell_formula_units_Z 15
_cell_length_a 22.628747
_cell_length_b 7.479950
_cell_length_c 10.739743
_cell_angle_alpha 134.379523
_cell_angle_beta 148.761118
_cell_angle_gamma 57.859424
_cell_volume 663.028427
_symmetry_space_group_name_H-M "P -1"
_symmetry_group_IT_number 2
_symmetry_cell_setting 'triclinic'
loop_
_space_group_symop_operation_xyz
x,y,z
-x,-y,-z
loop_
_atom_site_type_symbol
_atom_site_label
_atom_site_fract_x
_atom_site_fract_y
_atom_site_fract_z
Si Si1 0.171460 0.271060 0.381696
Si Si2 0.460659 0.669603 0.350928
Si Si3 0.000000 0.500000 0.000000
Si Si4 0.588582 0.343020 0.025410
Si Si5 0.073617 0.068952 0.788623
Si Si6 0.231196 0.836415 0.101180
Si Si7 0.363369 0.158817 0.045533
Si Si8 0.871414 0.743398 0.409917
O O1 0.069763 0.377649 0.178878
O O2 0.141632 0.234492 0.455199
O O3 0.203928 0.018217 0.252069
O O4 0.285930 0.485766 0.681779
O O5 0.456844 0.742404 0.236042
O O6 0.363593 0.795609 0.310480
O O7 0.414873 0.365946 0.135849
O O8 0.581593 0.726974 0.669277
O O9 0.925890 0.640838 0.035854
O O10 0.599837 0.112042 0.023952
O O11 0.500000 0.500000 0.000000
O O12 0.000000 0.000000 0.500000
O O13 0.993054 0.898460 0.662677
O O14 0.195127 0.977276 0.980075
O O15 0.157621 0.550149 0.827275
O O16 0.226027 0.126749 0.770184
#
# Coordination Sequence:
#
# PCOD9026967 Si02
#       8
#     2   2   1   2   2   2   2   2
#     4  11  23  44  67  97 136 176 224 276 340 397
#     4  10  22  45  65  95 138 173 224 286 326 404
#     4  10  24  42  66  98 138 170 222 286 320 406
#     4  12  24  42  68  98 136 180 223 278 338 397
#     4  11  24  40  67  97 131 176 226 272 336 402
#     4  10  22  41  66  92 130 175 219 274 335 392
#     4  10  22  41  68  94 128 181 219 273 343 382
#     4  11  23  44  68  94 136 178 219 285 331 401
#
# _framework density 22.623463000000001
#
# number of rings (size 3 to 8) (size 9 to 14) (size 15 to 20)
#    0.000    1.333    2.667    3.200    1.867    3.733 
#    9.600    0.000    0.000    0.000    0.000    0.000 
#    0.000    0.000    0.000    0.000    0.000    0.000 
#
# Total GULP energy -83610.423776 kJ/mol
# GULP energy per Si atom -5574.028252 kJ/mol
# Density = 2.257197 g / cm^3
# Si number density = 22.623463 Si / 1000 Ang^3
#
#
#
# Elastic Constant Matrix: (Units=GPa)
#
#
# Indices 1 2 3 4 5 6 
#
# 1 72.2584 39.9294 26.4866 -3.5550 1.0827 6.5310
# 2 39.9294 168.5232 25.7161 -23.8501 -7.7499 -6.1970
# 3 26.4866 25.7161 72.3736 -14.5509 -15.1380 4.1782
# 4 -3.5550 -23.8501 -14.5509 39.8315 3.8295 -3.3955
# 5 1.0827 -7.7499 -15.1380 3.8295 29.7145 1.0896
# 6 6.5310 -6.1970 4.1782 -3.3955 1.0896 18.9847
#
#
#
# Elastic Compliance Matrix: (Units=1/GPa)
#
#
# Indices 1 2 3 4 5 6 
#
# 1 0.019347 -0.004535 -0.006752 -0.003612 -0.004604 -0.007032
# 2 -0.004535 0.007933 -0.000250 0.004547 0.001340 0.004941
# 3 -0.006752 -0.000250 0.019532 0.005328 0.009505 -0.001650
# 4 -0.003612 0.004547 0.005328 0.030053 -0.000095 0.006935
# 5 -0.004604 0.001340 0.009505 -0.000095 0.039111 -0.002332
# 6 -0.007032 0.004941 -0.001650 0.006935 -0.002332 0.058443
#
#
# Mechanical properties :
#
#
# Convention : Reuss Voigt Hill
#
# Bulk Modulus (GPa) = 42.12821 55.26883 48.69852
# Shear Modulus (GPa) = 24.34189 32.44102 28.39145
#
# Velocity S-wave (km/s) = 3.28374 3.79087 3.54638
# Velocity P-wave (km/s) = 5.74797 6.60635 6.19205
#
# Compressibility (1/GPa) = 0.02373706
#
# Stress axis : x y z
#
# Youngs Moduli (GPa) = 51.68668 126.04940 51.19835
#
# Poissons Ratio (x) = 0.57167 0.34571
# Poissons Ratio (y) = 0.23441 0.01280
# Poissons Ratio (z) = 0.34901 0.03152
#
# Static dielectric constant tensor:
#      x y z
#    x 1.870400 0.003350 -0.021650 
#    y 0.003350 1.852860 0.046150 
#    z -0.021650 0.046150 1.873330 
# 
# From -- ./inp_files/474357.got.cif
#   From: 2010.05.17/outbox.cif.g08.bks.cpg/sg2_238_cif.got.tgz:474357.got - 2010.06.03 11:33:40.
