data_PCOD9026079
_publ_section_title
;
Structure prediction by ZEFSAII (Michael W. Deem and Ramdas Pophale) SiO2 
 PCOD9026079
Probable space group: P -1
;
_chemical_formula_sum "Si O2"
_cell_formula_units_Z 16
_cell_length_a 7.659356
_cell_length_b 25.686865
_cell_length_c 4.973779
_cell_angle_alpha 91.199142
_cell_angle_beta 88.791914
_cell_angle_gamma 41.626739
_cell_volume 648.899787
_symmetry_space_group_name_H-M "P -1"
_symmetry_group_IT_number 2
_symmetry_cell_setting 'triclinic'
loop_
_space_group_symop_operation_xyz
x,y,z
-x,-y,-z
loop_
_atom_site_type_symbol
_atom_site_label
_atom_site_fract_x
_atom_site_fract_y
_atom_site_fract_z
Si Si1 0.497782 0.200301 0.545486
Si Si2 0.034436 0.903145 0.903057
Si Si3 0.982247 0.367154 0.660511
Si Si4 0.735528 0.233756 0.852826
Si Si5 0.244121 0.947971 0.280864
Si Si6 0.461236 0.656818 0.631032
Si Si7 0.970195 0.440155 0.198956
Si Si8 0.460313 0.571157 0.000457
O O1 0.751793 0.156049 0.346226
O O2 0.217330 0.285334 0.484654
O O3 0.546237 0.226144 0.806340
O O4 0.509526 0.136061 0.597718
O O5 0.006247 0.858229 0.084627
O O6 0.166613 0.922612 0.056408
O O7 0.767683 0.990186 0.813587
O O8 0.851571 0.430530 0.438504
O O9 0.799533 0.365143 0.807451
O O10 0.046570 0.391601 0.916638
O O11 0.670052 0.286711 0.614753
O O12 0.667167 0.282517 0.115283
O O13 0.000000 0.000000 0.500000
O O14 0.773883 0.596064 0.657713
O O15 0.422125 0.606333 0.719961
O O16 0.732166 0.531068 0.122730
O O17 0.500000 0.500000 0.000000
#
# Coordination Sequence:
#
# PCOD9026079 Si02
#       8
#     2   2   2   2   2   2   2   2
#     4  10  17  31  55  83 120 154 194 236 289 339
#     4   9  16  30  50  85 125 152 186 236 291 333
#     4  11  22  38  60  85 116 155 193 245 298 347
#     4  11  20  33  57  85 114 148 193 245 284 342
#     4   8  16  26  47  84 126 155 182 228 292 339
#     4  12  22  38  60  87 110 154 202 245 298 350
#     4  11  21  40  61  84 110 152 197 249 300 350
#     4  10  26  44  60  83 119 153 197 250 305 356
#
# _framework density 24.657119999999999
#
# number of rings (size 3 to 8) (size 9 to 14) (size 15 to 20)
#    0.000    1.750    3.750    0.750    1.750    4.000 
#    0.000    4.375    0.000    0.000    0.000    1.750 
#    0.000    1.125    0.000    0.000    0.000    0.000 
#
# Total GULP energy -89108.299247 kJ/mol
# GULP energy per Si atom -5569.268703 kJ/mol
# Density = 2.460100 g / cm^3
# Si number density = 24.657120 Si / 1000 Ang^3
#
#
#
# Elastic Constant Matrix: (Units=GPa)
#
#
# Indices 1 2 3 4 5 6 
#
# 1 44.8325 22.0742 24.1799 -8.3156 -4.5571 25.1191
# 2 22.0742 148.1976 38.9135 -31.1723 -17.7376 28.9332
# 3 24.1799 38.9135 105.9047 -25.9515 0.7173 8.4234
# 4 -8.3156 -31.1723 -25.9515 58.4446 13.1251 -8.5606
# 5 -4.5571 -17.7376 0.7173 13.1251 27.4481 -6.3978
# 6 25.1191 28.9332 8.4234 -8.5606 -6.3978 18.8358
#
#
#
# Elastic Compliance Matrix: (Units=1/GPa)
#
#
# Indices 1 2 3 4 5 6 
#
# 1 0.186165 0.035727 -0.034828 -0.011291 -0.008601 -0.295625
# 2 0.035727 0.017675 -0.009091 -0.000111 0.001245 -0.070358
# 3 -0.034828 -0.009091 0.018087 0.006813 -0.002683 0.054507
# 4 -0.011291 -0.000111 0.006813 0.023319 -0.008650 0.019842
# 5 -0.008601 0.001245 -0.002683 -0.008650 0.045184 0.022173
# 6 -0.295625 -0.070358 0.054507 0.019842 0.022173 0.547580
#
#
# Mechanical properties :
#
#
# Convention : Reuss Voigt Hill
#
# Bulk Modulus (GPa) = 4.86514 52.14111 28.50312
# Shear Modulus (GPa) = 5.41766 35.19685 20.30725
#
# Velocity S-wave (km/s) = 1.48390 3.78226 2.87293
# Velocity P-wave (km/s) = 2.21661 6.34558 4.75288
#
# Compressibility (1/GPa) = 0.20554387
#
# Stress axis : x y z
#
# Youngs Moduli (GPa) = 5.37158 56.57654 55.28801
#
# Poissons Ratio (x) = -2.02132 1.92555
# Poissons Ratio (y) = -0.19191 0.50264
# Poissons Ratio (z) = 0.18708 0.51436
#
# Static dielectric constant tensor:
#      x y z
#    x 2.113750 -0.010550 0.025060 
#    y -0.010550 2.176450 -0.016890 
#    z 0.025060 -0.016890 2.085720 
# 
# From -- ./inp_files/56392.got.cif
#   From: 2010.05.17/outbox.cif.g08.bks.cpg/sg2_29_cif.got.tgz:56392.got - 2010.06.03 11:33:40.
