data_PCOD9026042
_publ_section_title
;
Structure prediction by ZEFSAII (Michael W. Deem and Ramdas Pophale) SiO2 
 PCOD9026042
Probable space group: P -1
;
_chemical_formula_sum "Si O2"
_cell_formula_units_Z 12
_cell_length_a 18.471206
_cell_length_b 5.188608
_cell_length_c 7.284292
_cell_angle_alpha 105.456131
_cell_angle_beta 133.377633
_cell_angle_gamma 92.398653
_cell_volume 463.192256
_symmetry_space_group_name_H-M "P -1"
_symmetry_group_IT_number 2
_symmetry_cell_setting 'triclinic'
loop_
_space_group_symop_operation_xyz
x,y,z
-x,-y,-z
loop_
_atom_site_type_symbol
_atom_site_label
_atom_site_fract_x
_atom_site_fract_y
_atom_site_fract_z
Si Si1 0.540481 0.738296 0.851555
Si Si2 0.030765 0.449201 0.251666
Si Si3 0.102237 0.066251 0.562326
Si Si4 0.671255 0.281589 0.346419
Si Si5 0.802163 0.413386 0.947176
Si Si6 0.626416 0.252138 0.865586
O O1 0.428272 0.637997 0.734633
O O2 0.575831 0.492438 0.781756
O O3 0.542459 0.969920 0.744633
O O4 0.625560 0.938329 0.182038
O O5 0.076389 0.206411 0.355883
O O6 0.111844 0.759052 0.497342
O O7 0.000000 0.500000 0.000000
O O8 0.917939 0.384639 0.148957
O O9 0.188649 0.296802 0.874330
O O10 0.000000 0.000000 0.500000
O O11 0.766253 0.402210 0.672824
O O12 0.690838 0.373796 0.188803
O O13 0.704497 0.196437 0.841616
#
# Coordination Sequence:
#
# PCOD9026042 Si02
#       6
#     2   2   2   2   2   2
#     4   9  21  44  62  89 137 170 205 266 318 374
#     4  11  25  46  70  93 133 176 211 270 337 387
#     4  10  23  46  64  94 134 165 213 272 328 388
#     4   9  22  42  64  95 128 171 216 256 320 380
#     4  11  24  41  68  99 125 170 218 267 313 388
#     4  10  22  41  61  93 130 167 212 268 308 380
#
# _framework density 25.907169
#
# number of rings (size 3 to 8) (size 9 to 14) (size 15 to 20)
#    1.000    1.000    0.000    3.000    2.333    6.667 
#   12.000    0.000    0.000    0.000    0.000    0.000 
#    0.000    0.000    0.000    0.000    0.000    0.000 
#
# Total GULP energy -67075.553759 kJ/mol
# GULP energy per Si atom -5589.629480 kJ/mol
# Density = 2.584820 g / cm^3
# Si number density = 25.907169 Si / 1000 Ang^3
#
#
#
# Elastic Constant Matrix: (Units=GPa)
#
#
# Indices 1 2 3 4 5 6 
#
# 1 95.9405 30.3415 5.5075 -11.1315 9.1652 8.0053
# 2 30.3415 121.4749 17.3357 -21.6523 9.5605 0.4229
# 3 5.5075 17.3357 120.9171 -8.9460 -10.9876 -5.2366
# 4 -11.1315 -21.6523 -8.9460 32.3565 9.6545 -6.7806
# 5 9.1652 9.5605 -10.9876 9.6545 42.5514 -13.8458
# 6 8.0053 0.4229 -5.2366 -6.7806 -13.8458 32.1154
#
#
#
# Elastic Compliance Matrix: (Units=1/GPa)
#
#
# Indices 1 2 3 4 5 6 
#
# 1 0.012263 -0.002056 -0.000634 0.003079 -0.004478 -0.004413
# 2 -0.002056 0.010494 -0.001232 0.007126 -0.003843 0.000021
# 3 -0.000634 -0.001232 0.009034 0.001097 0.003616 0.003438
# 4 0.003079 0.007126 0.001097 0.040793 -0.010068 0.003590
# 5 -0.004478 -0.003843 0.003616 -0.010068 0.033065 0.013886
# 6 -0.004413 0.000021 0.003438 0.003590 0.013886 0.039543
#
#
# Mechanical properties :
#
#
# Convention : Reuss Voigt Hill
#
# Bulk Modulus (GPa) = 41.75838 49.41132 45.58485
# Shear Modulus (GPa) = 31.05237 40.41451 35.73344
#
# Velocity S-wave (km/s) = 3.46584 3.95394 3.71791
# Velocity P-wave (km/s) = 5.67182 6.32129 6.00534
#
# Compressibility (1/GPa) = 0.02394729
#
# Stress axis : x y z
#
# Youngs Moduli (GPa) = 81.54628 95.29285 110.68998
#
# Poissons Ratio (x) = 0.19592 0.07018
# Poissons Ratio (y) = 0.16765 0.13637
# Poissons Ratio (z) = 0.05170 0.11740
#
# Static dielectric constant tensor:
#      x y z
#    x 2.030800 0.021600 -0.046350 
#    y 0.021600 2.023930 0.004440 
#    z -0.046350 0.004440 2.133190 
# 
# From -- ./inp_files/340517.got.cif
#   From: 2010.05.17/outbox.cif.g08.bks.cpg/sg2_171_cif.got.tgz:340517.got - 2010.06.03 11:33:40.
