data_PCOD9026565
_publ_section_title
;
Structure prediction by ZEFSAII (Michael W. Deem and Ramdas Pophale) SiO2 
 PCOD9026565
Probable space group: P -1
;
_chemical_formula_sum "Si O2"
_cell_formula_units_Z 13
_cell_length_a 16.655706
_cell_length_b 8.222295
_cell_length_c 7.044667
_cell_angle_alpha 122.966452
_cell_angle_beta 71.405908
_cell_angle_gamma 65.865627
_cell_volume 522.360641
_symmetry_space_group_name_H-M "P -1"
_symmetry_group_IT_number 2
_symmetry_cell_setting 'triclinic'
loop_
_space_group_symop_operation_xyz
x,y,z
-x,-y,-z
loop_
_atom_site_type_symbol
_atom_site_label
_atom_site_fract_x
_atom_site_fract_y
_atom_site_fract_z
Si Si1 0.557869 0.087081 0.733888
Si Si2 0.915774 0.372889 0.793786
Si Si3 0.625392 0.217260 0.120391
Si Si4 0.000000 0.500000 0.500000
Si Si5 0.045682 0.106042 0.917401
Si Si6 0.320911 0.475469 0.928853
Si Si7 0.734261 0.017259 0.307034
O O1 0.413231 0.313026 0.935850
O O2 0.618512 0.780913 0.430342
O O3 0.608320 0.173346 0.608033
O O4 0.592298 0.101331 0.926303
O O5 0.994986 0.185943 0.795249
O O6 0.992502 0.314056 0.518719
O O7 0.813055 0.383148 0.834512
O O8 0.828239 0.703513 0.123584
O O9 0.500000 0.500000 0.500000
O O10 0.679164 0.310630 0.024636
O O11 0.719415 0.000909 0.082105
O O12 0.012019 0.610658 0.753406
O O13 0.194579 0.899859 0.679063
O O14 0.000000 0.000000 0.000000
#
# Coordination Sequence:
#
# PCOD9026565 Si02
#       7
#     2   2   2   1   2   2   2
#     4  10  23  44  64  90 137 170 212 284 323 387
#     4  10  23  44  67  98 133 173 223 268 328 398
#     4  12  24  40  65  98 131 173 224 266 330 393
#     4  10  22  42  66  94 134 174 214 266 332 374
#     4  11  24  43  69  99 131 170 225 273 324 397
#     4  10  22  43  64  96 130 173 221 268 332 392
#     4  10  22  41  64  97 129 173 220 265 334 390
#
# _framework density 24.887018000000001
#
# number of rings (size 3 to 8) (size 9 to 14) (size 15 to 20)
#    0.000    1.538    1.538    3.231    0.000    9.846 
#    2.769    0.000    0.000    0.000    0.000    0.000 
#    0.000    0.000    0.000    0.000    0.000    0.000 
#
# Total GULP energy -72548.396981 kJ/mol
# GULP energy per Si atom -5580.645922 kJ/mol
# Density = 2.483037 g / cm^3
# Si number density = 24.887018 Si / 1000 Ang^3
#
#
#
# Elastic Constant Matrix: (Units=GPa)
#
#
# Indices 1 2 3 4 5 6 
#
# 1 175.8445 55.4806 60.7738 -19.2349 23.2966 -14.0528
# 2 55.4806 111.0064 53.6301 -26.3705 5.9557 -16.7775
# 3 60.7738 53.6301 74.3051 -5.6657 22.2276 -10.3681
# 4 -19.2349 -26.3705 -5.6657 45.0804 5.9095 13.0430
# 5 23.2966 5.9557 22.2276 5.9095 35.3968 -11.5415
# 6 -14.0528 -16.7775 -10.3681 13.0430 -11.5415 38.2629
#
#
#
# Elastic Compliance Matrix: (Units=1/GPa)
#
#
# Indices 1 2 3 4 5 6 
#
# 1 0.008438 -0.000910 -0.005273 0.002929 -0.002760 -0.000560
# 2 -0.000910 0.017142 -0.012307 0.006423 0.005447 0.003301
# 3 -0.005273 -0.012307 0.030159 -0.003265 -0.013548 -0.002134
# 4 0.002929 0.006423 -0.003265 0.031059 -0.009555 -0.010462
# 5 -0.002760 0.005447 -0.013548 -0.009555 0.043883 0.014197
# 6 -0.000560 0.003301 -0.002134 -0.010462 0.014197 0.034647
#
#
# Mechanical properties :
#
#
# Convention : Reuss Voigt Hill
#
# Bulk Modulus (GPa) = 53.30901 77.88054 65.59478
# Shear Modulus (GPa) = 23.97378 36.49945 30.23662
#
# Velocity S-wave (km/s) = 3.10708 3.83378 3.48940
# Velocity P-wave (km/s) = 5.85994 7.13854 6.53061
#
# Compressibility (1/GPa) = 0.01875855
#
# Stress axis : x y z
#
# Youngs Moduli (GPa) = 118.51239 58.33769 33.15706
#
# Poissons Ratio (x) = 0.05310 0.17485
# Poissons Ratio (y) = 0.10788 0.40805
# Poissons Ratio (z) = 0.62496 0.71794
#
# Static dielectric constant tensor:
#      x y z
#    x 2.015130 0.053560 0.031050 
#    y 0.053560 1.750740 -0.117260 
#    z 0.031050 -0.117260 1.825240 
# 
# From -- ./inp_files/87916.got.cif
#   From: 2010.05.17/outbox.cif.g08.bks.cpg/sg2_44_cif.got.tgz:87916.got - 2010.06.03 11:33:40.
