data_PCOD9026848
_publ_section_title
;
Structure prediction by ZEFSAII (Michael W. Deem and Ramdas Pophale) SiO2 
 PCOD9026848
Probable space group: P -1
;
_chemical_formula_sum "Si O2"
_cell_formula_units_Z 14
_cell_length_a 8.914408
_cell_length_b 6.570912
_cell_length_c 15.367733
_cell_angle_alpha 70.651661
_cell_angle_beta 47.664884
_cell_angle_gamma 73.640291
_cell_volume 625.629973
_symmetry_space_group_name_H-M "P -1"
_symmetry_group_IT_number 2
_symmetry_cell_setting 'triclinic'
loop_
_space_group_symop_operation_xyz
x,y,z
-x,-y,-z
loop_
_atom_site_type_symbol
_atom_site_label
_atom_site_fract_x
_atom_site_fract_y
_atom_site_fract_z
Si Si1 0.400661 0.481334 0.138051
Si Si2 0.002043 0.980199 0.397058
Si Si3 0.374372 0.387835 0.676201
Si Si4 0.464419 0.991835 0.220577
Si Si5 0.658800 0.838685 0.013798
Si Si6 0.020376 0.379632 0.215004
Si Si7 0.367470 0.231296 0.506066
O O1 0.528897 0.639936 0.118873
O O2 0.164647 0.517129 0.199191
O O3 0.425626 0.248627 0.206082
O O4 0.500000 0.500000 0.000000
O O5 0.936917 0.203450 0.338416
O O6 0.842023 0.814791 0.452677
O O7 0.000000 0.000000 0.500000
O O8 0.239900 0.929999 0.285400
O O9 0.481395 0.162967 0.698956
O O10 0.332171 0.343339 0.597734
O O11 0.509154 0.587373 0.614297
O O12 0.151598 0.468051 0.786572
O O13 0.665132 0.960664 0.084740
O O14 0.843484 0.755135 0.892256
O O15 0.500000 0.000000 0.000000
O O16 0.500000 0.000000 0.500000
#
# Coordination Sequence:
#
# PCOD9026848 Si02
#       7
#     2   2   2   2   2   2   2
#     4   9  19  39  64  91 128 170 222 278 322 390
#     4  11  23  42  72  99 130 174 237 278 329 403
#     4  11  26  43  65 104 139 183 223 271 356 398
#     4  11  24  41  67  99 134 173 232 277 325 416
#     4  11  20  40  69  96 131 177 227 276 339 388
#     4  10  22  41  65  99 136 175 222 277 340 406
#     4  11  24  46  69  93 146 183 219 283 341 403
#
# _framework density 22.377445999999999
#
# number of rings (size 3 to 8) (size 9 to 14) (size 15 to 20)
#    0.000    1.429    5.714    0.857    4.000    4.571 
#    0.000    2.857    0.000    0.000    0.000    0.000 
#    0.000    0.000    0.000    0.000    0.000    0.000 
#
# Total GULP energy -78020.145079 kJ/mol
# GULP energy per Si atom -5572.867506 kJ/mol
# Density = 2.232651 g / cm^3
# Si number density = 22.377446 Si / 1000 Ang^3
#
#
#
# Elastic Constant Matrix: (Units=GPa)
#
#
# Indices 1 2 3 4 5 6 
#
# 1 86.4837 33.7799 28.7887 -19.6136 -14.8767 -10.8998
# 2 33.7799 74.4280 33.3077 -6.1634 -17.6980 -19.2614
# 3 28.7887 33.3077 75.3346 -11.9064 -10.2440 -2.7994
# 4 -19.6136 -6.1634 -11.9064 43.8881 4.8017 2.4495
# 5 -14.8767 -17.6980 -10.2440 4.8017 24.2140 0.7970
# 6 -10.8998 -19.2614 -2.7994 2.4495 0.7970 37.0247
#
#
#
# Elastic Compliance Matrix: (Units=1/GPa)
#
#
# Indices 1 2 3 4 5 6 
#
# 1 0.016397 -0.004029 -0.002917 0.005334 0.004770 0.002055
# 2 -0.004029 0.024005 -0.007411 -0.002352 0.012051 0.010638
# 3 -0.002917 -0.007411 0.017961 0.002730 -0.000035 -0.003536
# 4 0.005334 -0.002352 0.002730 0.025902 -0.002387 -0.001109
# 5 0.004770 0.012051 -0.000035 -0.002387 0.053275 0.006682
# 6 0.002055 0.010638 -0.003536 -0.001109 0.006682 0.032810
#
#
# Mechanical properties :
#
#
# Convention : Reuss Voigt Hill
#
# Bulk Modulus (GPa) = 33.72868 47.55542 40.64205
# Shear Modulus (GPa) = 23.92960 30.38336 27.15648
#
# Velocity S-wave (km/s) = 3.27366 3.68879 3.48741
# Velocity P-wave (km/s) = 5.42167 6.28017 5.86664
#
# Compressibility (1/GPa) = 0.02964836
#
# Stress axis : x y z
#
# Youngs Moduli (GPa) = 60.98835 41.65842 55.67716
#
# Poissons Ratio (x) = 0.16783 0.16239
# Poissons Ratio (y) = 0.24571 0.41265
# Poissons Ratio (z) = 0.17788 0.30875
#
# Static dielectric constant tensor:
#      x y z
#    x 1.898210 0.064340 0.070790 
#    y 0.064340 1.934500 0.056640 
#    z 0.070790 0.056640 1.984900 
# 
# From -- ./inp_files/553221.got.cif
#   From: 2010.05.17/outbox.cif.g08.bks.cpg/sg2_277_cif.got.tgz:553221.got - 2010.06.03 11:33:40.
