data_PCOD9026943
_publ_section_title
;
Structure prediction by ZEFSAII (Michael W. Deem and Ramdas Pophale) SiO2 
 PCOD9026943
Probable space group: P -1
;
_chemical_formula_sum "Si O2"
_cell_formula_units_Z 16
_cell_length_a 11.440542
_cell_length_b 7.969656
_cell_length_c 15.945917
_cell_angle_alpha 38.348130
_cell_angle_beta 62.785260
_cell_angle_gamma 77.982801
_cell_volume 771.797583
_symmetry_space_group_name_H-M "P -1"
_symmetry_group_IT_number 2
_symmetry_cell_setting 'triclinic'
loop_
_space_group_symop_operation_xyz
x,y,z
-x,-y,-z
loop_
_atom_site_type_symbol
_atom_site_label
_atom_site_fract_x
_atom_site_fract_y
_atom_site_fract_z
Si Si1 0.372038 0.848158 0.953217
Si Si2 0.741320 0.079603 0.866204
Si Si3 0.556641 0.537170 0.077367
Si Si4 0.000254 0.926093 0.803961
Si Si5 0.591004 0.901977 0.578329
Si Si6 0.580216 0.286523 0.592905
Si Si7 0.176453 0.660097 0.965726
Si Si8 0.211084 0.373208 0.471202
O O1 0.476437 0.074679 0.773052
O O2 0.357682 0.947228 0.012377
O O3 0.424892 0.566848 0.055475
O O4 0.216957 0.781394 0.996397
O O5 0.784523 0.386840 0.692286
O O6 0.876896 0.980361 0.877198
O O7 0.650997 0.855153 0.919510
O O8 0.488676 0.402845 0.239116
O O9 0.672946 0.370096 0.095533
O O10 0.931657 0.642430 0.885840
O O11 0.063759 0.192786 0.621002
O O12 0.119689 0.861552 0.845941
O O13 0.719292 0.850568 0.506855
O O14 0.500000 0.000000 0.500000
O O15 0.615273 0.108595 0.571557
O O16 0.500000 0.500000 0.500000
O O17 0.704382 0.467252 0.538421
#
# Coordination Sequence:
#
# PCOD9026943 Si02
#       8
#     2   2   2   2   2   2   2   2
#     4  12  22  40  68 102 131 164 227 282 338 403
#     4  11  24  41  69  94 134 184 219 281 333 397
#     4  11  21  40  66  98 133 167 212 285 345 392
#     4  10  24  46  63  88 134 189 226 266 332 391
#     4  12  24  39  67 101 138 176 215 277 352 401
#     4  12  25  41  67 104 138 174 216 282 349 400
#     4  10  22  41  66  91 126 175 227 273 324 401
#     4  12  23  45  64  98 141 174 227 275 334 402
#
# _framework density 20.730823999999998
#
# number of rings (size 3 to 8) (size 9 to 14) (size 15 to 20)
#    0.000    0.750    5.000    3.375    0.000    0.500 
#    2.250    0.625    0.000    0.000    0.000    0.000 
#    0.000    0.000    0.000    0.000    0.000    0.000 
#
# Total GULP energy -89181.975232 kJ/mol
# GULP energy per Si atom -5573.873452 kJ/mol
# Density = 2.068364 g / cm^3
# Si number density = 20.730824 Si / 1000 Ang^3
#
#
#
# Elastic Constant Matrix: (Units=GPa)
#
#
# Indices 1 2 3 4 5 6 
#
# 1 95.2907 13.0090 16.6348 4.5919 12.2151 -2.8941
# 2 13.0090 98.7154 16.0531 7.1064 -4.7700 -5.7114
# 3 16.6348 16.0531 93.1160 -6.8918 5.4495 1.1839
# 4 4.5919 7.1064 -6.8918 23.4990 -4.5242 -2.2307
# 5 12.2151 -4.7700 5.4495 -4.5242 31.8271 -2.0115
# 6 -2.8941 -5.7114 1.1839 -2.2307 -2.0115 26.4583
#
#
#
# Elastic Compliance Matrix: (Units=1/GPa)
#
#
# Indices 1 2 3 4 5 6 
#
# 1 0.011782 -0.001213 -0.001868 -0.003370 -0.004834 0.000459
# 2 -0.001213 0.011087 -0.002080 -0.003090 0.002187 0.002259
# 3 -0.001868 -0.002080 0.011815 0.004164 -0.001084 -0.000913
# 4 -0.003370 -0.003090 0.004164 0.047030 0.007010 0.003276
# 5 -0.004834 0.002187 -0.001084 0.007010 0.034990 0.003243
# 6 0.000459 0.002259 -0.000913 0.003276 0.003243 0.038897
#
#
# Mechanical properties :
#
#
# Convention : Reuss Voigt Hill
#
# Bulk Modulus (GPa) = 41.04907 42.05735 41.55321
# Shear Modulus (GPa) = 28.72846 32.45190 30.59018
#
# Velocity S-wave (km/s) = 3.72665 3.96080 3.84551
# Velocity P-wave (km/s) = 6.19364 6.42251 6.30911
#
# Compressibility (1/GPa) = 0.02436109
#
# Stress axis : x y z
#
# Youngs Moduli (GPa) = 84.87565 90.19443 84.63939
#
# Poissons Ratio (x) = 0.10943 0.15811
# Poissons Ratio (y) = 0.10298 0.17606
# Poissons Ratio (z) = 0.15855 0.18761
#
# Static dielectric constant tensor:
#      x y z
#    x 1.766910 0.050570 0.047190 
#    y 0.050570 1.901980 0.045630 
#    z 0.047190 0.045630 1.731460 
# 
# From -- ./inp_files/260119.got.cif
#   From: 2010.05.17/outbox.cif.g08.bks.cpg/sg2_131_cif.got.tgz:260119.got - 2010.06.03 11:33:40.
