data_PCOD9026026
_publ_section_title
;
Structure prediction by ZEFSAII (Michael W. Deem and Ramdas Pophale) SiO2 
 PCOD9026026
Probable space group: P -1
;
_chemical_formula_sum "Si O2"
_cell_formula_units_Z 15
_cell_length_a 8.559819
_cell_length_b 19.216803
_cell_length_c 6.818737
_cell_angle_alpha 132.325914
_cell_angle_beta 78.020495
_cell_angle_gamma 87.253125
_cell_volume 783.400271
_symmetry_space_group_name_H-M "P -1"
_symmetry_group_IT_number 2
_symmetry_cell_setting 'triclinic'
loop_
_space_group_symop_operation_xyz
x,y,z
-x,-y,-z
loop_
_atom_site_type_symbol
_atom_site_label
_atom_site_fract_x
_atom_site_fract_y
_atom_site_fract_z
Si Si1 0.559273 0.385365 0.234631
Si Si2 0.223777 0.200666 0.908981
Si Si3 0.699816 0.669385 0.527525
Si Si4 0.924695 0.966469 0.261493
Si Si5 0.000000 0.500000 0.000000
Si Si6 0.059787 0.689552 0.110056
Si Si7 0.471930 0.259401 0.688805
Si Si8 0.156199 0.849761 0.651829
O O1 0.500000 0.500000 0.500000
O O2 0.468112 0.340279 0.341645
O O3 0.757210 0.346433 0.102518
O O4 0.491741 0.352812 0.985258
O O5 0.202530 0.094759 0.759577
O O6 0.390888 0.197880 0.742231
O O7 0.073710 0.261612 0.927412
O O8 0.227338 0.260398 0.220504
O O9 0.648104 0.711374 0.407007
O O10 0.832068 0.565697 0.276787
O O11 0.855006 0.060372 0.322909
O O12 0.000000 0.000000 0.500000
O O13 0.063169 0.892533 0.954897
O O14 0.983691 0.400436 0.937479
O O15 0.072958 0.772782 0.421253
O O16 0.652968 0.203049 0.465504
#
# Coordination Sequence:
#
# PCOD9026026 Si02
#       8
#     2   2   2   2   1   2   2   2
#     4  10  22  41  61  91 126 174 221 257 308 379
#     4  11  24  41  67  94 130 165 214 270 317 382
#     4  11  24  41  60  94 134 174 210 263 322 371
#     4  11  23  42  72  96 123 167 215 268 326 384
#     4  12  22  38  66  92 130 172 212 260 324 370
#     4  11  22  42  64  96 129 166 217 264 316 383
#     4  10  24  42  63  93 136 167 209 267 319 380
#     4  10  24  44  65  97 127 165 217 264 323 381
#
# _framework density 19.147302
#
# number of rings (size 3 to 8) (size 9 to 14) (size 15 to 20)
#    0.000    1.333    4.000    0.800    1.867    3.733 
#    0.000    1.333    0.000    0.000    0.000    0.000 
#    0.000    0.000    0.000    0.000    0.000    0.000 
#
# Total GULP energy -83526.090826 kJ/mol
# GULP energy per Si atom -5568.406055 kJ/mol
# Density = 1.910372 g / cm^3
# Si number density = 19.147302 Si / 1000 Ang^3
#
#
#
# Elastic Constant Matrix: (Units=GPa)
#
#
# Indices 1 2 3 4 5 6 
#
# 1 64.2166 9.8435 27.4355 -1.5332 7.8352 7.8653
# 2 9.8435 80.8282 27.2323 9.6317 14.6946 18.3356
# 3 27.4355 27.2323 88.3820 1.3630 -3.4321 -7.0881
# 4 -1.5332 9.6317 1.3630 26.4615 0.6130 1.9668
# 5 7.8352 14.6946 -3.4321 0.6130 21.7763 -3.0253
# 6 7.8653 18.3356 -7.0881 1.9668 -3.0253 27.2809
#
#
#
# Elastic Compliance Matrix: (Units=1/GPa)
#
#
# Indices 1 2 3 4 5 6 
#
# 1 0.024103 0.008774 -0.012399 0.000639 -0.019098 -0.018231
# 2 0.008774 0.028735 -0.014871 -0.006409 -0.028659 -0.028422
# 3 -0.012399 -0.014871 0.022267 0.001458 0.020962 0.021574
# 4 0.000639 -0.006409 0.001458 0.039855 0.003482 0.002015
# 5 -0.019098 -0.028659 0.020962 0.003482 0.080745 0.038917
# 6 -0.018231 -0.028422 0.021574 0.002015 0.038917 0.070790
#
#
# Mechanical properties :
#
#
# Convention : Reuss Voigt Hill
#
# Bulk Modulus (GPa) = 26.23786 40.27213 33.25499
# Shear Modulus (GPa) = 15.81316 26.36477 21.08896
#
# Velocity S-wave (km/s) = 2.87691 3.71475 3.32235
# Velocity P-wave (km/s) = 4.97679 6.28312 5.66771
#
# Compressibility (1/GPa) = 0.03811287
#
# Stress axis : x y z
#
# Youngs Moduli (GPa) = 41.48840 34.80063 44.90915
#
# Poissons Ratio (x) = -0.30533 0.55683
# Poissons Ratio (y) = -0.36400 0.66784
# Poissons Ratio (z) = 0.51442 0.51752
#
# Static dielectric constant tensor:
#      x y z
#    x 1.663290 0.024140 -0.006640 
#    y 0.024140 1.650830 -0.008850 
#    z -0.006640 -0.008850 1.657760 
# 
# From -- ./inp_files/34557.got.cif
#   From: 2010.05.17/outbox.cif.g08.bks.cpg/sg2_18_cif.got.tgz:34557.got - 2010.06.03 11:33:40.
