data_PCOD9026570
_publ_section_title
;
Structure prediction by ZEFSAII (Michael W. Deem and Ramdas Pophale) SiO2 
 PCOD9026570
Probable space group: P -1
;
_chemical_formula_sum "Si O2"
_cell_formula_units_Z 14
_cell_length_a 9.485621
_cell_length_b 8.154925
_cell_length_c 19.631126
_cell_angle_alpha 129.858134
_cell_angle_beta 151.523199
_cell_angle_gamma 52.189784
_cell_volume 550.658788
_symmetry_space_group_name_H-M "P -1"
_symmetry_group_IT_number 2
_symmetry_cell_setting 'triclinic'
loop_
_space_group_symop_operation_xyz
x,y,z
-x,-y,-z
loop_
_atom_site_type_symbol
_atom_site_label
_atom_site_fract_x
_atom_site_fract_y
_atom_site_fract_z
Si Si1 0.636082 0.410929 0.462293
Si Si2 0.260270 0.190762 0.693763
Si Si3 0.514226 0.593088 0.955184
Si Si4 0.438020 0.860638 0.330701
Si Si5 0.916612 0.815539 0.635397
Si Si6 0.492398 0.041849 0.123357
Si Si7 0.185908 0.439756 0.158322
O O1 0.500000 0.500000 0.500000
O O2 0.794315 0.594525 0.541263
O O3 0.364953 0.378328 0.288384
O O4 0.905317 0.217308 0.535444
O O5 0.476921 0.105090 0.701346
O O6 0.365231 0.069791 0.776178
O O7 0.314400 0.442415 0.791095
O O8 0.431607 0.848176 0.997182
O O9 0.850508 0.540638 0.057481
O O10 0.500000 0.500000 0.000000
O O11 0.727863 0.892784 0.508024
O O12 0.350040 0.622132 0.240575
O O13 0.184036 0.025533 0.302542
O O14 0.257604 0.825151 0.765357
O O15 0.212711 0.218573 0.068649
#
# Coordination Sequence:
#
# PCOD9026570 Si02
#       7
#     2   2   2   2   2   2   2
#     4  11  24  41  66 101 131 168 217 277 320 389
#     4  11  25  41  65  99 134 163 228 272 317 385
#     4  10  23  45  63  94 138 173 213 273 324 384
#     4  10  22  41  64  97 132 172 213 274 323 390
#     4  10  22  41  66  94 138 171 211 265 342 379
#     4  11  23  43  69  95 129 182 214 265 330 389
#     4  11  23  43  70  91 132 177 218 260 336 388
#
# _framework density 25.424092000000002
#
# number of rings (size 3 to 8) (size 9 to 14) (size 15 to 20)
#    0.000    1.429    1.429    3.429    6.000    6.286 
#    2.571    1.429    0.000    0.000    0.000    0.000 
#    0.000    0.000    0.000    0.000    0.000    0.000 
#
# Total GULP energy -78482.123905 kJ/mol
# GULP energy per Si atom -5605.865993 kJ/mol
# Density = 2.536623 g / cm^3
# Si number density = 25.424092 Si / 1000 Ang^3
#
#
#
# Elastic Constant Matrix: (Units=GPa)
#
#
# Indices 1 2 3 4 5 6 
#
# 1 125.4712 18.5962 27.8677 -8.1099 2.0747 -3.9414
# 2 18.5962 115.2855 21.1682 8.9244 -1.5041 -25.9787
# 3 27.8677 21.1682 80.8581 -3.3744 -4.1856 -0.7293
# 4 -8.1099 8.9244 -3.3744 31.2124 15.7898 -4.1040
# 5 2.0747 -1.5041 -4.1856 15.7898 25.3321 4.5022
# 6 -3.9414 -25.9787 -0.7293 -4.1040 4.5022 43.6295
#
#
#
# Elastic Compliance Matrix: (Units=1/GPa)
#
#
# Indices 1 2 3 4 5 6 
#
# 1 0.009199 -0.001156 -0.002890 0.004804 -0.004473 0.001008
# 2 -0.001156 0.010948 -0.002487 -0.003758 0.001637 0.005850
# 3 -0.002890 -0.002487 0.014138 -0.000207 0.002878 -0.001822
# 4 0.004804 -0.003758 -0.000207 0.052817 -0.034771 0.006749
# 5 -0.004473 0.001637 0.002878 -0.034771 0.063728 -0.009228
# 6 0.001008 0.005850 -0.001822 0.006749 -0.009228 0.028052
#
#
# Mechanical properties :
#
#
# Convention : Reuss Voigt Hill
#
# Bulk Modulus (GPa) = 47.12699 50.76433 48.94566
# Shear Modulus (GPa) = 25.12298 36.96698 31.04498
#
# Velocity S-wave (km/s) = 3.14691 3.81729 3.49819
# Velocity P-wave (km/s) = 5.63743 6.28007 5.96741
#
# Compressibility (1/GPa) = 0.02121926
#
# Stress axis : x y z
#
# Youngs Moduli (GPa) = 108.70414 91.34156 70.73007
#
# Poissons Ratio (x) = 0.10563 0.20439
# Poissons Ratio (y) = 0.12571 0.17590
# Poissons Ratio (z) = 0.31413 0.22716
#
# Static dielectric constant tensor:
#      x y z
#    x 1.899890 -0.040560 -0.039560 
#    y -0.040560 1.928270 0.047500 
#    z -0.039560 0.047500 2.023520 
# 
# From -- ./inp_files/223999.got.cif
#   From: 2010.05.17/outbox.cif.g08.bks.cpg/sg2_112_cif.got.tgz:223999.got - 2010.06.03 11:33:40.
