data_PCOD9026972
_publ_section_title
;
Structure prediction by ZEFSAII (Michael W. Deem and Ramdas Pophale) SiO2 
 PCOD9026972
Probable space group: P -1
;
_chemical_formula_sum "Si O2"
_cell_formula_units_Z 14
_cell_length_a 7.928918
_cell_length_b 11.940580
_cell_length_c 15.555316
_cell_angle_alpha 50.002011
_cell_angle_beta 140.408769
_cell_angle_gamma 100.138448
_cell_volume 543.930191
_symmetry_space_group_name_H-M "P -1"
_symmetry_group_IT_number 2
_symmetry_cell_setting 'triclinic'
loop_
_space_group_symop_operation_xyz
x,y,z
-x,-y,-z
loop_
_atom_site_type_symbol
_atom_site_label
_atom_site_fract_x
_atom_site_fract_y
_atom_site_fract_z
Si Si1 0.305900 0.429302 0.760110
Si Si2 0.802123 0.355430 0.759528
Si Si3 0.076040 0.557283 0.801599
Si Si4 0.379416 0.004162 0.546066
Si Si5 0.950174 0.103325 0.084988
Si Si6 0.413045 0.381531 0.193167
Si Si7 0.142717 0.180238 0.815310
O O1 0.388094 0.566986 0.697971
O O2 0.088750 0.366865 0.669300
O O3 0.165153 0.501716 0.764743
O O4 0.703636 0.224181 0.009886
O O5 0.500000 0.500000 0.500000
O O6 0.853864 0.487891 0.765179
O O7 0.137050 0.200146 0.906716
O O8 0.733753 0.237987 0.850143
O O9 0.889084 0.778971 0.634525
O O10 0.368355 0.445852 0.044769
O O11 0.332022 0.849483 0.597890
O O12 0.724332 0.906970 0.785905
O O13 0.500000 0.000000 0.500000
O O14 0.076419 0.891000 0.244099
O O15 0.000000 0.500000 0.000000
O O16 0.500000 0.000000 0.000000
#
# Coordination Sequence:
#
# PCOD9026972 Si02
#       7
#     2   2   2   2   2   2   2
#     4  10  22  41  66  92 135 173 206 275 329 377
#     4  11  22  41  68  94 131 173 217 267 316 388
#     4  11  23  41  63 101 133 167 216 270 327 381
#     4  12  24  39  71 101 125 172 223 264 318 391
#     4  11  21  43  69  95 130 175 220 263 321 387
#     4  12  21  42  69  94 132 171 218 268 325 384
#     4   9  21  40  65  97 130 169 211 269 327 379
#
# _framework density 25.738595
#
# number of rings (size 3 to 8) (size 9 to 14) (size 15 to 20)
#    0.000    1.143    4.286    1.714    0.000    0.571 
#    0.000    7.857    6.286    0.000    0.000    0.000 
#    0.000    0.000    0.000    0.000    0.000    0.000 
#
# Total GULP energy -78011.312224 kJ/mol
# GULP energy per Si atom -5572.236587 kJ/mol
# Density = 2.568001 g / cm^3
# Si number density = 25.738595 Si / 1000 Ang^3
#
#
#
# Elastic Constant Matrix: (Units=GPa)
#
#
# Indices 1 2 3 4 5 6 
#
# 1 112.3156 26.8475 32.2917 -30.8222 6.5815 -7.0103
# 2 26.8475 213.9551 50.7704 -50.5437 -2.1276 35.9931
# 3 32.2917 50.7704 88.2748 -33.6020 -14.4041 -4.9493
# 4 -30.8222 -50.5437 -33.6020 58.5339 0.5271 2.9701
# 5 6.5815 -2.1276 -14.4041 0.5271 25.8367 -15.0172
# 6 -7.0103 35.9931 -4.9493 2.9701 -15.0172 60.2988
#
#
#
# Elastic Compliance Matrix: (Units=1/GPa)
#
#
# Indices 1 2 3 4 5 6 
#
# 1 0.011327 0.000639 -0.003793 0.004439 -0.005615 -0.000993
# 2 0.000639 0.007838 -0.004095 0.005141 -0.005757 -0.006628
# 3 -0.003793 -0.004095 0.020227 0.005558 0.016092 0.007398
# 4 0.004439 0.005141 0.005558 0.027230 -0.000190 -0.003485
# 5 -0.005615 -0.005757 0.016092 -0.000190 0.059664 0.018973
# 6 -0.000993 -0.006628 0.007398 -0.003485 0.018973 0.025929
#
#
# Mechanical properties :
#
#
# Convention : Reuss Voigt Hill
#
# Bulk Modulus (GPa) = 40.17225 70.48497 55.32861
# Shear Modulus (GPa) = 28.56958 49.24293 38.90626
#
# Velocity S-wave (km/s) = 3.33527 4.37875 3.89214
# Velocity P-wave (km/s) = 5.52030 7.28073 6.46075
#
# Compressibility (1/GPa) = 0.02489280
#
# Stress axis : x y z
#
# Youngs Moduli (GPa) = 88.28801 127.58698 49.43811
#
# Poissons Ratio (x) = -0.08147 0.18750
# Poissons Ratio (y) = -0.05638 0.20247
# Poissons Ratio (z) = 0.33484 0.52253
#
# Static dielectric constant tensor:
#      x y z
#    x 2.278260 0.161900 0.027260 
#    y 0.161900 2.274690 0.103050 
#    z 0.027260 0.103050 2.143440 
# 
# From -- ./inp_files/559805.got.cif
#   From: 2010.05.17/outbox.cif.g08.bks.cpg/sg2_280_cif.got.tgz:559805.got - 2010.06.03 11:33:40.
