data_PCOD9026792
_publ_section_title
;
Structure prediction by ZEFSAII (Michael W. Deem and Ramdas Pophale) SiO2 
 PCOD9026792
Probable space group: P -1
;
_chemical_formula_sum "Si O2"
_cell_formula_units_Z 16
_cell_length_a 14.564921
_cell_length_b 5.653726
_cell_length_c 26.276845
_cell_angle_alpha 71.398121
_cell_angle_beta 153.993268
_cell_angle_gamma 122.409920
_cell_volume 719.462302
_symmetry_space_group_name_H-M "P -1"
_symmetry_group_IT_number 2
_symmetry_cell_setting 'triclinic'
loop_
_space_group_symop_operation_xyz
x,y,z
-x,-y,-z
loop_
_atom_site_type_symbol
_atom_site_label
_atom_site_fract_x
_atom_site_fract_y
_atom_site_fract_z
Si Si1 0.573483 0.351609 0.720341
Si Si2 0.233323 0.801273 0.260170
Si Si3 0.890313 0.211303 0.426540
Si Si4 0.990753 0.194132 0.028404
Si Si5 0.734575 0.790296 0.021521
Si Si6 0.695217 0.902995 0.109850
Si Si7 0.767889 0.541644 0.620051
Si Si8 0.257778 0.549901 0.502044
O O1 0.779474 0.375742 0.783892
O O2 0.377184 0.360017 0.584976
O O3 0.728242 0.641620 0.814998
O O4 0.412337 0.038270 0.694266
O O5 0.216510 0.648719 0.315292
O O6 0.982013 0.791795 0.135350
O O7 0.524745 0.124315 0.385132
O O8 0.000000 0.500000 0.500000
O O9 0.984109 0.367405 0.407346
O O10 0.000000 0.000000 0.500000
O O11 0.760894 0.978615 0.970811
O O12 0.000000 0.500000 0.000000
O O13 0.000000 0.000000 0.000000
O O14 0.780336 0.929575 0.091558
O O15 0.472823 0.440956 0.924966
O O16 0.957778 0.118378 0.259170
O O17 0.500000 0.000000 0.000000
O O18 0.500000 0.500000 0.500000
O O19 0.757360 0.418871 0.567200
#
# Coordination Sequence:
#
# PCOD9026792 Si02
#       8
#     2   2   2   2   2   2   2   2
#     4  11  23  44  70  97 144 195 244 308 388 439
#     4  12  21  42  75 101 149 194 246 312 376 462
#     4  10  22  41  65  96 136 188 244 289 366 448
#     4  12  28  46  74 109 143 193 261 323 373 454
#     4  11  25  47  75 104 143 203 257 308 391 462
#     4  11  25  47  76 104 151 203 247 313 390 462
#     4  12  24  42  70 114 148 190 254 310 377 454
#     4  11  23  40  66 102 143 192 236 309 374 447
#
# _framework density 22.238828999999999
#
# number of rings (size 3 to 8) (size 9 to 14) (size 15 to 20)
#    0.000    0.750    5.000    2.625    1.750    1.000 
#    0.000    1.250    0.000    0.000    0.000    0.000 
#    0.000    0.000    0.000    0.000    0.000    0.000 
#
# Total GULP energy -89267.606683 kJ/mol
# GULP energy per Si atom -5579.225418 kJ/mol
# Density = 2.218821 g / cm^3
# Si number density = 22.238829 Si / 1000 Ang^3
#
#
#
# Elastic Constant Matrix: (Units=GPa)
#
#
# Indices 1 2 3 4 5 6 
#
# 1 163.9161 43.9247 26.5009 13.8711 -11.1237 9.5518
# 2 43.9247 87.9202 18.4484 9.5825 -0.7177 18.3260
# 3 26.5009 18.4484 91.4210 19.8393 -8.8548 2.3622
# 4 13.8711 9.5825 19.8393 38.2540 1.6858 5.2831
# 5 -11.1237 -0.7177 -8.8548 1.6858 32.0757 10.2328
# 6 9.5518 18.3260 2.3622 5.2831 10.2328 46.3953
#
#
#
# Elastic Compliance Matrix: (Units=1/GPa)
#
#
# Indices 1 2 3 4 5 6 
#
# 1 0.007442 -0.003218 -0.000937 -0.001434 0.002519 -0.000605
# 2 -0.003218 0.014458 -0.001612 -0.000953 0.000389 -0.004943
# 3 -0.000937 -0.001612 0.013249 -0.006297 0.003603 0.000078
# 4 -0.001434 -0.000953 -0.006297 0.030554 -0.003302 -0.001759
# 5 0.002519 0.000389 0.003603 -0.003302 0.035906 -0.008399
# 6 -0.000605 -0.004943 0.000078 -0.001759 -0.008399 0.025680
#
#
# Mechanical properties :
#
#
# Convention : Reuss Voigt Hill
#
# Bulk Modulus (GPa) = 42.34975 57.88949 50.11962
# Shear Modulus (GPa) = 34.08430 40.30388 37.19409
#
# Velocity S-wave (km/s) = 3.91915 4.26175 4.09404
# Velocity P-wave (km/s) = 6.29001 7.09254 6.70329
#
# Compressibility (1/GPa) = 0.02361289
#
# Stress axis : x y z
#
# Youngs Moduli (GPa) = 134.36943 69.16772 75.47827
#
# Poissons Ratio (x) = 0.22261 0.07073
# Poissons Ratio (y) = 0.43246 0.12169
# Poissons Ratio (z) = 0.12592 0.11152
#
# Static dielectric constant tensor:
#      x y z
#    x 1.809410 0.004720 -0.000460 
#    y 0.004720 1.968990 0.021670 
#    z -0.000460 0.021670 1.936010 
# 
# From -- ./inp_files/618998.got.cif
#   From: 2010.05.17/outbox.cif.g08.bks.cpg/sg2_310_cif.got.tgz:618998.got - 2010.06.03 11:33:40.
