data_PCOD9026302
_publ_section_title
;
Structure prediction by ZEFSAII (Michael W. Deem and Ramdas Pophale) SiO2 
 PCOD9026302
Probable space group: P -1
;
_chemical_formula_sum "Si O2"
_cell_formula_units_Z 12
_cell_length_a 6.754427
_cell_length_b 15.418043
_cell_length_c 9.303801
_cell_angle_alpha 32.702494
_cell_angle_beta 78.241054
_cell_angle_gamma 65.096576
_cell_volume 451.839211
_symmetry_space_group_name_H-M "P -1"
_symmetry_group_IT_number 2
_symmetry_cell_setting 'triclinic'
loop_
_space_group_symop_operation_xyz
x,y,z
-x,-y,-z
loop_
_atom_site_type_symbol
_atom_site_label
_atom_site_fract_x
_atom_site_fract_y
_atom_site_fract_z
Si Si1 0.740747 0.359622 0.089856
Si Si2 0.091510 0.362411 0.844668
Si Si3 0.146804 0.657641 0.593316
Si Si4 0.667294 0.944887 0.189379
Si Si5 0.480983 0.338630 0.647403
Si Si6 0.624012 0.047819 0.540218
O O1 0.905093 0.313215 0.270408
O O2 0.722411 0.181554 0.296730
O O3 0.500000 0.500000 0.000000
O O4 0.832392 0.429043 0.846124
O O5 0.181453 0.462658 0.805913
O O6 0.219324 0.374281 0.662752
O O7 0.191881 0.145949 0.153752
O O8 0.367155 0.683176 0.486089
O O9 0.932639 0.806520 0.326517
O O10 0.566225 0.858797 0.438549
O O11 0.500000 0.000000 0.000000
O O12 0.626737 0.141126 0.977338
O O13 0.500000 0.500000 0.500000
O O14 0.500000 0.000000 0.500000
#
# Coordination Sequence:
#
# PCOD9026302 Si02
#       6
#     2   2   2   2   2   2
#     4  12  24  41  68  99 131 177 226 276 336 401
#     4  10  22  41  63  94 134 173 218 275 334 396
#     4  11  22  43  68  96 133 177 224 277 331 400
#     4  11  23  42  67  98 133 175 225 278 333 399
#     4   9  21  41  64  93 130 174 220 272 332 394
#     4  11  23  42  66  98 135 174 223 280 339 402
#
# _framework density 26.558119000000001
#
# number of rings (size 3 to 8) (size 9 to 14) (size 15 to 20)
#    0.000    1.333    0.000    5.500    0.000    0.000 
#    0.000   25.000    0.000    0.000    0.000    0.000 
#    0.000    0.000    0.000    0.000    0.000    0.000 
#
# Total GULP energy -67103.071445 kJ/mol
# GULP energy per Si atom -5591.922620 kJ/mol
# Density = 2.649767 g / cm^3
# Si number density = 26.558119 Si / 1000 Ang^3
#
#
#
# Elastic Constant Matrix: (Units=GPa)
#
#
# Indices 1 2 3 4 5 6 
#
# 1 154.3995 72.3000 73.6658 10.3748 -14.5220 -42.1417
# 2 72.3000 122.1809 62.2569 24.6301 -16.5025 -18.7538
# 3 73.6658 62.2569 117.5836 6.4095 -36.9088 -15.4383
# 4 10.3748 24.6301 6.4095 67.0240 -9.4478 -12.6709
# 5 -14.5220 -16.5025 -36.9088 -9.4478 65.7052 -3.7233
# 6 -42.1417 -18.7538 -15.4383 -12.6709 -3.7233 69.6205
#
#
#
# Elastic Compliance Matrix: (Units=1/GPa)
#
#
# Indices 1 2 3 4 5 6 
#
# 1 0.012068 -0.004097 -0.004984 0.001003 -0.000720 0.005240
# 2 -0.004097 0.013679 -0.004785 -0.004172 -0.000794 -0.000658
# 3 -0.004984 -0.004785 0.016301 0.001988 0.007142 0.000053
# 4 0.001003 -0.004172 0.001988 0.017126 0.002934 0.003198
# 5 -0.000720 -0.000794 0.007142 0.002934 0.019437 0.002507
# 6 0.005240 -0.000658 0.000053 0.003198 0.002507 0.018086
#
#
# Mechanical properties :
#
#
# Convention : Reuss Voigt Hill
#
# Bulk Modulus (GPa) = 69.84544 90.06769 79.95656
# Shear Modulus (GPa) = 38.69916 52.86603 45.78259
#
# Velocity S-wave (km/s) = 3.82140 4.46643 4.15645
# Velocity P-wave (km/s) = 6.76957 7.78368 7.29427
#
# Compressibility (1/GPa) = 0.01431733
#
# Stress axis : x y z
#
# Youngs Moduli (GPa) = 82.86155 73.10215 61.34558
#
# Poissons Ratio (x) = 0.29948 0.30577
# Poissons Ratio (y) = 0.33946 0.29351
# Poissons Ratio (z) = 0.41302 0.34976
#
# Static dielectric constant tensor:
#      x y z
#    x 2.112620 -0.021930 0.055970 
#    y -0.021930 2.106740 0.000860 
#    z 0.055970 0.000860 2.129470 
# 
# From -- ./inp_files/368226.got.cif
#   From: 2010.05.17/outbox.cif.g08.bks.cpg/sg2_185_cif.got.tgz:368226.got - 2010.06.03 11:33:40.
