data_PCOD9026256
_publ_section_title
;
Structure prediction by ZEFSAII (Michael W. Deem and Ramdas Pophale) SiO2 
 PCOD9026256
Probable space group: P -1
;
_chemical_formula_sum "Si O2"
_cell_formula_units_Z 15
_cell_length_a 7.437129
_cell_length_b 17.714641
_cell_length_c 19.857236
_cell_angle_alpha 158.977312
_cell_angle_beta 43.346275
_cell_angle_gamma 125.916274
_cell_volume 597.316495
_symmetry_space_group_name_H-M "P -1"
_symmetry_group_IT_number 2
_symmetry_cell_setting 'triclinic'
loop_
_space_group_symop_operation_xyz
x,y,z
-x,-y,-z
loop_
_atom_site_type_symbol
_atom_site_label
_atom_site_fract_x
_atom_site_fract_y
_atom_site_fract_z
Si Si1 0.911147 0.488940 0.156978
Si Si2 0.000000 0.500000 0.500000
Si Si3 0.147341 0.544688 0.645201
Si Si4 0.133798 0.012568 0.665609
Si Si5 0.560701 0.490238 0.787130
Si Si6 0.040195 0.795411 0.267854
Si Si7 0.334315 0.170308 0.379450
Si Si8 0.964289 0.025949 0.112085
O O1 0.604760 0.488372 0.220529
O O2 0.883620 0.652499 0.362446
O O3 0.981383 0.603753 0.167046
O O4 0.120593 0.230330 0.893456
O O5 0.838947 0.466505 0.448176
O O6 0.959612 0.766453 0.709948
O O7 0.836078 0.542522 0.742133
O O8 0.359341 0.318481 0.433205
O O9 0.148007 0.768695 0.869680
O O10 0.156452 0.087983 0.645432
O O11 0.346055 0.768639 0.427863
O O12 0.824666 0.991678 0.734930
O O13 0.349187 0.664759 0.042635
O O14 0.000000 0.000000 0.500000
O O15 0.634552 0.067531 0.248065
O O16 0.000000 0.000000 0.000000
#
# Coordination Sequence:
#
# PCOD9026256 Si02
#       8
#     2   1   2   2   2   2   2   2
#     4  11  23  38  62  91 127 172 209 261 314 356
#     4  10  22  42  64  92 122 154 204 248 316 370
#     4  10  23  42  64  93 121 163 205 257 314 372
#     4  10  22  42  61  92 126 168 215 258 307 369
#     4  10  22  41  63  91 128 166 214 261 309 370
#     4  11  22  39  61  93 130 170 213 261 307 362
#     4  11  23  41  64  93 126 162 210 255 311 376
#     4  10  22  41  64  90 123 158 198 255 311 372
#
# _framework density 25.112317000000001
#
# number of rings (size 3 to 8) (size 9 to 14) (size 15 to 20)
#    0.000    1.600    1.333    4.000    0.000    9.067 
#    2.400    3.333    0.000    0.000    0.000    0.000 
#    0.000    0.000    0.000    0.000    0.000    0.000 
#
# Total GULP energy -83653.402654 kJ/mol
# GULP energy per Si atom -5576.893510 kJ/mol
# Density = 2.505516 g / cm^3
# Si number density = 25.112317 Si / 1000 Ang^3
#
#
#
# Elastic Constant Matrix: (Units=GPa)
#
#
# Indices 1 2 3 4 5 6 
#
# 1 45.4591 10.9443 16.8826 4.3328 -0.0002 2.9238
# 2 10.9443 42.3225 21.3005 18.4898 0.9787 3.0092
# 3 16.8826 21.3005 127.2443 35.7270 7.4219 3.5997
# 4 4.3328 18.4898 35.7270 56.9016 3.7101 1.6306
# 5 -0.0002 0.9787 7.4219 3.7101 36.7937 5.1628
# 6 2.9238 3.0092 3.5997 1.6306 5.1628 43.6952
#
#
#
# Elastic Compliance Matrix: (Units=1/GPa)
#
#
# Indices 1 2 3 4 5 6 
#
# 1 0.024278 -0.005552 -0.002773 0.001684 0.000700 -0.001159
# 2 -0.005552 0.029616 -0.001986 -0.007956 0.000594 -0.001278
# 3 -0.002773 -0.001986 0.010172 -0.005433 -0.001431 -0.000144
# 4 0.001684 -0.007956 -0.005433 0.023509 -0.001082 0.000133
# 5 0.000700 0.000594 -0.001431 -0.001082 0.028015 -0.003240
# 6 -0.001159 -0.001278 -0.000144 0.000133 -0.003240 0.023441
#
#
# Mechanical properties :
#
#
# Convention : Reuss Voigt Hill
#
# Bulk Modulus (GPa) = 23.01719 34.80895 28.91307
# Shear Modulus (GPa) = 28.71339 38.53800 33.62569
#
# Velocity S-wave (km/s) = 3.38509 3.92168 3.66322
# Velocity P-wave (km/s) = 4.94611 5.86494 5.42501
#
# Compressibility (1/GPa) = 0.04344579
#
# Stress axis : x y z
#
# Youngs Moduli (GPa) = 41.18920 33.76525 98.30747
#
# Poissons Ratio (x) = 0.18747 0.27257
# Poissons Ratio (y) = 0.22869 0.19521
# Poissons Ratio (z) = 0.11420 0.06705
#
# Static dielectric constant tensor:
#      x y z
#    x 1.951600 0.019610 -0.055230 
#    y 0.019610 2.139410 0.009630 
#    z -0.055230 0.009630 1.996310 
# 
# From -- ./inp_files/591027.got.cif
#   From: 2010.05.17/outbox.cif.g08.bks.cpg/sg2_296_cif.got.tgz:591027.got - 2010.06.03 11:33:40.
