data_PCOD9026553
_publ_section_title
;
Structure prediction by ZEFSAII (Michael W. Deem and Ramdas Pophale) SiO2 
 PCOD9026553
Probable space group: P -1
;
_chemical_formula_sum "Si O2"
_cell_formula_units_Z 16
_cell_length_a 29.822493
_cell_length_b 24.047889
_cell_length_c 18.376746
_cell_angle_alpha 19.334714
_cell_angle_beta 18.004368
_cell_angle_gamma 9.929937
_cell_volume 696.694552
_symmetry_space_group_name_H-M "P -1"
_symmetry_group_IT_number 2
_symmetry_cell_setting 'triclinic'
loop_
_space_group_symop_operation_xyz
x,y,z
-x,-y,-z
loop_
_atom_site_type_symbol
_atom_site_label
_atom_site_fract_x
_atom_site_fract_y
_atom_site_fract_z
Si Si1 0.577894 0.260820 0.951559
Si Si2 0.188377 0.242907 0.696421
Si Si3 0.719088 0.226665 0.109653
Si Si4 0.619215 0.279482 0.521405
Si Si5 0.651393 0.973211 0.618458
Si Si6 0.781411 0.864449 0.897323
Si Si7 0.755533 0.412025 0.408309
Si Si8 0.050423 0.791605 0.004289
O O1 0.496565 0.426145 0.951607
O O2 0.726125 0.262843 0.676898
O O3 0.297049 0.497382 0.045560
O O4 0.774198 0.911161 0.100242
O O5 0.972762 0.609843 0.587701
O O6 0.500000 0.000000 0.500000
O O7 0.070581 0.245131 0.808953
O O8 0.635954 0.120908 0.394221
O O9 0.000000 0.000000 0.000000
O O10 0.810287 0.122055 0.014677
O O11 0.500000 0.500000 0.500000
O O12 0.355843 0.483025 0.629829
O O13 0.812312 0.207519 0.262915
O O14 0.764086 0.977259 0.708360
O O15 0.474343 0.241575 0.623405
O O16 0.502816 0.939791 0.879582
O O17 0.929252 0.838521 0.758579
O O18 0.000000 0.500000 0.000000
#
# Coordination Sequence:
#
# PCOD9026553 Si02
#       8
#     2   2   2   2   2   2   2   2
#     4   9  20  40  65  92 125 166 217 264 314 382
#     4  12  24  38  60  95 132 167 212 263 320 381
#     4   9  18  39  66  88 121 171 217 256 309 377
#     4  11  23  42  68  97 128 164 216 267 315 385
#     4  10  22  41  64  96 133 166 211 267 318 382
#     4  10  22  42  66  96 130 165 210 262 320 383
#     4   9  21  44  69  90 125 175 212 258 323 379
#     4  10  22  41  65  91 128 171 214 267 315 371
#
# _framework density 22.965588
#
# number of rings (size 3 to 8) (size 9 to 14) (size 15 to 20)
#    0.000    2.000    0.000    3.750    0.000    5.000 
#    0.000   15.000    0.000    0.000    0.000    0.000 
#    0.000    0.000    0.000    0.000    0.000    0.000 
#
# Total GULP energy -89466.616456 kJ/mol
# GULP energy per Si atom -5591.663528 kJ/mol
# Density = 2.291332 g / cm^3
# Si number density = 22.965588 Si / 1000 Ang^3
#
#
#
# Elastic Constant Matrix: (Units=GPa)
#
#
# Indices 1 2 3 4 5 6 
#
# 1 120.8999 23.0612 51.6329 14.9842 9.5440 -7.7588
# 2 23.0612 97.1772 33.7944 -1.1922 9.2458 4.2267
# 3 51.6329 33.7944 89.7724 3.6225 0.6073 -6.2399
# 4 14.9842 -1.1922 3.6225 39.3913 -12.1766 -2.7878
# 5 9.5440 9.2458 0.6073 -12.1766 31.4373 10.6742
# 6 -7.7588 4.2267 -6.2399 -2.7878 10.6742 27.7881
#
#
#
# Elastic Compliance Matrix: (Units=1/GPa)
#
#
# Indices 1 2 3 4 5 6 
#
# 1 0.012845 -0.000271 -0.006670 -0.006331 -0.007648 0.004433
# 2 -0.000271 0.012300 -0.004582 -0.000118 -0.002850 -0.001893
# 3 -0.006670 -0.004582 0.016703 0.001992 0.003307 0.001515
# 4 -0.006331 -0.000118 0.001992 0.032197 0.015795 -0.004140
# 5 -0.007648 -0.002850 0.003307 0.015795 0.046932 -0.017403
# 6 0.004433 -0.001893 0.001515 -0.004140 -0.017403 0.044122
#
#
# Mechanical properties :
#
#
# Convention : Reuss Voigt Hill
#
# Bulk Modulus (GPa) = 53.18816 58.31405 55.75110
# Shear Modulus (GPa) = 25.71846 33.01409 29.36627
#
# Velocity S-wave (km/s) = 3.35008 3.79561 3.57978
# Velocity P-wave (km/s) = 6.17853 6.68251 6.43545
#
# Compressibility (1/GPa) = 0.01880118
#
# Stress axis : x y z
#
# Youngs Moduli (GPa) = 77.85377 81.29916 59.86959
#
# Poissons Ratio (x) = 0.02206 0.39934
# Poissons Ratio (y) = 0.02113 0.27431
# Poissons Ratio (z) = 0.51930 0.37250
#
# Static dielectric constant tensor:
#      x y z
#    x 1.872340 0.016460 -0.062990 
#    y 0.016460 1.859000 0.047000 
#    z -0.062990 0.047000 1.827210 
# 
# From -- ./inp_files/580204.got.cif
#   From: 2010.05.17/outbox.cif.g08.bks.cpg/sg2_291_cif.got.tgz:580204.got - 2010.06.03 11:33:40.
