data_PCOD9026768
_publ_section_title
;
Structure prediction by ZEFSAII (Michael W. Deem and Ramdas Pophale) SiO2 
 PCOD9026768
Probable space group: P -1
;
_chemical_formula_sum "Si O2"
_cell_formula_units_Z 16
_cell_length_a 10.316824
_cell_length_b 20.323119
_cell_length_c 8.850442
_cell_angle_alpha 147.949768
_cell_angle_beta 57.160471
_cell_angle_gamma 129.413922
_cell_volume 760.747793
_symmetry_space_group_name_H-M "P -1"
_symmetry_group_IT_number 2
_symmetry_cell_setting 'triclinic'
loop_
_space_group_symop_operation_xyz
x,y,z
-x,-y,-z
loop_
_atom_site_type_symbol
_atom_site_label
_atom_site_fract_x
_atom_site_fract_y
_atom_site_fract_z
Si Si1 0.914157 0.569238 0.566867
Si Si2 0.456513 0.867042 0.371142
Si Si3 0.307061 0.043321 0.313413
Si Si4 0.440459 0.650019 0.723136
Si Si5 0.633050 0.516919 0.162597
Si Si6 0.609019 0.184938 0.202665
Si Si7 0.797322 0.325793 0.644137
Si Si8 0.272333 0.309539 0.862828
O O1 0.744295 0.465616 0.395762
O O2 0.000000 0.500000 0.500000
O O3 0.031470 0.636791 0.481197
O O4 0.857565 0.663133 0.893199
O O5 0.582817 0.912324 0.518681
O O6 0.272058 0.796023 0.428242
O O7 0.500000 0.000000 0.500000
O O8 0.480094 0.746858 0.030284
O O9 0.425302 0.079892 0.161758
O O10 0.219501 0.148710 0.568099
O O11 0.255889 0.882697 0.037966
O O12 0.578343 0.590750 0.476282
O O13 0.423854 0.742883 0.778622
O O14 0.706092 0.621110 0.180426
O O15 0.768116 0.451893 0.979560
O O16 0.456435 0.396620 0.989211
O O17 0.671260 0.283107 0.496191
#
# Coordination Sequence:
#
# PCOD9026768 Si02
#       8
#     2   2   2   2   2   2   2   2
#     4  11  21  35  60  84 120 151 182 233 292 348
#     4  11  23  38  58  83 116 152 194 237 276 333
#     4  10  19  33  56  85 113 144 188 244 278 320
#     4  11  21  34  58  88 115 150 187 228 293 339
#     4  10  17  31  56  86 115 138 187 246 279 328
#     4  10  17  31  58  83 108 145 192 230 280 327
#     4  11  21  38  58  86 117 150 187 235 286 341
#     4  10  17  32  55  88 113 142 184 244 286 322
#
# _framework density 21.031938
#
# number of rings (size 3 to 8) (size 9 to 14) (size 15 to 20)
#    0.000    1.500    7.500    0.750    0.000    1.000 
#    0.000    0.625    0.000    0.750    0.000    0.000 
#    0.000    0.000    0.000    0.000    0.000    0.000 
#
# Total GULP energy -89130.936787 kJ/mol
# GULP energy per Si atom -5570.683549 kJ/mol
# Density = 2.098407 g / cm^3
# Si number density = 21.031938 Si / 1000 Ang^3
#
#
#
# Elastic Constant Matrix: (Units=GPa)
#
#
# Indices 1 2 3 4 5 6 
#
# 1 25.8428 32.3262 25.1657 -2.9265 -8.5507 -5.9128
# 2 32.3262 134.5567 47.7411 -26.7914 -15.3061 -12.8448
# 3 25.1657 47.7411 171.7076 -15.1894 -22.6774 6.5919
# 4 -2.9265 -26.7914 -15.1894 26.7516 -2.8281 -7.4325
# 5 -8.5507 -15.3061 -22.6774 -2.8281 35.6652 -5.2698
# 6 -5.9128 -12.8448 6.5919 -7.4325 -5.2698 27.5699
#
#
#
# Elastic Compliance Matrix: (Units=1/GPa)
#
#
# Indices 1 2 3 4 5 6 
#
# 1 0.064108 -0.012916 -0.005749 -0.005993 0.007001 0.008829
# 2 -0.012916 0.016162 -0.000544 0.018232 0.006573 0.011061
# 3 -0.005749 -0.000544 0.007566 0.002925 0.003149 -0.001905
# 4 -0.005993 0.018232 0.002925 0.066207 0.017594 0.027721
# 5 0.007001 0.006573 0.003149 0.017594 0.038280 0.015871
# 6 0.008829 0.011061 -0.001905 0.027721 0.015871 0.054281
#
#
# Mechanical properties :
#
#
# Convention : Reuss Voigt Hill
#
# Bulk Modulus (GPa) = 20.23621 60.28593 40.26107
# Shear Modulus (GPa) = 16.58412 33.12230 24.85321
#
# Velocity S-wave (km/s) = 2.81111 3.97275 3.44130
# Velocity P-wave (km/s) = 4.49210 7.05478 5.91392
#
# Compressibility (1/GPa) = 0.04941637
#
# Stress axis : x y z
#
# Youngs Moduli (GPa) = 15.59880 61.87511 132.17731
#
# Poissons Ratio (x) = 0.79916 0.75991
# Poissons Ratio (y) = 0.20147 0.07194
# Poissons Ratio (z) = 0.08968 0.03368
#
# Static dielectric constant tensor:
#      x y z
#    x 1.757610 0.008230 -0.039460 
#    y 0.008230 1.852690 0.056450 
#    z -0.039460 0.056450 1.851640 
# 
# From -- ./inp_files/201441.got.cif
#   From: 2010.05.17/outbox.cif.g08.bks.cpg/sg2_101_cif.got.tgz:201441.got - 2010.06.03 11:33:40.
