data_PCOD9026097
_publ_section_title
;
Structure prediction by ZEFSAII (Michael W. Deem and Ramdas Pophale) SiO2 
 PCOD9026097
Probable space group: P -1
;
_chemical_formula_sum "Si O2"
_cell_formula_units_Z 16
_cell_length_a 5.335982
_cell_length_b 21.215278
_cell_length_c 18.579835
_cell_angle_alpha 23.147108
_cell_angle_beta 77.330983
_cell_angle_gamma 65.764811
_cell_volume 676.614558
_symmetry_space_group_name_H-M "P -1"
_symmetry_group_IT_number 2
_symmetry_cell_setting 'triclinic'
loop_
_space_group_symop_operation_xyz
x,y,z
-x,-y,-z
loop_
_atom_site_type_symbol
_atom_site_label
_atom_site_fract_x
_atom_site_fract_y
_atom_site_fract_z
Si Si1 0.312867 0.952605 0.716810
Si Si2 0.761739 0.188563 0.274047
Si Si3 0.825964 0.687932 0.875325
Si Si4 0.344880 0.862528 0.094206
Si Si5 0.501356 0.176466 0.721516
Si Si6 0.807547 0.511003 0.708666
Si Si7 0.156449 0.598875 0.712926
Si Si8 0.858335 0.155940 0.017806
O O1 0.200067 0.860417 0.762178
O O2 0.646327 0.870658 0.749033
O O3 0.086200 0.177446 0.495278
O O4 0.325093 0.871715 0.879257
O O5 0.409799 0.251988 0.239004
O O6 0.853544 0.337230 0.131553
O O7 0.000000 0.000000 0.500000
O O8 0.834414 0.519257 0.094496
O O9 0.524325 0.747853 0.274734
O O10 0.333351 0.758440 0.133407
O O11 0.438098 0.008814 0.910360
O O12 0.000000 0.000000 0.000000
O O13 0.289400 0.339659 0.507473
O O14 0.849631 0.055442 0.796765
O O15 0.025776 0.533242 0.725353
O O16 0.950605 0.298597 0.891647
O O17 0.488779 0.561721 0.713445
#
# Coordination Sequence:
#
# PCOD9026097 Si02
#       8
#     2   2   2   2   2   2   2   2
#     4  10  23  37  69  91 128 165 210 255 319 367
#     4  10  22  43  68  94 131 171 207 254 312 369
#     4  10  22  41  65  92 133 162 210 254 310 365
#     4   9  21  40  63  84 124 165 213 257 320 376
#     4  10  22  41  62  89 124 167 207 267 315 379
#     4  12  26  37  65  93 131 161 211 263 317 370
#     4  12  24  41  60 101 127 163 210 262 311 372
#     4  11  21  41  62  94 121 166 207 263 317 375
#
# _framework density 23.647141999999999
#
# number of rings (size 3 to 8) (size 9 to 14) (size 15 to 20)
#    0.750    0.750    2.500    2.625    5.250    2.500 
#    0.000    6.875    0.000    0.000    0.000    0.000 
#    0.000    0.000    0.000    0.000    0.000    0.000 
#
# Total GULP energy -89411.021533 kJ/mol
# GULP energy per Si atom -5588.188846 kJ/mol
# Density = 2.359332 g / cm^3
# Si number density = 23.647142 Si / 1000 Ang^3
#
#
#
# Elastic Constant Matrix: (Units=GPa)
#
#
# Indices 1 2 3 4 5 6 
#
# 1 117.2099 29.9161 -0.2021 8.9927 -1.2708 7.8654
# 2 29.9161 91.9793 23.5310 -1.4581 8.1048 8.1136
# 3 -0.2021 23.5310 90.7337 3.2197 10.1313 2.6636
# 4 8.9927 -1.4581 3.2197 32.6406 1.0395 -4.3092
# 5 -1.2708 8.1048 10.1313 1.0395 23.6079 8.2627
# 6 7.8654 8.1136 2.6636 -4.3092 8.2627 32.6343
#
#
#
# Elastic Compliance Matrix: (Units=1/GPa)
#
#
# Indices 1 2 3 4 5 6 
#
# 1 0.009882 -0.003465 0.000847 -0.003389 0.002436 -0.002654
# 2 -0.003465 0.013198 -0.003120 0.001792 -0.003043 -0.001184
# 3 0.000847 -0.003120 0.012346 -0.001393 -0.004283 0.000464
# 4 -0.003389 0.001792 -0.001393 0.032659 -0.003640 0.005719
# 5 0.002436 -0.003043 -0.004283 -0.003640 0.049945 -0.012607
# 6 -0.002654 -0.001184 0.000464 0.005719 -0.012607 0.035486
#
#
# Mechanical properties :
#
#
# Convention : Reuss Voigt Hill
#
# Bulk Modulus (GPa) = 41.75242 45.15698 43.45470
# Shear Modulus (GPa) = 28.90579 34.22175 31.56377
#
# Velocity S-wave (km/s) = 3.50005 3.80831 3.65743
# Velocity P-wave (km/s) = 5.83340 6.20285 6.02096
#
# Compressibility (1/GPa) = 0.02395071
#
# Stress axis : x y z
#
# Youngs Moduli (GPa) = 101.19357 75.76827 80.99649
#
# Poissons Ratio (x) = 0.26254 -0.06859
# Poissons Ratio (y) = 0.35064 0.25267
# Poissons Ratio (z) = -0.08569 0.23637
#
# Static dielectric constant tensor:
#      x y z
#    x 1.989990 -0.025570 0.021290 
#    y -0.025570 1.927390 -0.013780 
#    z 0.021290 -0.013780 1.852270 
# 
# From -- ./inp_files/339974.got.cif
#   From: 2010.05.17/outbox.cif.g08.bks.cpg/sg2_170_cif.got.tgz:339974.got - 2010.06.03 11:33:40.
