data_PCOD9026631
_publ_section_title
;
Structure prediction by ZEFSAII (Michael W. Deem and Ramdas Pophale) SiO2 
 PCOD9026631
Probable space group: P -1
;
_chemical_formula_sum "Si O2"
_cell_formula_units_Z 16
_cell_length_a 13.449665
_cell_length_b 8.175664
_cell_length_c 12.481774
_cell_angle_alpha 125.337792
_cell_angle_beta 130.429447
_cell_angle_gamma 38.741797
_cell_volume 646.185087
_symmetry_space_group_name_H-M "P -1"
_symmetry_group_IT_number 2
_symmetry_cell_setting 'triclinic'
loop_
_space_group_symop_operation_xyz
x,y,z
-x,-y,-z
loop_
_atom_site_type_symbol
_atom_site_label
_atom_site_fract_x
_atom_site_fract_y
_atom_site_fract_z
Si Si1 0.313367 0.421457 0.000907
Si Si2 0.895719 0.975128 0.577420
Si Si3 0.445012 0.688747 0.264234
Si Si4 0.043721 0.684187 0.349153
Si Si5 0.949479 0.796644 0.784303
Si Si6 0.480530 0.748411 0.548049
Si Si7 0.164177 0.232804 0.957274
Si Si8 0.533655 0.085799 0.830014
O O1 0.284604 0.291767 0.024595
O O2 0.396940 0.234147 0.885104
O O3 0.119216 0.680267 0.927951
O O4 0.445530 0.453126 0.151037
O O5 0.848097 0.255144 0.618472
O O6 0.723208 0.015011 0.480944
O O7 0.981611 0.846079 0.703908
O O8 0.005342 0.801690 0.485496
O O9 0.515913 0.709105 0.431333
O O10 0.532025 0.714695 0.237751
O O11 0.238488 0.929996 0.216345
O O12 0.079784 0.413082 0.293333
O O13 0.885924 0.832714 0.209989
O O14 0.500000 0.500000 0.500000
O O15 0.571376 0.832274 0.708161
O O16 0.000000 0.500000 0.000000
O O17 0.285678 0.997851 0.035887
#
# Coordination Sequence:
#
# PCOD9026631 Si02
#       8
#     2   2   2   2   2   2   2   2
#     4  11  24  44  67 102 138 180 223 286 349 405
#     4  10  23  42  67  98 137 175 228 278 350 409
#     4  11  25  43  68 100 135 179 232 275 348 412
#     4  10  22  41  65 103 127 178 227 282 341 410
#     4  10  22  41  71  96 140 175 233 285 340 405
#     4  11  25  43  68  94 138 177 222 278 344 409
#     4  11  25  41  72  95 135 176 232 277 340 405
#     4  12  25  45  68 100 139 179 227 281 346 416
#
# _framework density 24.760705999999999
#
# number of rings (size 3 to 8) (size 9 to 14) (size 15 to 20)
#    0.000    1.250    0.000    5.625    8.750    2.000 
#    4.500    0.000    0.000    0.000    0.000    0.000 
#    0.000    0.000    0.000    0.000    0.000    0.000 
#
# Total GULP energy -89361.394153 kJ/mol
# GULP energy per Si atom -5585.087135 kJ/mol
# Density = 2.470435 g / cm^3
# Si number density = 24.760706 Si / 1000 Ang^3
#
#
#
# Elastic Constant Matrix: (Units=GPa)
#
#
# Indices 1 2 3 4 5 6 
#
# 1 119.4675 5.8804 44.4329 6.2923 -21.0805 24.9499
# 2 5.8804 29.1387 2.6678 -3.1861 -0.5226 -0.6818
# 3 44.4329 2.6678 102.1150 6.4101 -6.0814 12.6040
# 4 6.2923 -3.1861 6.4101 39.6092 11.5039 3.4388
# 5 -21.0805 -0.5226 -6.0814 11.5039 35.5462 -5.1436
# 6 24.9499 -0.6818 12.6040 3.4388 -5.1436 29.5231
#
#
#
# Elastic Compliance Matrix: (Units=1/GPa)
#
#
# Indices 1 2 3 4 5 6 
#
# 1 0.012975 -0.002629 -0.004029 -0.002915 0.006784 -0.007784
# 2 -0.002629 0.035313 -0.000429 0.003681 -0.001950 0.002451
# 3 -0.004029 -0.000429 0.011804 -0.001098 -0.000247 -0.001559
# 4 -0.002915 0.003681 -0.001098 0.029857 -0.011891 -0.002532
# 5 0.006784 -0.001950 -0.000247 -0.011891 0.036226 0.002024
# 6 -0.007784 0.002451 -0.001559 -0.002532 0.002024 0.041820
#
#
# Mechanical properties :
#
#
# Convention : Reuss Voigt Hill
#
# Bulk Modulus (GPa) = 21.77745 39.63148 30.70447
# Shear Modulus (GPa) = 25.31988 34.11838 29.71913
#
# Velocity S-wave (km/s) = 3.20125 3.71607 3.46823
# Velocity P-wave (km/s) = 4.74113 5.86965 5.33531
#
# Compressibility (1/GPa) = 0.04591905
#
# Stress axis : x y z
#
# Youngs Moduli (GPa) = 77.07406 28.31801 84.71744
#
# Poissons Ratio (x) = 0.07444 0.34134
# Poissons Ratio (y) = 0.20260 0.03630
# Poissons Ratio (z) = 0.31054 0.01213
#
# Static dielectric constant tensor:
#      x y z
#    x 2.224850 0.053190 -0.199100 
#    y 0.053190 2.067840 -0.044210 
#    z -0.199100 -0.044210 2.118080 
# 
# From -- ./inp_files/279440.got.cif
#   From: 2010.05.17/outbox.cif.g08.bks.cpg/sg2_140_cif.got.tgz:279440.got - 2010.06.03 11:33:40.
