data_PCOD9026643
_publ_section_title
;
Structure prediction by ZEFSAII (Michael W. Deem and Ramdas Pophale) SiO2 
 PCOD9026643
Probable space group: P -1
;
_chemical_formula_sum "Si O2"
_cell_formula_units_Z 16
_cell_length_a 13.538102
_cell_length_b 10.965107
_cell_length_c 13.266289
_cell_angle_alpha 98.890022
_cell_angle_beta 60.391414
_cell_angle_gamma 148.256566
_cell_volume 733.356442
_symmetry_space_group_name_H-M "P -1"
_symmetry_group_IT_number 2
_symmetry_cell_setting 'triclinic'
loop_
_space_group_symop_operation_xyz
x,y,z
-x,-y,-z
loop_
_atom_site_type_symbol
_atom_site_label
_atom_site_fract_x
_atom_site_fract_y
_atom_site_fract_z
Si Si1 0.350766 0.164483 0.802138
Si Si2 0.556845 0.680169 0.432856
Si Si3 0.983368 0.106678 0.592479
Si Si4 0.414471 0.408874 0.145930
Si Si5 0.673466 0.139352 0.230404
Si Si6 0.599544 0.879425 0.618988
Si Si7 0.261038 0.726659 0.014749
Si Si8 0.791474 0.593570 0.092896
O O1 0.289096 0.177811 0.731428
O O2 0.584410 0.456758 0.783439
O O3 0.398945 0.070762 0.733432
O O4 0.098336 0.917010 0.970286
O O5 0.500000 0.500000 0.500000
O O6 0.676161 0.893837 0.477079
O O7 0.268142 0.437105 0.511652
O O8 0.847697 0.923026 0.739145
O O9 0.804884 0.033862 0.618646
O O10 0.000000 0.000000 0.500000
O O11 0.635094 0.551022 0.115361
O O12 0.500000 0.500000 0.000000
O O13 0.461394 0.036139 0.348270
O O14 0.962818 0.456540 0.168220
O O15 0.709320 0.176855 0.095532
O O16 0.327514 0.552170 0.756147
O O17 0.269154 0.589341 0.965242
O O18 0.500000 0.000000 0.000000
#
# Coordination Sequence:
#
# PCOD9026643 Si02
#       8
#     2   2   2   2   2   2   2   2
#     4  11  23  41  60  90 130 158 207 256 312 372
#     4  12  24  40  68  86 119 175 201 256 319 365
#     4  11  22  44  61  91 122 157 218 251 306 381
#     4  11  24  35  61  91 120 156 200 264 305 356
#     4   9  21  39  58  91 128 163 202 258 303 369
#     4  10  22  41  65  89 122 163 206 256 308 369
#     4   9  18  36  64  87 127 168 199 245 316 372
#     4   9  21  39  58  94 119 151 208 257 301 369
#
# _framework density 21.817494
#
# number of rings (size 3 to 8) (size 9 to 14) (size 15 to 20)
#    0.000    1.750    2.500    1.875    5.250    3.500 
#    0.000    0.625    0.000    0.000    0.000    0.000 
#    0.000    0.000    0.000    0.000    0.000    0.000 
#
# Total GULP energy -89368.454626 kJ/mol
# GULP energy per Si atom -5585.528414 kJ/mol
# Density = 2.176784 g / cm^3
# Si number density = 21.817494 Si / 1000 Ang^3
#
#
#
# Elastic Constant Matrix: (Units=GPa)
#
#
# Indices 1 2 3 4 5 6 
#
# 1 86.0388 17.7158 7.2102 0.5838 -4.7441 -12.4157
# 2 17.7158 65.5455 -0.5515 -8.7106 8.6234 7.9710
# 3 7.2102 -0.5515 51.8780 2.7013 11.4348 5.6495
# 4 0.5838 -8.7106 2.7013 32.2087 6.1248 -2.2272
# 5 -4.7441 8.6234 11.4348 6.1248 35.5086 1.9862
# 6 -12.4157 7.9710 5.6495 -2.2272 1.9862 26.6917
#
#
#
# Elastic Compliance Matrix: (Units=1/GPa)
#
#
# Indices 1 2 3 4 5 6 
#
# 1 0.014737 -0.005937 -0.003990 -0.001772 0.004498 0.008990
# 2 -0.005937 0.019624 0.003202 0.005934 -0.007151 -0.008272
# 3 -0.003990 0.003202 0.022412 0.000131 -0.008163 -0.006937
# 4 -0.001772 0.005934 0.000131 0.034186 -0.007661 0.000799
# 5 0.004498 -0.007151 -0.008163 -0.007661 0.034295 0.002764
# 6 0.008990 -0.008272 -0.006937 0.000799 0.002764 0.045446
#
#
# Mechanical properties :
#
#
# Convention : Reuss Voigt Hill
#
# Bulk Modulus (GPa) = 23.08245 28.02349 25.55297
# Shear Modulus (GPa) = 25.17744 30.82097 27.99920
#
# Velocity S-wave (km/s) = 3.40075 3.76263 3.58626
# Velocity P-wave (km/s) = 5.10126 5.63462 5.37456
#
# Compressibility (1/GPa) = 0.04332297
#
# Stress axis : x y z
#
# Youngs Moduli (GPa) = 67.85735 50.95900 44.61828
#
# Poissons Ratio (x) = 0.30255 0.17801
# Poissons Ratio (y) = 0.40288 -0.14286
# Poissons Ratio (z) = 0.27072 -0.16316
#
# Static dielectric constant tensor:
#      x y z
#    x 1.819600 -0.028540 -0.001890 
#    y -0.028540 1.791960 -0.030000 
#    z -0.001890 -0.030000 1.867130 
# 
# From -- ./inp_files/531196.got.cif
#   From: 2010.05.17/outbox.cif.g08.bks.cpg/sg2_266_cif.got.tgz:531196.got - 2010.06.03 11:33:40.
