data_PCOD9026755
_publ_section_title
;
Structure prediction by ZEFSAII (Michael W. Deem and Ramdas Pophale) SiO2 
 PCOD9026755
Probable space group: P -1
;
_chemical_formula_sum "Si O2"
_cell_formula_units_Z 13
_cell_length_a 14.720897
_cell_length_b 9.951098
_cell_length_c 5.060222
_cell_angle_alpha 103.812629
_cell_angle_beta 72.402143
_cell_angle_gamma 140.190246
_cell_volume 452.353821
_symmetry_space_group_name_H-M "P -1"
_symmetry_group_IT_number 2
_symmetry_cell_setting 'triclinic'
loop_
_space_group_symop_operation_xyz
x,y,z
-x,-y,-z
loop_
_atom_site_type_symbol
_atom_site_label
_atom_site_fract_x
_atom_site_fract_y
_atom_site_fract_z
Si Si1 0.084787 0.732417 0.600419
Si Si2 0.500000 0.500000 0.500000
Si Si3 0.377025 0.179563 0.979227
Si Si4 0.781513 0.677138 0.165290
Si Si5 0.328552 0.576334 0.372206
Si Si6 0.061820 0.883145 0.177726
Si Si7 0.649026 0.106610 0.786766
O O1 0.052954 0.811839 0.442857
O O2 0.256186 0.887645 0.497968
O O3 0.000000 0.500000 0.500000
O O4 0.027486 0.722963 0.924544
O O5 0.467459 0.354342 0.211615
O O6 0.674425 0.673669 0.374523
O O7 0.225856 0.093987 0.046064
O O8 0.324910 0.972410 0.028982
O O9 0.506299 0.309400 0.705191
O O10 0.730338 0.490641 0.312096
O O11 0.944663 0.871459 0.213255
O O12 0.758518 0.606978 0.852049
O O13 0.324524 0.723013 0.321704
O O14 0.500000 0.000000 0.000000
#
# Coordination Sequence:
#
# PCOD9026755 Si02
#       7
#     2   1   2   2   2   2   2
#     4  11  22  38  61  95 136 170 203 255 322 388
#     4  10  24  46  68  90 126 172 222 272 322 380
#     4   9  22  41  65  95 130 170 217 268 321 377
#     4  11  23  42  67  94 127 169 214 263 323 386
#     4  10  22  41  65  95 131 169 209 258 323 389
#     4  11  23  39  62  95 129 166 215 265 317 379
#     4   9  19  38  63  94 128 165 208 256 310 378
#
# _framework density 28.738564
#
# number of rings (size 3 to 8) (size 9 to 14) (size 15 to 20)
#    0.000    1.846    0.000    3.231    0.000   12.923 
#    0.000   11.538    0.000   10.154    0.000    0.000 
#    0.000    0.000    0.000    0.000    0.000    0.000 
#
# Total GULP energy -72367.690102 kJ/mol
# GULP energy per Si atom -5566.745392 kJ/mol
# Density = 2.867315 g / cm^3
# Si number density = 28.738564 Si / 1000 Ang^3
#
#
#
# Elastic Constant Matrix: (Units=GPa)
#
#
# Indices 1 2 3 4 5 6 
#
# 1 163.9833 53.2515 35.1759 -12.2119 -35.7834 43.4298
# 2 53.2515 96.4839 32.4717 -14.2507 11.5299 8.7248
# 3 35.1759 32.4717 110.8094 -15.2096 -8.1405 19.5762
# 4 -12.2119 -14.2507 -15.2096 50.7041 11.0243 -0.7506
# 5 -35.7834 11.5299 -8.1405 11.0243 37.7669 -17.5909
# 6 43.4298 8.7248 19.5762 -0.7506 -17.5909 73.1254
#
#
#
# Elastic Compliance Matrix: (Units=1/GPa)
#
#
# Indices 1 2 3 4 5 6 
#
# 1 0.012585 -0.008596 -0.000262 -0.002506 0.013785 -0.003088
# 2 -0.008596 0.019050 -0.003218 0.005897 -0.016473 -0.000208
# 3 -0.000262 -0.003218 0.010770 0.001886 0.001602 -0.001939
# 4 -0.002506 0.005897 0.001886 0.023877 -0.011818 -0.002318
# 5 0.013785 -0.016473 0.001602 -0.011818 0.050914 0.005476
# 6 -0.003088 -0.000208 -0.001939 -0.002318 0.005476 0.017347
#
#
# Mechanical properties :
#
#
# Convention : Reuss Voigt Hill
#
# Bulk Modulus (GPa) = 54.78319 68.11943 61.45131
# Shear Modulus (GPa) = 30.34375 49.01111 39.67743
#
# Velocity S-wave (km/s) = 3.25292 4.13414 3.71972
# Velocity P-wave (km/s) = 5.76304 6.82223 6.31488
#
# Compressibility (1/GPa) = 0.01825377
#
# Stress axis : x y z
#
# Youngs Moduli (GPa) = 79.45763 52.49324 92.85389
#
# Poissons Ratio (x) = 0.45125 0.02431
# Poissons Ratio (y) = 0.68304 0.29876
# Poissons Ratio (z) = 0.02080 0.16890
#
# Static dielectric constant tensor:
#      x y z
#    x 2.412440 0.023610 0.046950 
#    y 0.023610 2.311040 0.012610 
#    z 0.046950 0.012610 2.158560 
# 
# From -- ./inp_files/92786.got.cif
#   From: 2010.05.17/outbox.cif.g08.bks.cpg/sg2_47_cif.got.tgz:92786.got - 2010.06.03 11:33:40.
