data_PCOD9026549
_publ_section_title
;
Structure prediction by ZEFSAII (Michael W. Deem and Ramdas Pophale) SiO2 
 PCOD9026549
Probable space group: P -1
;
_chemical_formula_sum "Si O2"
_cell_formula_units_Z 10
_cell_length_a 12.062487
_cell_length_b 5.004822
_cell_length_c 8.577778
_cell_angle_alpha 120.674030
_cell_angle_beta 93.513306
_cell_angle_gamma 102.958200
_cell_volume 424.407353
_symmetry_space_group_name_H-M "P -1"
_symmetry_group_IT_number 2
_symmetry_cell_setting 'triclinic'
loop_
_space_group_symop_operation_xyz
x,y,z
-x,-y,-z
loop_
_atom_site_type_symbol
_atom_site_label
_atom_site_fract_x
_atom_site_fract_y
_atom_site_fract_z
Si Si1 0.973644 0.764984 0.185266
Si Si2 0.377856 0.780690 0.000016
Si Si3 0.581787 0.846618 0.565392
Si Si4 0.825180 0.888018 0.473316
Si Si5 0.233653 0.037051 0.820437
O O1 0.895084 0.690968 0.316848
O O2 0.887188 0.908613 0.119158
O O3 0.094417 0.978779 0.332663
O O4 0.000000 0.500000 0.000000
O O5 0.376799 0.919252 0.213924
O O6 0.333543 0.386214 0.897227
O O7 0.500000 0.000000 0.000000
O O8 0.286986 0.866910 0.903439
O O9 0.500000 0.500000 0.500000
O O10 0.693966 0.765302 0.481757
O O11 0.500000 0.000000 0.500000
O O12 0.806013 0.128509 0.402215
#
# Coordination Sequence:
#
# PCOD9026549 Si02
#       5
#     2   2   2   2   2
#     4   9  19  42  73  98 139 179 229 286 342 402
#     4  12  23  40  66  95 133 180 221 274 338 402
#     4  12  25  43  67 100 141 179 227 285 340 409
#     4   9  21  42  68 103 135 179 233 279 342 410
#     4  10  22  41  64  96 131 169 229 273 334 401
#
# _framework density 23.562266999999999
#
# number of rings (size 3 to 8) (size 9 to 14) (size 15 to 20)
#    1.200    0.400    0.000    5.400    0.000    0.000 
#    0.000   10.000    0.000    0.000    0.000    0.000 
#    0.000    0.000    0.000    0.000    0.000    0.000 
#
# Total GULP energy -55679.546349 kJ/mol
# GULP energy per Si atom -5567.954635 kJ/mol
# Density = 2.350864 g / cm^3
# Si number density = 23.562267 Si / 1000 Ang^3
#
#
#
# Elastic Constant Matrix: (Units=GPa)
#
#
# Indices 1 2 3 4 5 6 
#
# 1 187.1867 45.4395 38.5110 0.7430 9.8098 17.1161
# 2 45.4395 103.9312 24.3722 2.9996 18.9638 -9.9568
# 3 38.5110 24.3722 120.2645 11.1192 2.2290 0.9912
# 4 0.7430 2.9996 11.1192 23.7844 1.1948 4.1174
# 5 9.8098 18.9638 2.2290 1.1948 53.9113 -10.5276
# 6 17.1161 -9.9568 0.9912 4.1174 -10.5276 32.9969
#
#
#
# Elastic Compliance Matrix: (Units=1/GPa)
#
#
# Indices 1 2 3 4 5 6 
#
# 1 0.006930 -0.002946 -0.001734 0.001898 -0.001180 -0.005045
# 2 -0.002946 0.012220 -0.001385 -0.001449 -0.002785 0.004550
# 3 -0.001734 -0.001385 0.009540 -0.004434 0.000696 0.000970
# 4 0.001898 -0.001449 -0.004434 0.045679 -0.002164 -0.007679
# 5 -0.001180 -0.002785 0.000696 -0.002164 0.021080 0.006747
# 6 -0.005045 0.004550 0.000970 -0.007679 0.006747 0.037377
#
#
# Mechanical properties :
#
#
# Convention : Reuss Voigt Hill
#
# Bulk Modulus (GPa) = 60.38626 69.78086 65.08356
# Shear Modulus (GPa) = 33.22792 42.34251 37.78521
#
# Velocity S-wave (km/s) = 3.75936 4.24376 4.00888
# Velocity P-wave (km/s) = 6.67291 7.32751 7.00786
#
# Compressibility (1/GPa) = 0.01656006
#
# Stress axis : x y z
#
# Youngs Moduli (GPa) = 144.30579 81.83108 104.82129
#
# Poissons Ratio (x) = 0.24106 0.18177
# Poissons Ratio (y) = 0.42510 0.14519
# Poissons Ratio (z) = 0.25024 0.11334
#
# Static dielectric constant tensor:
#      x y z
#    x 1.126910 -0.254980 0.704520 
#    y -0.254980 1.936150 0.256180 
#    z 0.704520 0.256180 1.255250 
# 
# From -- ./inp_files/58621.got.cif
#   From: 2010.05.17/outbox.cif.g08.bks.cpg/sg2_30_cif.got.tgz:58621.got - 2010.06.03 11:33:40.
