data_PCOD9026907
_publ_section_title
;
Structure prediction by ZEFSAII (Michael W. Deem and Ramdas Pophale) SiO2 
 PCOD9026907
Probable space group: P -1
;
_chemical_formula_sum "Si O2"
_cell_formula_units_Z 14
_cell_length_a 22.475681
_cell_length_b 10.123191
_cell_length_c 8.977999
_cell_angle_alpha 138.288192
_cell_angle_beta 42.072194
_cell_angle_gamma 150.573543
_cell_volume 640.726916
_symmetry_space_group_name_H-M "P -1"
_symmetry_group_IT_number 2
_symmetry_cell_setting 'triclinic'
loop_
_space_group_symop_operation_xyz
x,y,z
-x,-y,-z
loop_
_atom_site_type_symbol
_atom_site_label
_atom_site_fract_x
_atom_site_fract_y
_atom_site_fract_z
Si Si1 0.869606 0.387729 0.586232
Si Si2 0.506195 0.539954 0.200100
Si Si3 0.207992 0.946397 0.857460
Si Si4 0.119909 0.435780 0.725748
Si Si5 0.405023 0.990633 0.072613
Si Si6 0.927658 0.872885 0.738149
Si Si7 0.382251 0.733665 0.589290
O O1 0.842837 0.225580 0.346174
O O2 0.731312 0.167758 0.737256
O O3 0.900459 0.671175 0.745725
O O4 0.000000 0.500000 0.500000
O O5 0.400995 0.534857 0.425402
O O6 0.642993 0.846538 0.238200
O O7 0.481413 0.307910 0.148918
O O8 0.500000 0.500000 0.000000
O O9 0.138992 0.702883 0.907209
O O10 0.182468 0.139278 0.084836
O O11 0.057571 0.249249 0.534803
O O12 0.259868 0.573116 0.583738
O O13 0.045897 0.212059 0.808971
O O14 0.373391 0.835483 0.844946
O O15 0.500000 0.000000 0.000000
O O16 0.500000 0.000000 0.500000
#
# Coordination Sequence:
#
# PCOD9026907 Si02
#       7
#     2   2   2   2   2   2   2
#     4  11  28  47  64 100 145 185 238 287 341 425
#     4  12  24  43  74 106 135 182 233 292 354 419
#     4  11  22  42  71  95 140 178 231 288 351 410
#     4  10  22  41  66 104 129 177 230 284 341 418
#     4  12  28  47  72 103 146 186 235 294 355 418
#     4  10  23  42  69  94 137 180 228 285 345 411
#     4  12  24  43  72 102 140 177 232 291 350 417
#
# _framework density 21.850182
#
# number of rings (size 3 to 8) (size 9 to 14) (size 15 to 20)
#    0.000    0.857    2.857    3.000    6.000    4.000 
#    2.571    0.000    0.000    0.000    0.000    0.000 
#    0.000    0.000    0.000    0.000    0.000    0.000 
#
# Total GULP energy -78140.191252 kJ/mol
# GULP energy per Si atom -5581.442232 kJ/mol
# Density = 2.180045 g / cm^3
# Si number density = 21.850182 Si / 1000 Ang^3
#
#
#
# Elastic Constant Matrix: (Units=GPa)
#
#
# Indices 1 2 3 4 5 6 
#
# 1 100.2076 67.2909 11.0132 9.9575 -23.0160 -6.6448
# 2 67.2909 133.6369 14.3404 -8.8333 0.0437 -12.9351
# 3 11.0132 14.3404 69.7380 5.3996 -9.2961 -10.4598
# 4 9.9575 -8.8333 5.3996 36.2946 -0.2858 -13.5164
# 5 -23.0160 0.0437 -9.2961 -0.2858 36.2138 11.7676
# 6 -6.6448 -12.9351 -10.4598 -13.5164 11.7676 44.3164
#
#
#
# Elastic Compliance Matrix: (Units=1/GPa)
#
#
# Indices 1 2 3 4 5 6 
#
# 1 0.024533 -0.014313 0.001238 -0.013756 0.018878 -0.009415
# 2 -0.014313 0.016584 -0.002370 0.011567 -0.012558 0.008998
# 3 0.001238 -0.002370 0.015606 -0.002770 0.004395 0.001166
# 4 -0.013756 0.011567 -0.002770 0.040764 -0.014666 0.016987
# 5 0.018878 -0.012558 0.004395 -0.014666 0.045996 -0.016484
# 6 -0.009415 0.008998 0.001166 0.016987 -0.016484 0.033613
#
#
# Mechanical properties :
#
#
# Convention : Reuss Voigt Hill
#
# Bulk Modulus (GPa) = 38.70822 54.31906 46.51364
# Shear Modulus (GPa) = 23.08426 37.42752 30.25589
#
# Velocity S-wave (km/s) = 3.25388 4.14323 3.72519
# Velocity P-wave (km/s) = 5.64542 6.91391 6.31161
#
# Compressibility (1/GPa) = 0.02583431
#
# Stress axis : x y z
#
# Youngs Moduli (GPa) = 40.76102 60.29909 64.07652
#
# Poissons Ratio (x) = 0.86306 -0.07935
# Poissons Ratio (y) = 0.58341 0.15186
# Poissons Ratio (z) = -0.05047 0.14290
#
# Static dielectric constant tensor:
#      x y z
#    x 1.822310 -0.041600 -0.037870 
#    y -0.041600 1.829250 -0.023590 
#    z -0.037870 -0.023590 1.804400 
# 
# From -- ./inp_files/343846.got.cif
#   From: 2010.05.17/outbox.cif.g08.bks.cpg/sg2_172_cif.got.tgz:343846.got - 2010.06.03 11:33:40.
