data_PCOD9026797
_publ_section_title
;
Structure prediction by ZEFSAII (Michael W. Deem and Ramdas Pophale) SiO2 
 PCOD9026797
Probable space group: P -1
;
_chemical_formula_sum "Si O2"
_cell_formula_units_Z 14
_cell_length_a 12.024301
_cell_length_b 9.351846
_cell_length_c 15.266447
_cell_angle_alpha 29.880271
_cell_angle_beta 57.266314
_cell_angle_gamma 55.616649
_cell_volume 700.344911
_symmetry_space_group_name_H-M "P -1"
_symmetry_group_IT_number 2
_symmetry_cell_setting 'triclinic'
loop_
_space_group_symop_operation_xyz
x,y,z
-x,-y,-z
loop_
_atom_site_type_symbol
_atom_site_label
_atom_site_fract_x
_atom_site_fract_y
_atom_site_fract_z
Si Si1 0.558874 0.700673 0.245024
Si Si2 0.944459 0.714302 0.829882
Si Si3 0.084001 0.664136 0.126272
Si Si4 0.649811 0.714172 0.006598
Si Si5 0.667419 0.608207 0.437621
Si Si6 0.631497 0.289765 0.097050
Si Si7 0.979793 0.361146 0.487966
O O1 0.644352 0.574280 0.361260
O O2 0.432958 0.542300 0.384006
O O3 0.483348 0.046542 0.095556
O O4 0.644196 0.672316 0.134960
O O5 0.965531 0.518693 0.835708
O O6 0.782202 0.814914 0.862382
O O7 0.003145 0.006923 0.656883
O O8 0.000000 0.500000 0.000000
O O9 0.072595 0.482249 0.314866
O O10 0.236069 0.685571 0.027449
O O11 0.000000 0.000000 0.000000
O O12 0.652715 0.408855 0.120660
O O13 0.823215 0.490571 0.458559
O O14 0.622571 0.956369 0.284414
O O15 0.500000 0.500000 0.000000
O O16 0.000000 0.500000 0.500000
#
# Coordination Sequence:
#
# PCOD9026797 Si02
#       7
#     2   2   2   2   2   2   2
#     4  10  22  41  68  95 126 172 217 269 335 399
#     4  11  25  44  66  96 135 174 228 283 332 404
#     4  11  24  44  70  98 133 180 224 275 346 401
#     4  10  22  41  65  97 126 167 220 267 335 396
#     4  11  23  42  68  93 134 170 223 277 331 396
#     4  11  23  42  66  97 133 170 217 276 331 400
#     4  12  26  44  66 100 135 180 231 278 339 407
#
# _framework density 19.990151000000001
#
# number of rings (size 3 to 8) (size 9 to 14) (size 15 to 20)
#    0.000    1.143    4.286    1.286    4.000    2.857 
#    2.571    0.000    0.000    0.000    0.000    0.000 
#    0.000    0.000    0.000    0.000    0.000    0.000 
#
# Total GULP energy -78196.406746 kJ/mol
# GULP energy per Si atom -5585.457625 kJ/mol
# Density = 1.994465 g / cm^3
# Si number density = 19.990151 Si / 1000 Ang^3
#
#
#
# Elastic Constant Matrix: (Units=GPa)
#
#
# Indices 1 2 3 4 5 6 
#
# 1 66.3956 32.7576 1.6058 -4.5852 5.1781 0.9412
# 2 32.7576 134.0462 57.6202 2.1796 -7.5840 13.0057
# 3 1.6058 57.6202 110.2839 -14.5985 -3.8103 15.9362
# 4 -4.5852 2.1796 -14.5985 36.1695 3.1387 7.7706
# 5 5.1781 -7.5840 -3.8103 3.1387 27.6487 -4.7467
# 6 0.9412 13.0057 15.9362 7.7706 -4.7467 28.9398
#
#
#
# Elastic Compliance Matrix: (Units=1/GPa)
#
#
# Indices 1 2 3 4 5 6 
#
# 1 0.019073 -0.006580 0.004007 0.005429 -0.005833 -0.002284
# 2 -0.006580 0.012307 -0.006896 -0.004835 0.004289 0.000482
# 3 0.004007 -0.006896 0.014860 0.008922 -0.002998 -0.008102
# 4 0.005429 -0.004835 0.008922 0.035843 -0.007548 -0.013779
# 5 -0.005833 0.004289 -0.002998 -0.007548 0.040350 0.008558
# 6 -0.002284 0.000482 -0.008102 -0.013779 0.008558 0.043977
#
#
# Mechanical properties :
#
#
# Convention : Reuss Voigt Hill
#
# Bulk Modulus (GPa) = 36.62591 54.96589 45.79590
# Shear Modulus (GPa) = 25.71381 33.13441 29.42411
#
# Velocity S-wave (km/s) = 3.59043 4.07570 3.84074
# Velocity P-wave (km/s) = 5.96238 7.05015 6.52896
#
# Compressibility (1/GPa) = 0.02730307
#
# Stress axis : x y z
#
# Youngs Moduli (GPa) = 52.43005 81.25593 67.29439
#
# Poissons Ratio (x) = 0.53469 -0.26968
# Poissons Ratio (y) = 0.34500 0.46404
# Poissons Ratio (z) = -0.21011 0.56031
#
# Static dielectric constant tensor:
#      x y z
#    x 1.724210 0.010220 -0.001440 
#    y 0.010220 1.709810 -0.016540 
#    z -0.001440 -0.016540 1.671390 
# 
# From -- ./inp_files/159281.got.cif
#   From: 2010.05.17/outbox.cif.g08.bks.cpg/sg2_80_cif.got.tgz:159281.got - 2010.06.03 11:33:40.
