data_PCOD9026111
_publ_section_title
;
Structure prediction by ZEFSAII (Michael W. Deem and Ramdas Pophale) SiO2 
 PCOD9026111
Probable space group: P -1
;
_chemical_formula_sum "Si O2"
_cell_formula_units_Z 14
_cell_length_a 7.061019
_cell_length_b 18.132438
_cell_length_c 10.021498
_cell_angle_alpha 135.388012
_cell_angle_beta 45.009647
_cell_angle_gamma 135.580863
_cell_volume 576.957972
_symmetry_space_group_name_H-M "P -1"
_symmetry_group_IT_number 2
_symmetry_cell_setting 'triclinic'
loop_
_space_group_symop_operation_xyz
x,y,z
-x,-y,-z
loop_
_atom_site_type_symbol
_atom_site_label
_atom_site_fract_x
_atom_site_fract_y
_atom_site_fract_z
Si Si1 0.859207 0.103160 0.342771
Si Si2 0.374207 0.220942 0.429415
Si Si3 0.679088 0.484521 0.514026
Si Si4 0.312432 0.155966 0.675648
Si Si5 0.766929 0.175670 0.977830
Si Si6 0.217261 0.436504 0.149502
Si Si7 0.709220 0.842579 0.025689
O O1 0.527911 0.091353 0.488209
O O2 0.043114 0.162880 0.459929
O O3 0.855329 0.977268 0.170379
O O4 0.055317 0.175335 0.211100
O O5 0.521047 0.351483 0.470082
O O6 0.391493 0.220805 0.578754
O O7 0.558996 0.156728 0.185990
O O8 0.500000 0.500000 0.500000
O O9 0.700375 0.560215 0.731316
O O10 0.007262 0.504337 0.334274
O O11 0.380759 0.220564 0.868880
O O12 0.952477 0.099025 0.777094
O O13 0.016388 0.307206 0.033290
O O14 0.563321 0.170715 0.948404
O O15 0.500000 0.500000 0.000000
#
# Coordination Sequence:
#
# PCOD9026111 Si02
#       7
#     2   2   2   2   2   2   2
#     4  10  23  41  63  90 126 163 204 249 302 365
#     4  10  23  41  60  91 124 158 203 255 307 360
#     4  10  23  42  65  89 122 161 203 253 308 366
#     4  12  22  38  65  90 121 164 207 250 301 360
#     4  10  23  40  59  89 126 158 201 252 304 363
#     4  10  22  41  62  91 122 155 203 255 306 364
#     4  10  23  42  61  91 126 163 204 250 303 360
#
# _framework density 24.265198999999999
#
# number of rings (size 3 to 8) (size 9 to 14) (size 15 to 20)
#    0.000    1.714    0.000    3.000    0.000   10.857 
#    0.000    4.286    0.000    0.000    0.000    0.000 
#    0.000    0.000    0.000    0.000    0.000    0.000 
#
# Total GULP energy -78310.605601 kJ/mol
# GULP energy per Si atom -5593.614686 kJ/mol
# Density = 2.420997 g / cm^3
# Si number density = 24.265199 Si / 1000 Ang^3
#
#
#
# Elastic Constant Matrix: (Units=GPa)
#
#
# Indices 1 2 3 4 5 6 
#
# 1 184.8806 36.6518 69.3850 -32.0281 24.7642 1.5174
# 2 36.6518 84.2943 33.1988 -12.8465 9.7525 15.9347
# 3 69.3850 33.1988 135.9725 -44.0762 5.7543 -8.0656
# 4 -32.0281 -12.8465 -44.0762 38.3152 -0.4844 6.8636
# 5 24.7642 9.7525 5.7543 -0.4844 45.7157 -2.4214
# 6 1.5174 15.9347 -8.0656 6.8636 -2.4214 36.4045
#
#
#
# Elastic Compliance Matrix: (Units=1/GPa)
#
#
# Indices 1 2 3 4 5 6 
#
# 1 0.007633 -0.001207 -0.002435 0.003344 -0.003599 -0.001199
# 2 -0.001207 0.015708 -0.002781 0.002473 -0.002749 -0.008090
# 3 -0.002435 -0.002781 0.013233 0.011895 0.000481 0.002040
# 4 0.003344 0.002473 0.011895 0.044659 -0.003747 -0.007255
# 5 -0.003599 -0.002749 0.000481 -0.003747 0.024511 0.003797
# 6 -0.001199 -0.008090 0.002040 -0.007255 0.003797 0.033133
#
#
# Mechanical properties :
#
#
# Convention : Reuss Voigt Hill
#
# Bulk Modulus (GPa) = 42.14766 75.95762 59.05264
# Shear Modulus (GPa) = 31.32189 41.81455 36.56822
#
# Velocity S-wave (km/s) = 3.59669 4.15569 3.88625
# Velocity P-wave (km/s) = 5.88689 7.37546 6.67281
#
# Compressibility (1/GPa) = 0.02372611
#
# Stress axis : x y z
#
# Youngs Moduli (GPa) = 131.00306 63.66294 75.57124
#
# Poissons Ratio (x) = 0.07686 0.18404
# Poissons Ratio (y) = 0.15815 0.21018
# Poissons Ratio (z) = 0.31904 0.17706
#
# Static dielectric constant tensor:
#      x y z
#    x 1.942220 -0.061190 -0.026040 
#    y -0.061190 1.961600 0.008180 
#    z -0.026040 0.008180 1.996540 
# 
# From -- ./inp_files/141557.got.cif
#   From: 2010.05.17/outbox.cif.g08.bks.cpg/sg2_71_cif.got.tgz:141557.got - 2010.06.03 11:33:40.
