data_PCOD9026208
_publ_section_title
;
Structure prediction by ZEFSAII (Michael W. Deem and Ramdas Pophale) SiO2 
 PCOD9026208
Probable space group: P -1
;
_chemical_formula_sum "Si O2"
_cell_formula_units_Z 16
_cell_length_a 13.493668
_cell_length_b 12.395132
_cell_length_c 8.495860
_cell_angle_alpha 131.018089
_cell_angle_beta 130.921114
_cell_angle_gamma 76.175753
_cell_volume 763.329887
_symmetry_space_group_name_H-M "P -1"
_symmetry_group_IT_number 2
_symmetry_cell_setting 'triclinic'
loop_
_space_group_symop_operation_xyz
x,y,z
-x,-y,-z
loop_
_atom_site_type_symbol
_atom_site_label
_atom_site_fract_x
_atom_site_fract_y
_atom_site_fract_z
Si Si1 0.052396 0.007348 0.740883
Si Si2 0.766807 0.270621 0.668055
Si Si3 0.913127 0.249987 0.288537
Si Si4 0.475269 0.168202 0.939736
Si Si5 0.351217 0.934027 0.368777
Si Si6 0.041507 0.305810 0.153257
Si Si7 0.742045 0.420261 0.472433
Si Si8 0.666939 0.979545 0.064995
O O1 0.219959 0.057371 0.954901
O O2 0.011161 0.842635 0.618313
O O3 0.013484 0.128795 0.921197
O O4 0.000000 0.000000 0.500000
O O5 0.671460 0.202892 0.657492
O O6 0.737836 0.383755 0.619530
O O7 0.747986 0.119290 0.399564
O O8 0.922497 0.340979 0.961278
O O9 0.846874 0.345861 0.424115
O O10 0.014986 0.333548 0.333934
O O11 0.778646 0.133921 0.946800
O O12 0.414652 0.160618 0.044068
O O13 0.353233 0.083261 0.612096
O O14 0.586730 0.327327 0.162402
O O15 0.563939 0.051453 0.939380
O O16 0.500000 0.000000 0.500000
O O17 0.190932 0.406274 0.339514
#
# Coordination Sequence:
#
# PCOD9026208 Si02
#       8
#     2   2   2   2   2   2   2   2
#     4  12  21  38  58  82 112 146 188 228 278 332
#     4   9  18  32  54  80 109 145 186 226 268 323
#     4  11  22  36  55  83 111 148 190 231 274 323
#     4   9  17  31  57  83 106 136 183 234 270 312
#     4  10  17  31  55  88 109 132 188 243 273 305
#     4  11  23  34  52  82 118 149 179 227 283 334
#     4  11  19  36  55  81 115 148 185 225 278 331
#     4   9  16  32  56  83 102 136 187 233 264 312
#
# _framework density 20.960792999999999
#
# number of rings (size 3 to 8) (size 9 to 14) (size 15 to 20)
#    0.000    1.750    5.000    1.875    0.000    0.000 
#    0.000    0.625    0.000    0.750    0.000    0.000 
#    0.000    0.000    0.000    0.000    0.000    0.000 
#
# Total GULP energy -89162.204491 kJ/mol
# GULP energy per Si atom -5572.637781 kJ/mol
# Density = 2.091308 g / cm^3
# Si number density = 20.960793 Si / 1000 Ang^3
#
#
#
# Elastic Constant Matrix: (Units=GPa)
#
#
# Indices 1 2 3 4 5 6 
#
# 1 62.4820 10.7232 -6.7628 0.9301 4.6437 25.1209
# 2 10.7232 53.4468 16.2150 -7.0499 -8.5555 22.3946
# 3 -6.7628 16.2150 53.3495 0.2562 10.7200 12.7007
# 4 0.9301 -7.0499 0.2562 24.7867 10.7808 0.9195
# 5 4.6437 -8.5555 10.7200 10.7808 32.9750 5.6702
# 6 25.1209 22.3946 12.7007 0.9195 5.6702 33.8772
#
#
#
# Elastic Compliance Matrix: (Units=1/GPa)
#
#
# Indices 1 2 3 4 5 6 
#
# 1 0.026353 0.001644 0.008974 0.001392 -0.002600 -0.023595
# 2 0.001644 0.032515 -0.006948 0.004504 0.012839 -0.022380
# 3 0.008974 -0.006948 0.026593 0.002469 -0.010748 -0.010300
# 4 0.001392 0.004504 0.002469 0.048184 -0.014940 -0.003743
# 5 -0.002600 0.012839 -0.010748 -0.014940 0.044034 -0.009495
# 6 -0.023595 -0.022380 -0.010300 -0.003743 -0.009495 0.067361
#
#
# Mechanical properties :
#
#
# Convention : Reuss Voigt Hill
#
# Bulk Modulus (GPa) = 10.77573 23.29213 17.03393
# Shear Modulus (GPa) = 18.61274 28.26796 23.44035
#
# Velocity S-wave (km/s) = 2.98313 3.67633 3.34772
# Velocity P-wave (km/s) = 4.12522 5.39971 4.80491
#
# Compressibility (1/GPa) = 0.09280116
#
# Stress axis : x y z
#
# Youngs Moduli (GPa) = 37.94688 30.75542 37.60346
#
# Poissons Ratio (x) = -0.05057 -0.33744
# Poissons Ratio (y) = -0.06240 0.26126
# Poissons Ratio (z) = -0.34052 0.21368
#
# Static dielectric constant tensor:
#      x y z
#    x 1.799850 0.043510 0.000250 
#    y 0.043510 1.802090 -0.027470 
#    z 0.000250 -0.027470 1.815490 
# 
# From -- ./inp_files/308627.got.cif
#   From: 2010.05.17/outbox.cif.g08.bks.cpg/sg2_155_cif.got.tgz:308627.got - 2010.06.03 11:33:40.
