data_PCOD9026222
_publ_section_title
;
Structure prediction by ZEFSAII (Michael W. Deem and Ramdas Pophale) SiO2 
 PCOD9026222
Probable space group: P -1
;
_chemical_formula_sum "Si O2"
_cell_formula_units_Z 14
_cell_length_a 6.353519
_cell_length_b 13.154455
_cell_length_c 11.016454
_cell_angle_alpha 132.495324
_cell_angle_beta 123.246169
_cell_angle_gamma 66.137630
_cell_volume 566.888624
_symmetry_space_group_name_H-M "P -1"
_symmetry_group_IT_number 2
_symmetry_cell_setting 'triclinic'
loop_
_space_group_symop_operation_xyz
x,y,z
-x,-y,-z
loop_
_atom_site_type_symbol
_atom_site_label
_atom_site_fract_x
_atom_site_fract_y
_atom_site_fract_z
Si Si1 0.410721 0.460095 0.653156
Si Si2 0.175329 0.366739 0.140486
Si Si3 0.666622 0.329557 0.820287
Si Si4 0.998082 0.701724 0.703082
Si Si5 0.596053 0.150331 0.140830
Si Si6 0.769992 0.150554 0.461584
Si Si7 0.641650 0.899901 0.366732
O O1 0.669792 0.495185 0.696766
O O2 0.485036 0.455826 0.814969
O O3 0.214430 0.582450 0.647641
O O4 0.249374 0.326797 0.473737
O O5 0.385834 0.245404 0.080410
O O6 0.075191 0.323354 0.203338
O O7 0.935898 0.373904 0.984417
O O8 0.716879 0.241175 0.639506
O O9 0.524931 0.233941 0.793141
O O10 0.133961 0.840474 0.831084
O O11 0.644879 0.199445 0.334714
O O12 0.500000 0.000000 0.000000
O O13 0.072729 0.140345 0.533790
O O14 0.676431 0.997549 0.339730
O O15 0.500000 0.000000 0.500000
#
# Coordination Sequence:
#
# PCOD9026222 Si02
#       7
#     2   2   2   2   2   2   2
#     4  10  22  43  66  93 127 168 215 255 317 378
#     4  11  25  41  63  98 129 163 213 266 312 375
#     4  11  23  39  66  95 127 166 208 259 322 372
#     4  10  23  44  67  93 127 168 213 262 312 379
#     4  11  26  41  65  94 129 167 213 260 318 375
#     4  10  22  41  63  88 129 170 206 259 310 378
#     4   9  21  37  62  89 122 164 211 249 309 374
#
# _framework density 24.696211000000002
#
# number of rings (size 3 to 8) (size 9 to 14) (size 15 to 20)
#    0.000    1.714    0.000    2.571    8.000    6.857 
#    0.000    0.000    0.000    0.000    0.000    0.000 
#    0.000    0.000    0.000    0.000    0.000    0.000 
#
# Total GULP energy -78248.932259 kJ/mol
# GULP energy per Si atom -5589.209447 kJ/mol
# Density = 2.464000 g / cm^3
# Si number density = 24.696211 Si / 1000 Ang^3
#
#
#
# Elastic Constant Matrix: (Units=GPa)
#
#
# Indices 1 2 3 4 5 6 
#
# 1 120.6237 26.4560 65.5226 7.5114 47.6611 24.1685
# 2 26.4560 78.8333 44.7002 -7.2107 31.1612 10.2895
# 3 65.5226 44.7002 135.9633 -10.7443 49.1442 7.4412
# 4 7.5114 -7.2107 -10.7443 51.7441 7.2626 15.6824
# 5 47.6611 31.1612 49.1442 7.2626 49.4088 8.4486
# 6 24.1685 10.2895 7.4412 15.6824 8.4486 45.3522
#
#
#
# Elastic Compliance Matrix: (Units=1/GPa)
#
#
# Indices 1 2 3 4 5 6 
#
# 1 0.015751 0.002519 -0.003536 0.001011 -0.012313 -0.006441
# 2 0.002519 0.019003 -0.002571 0.004827 -0.011762 -0.004710
# 3 -0.003536 -0.002571 0.013467 0.004058 -0.009051 0.000541
# 4 0.001011 0.004827 0.004058 0.024849 -0.010169 -0.008997
# 5 -0.012313 -0.011762 -0.009051 -0.010169 0.049165 0.005073
# 6 -0.006441 -0.004710 0.000541 -0.008997 0.005073 0.028628
#
#
# Mechanical properties :
#
#
# Convention : Reuss Voigt Hill
#
# Bulk Modulus (GPa) = 24.36338 67.64199 46.00269
# Shear Modulus (GPa) = 29.11716 42.55044 35.83380
#
# Velocity S-wave (km/s) = 3.43740 4.15535 3.81331
# Velocity P-wave (km/s) = 5.06369 7.10434 6.16898
#
# Compressibility (1/GPa) = 0.04104521
#
# Stress axis : x y z
#
# Youngs Moduli (GPa) = 63.48710 52.62374 74.25602
#
# Poissons Ratio (x) = -0.13257 0.26257
# Poissons Ratio (y) = -0.15994 0.19092
# Poissons Ratio (z) = 0.22449 0.13530
#
# Static dielectric constant tensor:
#      x y z
#    x 1.982680 -0.036300 -0.025430 
#    y -0.036300 2.053830 0.056030 
#    z -0.025430 0.056030 1.952570 
# 
# From -- ./inp_files/26957.got.cif
#   From: 2010.05.17/outbox.cif.g08.bks.cpg/sg2_14_cif.got.tgz:26957.got - 2010.06.03 11:33:40.
