data_PCOD9026116
_publ_section_title
;
Structure prediction by ZEFSAII (Michael W. Deem and Ramdas Pophale) SiO2 
 PCOD9026116
Probable space group: P -1
;
_chemical_formula_sum "Si O2"
_cell_formula_units_Z 16
_cell_length_a 7.888614
_cell_length_b 7.780993
_cell_length_c 12.086853
_cell_angle_alpha 87.546922
_cell_angle_beta 55.384943
_cell_angle_gamma 86.989205
_cell_volume 609.660524
_symmetry_space_group_name_H-M "P -1"
_symmetry_group_IT_number 2
_symmetry_cell_setting 'triclinic'
loop_
_space_group_symop_operation_xyz
x,y,z
-x,-y,-z
loop_
_atom_site_type_symbol
_atom_site_label
_atom_site_fract_x
_atom_site_fract_y
_atom_site_fract_z
Si Si1 0.740556 0.128711 0.400261
Si Si2 0.316915 0.934740 0.319473
Si Si3 0.412494 0.382925 0.439685
Si Si4 0.031181 0.237768 0.685416
Si Si5 0.494087 0.531246 0.841219
Si Si6 0.699112 0.836350 0.047041
Si Si7 0.172940 0.232357 0.229106
Si Si8 0.066503 0.673839 0.032292
O O1 0.544685 0.202500 0.404571
O O2 0.929730 0.254050 0.304852
O O3 0.836016 0.941472 0.339327
O O4 0.689372 0.121824 0.549920
O O5 0.542066 0.937885 0.181837
O O6 0.172206 0.811000 0.304741
O O7 0.213999 0.123741 0.328892
O O8 0.500000 0.500000 0.500000
O O9 0.175851 0.352967 0.554103
O O10 0.460680 0.471914 0.304929
O O11 0.988849 0.316971 0.818892
O O12 0.406361 0.350467 0.913707
O O13 0.701714 0.595602 0.816903
O O14 0.311725 0.673551 0.928437
O O15 0.922984 0.815034 0.019954
O O16 0.737058 0.882242 0.903973
O O17 0.000000 0.500000 0.000000
#
# Coordination Sequence:
#
# PCOD9026116 Si02
#       8
#     2   2   2   2   2   2   2   2
#     4  11  24  44  66  94 129 169 213 263 317 378
#     4  11  23  43  65  94 129 166 211 264 314 377
#     4  12  24  41  65  97 130 168 212 262 317 380
#     4  11  23  42  67  93 127 171 212 262 320 376
#     4  11  23  41  63  92 127 167 211 262 316 376
#     4  11  23  41  63  91 127 168 209 261 317 373
#     4  11  23  41  64  92 126 167 213 262 313 377
#     4  10  22  41  62  91 127 166 209 260 313 373
#
# _framework density 26.244114
#
# number of rings (size 3 to 8) (size 9 to 14) (size 15 to 20)
#    0.000    1.000    0.000    8.625    0.000    5.000 
#    0.000    6.250    0.000    0.000    0.000    0.000 
#    0.000    0.000    0.000    0.000    0.000    0.000 
#
# Total GULP energy -89781.320776 kJ/mol
# GULP energy per Si atom -5611.332549 kJ/mol
# Density = 2.618438 g / cm^3
# Si number density = 26.244114 Si / 1000 Ang^3
#
#
#
# Elastic Constant Matrix: (Units=GPa)
#
#
# Indices 1 2 3 4 5 6 
#
# 1 79.7157 28.9818 36.3177 -1.1806 -11.0237 5.3860
# 2 28.9818 57.6763 34.9305 2.7940 -6.0758 11.2220
# 3 36.3177 34.9305 172.1212 4.9044 22.3706 14.9836
# 4 -1.1806 2.7940 4.9044 45.0838 2.6858 -2.2330
# 5 -11.0237 -6.0758 22.3706 2.6858 60.1765 -1.2030
# 6 5.3860 11.2220 14.9836 -2.2330 -1.2030 30.3871
#
#
#
# Elastic Compliance Matrix: (Units=1/GPa)
#
#
# Indices 1 2 3 4 5 6 
#
# 1 0.016586 -0.006583 -0.002719 0.000989 0.003361 0.001038
# 2 -0.006583 0.024146 -0.003232 -0.001766 0.002388 -0.006192
# 3 -0.002719 -0.003232 0.007744 -0.000607 -0.003723 -0.002335
# 4 0.000989 -0.001766 -0.000607 0.022545 -0.000730 0.002404
# 5 0.003361 0.002388 -0.003723 -0.000730 0.018912 0.001053
# 6 0.001038 -0.006192 -0.002335 0.002404 0.001053 0.036381
#
#
# Mechanical properties :
#
#
# Convention : Reuss Voigt Hill
#
# Bulk Modulus (GPa) = 42.72331 56.66371 49.69351
# Shear Modulus (GPa) = 31.40997 41.08170 36.24584
#
# Velocity S-wave (km/s) = 3.46329 3.96077 3.72035
# Velocity P-wave (km/s) = 5.68393 6.52340 6.11808
#
# Compressibility (1/GPa) = 0.02340642
#
# Stress axis : x y z
#
# Youngs Moduli (GPa) = 60.29116 41.41541 129.13352
#
# Poissons Ratio (x) = 0.27266 0.35112
# Poissons Ratio (y) = 0.39693 0.41738
# Poissons Ratio (z) = 0.16393 0.13386
#
# Static dielectric constant tensor:
#      x y z
#    x 2.021880 0.004050 -0.011770 
#    y 0.004050 2.147300 0.036340 
#    z -0.011770 0.036340 2.002310 
# 
# From -- ./inp_files/381880.got.cif
#   From: 2010.05.17/outbox.cif.g08.bks.cpg/sg2_191_cif.got.tgz:381880.got - 2010.06.03 11:33:40.
