data_PCOD9026607
_publ_section_title
;
Structure prediction by ZEFSAII (Michael W. Deem and Ramdas Pophale) SiO2 
 PCOD9026607
Probable space group: P -1
;
_chemical_formula_sum "Si O2"
_cell_formula_units_Z 16
_cell_length_a 18.022112
_cell_length_b 8.003058
_cell_length_c 24.104326
_cell_angle_alpha 28.454357
_cell_angle_beta 155.670972
_cell_angle_gamma 139.628563
_cell_volume 668.635092
_symmetry_space_group_name_H-M "P -1"
_symmetry_group_IT_number 2
_symmetry_cell_setting 'triclinic'
loop_
_space_group_symop_operation_xyz
x,y,z
-x,-y,-z
loop_
_atom_site_type_symbol
_atom_site_label
_atom_site_fract_x
_atom_site_fract_y
_atom_site_fract_z
Si Si1 0.444269 0.301432 0.249735
Si Si2 0.865400 0.502903 0.663694
Si Si3 0.341621 0.152417 0.778506
Si Si4 0.367904 0.215675 0.995607
Si Si5 0.946784 0.457949 0.605624
Si Si6 0.781627 0.805851 0.633516
Si Si7 0.923566 0.661593 0.959451
Si Si8 0.714570 0.582875 0.002937
O O1 0.603276 0.479338 0.273228
O O2 0.264606 0.468193 0.115586
O O3 0.575781 0.971881 0.466091
O O4 0.335472 0.216372 0.146346
O O5 0.850203 0.564744 0.568537
O O6 0.755920 0.730481 0.572461
O O7 0.070056 0.544832 0.806294
O O8 0.864221 0.086434 0.791078
O O9 0.145921 0.235395 0.590073
O O10 0.355199 0.797838 0.927523
O O11 0.507655 0.091172 0.864893
O O12 0.347191 0.158198 0.063053
O O13 0.166304 0.378483 0.786520
O O14 0.500000 0.500000 0.000000
O O15 0.896536 0.101826 0.648128
O O16 0.909157 0.455226 0.849280
O O17 0.000000 0.500000 0.000000
#
# Coordination Sequence:
#
# PCOD9026607 Si02
#       8
#     2   2   2   2   2   2   2   2
#     4  11  25  43  68 102 135 177 232 280 343 413
#     4  11  24  43  71 100 136 183 226 282 350 401
#     4  10  22  42  66  96 138 181 223 278 337 401
#     4   9  20  36  61  92 126 179 224 269 329 387
#     4  10  22  43  65  99 137 178 232 278 334 408
#     4  11  24  45  68 101 135 177 231 281 346 408
#     4  12  25  48  72  96 138 179 225 294 347 408
#     4  10  22  41  64  99 136 177 222 280 337 405
#
# _framework density 23.929344
#
# number of rings (size 3 to 8) (size 9 to 14) (size 15 to 20)
#    0.000    1.500    2.500    1.500    3.500    5.500 
#    2.250    1.250    0.000    0.000    0.000    0.000 
#    0.000    0.000    0.000    0.000    0.000    0.000 
#
# Total GULP energy -89085.748390 kJ/mol
# GULP energy per Si atom -5567.859274 kJ/mol
# Density = 2.387488 g / cm^3
# Si number density = 23.929344 Si / 1000 Ang^3
#
#
#
# Elastic Constant Matrix: (Units=GPa)
#
#
# Indices 1 2 3 4 5 6 
#
# 1 1037.1079 113.0801 1103.4700 -221.1855 148.4228 88.2225
# 2 113.0801 92.0828 125.9615 -12.5417 10.0328 10.6277
# 3 1103.4700 125.9615 1276.7502 -242.1397 156.5727 115.8809
# 4 -221.1855 -12.5417 -242.1397 71.4829 -32.8221 -19.1279
# 5 148.4228 10.0328 156.5727 -32.8221 46.1714 16.2930
# 6 88.2225 10.6277 115.8809 -19.1279 16.2930 35.9470
#
#
#
# Elastic Compliance Matrix: (Units=1/GPa)
#
#
# Indices 1 2 3 4 5 6 
#
# 1 0.015197 -0.002153 -0.011422 0.006326 -0.007619 0.006977
# 2 -0.002153 0.013838 -0.001156 -0.006767 0.003044 -0.000063
# 3 -0.011422 -0.001156 0.012139 0.003918 0.001961 -0.009564
# 4 0.006326 -0.006767 0.003918 0.045471 0.001029 -0.002425
# 5 -0.007619 0.003044 0.001961 0.001029 0.042052 -0.007037
# 6 0.006977 -0.000063 -0.009564 -0.002425 -0.007037 0.043444
#
#
# Mechanical properties :
#
#
# Convention : Reuss Voigt Hill
#
# Bulk Modulus (GPa) = 85.36056 565.66267 325.51162
# Shear Modulus (GPa) = 24.33017 101.61555 62.97286
#
# Velocity S-wave (km/s) = 3.19211 6.52357 5.13549
# Velocity P-wave (km/s) = 7.02392 17.13606 13.09542
#
# Compressibility (1/GPa) = 0.01171501
#
# Stress axis : x y z
#
# Youngs Moduli (GPa) = 65.80112 72.26411 82.37801
#
# Poissons Ratio (x) = 0.15555 0.94088
# Poissons Ratio (y) = 0.14164 0.09521
# Poissons Ratio (z) = 0.75155 0.08352
#
# Static dielectric constant tensor:
#      x y z
#    x 1.969980 0.077910 -0.010680 
#    y 0.077910 1.335380 0.204150 
#    z -0.010680 0.204150 1.834880 
# 
# From -- ./inp_files/620686.got.cif
#   From: 2010.05.17/outbox.cif.g08.bks.cpg/sg2_311_cif.got.tgz:620686.got - 2010.06.03 11:33:40.
