data_PCOD9026983
_publ_section_title
;
Structure prediction by ZEFSAII (Michael W. Deem and Ramdas Pophale) SiO2 
 PCOD9026983
Probable space group: P -1
;
_chemical_formula_sum "Si O2"
_cell_formula_units_Z 15
_cell_length_a 5.505726
_cell_length_b 20.768308
_cell_length_c 17.548053
_cell_angle_alpha 160.019647
_cell_angle_beta 116.377018
_cell_angle_gamma 62.600138
_cell_volume 608.250710
_symmetry_space_group_name_H-M "P -1"
_symmetry_group_IT_number 2
_symmetry_cell_setting 'triclinic'
loop_
_space_group_symop_operation_xyz
x,y,z
-x,-y,-z
loop_
_atom_site_type_symbol
_atom_site_label
_atom_site_fract_x
_atom_site_fract_y
_atom_site_fract_z
Si Si1 0.520374 0.963831 0.765818
Si Si2 0.714972 0.401503 0.647697
Si Si3 0.604292 0.179373 0.753245
Si Si4 0.276269 0.761416 0.005029
Si Si5 0.112757 0.753207 0.657130
Si Si6 0.000000 0.500000 0.500000
Si Si7 0.740997 0.846235 0.918923
Si Si8 0.022507 0.390273 0.960627
O O1 0.308960 0.812968 0.568808
O O2 0.804827 0.835621 0.680658
O O3 0.536283 0.084977 0.827439
O O4 0.455123 0.110658 0.988823
O O5 0.781453 0.389190 0.554556
O O6 0.438706 0.549139 0.786160
O O7 0.945798 0.474659 0.812738
O O8 0.807710 0.174618 0.849752
O O9 0.322873 0.272558 0.858543
O O10 0.764682 0.283261 0.826335
O O11 0.500000 0.000000 0.500000
O O12 0.035074 0.776861 0.925845
O O13 0.109987 0.643853 0.613438
O O14 0.245397 0.950149 0.893102
O O15 0.270042 0.332400 0.334824
O O16 0.000000 0.500000 0.000000
#
# Coordination Sequence:
#
# PCOD9026983 Si02
#       8
#     2   2   2   2   2   1   2   2
#     4  10  22  41  66  93 130 176 224 285 340 423
#     4  10  23  41  69  94 134 175 234 277 347 415
#     4  11  26  44  70 103 145 185 236 291 354 421
#     4  10  23  41  69  94 134 175 234 277 347 415
#     4  10  23  41  61  97 126 172 227 273 349 409
#     4  12  22  38  70  82 140 168 220 286 342 410
#     4  10  23  41  61  97 126 172 227 273 349 409
#     4  11  26  44  70 103 145 185 236 291 354 421
#
# _framework density 24.660885
#
# number of rings (size 3 to 8) (size 9 to 14) (size 15 to 20)
#    0.000    1.600    0.000    2.800   11.200    3.733 
#    0.000   12.667    0.000    0.000    0.000    0.000 
#    0.000    0.000    0.000    0.000    0.000    0.000 
#
# Total GULP energy -83662.324066 kJ/mol
# GULP energy per Si atom -5577.488271 kJ/mol
# Density = 2.460476 g / cm^3
# Si number density = 24.660885 Si / 1000 Ang^3
#
#
#
# Elastic Constant Matrix: (Units=GPa)
#
#
# Indices 1 2 3 4 5 6 
#
# 1 97.5642 36.3927 60.4798 -8.5460 7.6745 30.8825
# 2 36.3927 109.9156 36.8894 20.8808 1.9878 33.3137
# 3 60.4798 36.8894 113.4230 5.7881 -6.4740 11.0219
# 4 -8.5460 20.8808 5.7881 33.2553 3.4441 11.0035
# 5 7.6745 1.9878 -6.4740 3.4441 46.4003 9.0126
# 6 30.8825 33.3137 11.0219 11.0035 9.0126 45.4540
#
#
#
# Elastic Compliance Matrix: (Units=1/GPa)
#
#
# Indices 1 2 3 4 5 6 
#
# 1 0.025343 -0.002534 -0.012220 0.015745 -0.003961 -0.015424
# 2 -0.002534 0.013937 -0.002113 -0.007005 0.001319 -0.006546
# 3 -0.012220 -0.002113 0.015905 -0.007281 0.003499 0.007063
# 4 0.015745 -0.007005 -0.007281 0.044775 -0.003953 -0.013853
# 5 -0.003961 0.001319 0.003499 -0.003953 0.023480 -0.002823
# 6 -0.015424 -0.006546 0.007063 -0.013853 -0.002823 0.039478
#
#
# Mechanical properties :
#
#
# Convention : Reuss Voigt Hill
#
# Bulk Modulus (GPa) = 46.61828 65.38072 55.99950
# Shear Modulus (GPa) = 24.53359 37.49797 31.01578
#
# Velocity S-wave (km/s) = 3.15753 3.90365 3.55024
# Velocity P-wave (km/s) = 5.67786 6.84744 6.28989
#
# Compressibility (1/GPa) = 0.02145081
#
# Stress axis : x y z
#
# Youngs Moduli (GPa) = 39.45840 71.75177 62.87503
#
# Poissons Ratio (x) = 0.18185 0.76833
# Poissons Ratio (y) = 0.10000 0.13283
# Poissons Ratio (z) = 0.48218 0.15158
#
# Static dielectric constant tensor:
#      x y z
#    x 2.096260 -0.087070 0.033620 
#    y -0.087070 2.064980 -0.087090 
#    z 0.033620 -0.087090 1.998900 
# 
# From -- ./inp_files/550945.got.cif
#   From: 2010.05.17/outbox.cif.g08.bks.cpg/sg2_276_cif.got.tgz:550945.got - 2010.06.03 11:33:40.
