data_PCOD9026192
_publ_section_title
;
Structure prediction by ZEFSAII (Michael W. Deem and Ramdas Pophale) SiO2 
 PCOD9026192
Probable space group: P -1
;
_chemical_formula_sum "Si O2"
_cell_formula_units_Z 14
_cell_length_a 8.858756
_cell_length_b 11.037670
_cell_length_c 14.357533
_cell_angle_alpha 41.954503
_cell_angle_beta 53.830255
_cell_angle_gamma 40.313734
_cell_volume 606.348443
_symmetry_space_group_name_H-M "P -1"
_symmetry_group_IT_number 2
_symmetry_cell_setting 'triclinic'
loop_
_space_group_symop_operation_xyz
x,y,z
-x,-y,-z
loop_
_atom_site_type_symbol
_atom_site_label
_atom_site_fract_x
_atom_site_fract_y
_atom_site_fract_z
Si Si1 0.249329 0.073712 0.832186
Si Si2 0.976712 0.116426 0.087235
Si Si3 0.258847 0.391047 0.073234
Si Si4 0.303474 0.798332 0.302699
Si Si5 0.277699 0.824672 0.515955
Si Si6 0.242714 0.457997 0.821751
Si Si7 0.766814 0.592312 0.474702
O O1 0.201379 0.307087 0.687308
O O2 0.102652 0.029766 0.840694
O O3 0.513826 0.854482 0.844333
O O4 0.163777 0.078453 0.964751
O O5 0.768589 0.383979 0.013892
O O6 0.093108 0.026760 0.197763
O O7 0.020383 0.439238 0.169344
O O8 0.260071 0.393717 0.959278
O O9 0.344251 0.781667 0.406999
O O10 0.534910 0.743612 0.200691
O O11 0.253104 0.613537 0.409620
O O12 0.279141 0.648158 0.681446
O O13 0.504490 0.802609 0.486168
O O14 0.000000 0.000000 0.500000
O O15 0.000000 0.500000 0.500000
#
# Coordination Sequence:
#
# PCOD9026192 Si02
#       7
#     2   2   2   2   2   2   2
#     4  11  24  44  64  99 134 183 228 276 345 408
#     4  11  24  40  70  95 139 176 226 284 340 399
#     4  11  23  41  68  98 138 172 231 279 336 411
#     4  11  23  45  70 101 135 182 225 282 350 402
#     4  11  24  42  70 100 141 178 231 286 343 411
#     4  10  22  41  63 101 131 173 226 279 337 407
#     4  11  23  44  72  96 138 181 230 281 344 413
#
# _framework density 23.089034000000002
#
# number of rings (size 3 to 8) (size 9 to 14) (size 15 to 20)
#    0.000    1.143    2.857    3.857    4.000    1.714 
#    0.000    2.143    0.000    0.000    0.000    0.000 
#    0.000    0.000    0.000    0.000    0.000    0.000 
#
# Total GULP energy -78044.466348 kJ/mol
# GULP energy per Si atom -5574.604739 kJ/mol
# Density = 2.303648 g / cm^3
# Si number density = 23.089034 Si / 1000 Ang^3
#
#
#
# Elastic Constant Matrix: (Units=GPa)
#
#
# Indices 1 2 3 4 5 6 
#
# 1 107.1798 39.2675 44.6798 9.7585 -8.3338 -35.1982
# 2 39.2675 99.0891 29.4187 9.0739 5.9366 -24.3782
# 3 44.6798 29.4187 127.2003 2.2345 -0.5697 -14.8052
# 4 9.7585 9.0739 2.2345 37.4351 -10.0456 2.0955
# 5 -8.3338 5.9366 -0.5697 -10.0456 26.3311 -3.6739
# 6 -35.1982 -24.3782 -14.8052 2.0955 -3.6739 41.0722
#
#
#
# Elastic Compliance Matrix: (Units=1/GPa)
#
#
# Indices 1 2 3 4 5 6 
#
# 1 0.016490 -0.002677 -0.003717 -0.002348 0.006507 0.011904
# 2 -0.002677 0.013482 -0.001555 -0.004033 -0.004772 0.004926
# 3 -0.003717 -0.001555 0.009420 0.000703 -0.000464 -0.000790
# 4 -0.002348 -0.004033 0.000703 0.031636 0.011591 -0.004730
# 5 0.006507 -0.004772 -0.000464 0.011591 0.046381 0.006135
# 6 0.011904 0.004926 -0.000790 -0.004730 0.006135 0.037978
#
#
# Mechanical properties :
#
#
# Convention : Reuss Voigt Hill
#
# Bulk Modulus (GPa) = 42.56422 62.24458 52.40440
# Shear Modulus (GPa) = 27.91483 35.64124 31.77803
#
# Velocity S-wave (km/s) = 3.48085 3.93319 3.71391
# Velocity P-wave (km/s) = 5.88472 6.90244 6.41380
#
# Compressibility (1/GPa) = 0.02349391
#
# Stress axis : x y z
#
# Youngs Moduli (GPa) = 60.64430 74.17480 106.15214
#
# Poissons Ratio (x) = 0.19858 0.39456
# Poissons Ratio (y) = 0.16236 0.16504
# Poissons Ratio (z) = 0.22541 0.11533
#
# Static dielectric constant tensor:
#      x y z
#    x 2.009650 -0.098310 -0.030980 
#    y -0.098310 2.036590 -0.044690 
#    z -0.030980 -0.044690 1.816700 
# 
# From -- ./inp_files/284070.got.cif
#   From: 2010.05.17/outbox.cif.g08.bks.cpg/sg2_143_cif.got.tgz:284070.got - 2010.06.03 11:33:40.
