data_PCOD9026006
_publ_section_title
;
Structure prediction by ZEFSAII (Michael W. Deem and Ramdas Pophale) SiO2 
 PCOD9026006
Probable space group: P -1
;
_chemical_formula_sum "Si O2"
_cell_formula_units_Z 14
_cell_length_a 7.536758
_cell_length_b 9.010978
_cell_length_c 12.284145
_cell_angle_alpha 99.000067
_cell_angle_beta 64.024836
_cell_angle_gamma 134.247233
_cell_volume 522.630183
_symmetry_space_group_name_H-M "P -1"
_symmetry_group_IT_number 2
_symmetry_cell_setting 'triclinic'
loop_
_space_group_symop_operation_xyz
x,y,z
-x,-y,-z
loop_
_atom_site_type_symbol
_atom_site_label
_atom_site_fract_x
_atom_site_fract_y
_atom_site_fract_z
Si Si1 0.378547 0.898232 0.282656
Si Si2 0.901415 0.657733 0.129801
Si Si3 0.466425 0.809825 0.918847
Si Si4 0.631143 0.776963 0.085927
Si Si5 0.067500 0.417180 0.265707
Si Si6 0.630813 0.395630 0.379303
Si Si7 0.109579 0.289351 0.464756
O O1 0.643873 0.933395 0.180517
O O2 0.172784 0.639878 0.298027
O O3 0.209065 0.876746 0.427118
O O4 0.380928 0.020754 0.199570
O O5 0.708319 0.418125 0.112367
O O6 0.813660 0.752232 0.093242
O O7 0.794832 0.600605 0.277416
O O8 0.220642 0.776799 0.038100
O O9 0.666689 0.851610 0.962341
O O10 0.319597 0.528681 0.128510
O O11 0.094317 0.318270 0.345164
O O12 0.749949 0.290763 0.307721
O O13 0.304688 0.251285 0.430288
O O14 0.706285 0.483842 0.493149
#
# Coordination Sequence:
#
# PCOD9026006 Si02
#       7
#     2   2   2   2   2   2   2
#     4   9  19  34  57  82 110 137 176 229 269 305
#     4  11  22  36  56  80 106 152 180 212 272 326
#     4  11  22  38  53  79 116 140 180 224 265 321
#     4  10  20  36  57  80 105 143 184 219 266 315
#     4   9  18  32  57  80 104 136 179 221 262 308
#     4  10  17  31  55  82 103 135 182 220 257 320
#     4  10  18  33  58  83 106 137 180 223 268 313
#
# _framework density 26.787582
#
# number of rings (size 3 to 8) (size 9 to 14) (size 15 to 20)
#    0.857    1.143    2.857    2.571    0.000    0.571 
#    0.000    6.429    0.000    3.429    0.000    0.000 
#    0.000    0.000    0.000    0.000    0.000    0.000 
#
# Total GULP energy -77993.213982 kJ/mol
# GULP energy per Si atom -5570.943856 kJ/mol
# Density = 2.672661 g / cm^3
# Si number density = 26.787582 Si / 1000 Ang^3
#
#
#
# Elastic Constant Matrix: (Units=GPa)
#
#
# Indices 1 2 3 4 5 6 
#
# 1 101.1806 -4.1306 -18.7626 5.7925 -0.9674 -2.6149
# 2 -4.1306 29.6508 6.5044 -8.1237 -1.1131 -7.2842
# 3 -18.7626 6.5044 60.6290 -5.5724 -4.3760 6.9033
# 4 5.7925 -8.1237 -5.5724 35.8184 7.1746 -10.7501
# 5 -0.9674 -1.1131 -4.3760 7.1746 42.8364 -10.9931
# 6 -2.6149 -7.2842 6.9033 -10.7501 -10.9931 33.6143
#
#
#
# Elastic Compliance Matrix: (Units=1/GPa)
#
#
# Indices 1 2 3 4 5 6 
#
# 1 0.010569 0.000522 0.003143 -0.001215 0.000820 0.000170
# 2 0.000522 0.042094 -0.004719 0.012756 0.002330 0.014973
# 3 0.003143 -0.004719 0.018511 -0.000165 0.000740 -0.004390
# 4 -0.001215 0.012756 -0.000165 0.035422 -0.002232 0.013302
# 5 0.000820 0.002330 0.000740 -0.002232 0.025977 0.008198
# 6 0.000170 0.014973 -0.004390 0.013302 0.008198 0.040844
#
#
# Mechanical properties :
#
#
# Convention : Reuss Voigt Hill
#
# Bulk Modulus (GPa) = 14.47847 17.63141 16.05494
# Shear Modulus (GPa) = 25.18313 36.31043 30.74678
#
# Velocity S-wave (km/s) = 3.06944 3.68570 3.39159
# Velocity P-wave (km/s) = 4.24012 4.97079 4.61992
#
# Compressibility (1/GPa) = 0.06906809
#
# Stress axis : x y z
#
# Youngs Moduli (GPa) = 94.61387 23.75623 54.02256
#
# Poissons Ratio (x) = -0.01241 -0.16979
# Poissons Ratio (y) = -0.04943 0.25491
# Poissons Ratio (z) = -0.29737 0.11209
#
# Static dielectric constant tensor:
#      x y z
#    x 2.242390 0.054880 -0.225300 
#    y 0.054880 2.265880 0.057740 
#    z -0.225300 0.057740 2.252230 
# 
# From -- ./inp_files/482127.got.cif
#   From: 2010.05.17/outbox.cif.g08.bks.cpg/sg2_242_cif.got.tgz:482127.got - 2010.06.03 11:33:40.
