data_PCOD9026708
_publ_section_title
;
Structure prediction by ZEFSAII (Michael W. Deem and Ramdas Pophale) SiO2 
 PCOD9026708
Probable space group: P -1
;
_chemical_formula_sum "Si O2"
_cell_formula_units_Z 16
_cell_length_a 12.057152
_cell_length_b 7.993126
_cell_length_c 16.797886
_cell_angle_alpha 97.991495
_cell_angle_beta 142.525268
_cell_angle_gamma 62.636813
_cell_volume 794.743696
_symmetry_space_group_name_H-M "P -1"
_symmetry_group_IT_number 2
_symmetry_cell_setting 'triclinic'
loop_
_space_group_symop_operation_xyz
x,y,z
-x,-y,-z
loop_
_atom_site_type_symbol
_atom_site_label
_atom_site_fract_x
_atom_site_fract_y
_atom_site_fract_z
Si Si1 0.174589 0.439930 0.666931
Si Si2 0.309352 0.343228 0.091223
Si Si3 0.428041 0.859178 0.486619
Si Si4 0.815248 0.638240 0.795072
Si Si5 0.062060 0.097984 0.427057
Si Si6 0.776640 0.943114 0.299882
Si Si7 0.666606 0.270861 0.884060
Si Si8 0.858723 0.020561 0.814771
O O1 0.169167 0.277401 0.707528
O O2 0.426521 0.321328 0.769763
O O3 0.000000 0.500000 0.500000
O O4 0.091737 0.660972 0.669522
O O5 0.284811 0.337464 0.172379
O O6 0.356397 0.514661 0.110730
O O7 0.514342 0.124461 0.161470
O O8 0.065427 0.431845 0.923516
O O9 0.652056 0.655491 0.635319
O O10 0.500000 0.000000 0.500000
O O11 0.271705 0.975591 0.480874
O O12 0.279019 0.855501 0.333356
O O13 0.832534 0.832876 0.805367
O O14 0.147184 0.076811 0.565065
O O15 0.916880 0.006371 0.336806
O O16 0.752111 0.175554 0.838613
O O17 0.873919 0.097089 0.045059
#
# Coordination Sequence:
#
# PCOD9026708 Si02
#       8
#     2   2   2   2   2   2   2   2
#     4  10  21  32  58  86 113 146 192 249 282 338
#     4  10  17  31  56  84 116 148 189 246 287 330
#     4  10  20  36  60  81 119 153 192 234 298 354
#     4   9  18  31  54  83 111 148 194 231 288 350
#     4  10  20  36  56  88 113 153 196 237 291 346
#     4  10  19  34  59  84 116 149 193 250 280 335
#     4  10  19  35  55  86 114 143 208 236 289 340
#     4   9  20  35  57  79 113 159 185 247 286 345
#
# _framework density 20.132276000000001
#
# number of rings (size 3 to 8) (size 9 to 14) (size 15 to 20)
#    0.000    2.250    2.500    0.750    5.250    1.000 
#    0.000    1.250    5.500    0.750    0.000    0.000 
#    0.000    0.000    0.000    0.000    0.000    0.000 
#
# Total GULP energy -89272.596545 kJ/mol
# GULP energy per Si atom -5579.537284 kJ/mol
# Density = 2.008645 g / cm^3
# Si number density = 20.132276 Si / 1000 Ang^3
#
#
#
# Elastic Constant Matrix: (Units=GPa)
#
#
# Indices 1 2 3 4 5 6 
#
# 1 76.5571 20.8477 29.1712 -8.5370 21.9991 11.8824
# 2 20.8477 70.2582 23.1600 -23.0754 7.6033 20.8633
# 3 29.1712 23.1600 148.2653 -25.4989 8.4087 1.4750
# 4 -8.5370 -23.0754 -25.4989 22.5539 -5.3614 -1.9305
# 5 21.9991 7.6033 8.4087 -5.3614 29.8618 -3.3001
# 6 11.8824 20.8633 1.4750 -1.9305 -3.3001 16.9935
#
#
#
# Elastic Compliance Matrix: (Units=1/GPa)
#
#
# Indices 1 2 3 4 5 6 
#
# 1 0.022793 0.004884 -0.003374 0.003079 -0.019300 -0.025040
# 2 0.004884 0.042812 0.000200 0.037956 -0.013747 -0.054351
# 3 -0.003374 0.000200 0.008907 0.009710 0.001983 0.002830
# 4 0.003079 0.037956 0.009710 0.091279 -0.002671 -0.039744
# 5 -0.019300 -0.013747 0.001983 -0.002671 0.054645 0.040509
# 6 -0.025040 -0.054351 0.002830 -0.039744 0.040509 0.146189
#
#
# Mechanical properties :
#
#
# Convention : Reuss Voigt Hill
#
# Bulk Modulus (GPa) = 12.83186 49.04870 30.94028
# Shear Modulus (GPa) = 12.84743 28.67530 20.76136
#
# Velocity S-wave (km/s) = 2.52891 3.77814 3.21479
# Velocity P-wave (km/s) = 3.86196 6.59155 5.40201
#
# Compressibility (1/GPa) = 0.07793100
#
# Stress axis : x y z
#
# Youngs Moduli (GPa) = 43.87216 23.35807 112.27402
#
# Poissons Ratio (x) = -0.11409 0.37886
# Poissons Ratio (y) = -0.21428 -0.02241
# Poissons Ratio (z) = 0.14804 -0.00466
#
# Static dielectric constant tensor:
#      x y z
#    x 1.688920 0.039180 0.013780 
#    y 0.039180 1.730510 0.012220 
#    z 0.013780 0.012220 1.761510 
# 
# From -- ./inp_files/266836.got.cif
#   From: 2010.05.17/outbox.cif.g08.bks.cpg/sg2_134_cif.got.tgz:266836.got - 2010.06.03 11:33:40.
