data_PCOD9026598
_publ_section_title
;
Structure prediction by ZEFSAII (Michael W. Deem and Ramdas Pophale) SiO2 
 PCOD9026598
Probable space group: P -1
;
_chemical_formula_sum "Si O2"
_cell_formula_units_Z 16
_cell_length_a 19.214609
_cell_length_b 10.749520
_cell_length_c 9.289903
_cell_angle_alpha 78.312893
_cell_angle_beta 134.570404
_cell_angle_gamma 137.780004
_cell_volume 688.038943
_symmetry_space_group_name_H-M "P -1"
_symmetry_group_IT_number 2
_symmetry_cell_setting 'triclinic'
loop_
_space_group_symop_operation_xyz
x,y,z
-x,-y,-z
loop_
_atom_site_type_symbol
_atom_site_label
_atom_site_fract_x
_atom_site_fract_y
_atom_site_fract_z
Si Si1 0.217825 0.876783 0.096925
Si Si2 0.012005 0.557811 0.339551
Si Si3 0.837374 0.603180 0.680372
Si Si4 0.800279 0.707733 0.310477
Si Si5 0.362508 0.875959 0.573249
Si Si6 0.725444 0.427419 0.021768
Si Si7 0.626065 0.689804 0.851710
Si Si8 0.721659 0.639462 0.757841
O O1 0.139552 0.689915 0.913940
O O2 0.029841 0.736992 0.916526
O O3 0.319708 0.914948 0.362539
O O4 0.336268 0.119046 0.134213
O O5 0.211196 0.750588 0.505941
O O6 0.000000 0.500000 0.500000
O O7 0.926515 0.603959 0.209039
O O8 0.798998 0.658329 0.482081
O O9 0.679069 0.314332 0.496073
O O10 0.845917 0.696892 0.814818
O O11 0.769676 0.547333 0.206909
O O12 0.649902 0.641457 0.045040
O O13 0.000000 0.000000 0.500000
O O14 0.571838 0.143644 0.872189
O O15 0.637339 0.434367 0.785596
O O16 0.775535 0.797218 0.925927
O O17 0.424125 0.450907 0.537163
#
# Coordination Sequence:
#
# PCOD9026598 Si02
#       8
#     2   2   2   2   2   2   2   2
#     4  11  21  42  66  95 131 167 217 272 326 382
#     4  11  25  41  64 101 136 174 216 265 332 397
#     4  11  23  40  67  96 129 171 222 264 334 394
#     4  11  24  45  64  91 134 180 213 270 327 398
#     4  11  24  43  69 101 135 168 218 283 324 390
#     4  11  23  44  70  97 132 175 220 268 338 388
#     4  10  22  41  65  87 131 170 212 273 322 381
#     4  10  22  41  64  99 122 169 228 269 322 389
#
# _framework density 23.254497000000001
#
# number of rings (size 3 to 8) (size 9 to 14) (size 15 to 20)
#    0.000    1.250    2.500    4.500    1.750    4.000 
#    2.250    0.000    0.000    0.000    0.000    0.000 
#    0.000    0.000    0.000    0.000    0.000    0.000 
#
# Total GULP energy -89346.582303 kJ/mol
# GULP energy per Si atom -5584.161394 kJ/mol
# Density = 2.320157 g / cm^3
# Si number density = 23.254497 Si / 1000 Ang^3
#
#
#
# Elastic Constant Matrix: (Units=GPa)
#
#
# Indices 1 2 3 4 5 6 
#
# 1 99.3370 10.4017 10.5794 -2.0301 0.0841 12.1870
# 2 10.4017 67.7423 10.9264 -9.1891 0.2676 -8.0570
# 3 10.5794 10.9264 77.8011 -15.3194 -4.4262 8.7179
# 4 -2.0301 -9.1891 -15.3194 39.3129 -1.0321 -2.8092
# 5 0.0841 0.2676 -4.4262 -1.0321 29.5476 -9.8848
# 6 12.1870 -8.0570 8.7179 -2.8092 -9.8848 17.0440
#
#
#
# Elastic Compliance Matrix: (Units=1/GPa)
#
#
# Indices 1 2 3 4 5 6 
#
# 1 0.012017 -0.003510 -0.000204 -0.001318 -0.004400 -0.012917
# 2 -0.003510 0.018227 -0.002763 0.004286 0.004978 0.016133
# 3 -0.000204 -0.002763 0.015091 0.004622 -0.000333 -0.008311
# 4 -0.001318 0.004286 0.004622 0.028845 0.004290 0.007846
# 5 -0.004400 0.004978 -0.000333 0.004290 0.044721 0.032313
# 6 -0.012917 0.016133 -0.008311 0.007846 0.032313 0.099818
#
#
# Mechanical properties :
#
#
# Convention : Reuss Voigt Hill
#
# Bulk Modulus (GPa) = 30.88113 34.29951 32.59032
# Shear Modulus (GPa) = 20.62135 31.37912 26.00024
#
# Velocity S-wave (km/s) = 2.98110 3.67737 3.34739
# Velocity P-wave (km/s) = 5.01575 5.72821 5.38378
#
# Compressibility (1/GPa) = 0.03238224
#
# Stress axis : x y z
#
# Youngs Moduli (GPa) = 83.21210 54.86390 66.26286
#
# Poissons Ratio (x) = 0.19258 0.01349
# Poissons Ratio (y) = 0.29208 0.18309
# Poissons Ratio (z) = 0.01694 0.15159
#
# Static dielectric constant tensor:
#      x y z
#    x 1.939590 0.019280 0.037160 
#    y 0.019280 1.913050 0.027060 
#    z 0.037160 0.027060 1.888770 
# 
# From -- ./inp_files/346147.got.cif
#   From: 2010.05.17/outbox.cif.g08.bks.cpg/sg2_174_cif.got.tgz:346147.got - 2010.06.03 11:33:40.
