data_PCOD9026313
_publ_section_title
;
Structure prediction by ZEFSAII (Michael W. Deem and Ramdas Pophale) SiO2 
 PCOD9026313
Probable space group: P -1
;
_chemical_formula_sum "Si O2"
_cell_formula_units_Z 14
_cell_length_a 11.536915
_cell_length_b 12.524286
_cell_length_c 11.688095
_cell_angle_alpha 40.184626
_cell_angle_beta 144.047036
_cell_angle_gamma 139.640003
_cell_volume 592.083908
_symmetry_space_group_name_H-M "P -1"
_symmetry_group_IT_number 2
_symmetry_cell_setting 'triclinic'
loop_
_space_group_symop_operation_xyz
x,y,z
-x,-y,-z
loop_
_atom_site_type_symbol
_atom_site_label
_atom_site_fract_x
_atom_site_fract_y
_atom_site_fract_z
Si Si1 0.961681 0.448138 0.644248
Si Si2 0.638970 0.788732 0.964025
Si Si3 0.640875 0.707308 0.424781
Si Si4 0.343986 0.856906 0.202322
Si Si5 0.917852 0.802583 0.363553
Si Si6 0.920489 0.817914 0.751238
Si Si7 0.359555 0.380041 0.116283
O O1 0.748329 0.290596 0.648775
O O2 0.977726 0.632449 0.564013
O O3 0.000000 0.500000 0.500000
O O4 0.152580 0.393891 0.880573
O O5 0.597578 0.761741 0.817060
O O6 0.577649 0.946310 0.839170
O O7 0.874521 0.838640 0.166924
O O8 0.529771 0.580999 0.086566
O O9 0.500000 0.500000 0.500000
O O10 0.516647 0.818079 0.294916
O O11 0.700526 0.759247 0.298785
O O12 0.868996 0.756388 0.630864
O O13 0.138605 0.825523 0.979413
O O14 0.078418 0.985583 0.391996
O O15 0.717245 0.687363 0.764876
#
# Coordination Sequence:
#
# PCOD9026313 Si02
#       7
#     2   2   2   2   2   2   2
#     4  11  22  39  65  96 127 166 210 263 322 376
#     4  10  22  41  64  94 129 168 211 259 321 377
#     4  12  24  45  66  91 134 166 217 265 309 381
#     4  10  25  43  65  98 124 174 212 258 324 373
#     4  11  23  42  64  94 128 169 211 262 317 376
#     4  10  25  42  65  96 126 170 213 261 321 374
#     4  10  22  41  63  95 132 164 209 266 317 379
#
# _framework density 23.645299000000001
#
# number of rings (size 3 to 8) (size 9 to 14) (size 15 to 20)
#    0.000    1.429    2.857    1.286    4.000    4.571 
#    2.571    1.429    0.000    0.000    0.000    0.000 
#    0.000    0.000    0.000    0.000    0.000    0.000 
#
# Total GULP energy -78187.971995 kJ/mol
# GULP energy per Si atom -5584.855142 kJ/mol
# Density = 2.359148 g / cm^3
# Si number density = 23.645299 Si / 1000 Ang^3
#
#
#
# Elastic Constant Matrix: (Units=GPa)
#
#
# Indices 1 2 3 4 5 6 
#
# 1 78.0089 3.0884 23.3361 -0.9964 1.8652 -18.0087
# 2 3.0884 78.2584 13.1511 -1.9372 2.8167 -20.3331
# 3 23.3361 13.1511 51.8310 -0.4381 -3.5152 -12.2713
# 4 -0.9964 -1.9372 -0.4381 43.7063 -6.7935 -0.3451
# 5 1.8652 2.8167 -3.5152 -6.7935 40.7658 -5.7997
# 6 -18.0087 -20.3331 -12.2713 -0.3451 -5.7997 39.0181
#
#
#
# Elastic Compliance Matrix: (Units=1/GPa)
#
#
# Indices 1 2 3 4 5 6 
#
# 1 0.016138 0.002140 -0.006291 0.000383 -0.000437 0.006524
# 2 0.002140 0.015296 -0.002951 0.000738 -0.000146 0.008016
# 3 -0.006291 -0.002951 0.023934 0.000482 0.003142 0.003558
# 4 0.000383 0.000738 0.000482 0.023579 0.004121 0.001534
# 5 -0.000437 -0.000146 0.003142 0.004121 0.026178 0.004638
# 6 0.006524 0.008016 0.003558 0.001534 0.004638 0.034639
#
#
# Mechanical properties :
#
#
# Convention : Reuss Voigt Hill
#
# Bulk Modulus (GPa) = 24.29215 31.91661 28.10438
# Shear Modulus (GPa) = 29.81757 35.93288 32.87523
#
# Velocity S-wave (km/s) = 3.55496 3.90251 3.73278
# Velocity P-wave (km/s) = 5.21020 5.81666 5.52176
#
# Compressibility (1/GPa) = 0.04116556
#
# Stress axis : x y z
#
# Youngs Moduli (GPa) = 61.96743 65.37778 41.78184
#
# Poissons Ratio (x) = -0.13994 0.26283
# Poissons Ratio (y) = -0.13264 0.12328
# Poissons Ratio (z) = 0.38981 0.19290
#
# Static dielectric constant tensor:
#      x y z
#    x 1.926180 0.005270 -0.001290 
#    y 0.005270 1.915690 0.021330 
#    z -0.001290 0.021330 1.914540 
# 
# From -- ./inp_files/170832.got.cif
#   From: 2010.05.17/outbox.cif.g08.bks.cpg/sg2_86_cif.got.tgz:170832.got - 2010.06.03 11:33:40.
