data_PCOD9026327
_publ_section_title
;
Structure prediction by ZEFSAII (Michael W. Deem and Ramdas Pophale) SiO2 
 PCOD9026327
Probable space group: P -1
;
_chemical_formula_sum "Si O2"
_cell_formula_units_Z 16
_cell_length_a 10.901541
_cell_length_b 19.421456
_cell_length_c 6.263995
_cell_angle_alpha 86.017177
_cell_angle_beta 113.809949
_cell_angle_gamma 138.417810
_cell_volume 743.918895
_symmetry_space_group_name_H-M "P -1"
_symmetry_group_IT_number 2
_symmetry_cell_setting 'triclinic'
loop_
_space_group_symop_operation_xyz
x,y,z
-x,-y,-z
loop_
_atom_site_type_symbol
_atom_site_label
_atom_site_fract_x
_atom_site_fract_y
_atom_site_fract_z
Si Si1 0.422216 0.287909 0.111424
Si Si2 0.163195 0.586266 0.406859
Si Si3 0.772501 0.182004 0.113631
Si Si4 0.176020 0.261804 0.320316
Si Si5 0.526502 0.453228 0.849883
Si Si6 0.361091 0.974903 0.600232
Si Si7 0.035805 0.090242 0.596630
Si Si8 0.045830 0.407787 0.086454
O O1 0.598481 0.312240 0.346549
O O2 0.316134 0.295180 0.210843
O O3 0.535469 0.383059 0.993699
O O4 0.230343 0.169324 0.886682
O O5 0.152076 0.516591 0.253819
O O6 0.000000 0.500000 0.500000
O O7 0.086497 0.619919 0.207306
O O8 0.749802 0.135644 0.335170
O O9 0.950951 0.207266 0.111114
O O10 0.881481 0.301097 0.150514
O O11 0.538217 0.081602 0.860333
O O12 0.323559 0.366883 0.563759
O O13 0.109428 0.168196 0.433702
O O14 0.750553 0.554162 0.859120
O O15 0.500000 0.500000 0.000000
O O16 0.173476 0.955743 0.437310
O O17 0.500000 0.000000 0.500000
O O18 0.000000 0.000000 0.500000
#
# Coordination Sequence:
#
# PCOD9026327 Si02
#       8
#     2   2   2   2   2   2   2   2
#     4  11  22  41  66  91 132 180 215 277 333 395
#     4  11  24  41  62  90 136 178 220 268 330 396
#     4  10  23  40  67  93 128 172 217 276 334 386
#     4  10  22  41  63  96 133 172 220 281 327 400
#     4  11  23  37  63  97 133 170 220 267 328 403
#     4  10  22  45  68  96 131 169 223 286 338 399
#     4  10  24  43  68  98 132 170 229 284 342 403
#     4  11  24  41  62  95 132 173 222 271 323 407
#
# _framework density 21.507722000000001
#
# number of rings (size 3 to 8) (size 9 to 14) (size 15 to 20)
#    0.000    1.500    2.500    1.500    1.750    6.500 
#    0.000    2.500    0.000    0.000    0.000    0.000 
#    0.000    0.000    0.000    0.000    0.000    0.000 
#
# Total GULP energy -89463.290262 kJ/mol
# GULP energy per Si atom -5591.455641 kJ/mol
# Density = 2.145877 g / cm^3
# Si number density = 21.507722 Si / 1000 Ang^3
#
#
#
# Elastic Constant Matrix: (Units=GPa)
#
#
# Indices 1 2 3 4 5 6 
#
# 1 79.3316 38.7941 35.5250 4.5210 5.7666 10.3303
# 2 38.7941 104.5400 31.1080 9.0698 6.3982 4.4388
# 3 35.5250 31.1080 101.2233 23.5485 20.5524 -7.0786
# 4 4.5210 9.0698 23.5485 31.7693 7.6687 -7.9325
# 5 5.7666 6.3982 20.5524 7.6687 44.2564 0.2257
# 6 10.3303 4.4388 -7.0786 -7.9325 0.2257 34.2683
#
#
#
# Elastic Compliance Matrix: (Units=1/GPa)
#
#
# Indices 1 2 3 4 5 6 
#
# 1 0.018226 -0.004982 -0.005773 0.001492 0.000797 -0.005701
# 2 -0.004982 0.012080 -0.001606 -0.001737 -0.000046 -0.000796
# 3 -0.005773 -0.001606 0.015524 -0.008247 -0.004812 0.003278
# 4 0.001492 -0.001737 -0.008247 0.040503 -0.003170 0.007468
# 5 0.000797 -0.000046 -0.004812 -0.003170 0.025294 -0.002129
# 6 -0.005701 -0.000796 0.003278 0.007468 -0.002129 0.033423
#
#
# Mechanical properties :
#
#
# Convention : Reuss Voigt Hill
#
# Bulk Modulus (GPa) = 47.37705 55.10545 51.24125
# Shear Modulus (GPa) = 28.27929 34.03662 31.15796
#
# Velocity S-wave (km/s) = 3.63001 3.98242 3.81029
# Velocity P-wave (km/s) = 6.29643 6.84274 6.57526
#
# Compressibility (1/GPa) = 0.02110727
#
# Stress axis : x y z
#
# Youngs Moduli (GPa) = 54.86597 82.78330 64.41759
#
# Poissons Ratio (x) = 0.41241 0.37189
# Poissons Ratio (y) = 0.27333 0.10347
# Poissons Ratio (z) = 0.31675 0.13297
#
# Static dielectric constant tensor:
#      x y z
#    x 1.778180 -0.021000 0.023280 
#    y -0.021000 1.806260 -0.026170 
#    z 0.023280 -0.026170 1.779770 
# 
# From -- ./inp_files/82700.got.cif
#   From: 2010.05.17/outbox.cif.g08.bks.cpg/sg2_42_cif.got.tgz:82700.got - 2010.06.03 11:33:40.
