data_PCOD9026996
_publ_section_title
;
Structure prediction by ZEFSAII (Michael W. Deem and Ramdas Pophale) SiO2 
 PCOD9026996
Probable space group: P -1
;
_chemical_formula_sum "Si O2"
_cell_formula_units_Z 14
_cell_length_a 22.880080
_cell_length_b 6.814979
_cell_length_c 8.643058
_cell_angle_alpha 76.712254
_cell_angle_beta 36.047952
_cell_angle_gamma 58.372211
_cell_volume 622.519916
_symmetry_space_group_name_H-M "P -1"
_symmetry_group_IT_number 2
_symmetry_cell_setting 'triclinic'
loop_
_space_group_symop_operation_xyz
x,y,z
-x,-y,-z
loop_
_atom_site_type_symbol
_atom_site_label
_atom_site_fract_x
_atom_site_fract_y
_atom_site_fract_z
Si Si1 0.078762 0.395815 0.004285
Si Si2 0.715508 0.173067 0.324380
Si Si3 0.449233 0.444505 0.769593
Si Si4 0.625961 0.837420 0.865158
Si Si5 0.237803 0.947951 0.305027
Si Si6 0.207091 0.623783 0.638164
Si Si7 0.908747 0.918780 0.706536
O O1 0.111663 0.587728 0.928753
O O2 0.197246 0.116011 0.760807
O O3 0.033107 0.325165 0.263716
O O4 0.000000 0.500000 0.000000
O O5 0.578238 0.263871 0.613189
O O6 0.717247 0.370558 0.386219
O O7 0.781004 0.140603 0.025982
O O8 0.500000 0.500000 0.500000
O O9 0.397934 0.278798 0.912257
O O10 0.353027 0.694947 0.024014
O O11 0.718077 0.601861 0.600725
O O12 0.500000 0.000000 0.000000
O O13 0.696453 0.948859 0.762062
O O14 0.170286 0.866900 0.576720
O O15 0.139680 0.105607 0.349402
O O16 0.000000 0.000000 0.500000
#
# Coordination Sequence:
#
# PCOD9026996 Si02
#       7
#     2   2   2   2   2   2   2
#     4  10  22  41  66  94 125 173 229 274 332 401
#     4  10  23  41  69  93 134 172 227 278 334 404
#     4  11  21  40  64  99 135 173 216 271 340 401
#     4  11  24  39  65 101 140 176 222 271 331 410
#     4  11  23  41  68 101 141 175 219 280 332 402
#     4  11  22  41  65  94 130 175 222 270 334 394
#     4  10  23  46  67  97 134 174 227 283 338 391
#
# _framework density 22.489239999999999
#
# number of rings (size 3 to 8) (size 9 to 14) (size 15 to 20)
#    0.857    0.571    1.429    4.286    0.000    4.571 
#    2.571    0.714    0.000    0.000    0.000    0.000 
#    0.000    0.000    0.000    0.000    0.000    0.000 
#
# Total GULP energy -77950.905144 kJ/mol
# GULP energy per Si atom -5567.921796 kJ/mol
# Density = 2.243805 g / cm^3
# Si number density = 22.489240 Si / 1000 Ang^3
#
#
#
# Elastic Constant Matrix: (Units=GPa)
#
#
# Indices 1 2 3 4 5 6 
#
# 1 122.2336 71.1494 26.6357 -23.1339 -6.5129 4.1682
# 2 71.1494 135.8036 61.3299 -41.3301 -3.6996 12.3751
# 3 26.6357 61.3299 91.3011 -32.6484 3.1132 1.7574
# 4 -23.1339 -41.3301 -32.6484 60.5642 -6.7419 -5.1162
# 5 -6.5129 -3.6996 3.1132 -6.7419 33.5679 -3.2147
# 6 4.1682 12.3751 1.7574 -5.1162 -3.2147 30.5778
#
#
#
# Elastic Compliance Matrix: (Units=1/GPa)
#
#
# Indices 1 2 3 4 5 6 
#
# 1 0.012002 -0.006584 0.001213 0.001061 0.001831 0.001329
# 2 -0.006584 0.015730 -0.007115 0.004203 0.001559 -0.004192
# 3 0.001213 -0.007115 0.017132 0.004950 -0.000908 0.002462
# 4 0.001061 0.004203 0.004950 0.023214 0.005092 0.002289
# 5 0.001831 0.001559 -0.000908 0.005092 0.031746 0.003361
# 6 0.001329 -0.004192 0.002462 0.002289 0.003361 0.034814
#
#
# Mechanical properties :
#
#
# Convention : Reuss Voigt Hill
#
# Bulk Modulus (GPa) = 50.27185 74.17425 62.22305
# Shear Modulus (GPa) = 30.07675 37.62354 33.85014
#
# Velocity S-wave (km/s) = 3.66099 4.09462 3.88386
# Velocity P-wave (km/s) = 6.34608 7.44367 6.91668
#
# Compressibility (1/GPa) = 0.01989185
#
# Stress axis : x y z
#
# Youngs Moduli (GPa) = 83.31693 63.57291 58.37034
#
# Poissons Ratio (x) = 0.41857 -0.07079
# Poissons Ratio (y) = 0.54857 0.41530
# Poissons Ratio (z) = -0.10104 0.45231
#
# Static dielectric constant tensor:
#      x y z
#    x 1.971700 -0.043280 -0.064280 
#    y -0.043280 1.888440 -0.111210 
#    z -0.064280 -0.111210 2.057390 
# 
# From -- ./inp_files/339768.got.cif
#   From: 2010.05.17/outbox.cif.g08.bks.cpg/sg2_170_cif.got.tgz:339768.got - 2010.06.03 11:33:40.
