data_PCOD9026036
_publ_section_title
;
Structure prediction by ZEFSAII (Michael W. Deem and Ramdas Pophale) SiO2 
 PCOD9026036
Probable space group: P -1
;
_chemical_formula_sum "Si O2"
_cell_formula_units_Z 12
_cell_length_a 7.327171
_cell_length_b 9.453944
_cell_length_c 9.466443
_cell_angle_alpha 100.902333
_cell_angle_beta 120.340650
_cell_angle_gamma 106.446967
_cell_volume 497.158150
_symmetry_space_group_name_H-M "P -1"
_symmetry_group_IT_number 2
_symmetry_cell_setting 'triclinic'
loop_
_space_group_symop_operation_xyz
x,y,z
-x,-y,-z
loop_
_atom_site_type_symbol
_atom_site_label
_atom_site_fract_x
_atom_site_fract_y
_atom_site_fract_z
Si Si1 0.479270 0.500238 0.299048
Si Si2 0.264944 0.694002 0.135509
Si Si3 0.117997 0.176501 0.010628
Si Si4 0.661990 0.948812 0.155438
Si Si5 0.187816 0.501836 0.786092
Si Si6 0.007261 0.703012 0.568628
O O1 0.341047 0.608097 0.271889
O O2 0.575181 0.504956 0.176072
O O3 0.734492 0.593016 0.489981
O O4 0.305056 0.312738 0.212550
O O5 0.075262 0.762146 0.091809
O O6 0.500243 0.843699 0.198600
O O7 0.177551 0.561431 0.949088
O O8 0.249276 0.158097 0.920941
O O9 0.000000 0.000000 0.000000
O O10 0.884768 0.109799 0.323626
O O11 0.500000 0.000000 0.000000
O O12 0.994120 0.338052 0.606259
O O13 0.163901 0.636918 0.703313
#
# Coordination Sequence:
#
# PCOD9026036 Si02
#       6
#     2   2   2   2   2   2
#     4  10  22  41  61  93 127 155 211 252 305 358
#     4  12  23  39  66  93 122 165 201 257 305 359
#     4  12  24  38  65  93 121 166 209 245 303 375
#     4  12  21  41  65  88 126 160 209 250 303 371
#     4   9  18  37  64  86 119 163 204 237 306 362
#     4   9  19  36  65  91 118 166 203 250 300 366
#
# _framework density 24.137188999999999
#
# number of rings (size 3 to 8) (size 9 to 14) (size 15 to 20)
#    1.000    0.333    5.000    1.000    0.000    0.667 
#    0.000    5.833    0.000    0.000    0.000    0.000 
#    0.000    0.000    0.000    0.000    0.000    0.000 
#
# Total GULP energy -67026.117288 kJ/mol
# GULP energy per Si atom -5585.509774 kJ/mol
# Density = 2.408225 g / cm^3
# Si number density = 24.137189 Si / 1000 Ang^3
#
#
#
# Elastic Constant Matrix: (Units=GPa)
#
#
# Indices 1 2 3 4 5 6 
#
# 1 93.7810 36.7990 37.3421 -0.1253 11.7872 -39.9522
# 2 36.7990 131.2356 61.6521 26.9553 19.2841 -14.8349
# 3 37.3421 61.6521 111.8049 34.6979 11.7397 -9.6561
# 4 -0.1253 26.9553 34.6979 51.7580 0.3939 11.9365
# 5 11.7872 19.2841 11.7397 0.3939 48.0556 1.1016
# 6 -39.9522 -14.8349 -9.6561 11.9365 1.1016 50.6213
#
#
#
# Elastic Compliance Matrix: (Units=1/GPa)
#
#
# Indices 1 2 3 4 5 6 
#
# 1 0.019292 -0.001427 -0.004217 0.000419 -0.003453 0.013980
# 2 -0.001427 0.011488 -0.004149 -0.003734 -0.003271 0.002401
# 3 -0.004217 -0.004149 0.015311 -0.008182 -0.000982 0.000327
# 4 0.000419 -0.003734 -0.008182 0.028847 0.003369 -0.009200
# 5 -0.003453 -0.003271 -0.000982 0.003369 0.023300 -0.005173
# 6 0.013980 0.002401 0.000327 -0.009200 -0.005173 0.033836
#
#
# Mechanical properties :
#
#
# Convention : Reuss Voigt Hill
#
# Bulk Modulus (GPa) = 37.72662 67.60089 52.66375
# Shear Modulus (GPa) = 31.15389 43.48887 37.32138
#
# Velocity S-wave (km/s) = 3.59653 4.24929 3.93647
# Velocity P-wave (km/s) = 5.73679 7.22101 6.52126
#
# Compressibility (1/GPa) = 0.02650648
#
# Stress axis : x y z
#
# Youngs Moduli (GPa) = 51.83376 87.04838 65.31434
#
# Poissons Ratio (x) = 0.12422 0.27541
# Poissons Ratio (y) = 0.07397 0.27096
# Poissons Ratio (z) = 0.21856 0.36112
#
# Static dielectric constant tensor:
#      x y z
#    x 2.033060 0.065690 -0.007570 
#    y 0.065690 1.901320 -0.005950 
#    z -0.007570 -0.005950 1.947820 
# 
# From -- ./inp_files/489848.got.cif
#   From: 2010.05.17/outbox.cif.g08.bks.cpg/sg2_245_cif.got.tgz:489848.got - 2010.06.03 11:33:40.
