data_PCOD9026014
_publ_section_title
;
Structure prediction by ZEFSAII (Michael W. Deem and Ramdas Pophale) SiO2 
 PCOD9026014
Probable space group: P -1
;
_chemical_formula_sum "Si O2"
_cell_formula_units_Z 16
_cell_length_a 19.686600
_cell_length_b 27.970715
_cell_length_c 9.396869
_cell_angle_alpha 26.629839
_cell_angle_beta 37.000159
_cell_angle_gamma 20.246568
_cell_volume 775.392070
_symmetry_space_group_name_H-M "P -1"
_symmetry_group_IT_number 2
_symmetry_cell_setting 'triclinic'
loop_
_space_group_symop_operation_xyz
x,y,z
-x,-y,-z
loop_
_atom_site_type_symbol
_atom_site_label
_atom_site_fract_x
_atom_site_fract_y
_atom_site_fract_z
Si Si1 0.331905 0.905644 0.514489
Si Si2 0.808737 0.766726 0.246140
Si Si3 0.436889 0.775844 0.178875
Si Si4 0.191222 0.157046 0.658205
Si Si5 0.897838 0.985190 0.123639
Si Si6 0.842374 0.035354 0.625321
Si Si7 0.216223 0.448132 0.249286
Si Si8 0.872079 0.394877 0.332647
O O1 0.561774 0.684014 0.730501
O O2 0.229378 0.984089 0.630849
O O3 0.196137 0.942988 0.534482
O O4 0.321053 0.032068 0.129331
O O5 0.777756 0.785508 0.418132
O O6 0.755403 0.699867 0.434089
O O7 0.043799 0.602205 0.245726
O O8 0.658037 0.580730 0.271557
O O9 0.375863 0.777626 0.429983
O O10 0.386264 0.942831 0.834970
O O11 0.268523 0.858347 0.134417
O O12 0.047559 0.307087 0.372135
O O13 0.092517 0.131444 0.974961
O O14 0.066649 0.777216 0.324835
O O15 0.000000 0.000000 0.000000
O O16 0.000000 0.000000 0.500000
O O17 0.140393 0.552892 0.946205
#
# Coordination Sequence:
#
# PCOD9026014 Si02
#       8
#     2   2   2   2   2   2   2   2
#     4  11  21  39  62  87 121 157 196 247 296 351
#     4  10  22  41  61  89 119 156 199 249 303 346
#     4   9  20  38  56  83 117 153 195 238 290 348
#     4   8  21  37  60  80 119 156 190 247 289 348
#     4  11  22  38  60  84 122 159 195 241 299 352
#     4   9  19  38  60  82 116 157 195 239 290 351
#     4  11  23  38  63  91 117 155 202 248 300 357
#     4  11  21  39  59  85 120 152 197 247 288 355
#
# _framework density 20.634722
#
# number of rings (size 3 to 8) (size 9 to 14) (size 15 to 20)
#    0.750    1.250    2.500    1.125    1.750    1.000 
#    0.000    1.250    0.000    0.000    0.000    0.000 
#    0.000    0.000    0.000    0.000    0.000    0.000 
#
# Total GULP energy -89208.055673 kJ/mol
# GULP energy per Si atom -5575.503480 kJ/mol
# Density = 2.058776 g / cm^3
# Si number density = 20.634722 Si / 1000 Ang^3
#
#
#
# Elastic Constant Matrix: (Units=GPa)
#
#
# Indices 1 2 3 4 5 6 
#
# 1 63.3380 20.5353 8.4821 -12.8301 12.6924 17.0224
# 2 20.5353 95.4182 4.0476 -30.1640 2.5364 8.2487
# 3 8.4821 4.0476 29.1437 -6.5067 15.1929 -3.8380
# 4 -12.8301 -30.1640 -6.5067 25.4124 -1.6033 2.5759
# 5 12.6924 2.5364 15.1929 -1.6033 22.2655 -0.1533
# 6 17.0224 8.2487 -3.8380 2.5759 -0.1533 24.9208
#
#
#
# Elastic Compliance Matrix: (Units=1/GPa)
#
#
# Indices 1 2 3 4 5 6 
#
# 1 0.027285 0.001762 0.000845 0.017248 -0.015234 -0.020967
# 2 0.001762 0.018630 0.002893 0.024489 -0.003403 -0.009477
# 3 0.000845 0.002893 0.058576 0.015791 -0.039605 0.005610
# 4 0.017248 0.024489 0.015791 0.082705 -0.017621 -0.026112
# 5 -0.015234 -0.003403 -0.039605 -0.017621 0.079793 0.007745
# 6 -0.020967 -0.009477 0.005610 -0.026112 0.007745 0.061197
#
#
# Mechanical properties :
#
#
# Convention : Reuss Voigt Hill
#
# Bulk Modulus (GPa) = 8.65867 28.22554 18.44211
# Shear Modulus (GPa) = 14.05747 24.84206 19.44977
#
# Velocity S-wave (km/s) = 2.61291 3.47348 3.07347
# Velocity P-wave (km/s) = 3.64806 5.45849 4.64239
#
# Compressibility (1/GPa) = 0.11549123
#
# Stress axis : x y z
#
# Youngs Moduli (GPa) = 36.64957 53.67808 17.07187
#
# Poissons Ratio (x) = -0.09457 -0.01443
# Poissons Ratio (y) = -0.06457 -0.04939
# Poissons Ratio (z) = -0.03097 -0.15530
#
# Static dielectric constant tensor:
#      x y z
#    x 1.750520 0.006720 -0.013600 
#    y 0.006720 1.729390 0.011250 
#    z -0.013600 0.011250 1.757990 
# 
# From -- ./inp_files/350159.got.cif
#   From: 2010.05.17/outbox.cif.g08.bks.cpg/sg2_176_cif.got.tgz:350159.got - 2010.06.03 11:33:40.
