data_PCOD9026401
_publ_section_title
;
Structure prediction by ZEFSAII (Michael W. Deem and Ramdas Pophale) SiO2 
 PCOD9026401
Probable space group: P -1
;
_chemical_formula_sum "Si O2"
_cell_formula_units_Z 12
_cell_length_a 14.456238
_cell_length_b 11.750061
_cell_length_c 7.203647
_cell_angle_alpha 43.073378
_cell_angle_beta 63.463798
_cell_angle_gamma 35.254035
_cell_volume 446.182886
_symmetry_space_group_name_H-M "P -1"
_symmetry_group_IT_number 2
_symmetry_cell_setting 'triclinic'
loop_
_space_group_symop_operation_xyz
x,y,z
-x,-y,-z
loop_
_atom_site_type_symbol
_atom_site_label
_atom_site_fract_x
_atom_site_fract_y
_atom_site_fract_z
Si Si1 0.723048 0.580560 0.816020
Si Si2 0.341449 0.620638 0.166390
Si Si3 0.875719 0.999808 0.791242
Si Si4 0.271143 0.908129 0.545542
Si Si5 0.185096 0.276040 0.695747
Si Si6 0.313777 0.228675 0.993562
O O1 0.638165 0.555447 0.788827
O O2 0.694143 0.792888 0.482094
O O3 0.684964 0.643785 0.991412
O O4 0.928437 0.273915 0.993689
O O5 0.536441 0.404002 0.311683
O O6 0.222421 0.738179 0.309407
O O7 0.254154 0.875971 0.812309
O O8 0.860414 0.017219 0.562401
O O9 0.771734 0.963107 0.983143
O O10 0.269617 0.107511 0.274750
O O11 0.000000 0.500000 0.500000
O O12 0.182071 0.397406 0.736548
O O13 0.500000 0.000000 0.000000
#
# Coordination Sequence:
#
# PCOD9026401 Si02
#       6
#     2   2   2   2   2   2
#     4  11  24  40  63  94 123 157 202 252 305 358
#     4  11  23  40  63  91 126 162 198 246 303 364
#     4  10  22  41  64  90 123 161 201 248 301 360
#     4  10  24  41  62  88 123 164 204 245 299 360
#     4   9  21  40  65  90 119 157 201 249 300 355
#     4  11  24  42  64  90 121 159 206 255 300 354
#
# _framework density 26.8948
#
# number of rings (size 3 to 8) (size 9 to 14) (size 15 to 20)
#    0.000    1.667    0.000    3.000    0.000   20.000 
#    0.000    0.000    0.000    0.000    0.000    0.000 
#    0.000    0.000    0.000    0.000    0.000    0.000 
#
# Total GULP energy -67195.557313 kJ/mol
# GULP energy per Si atom -5599.629776 kJ/mol
# Density = 2.683359 g / cm^3
# Si number density = 26.894800 Si / 1000 Ang^3
#
#
#
# Elastic Constant Matrix: (Units=GPa)
#
#
# Indices 1 2 3 4 5 6 
#
# 1 87.3872 3.4771 25.1973 -2.3664 10.7026 16.2901
# 2 3.4771 81.2765 -11.7851 24.4321 13.6882 23.3283
# 3 25.1973 -11.7851 100.4529 15.9765 11.9727 7.7760
# 4 -2.3664 24.4321 15.9765 37.0873 -6.7228 14.9771
# 5 10.7026 13.6882 11.9727 -6.7228 62.1793 1.1230
# 6 16.2901 23.3283 7.7760 14.9771 1.1230 38.6324
#
#
#
# Elastic Compliance Matrix: (Units=1/GPa)
#
#
# Indices 1 2 3 4 5 6 
#
# 1 0.014147 -0.000807 -0.003939 0.005784 -0.000749 -0.006906
# 2 -0.000807 0.021290 0.006573 -0.015093 -0.007305 -0.007775
# 3 -0.003939 0.006573 0.014113 -0.011248 -0.004691 -0.000652
# 4 0.005784 -0.015093 -0.011248 0.047914 0.009852 -0.009923
# 5 -0.000749 -0.007305 -0.004691 0.009852 0.019765 0.001277
# 6 -0.006906 -0.007775 -0.000652 -0.009923 0.001277 0.037433
#
#
# Mechanical properties :
#
#
# Convention : Reuss Voigt Hill
#
# Bulk Modulus (GPa) = 18.79580 33.65502 26.22541
# Shear Modulus (GPa) = 29.63084 44.39496 37.01290
#
# Velocity S-wave (km/s) = 3.32283 4.06728 3.71376
# Velocity P-wave (km/s) = 4.66106 5.88198 5.30675
#
# Compressibility (1/GPa) = 0.05320337
#
# Stress axis : x y z
#
# Youngs Moduli (GPa) = 70.68617 46.96981 70.85807
#
# Poissons Ratio (x) = 0.03791 0.27914
# Poissons Ratio (y) = 0.05705 -0.46576
# Poissons Ratio (z) = 0.27846 -0.30874
#
# Static dielectric constant tensor:
#      x y z
#    x 2.122820 0.055660 -0.106110 
#    y 0.055660 2.086810 -0.024050 
#    z -0.106110 -0.024050 2.128110 
# 
# From -- ./inp_files/23079.got.cif
#   From: 2010.05.17/outbox.cif.g08.bks.cpg/sg2_12_cif.got.tgz:23079.got - 2010.06.03 11:33:40.
