data_PCOD9026170
_publ_section_title
;
Structure prediction by ZEFSAII (Michael W. Deem and Ramdas Pophale) SiO2 
 PCOD9026170
Probable space group: P -1
;
_chemical_formula_sum "Si O2"
_cell_formula_units_Z 16
_cell_length_a 12.976312
_cell_length_b 11.116290
_cell_length_c 8.632863
_cell_angle_alpha 93.035487
_cell_angle_beta 97.157977
_cell_angle_gamma 33.058585
_cell_volume 670.944307
_symmetry_space_group_name_H-M "P -1"
_symmetry_group_IT_number 2
_symmetry_cell_setting 'triclinic'
loop_
_space_group_symop_operation_xyz
x,y,z
-x,-y,-z
loop_
_atom_site_type_symbol
_atom_site_label
_atom_site_fract_x
_atom_site_fract_y
_atom_site_fract_z
Si Si1 0.939332 0.222977 0.428975
Si Si2 0.745981 0.428593 0.737825
Si Si3 0.390907 0.384654 0.803145
Si Si4 0.199195 0.790323 0.840285
Si Si5 0.351462 0.729804 0.387816
Si Si6 0.934218 0.874813 0.983237
Si Si7 0.800064 0.761230 0.963806
Si Si8 0.508308 0.843551 0.876466
O O1 0.165286 0.981624 0.437141
O O2 0.846919 0.184988 0.347742
O O3 0.856888 0.333055 0.589583
O O4 0.818440 0.429661 0.303982
O O5 0.500000 0.500000 0.500000
O O6 0.555684 0.691408 0.753323
O O7 0.716054 0.314496 0.739932
O O8 0.531853 0.280560 0.682386
O O9 0.436771 0.251809 0.942876
O O10 0.372786 0.534125 0.889947
O O11 0.206566 0.915090 0.915525
O O12 0.022629 0.887566 0.888324
O O13 0.841356 0.847748 0.893267
O O14 0.109803 0.665924 0.110091
O O15 0.704144 0.898289 0.118400
O O16 0.648863 0.817914 0.863533
O O17 0.000000 0.500000 0.000000
#
# Coordination Sequence:
#
# PCOD9026170 Si02
#       8
#     2   2   2   2   2   2   2   2
#     4  10  23  39  61  89 147 169 207 257 323 397
#     4  12  21  40  61  96 132 170 215 260 314 395
#     4  10  22  41  62  96 136 168 205 271 322 382
#     4   9  20  38  58 102 131 166 201 262 323 394
#     4  12  24  36  61  99 135 183 207 248 331 398
#     4  11  21  37  69  91 132 171 211 264 328 377
#     4  11  24  45  67  95 127 172 217 283 329 363
#     4  11  26  42  69 101 122 166 234 272 313 390
#
# _framework density 23.846988
#
# number of rings (size 3 to 8) (size 9 to 14) (size 15 to 20)
#    0.750    0.500    5.000    0.375    5.250    0.500 
#    0.000    0.000    0.000    6.000    0.000    0.000 
#    0.000    0.000    0.000    0.000    0.000    0.000 
#
# Total GULP energy -89124.554581 kJ/mol
# GULP energy per Si atom -5570.284661 kJ/mol
# Density = 2.379271 g / cm^3
# Si number density = 23.846988 Si / 1000 Ang^3
#
#
#
# Elastic Constant Matrix: (Units=GPa)
#
#
# Indices 1 2 3 4 5 6 
#
# 1 87.8020 32.4386 23.5641 0.1558 -14.8388 -6.2244
# 2 32.4386 181.6187 45.7105 29.0386 -2.3564 -13.8599
# 3 23.5641 45.7105 91.1958 4.0768 -7.4636 -6.8501
# 4 0.1558 29.0386 4.0768 45.7359 -3.5248 -1.9119
# 5 -14.8388 -2.3564 -7.4636 -3.5248 15.1144 5.0791
# 6 -6.2244 -13.8599 -6.8501 -1.9119 5.0791 34.6862
#
#
#
# Elastic Compliance Matrix: (Units=1/GPa)
#
#
# Indices 1 2 3 4 5 6 
#
# 1 0.015208 -0.002631 -0.001589 0.002861 0.014611 -0.000618
# 2 -0.002631 0.007670 -0.003167 -0.004855 -0.004896 0.002417
# 3 -0.001589 -0.003167 0.013325 0.001206 0.004651 0.000466
# 4 0.002861 -0.004855 0.001206 0.025474 0.008956 -0.001096
# 5 0.014611 -0.004896 0.004651 0.008956 0.087748 -0.010771
# 6 -0.000618 0.002417 0.000466 -0.001096 -0.010771 0.031294
#
#
# Mechanical properties :
#
#
# Convention : Reuss Voigt Hill
#
# Bulk Modulus (GPa) = 46.66610 62.67144 54.66877
# Shear Modulus (GPa) = 24.67457 36.36752 30.52105
#
# Velocity S-wave (km/s) = 3.22017 3.90941 3.58141
# Velocity P-wave (km/s) = 5.78251 6.83489 6.33061
#
# Compressibility (1/GPa) = 0.02142883
#
# Stress axis : x y z
#
# Youngs Moduli (GPa) = 65.75339 130.37486 75.04634
#
# Poissons Ratio (x) = 0.34306 0.11927
# Poissons Ratio (y) = 0.17302 0.23766
# Poissons Ratio (z) = 0.10450 0.41287
#
# Static dielectric constant tensor:
#      x y z
#    x 1.957130 -0.093360 -0.019730 
#    y -0.093360 2.088360 0.006900 
#    z -0.019730 0.006900 2.094850 
# 
# From -- ./inp_files/530548.got.cif
#   From: 2010.05.17/outbox.cif.g08.bks.cpg/sg2_266_cif.got.tgz:530548.got - 2010.06.03 11:33:40.
