data_PCOD9026528
_publ_section_title
;
Structure prediction by ZEFSAII (Michael W. Deem and Ramdas Pophale) SiO2 
 PCOD9026528
Probable space group: P -1
;
_chemical_formula_sum "Si O2"
_cell_formula_units_Z 14
_cell_length_a 9.574613
_cell_length_b 8.931066
_cell_length_c 9.861100
_cell_angle_alpha 79.768258
_cell_angle_beta 114.281823
_cell_angle_gamma 117.741451
_cell_volume 680.190425
_symmetry_space_group_name_H-M "P -1"
_symmetry_group_IT_number 2
_symmetry_cell_setting 'triclinic'
loop_
_space_group_symop_operation_xyz
x,y,z
-x,-y,-z
loop_
_atom_site_type_symbol
_atom_site_label
_atom_site_fract_x
_atom_site_fract_y
_atom_site_fract_z
Si Si1 0.312936 0.739258 0.677323
Si Si2 0.760721 0.463719 0.838844
Si Si3 0.518569 0.926315 0.167468
Si Si4 0.000855 0.223215 0.588815
Si Si5 0.774661 0.868116 0.462140
Si Si6 0.069267 0.468139 0.819564
Si Si7 0.455712 0.365391 0.386077
O O1 0.156092 0.744340 0.532042
O O2 0.216933 0.637328 0.788490
O O3 0.397217 0.641588 0.643164
O O4 0.461910 0.922624 0.746175
O O5 0.630007 0.264166 0.839970
O O6 0.666051 0.581611 0.759927
O O7 0.888135 0.473860 0.765683
O O8 0.871808 0.541098 0.004454
O O9 0.692489 0.912468 0.287884
O O10 0.500000 0.000000 0.000000
O O11 0.156917 0.266013 0.539545
O O12 0.053369 0.317674 0.736801
O O13 0.923910 0.020689 0.578211
O O14 0.632325 0.802642 0.531999
O O15 0.500000 0.500000 0.500000
#
# Coordination Sequence:
#
# PCOD9026528 Si02
#       7
#     2   2   2   2   2   2   2
#     4  11  24  39  71  94 128 171 217 261 319 379
#     4  11  25  42  67  93 134 168 214 261 325 379
#     4  11  23  44  67  96 128 170 213 269 314 380
#     4  10  22  41  64  95 128 171 213 261 317 385
#     4  10  23  41  67  95 131 168 212 267 320 375
#     4  11  23  42  63  93 128 176 209 261 317 384
#     4  12  23  40  66 100 127 163 216 269 317 372
#
# _framework density 20.582471000000002
#
# number of rings (size 3 to 8) (size 9 to 14) (size 15 to 20)
#    0.000    1.143    2.857    3.000    2.000    2.857 
#    0.000    0.714    0.000    0.000    0.000    0.000 
#    0.000    0.000    0.000    0.000    0.000    0.000 
#
# Total GULP energy -77948.584481 kJ/mol
# GULP energy per Si atom -5567.756034 kJ/mol
# Density = 2.053562 g / cm^3
# Si number density = 20.582471 Si / 1000 Ang^3
#
#
#
# Elastic Constant Matrix: (Units=GPa)
#
#
# Indices 1 2 3 4 5 6 
#
# 1 129.9061 24.3940 33.6926 -5.2597 -8.3340 -25.9762
# 2 24.3940 52.1024 31.4575 8.6615 -3.7148 -15.7801
# 3 33.6926 31.4575 99.7658 3.3010 5.8171 -16.9601
# 4 -5.2597 8.6615 3.3010 31.9714 -1.5136 -6.4152
# 5 -8.3340 -3.7148 5.8171 -1.5136 28.8815 -0.9925
# 6 -25.9762 -15.7801 -16.9601 -6.4152 -0.9925 30.8379
#
#
#
# Elastic Compliance Matrix: (Units=1/GPa)
#
#
# Indices 1 2 3 4 5 6 
#
# 1 0.010527 -0.001763 -0.002020 0.004167 0.003706 0.007840
# 2 -0.001763 0.027800 -0.006897 -0.005295 0.004453 0.007989
# 3 -0.002020 -0.006897 0.013467 0.000378 -0.004090 0.002123
# 4 0.004167 -0.005295 0.000378 0.035168 0.002577 0.008407
# 5 0.003706 0.004453 -0.004090 0.002577 0.037393 0.004890
# 6 0.007840 0.007989 0.002123 0.008407 0.004890 0.046194
#
#
# Mechanical properties :
#
#
# Convention : Reuss Voigt Hill
#
# Bulk Modulus (GPa) = 32.85745 51.20693 42.03219
# Shear Modulus (GPa) = 24.74598 31.15351 27.94975
#
# Velocity S-wave (km/s) = 3.47116 3.89471 3.68902
# Velocity P-wave (km/s) = 5.66248 6.71997 6.21376
#
# Compressibility (1/GPa) = 0.03043449
#
# Stress axis : x y z
#
# Youngs Moduli (GPa) = 94.99297 35.97166 74.25439
#
# Poissons Ratio (x) = 0.06341 0.15003
# Poissons Ratio (y) = 0.16745 0.51210
# Poissons Ratio (z) = 0.19193 0.24808
#
# Static dielectric constant tensor:
#      x y z
#    x 1.798150 -0.001100 0.093430 
#    y -0.001100 1.710900 0.056990 
#    z 0.093430 0.056990 1.700340 
# 
# From -- ./inp_files/151714.got.cif
#   From: 2010.05.17/outbox.cif.g08.bks.cpg/sg2_76_cif.got.tgz:151714.got - 2010.06.03 11:33:40.
