data_PCOD9026421
_publ_section_title
;
Structure prediction by ZEFSAII (Michael W. Deem and Ramdas Pophale) SiO2 
 PCOD9026421
Probable space group: P -1
;
_chemical_formula_sum "Si O2"
_cell_formula_units_Z 16
_cell_length_a 7.753706
_cell_length_b 8.616635
_cell_length_c 17.530629
_cell_angle_alpha 81.756805
_cell_angle_beta 83.480028
_cell_angle_gamma 33.897812
_cell_volume 646.433871
_symmetry_space_group_name_H-M "P -1"
_symmetry_group_IT_number 2
_symmetry_cell_setting 'triclinic'
loop_
_space_group_symop_operation_xyz
x,y,z
-x,-y,-z
loop_
_atom_site_type_symbol
_atom_site_label
_atom_site_fract_x
_atom_site_fract_y
_atom_site_fract_z
Si Si1 0.892966 0.360168 0.315651
Si Si2 0.450360 0.282625 0.972443
Si Si3 0.303500 0.806862 0.399543
Si Si4 0.554690 0.503669 0.182356
Si Si5 0.315822 0.928904 0.558098
Si Si6 0.116156 0.062443 0.781881
Si Si7 0.093070 0.251210 0.929133
Si Si8 0.007768 0.606326 0.370512
O O1 0.606727 0.503223 0.369493
O O2 0.785192 0.430685 0.229106
O O3 0.944814 0.488650 0.341710
O O4 0.194777 0.030765 0.336030
O O5 0.436034 0.443930 0.908275
O O6 0.297674 0.252371 0.935361
O O7 0.249828 0.452354 0.047001
O O8 0.784141 0.975255 0.003619
O O9 0.372609 0.826409 0.477184
O O10 0.005474 0.918988 0.413614
O O11 0.207464 0.787999 0.208080
O O12 0.629885 0.263866 0.206769
O O13 0.630523 0.661211 0.607145
O O14 0.203979 0.192158 0.559517
O O15 0.101918 0.183231 0.700922
O O16 0.127442 0.162604 0.848918
#
# Coordination Sequence:
#
# PCOD9026421 Si02
#       8
#     2   2   2   2   2   2   2   2
#     4  12  25  42  65  93 128 167 212 262 314 375
#     4  10  22  41  64  91 125 162 202 252 311 371
#     4  11  24  43  67  94 127 166 208 259 319 379
#     4  12  25  41  64  91 125 165 209 259 309 369
#     4  11  24  43  67  94 127 166 208 259 319 379
#     4  12  25  41  64  91 125 165 209 259 309 369
#     4  10  22  41  64  91 125 162 202 252 311 371
#     4  12  25  42  65  93 128 167 212 262 314 375
#
# _framework density 24.751180000000002
#
# number of rings (size 3 to 8) (size 9 to 14) (size 15 to 20)
#    0.000    0.750    0.000    8.250    0.000    8.000 
#    0.000    7.500    0.000    0.000    0.000    0.000 
#    0.000    0.000    0.000    0.000    0.000    0.000 
#
# Total GULP energy -89679.776122 kJ/mol
# GULP energy per Si atom -5604.986008 kJ/mol
# Density = 2.469484 g / cm^3
# Si number density = 24.751180 Si / 1000 Ang^3
#
#
#
# Elastic Constant Matrix: (Units=GPa)
#
#
# Indices 1 2 3 4 5 6 
#
# 1 72.3070 18.0576 24.4264 -5.8751 23.9221 -1.1849
# 2 18.0576 113.7317 13.6434 2.4060 13.2755 -3.0148
# 3 24.4264 13.6434 85.9373 2.2383 30.6061 2.9027
# 4 -5.8751 2.4060 2.2383 36.0942 7.0340 10.6141
# 5 23.9221 13.2755 30.6061 7.0340 38.1892 9.5417
# 6 -1.1849 -3.0148 2.9027 10.6141 9.5417 23.8177
#
#
#
# Elastic Compliance Matrix: (Units=1/GPa)
#
#
# Indices 1 2 3 4 5 6 
#
# 1 0.019082 -0.001451 -0.001013 0.004560 -0.012436 0.003839
# 2 -0.001451 0.009458 -0.000190 -0.001133 -0.002701 0.002735
# 3 -0.001013 -0.000190 0.016647 0.000547 -0.013508 0.003065
# 4 0.004560 -0.001133 0.000547 0.033305 -0.005924 -0.012452
# 5 -0.012436 -0.002701 -0.013508 -0.005924 0.051117 -0.017153
# 6 0.003839 0.002735 0.003065 -0.012452 -0.017153 0.054570
#
#
# Mechanical properties :
#
#
# Convention : Reuss Voigt Hill
#
# Bulk Modulus (GPa) = 25.07563 42.69232 33.88397
# Shear Modulus (GPa) = 24.65717 34.01013 29.33365
#
# Velocity S-wave (km/s) = 3.15969 3.71088 3.44632
# Velocity P-wave (km/s) = 4.84403 5.97050 5.43652
#
# Compressibility (1/GPa) = 0.03987936
#
# Stress axis : x y z
#
# Youngs Moduli (GPa) = 52.40434 105.73525 60.06960
#
# Poissons Ratio (x) = 0.15346 0.06084
# Poissons Ratio (y) = 0.07606 0.01140
# Poissons Ratio (z) = 0.05307 0.02008
#
# Static dielectric constant tensor:
#      x y z
#    x 1.987150 0.023650 -0.016540 
#    y 0.023650 1.874730 0.003650 
#    z -0.016540 0.003650 1.970020 
# 
# From -- ./inp_files/217593.got.cif
#   From: 2010.05.17/outbox.cif.g08.bks.cpg/sg2_109_cif.got.tgz:217593.got - 2010.06.03 11:33:40.
