data_PCOD9026218
_publ_section_title
;
Structure prediction by ZEFSAII (Michael W. Deem and Ramdas Pophale) SiO2 
 PCOD9026218
Probable space group: P -1
;
_chemical_formula_sum "Si O2"
_cell_formula_units_Z 16
_cell_length_a 7.733440
_cell_length_b 9.598439
_cell_length_c 11.724725
_cell_angle_alpha 82.019061
_cell_angle_beta 110.496538
_cell_angle_gamma 74.099761
_cell_volume 756.934553
_symmetry_space_group_name_H-M "P -1"
_symmetry_group_IT_number 2
_symmetry_cell_setting 'triclinic'
loop_
_space_group_symop_operation_xyz
x,y,z
-x,-y,-z
loop_
_atom_site_type_symbol
_atom_site_label
_atom_site_fract_x
_atom_site_fract_y
_atom_site_fract_z
Si Si1 0.542721 0.944341 0.646121
Si Si2 0.580391 0.474786 0.393310
Si Si3 0.019949 0.326500 0.539897
Si Si4 0.389798 0.731233 0.762820
Si Si5 0.405014 0.788655 0.235080
Si Si6 0.619786 0.111136 0.034660
Si Si7 0.995386 0.115930 0.735899
Si Si8 0.937938 0.836508 0.655694
O O1 0.395256 0.867432 0.668076
O O2 0.771635 0.832223 0.707304
O O3 0.500000 0.000000 0.500000
O O4 0.542126 0.075142 0.715764
O O5 0.500000 0.500000 0.500000
O O6 0.789808 0.346856 0.473149
O O7 0.493818 0.411689 0.272384
O O8 0.573081 0.636147 0.329940
O O9 0.121141 0.221998 0.469513
O O10 0.000000 0.500000 0.500000
O O11 0.078070 0.233746 0.680500
O O12 0.466607 0.769453 0.896919
O O13 0.167546 0.736967 0.738305
O O14 0.199487 0.798800 0.246336
O O15 0.378403 0.806519 0.092555
O O16 0.836973 0.002659 0.136135
O O17 0.500000 0.000000 0.000000
O O18 0.937437 0.007194 0.644588
#
# Coordination Sequence:
#
# PCOD9026218 Si02
#       8
#     2   2   2   2   2   2   2   2
#     4  11  23  34  64  93 122 162 213 261 317 366
#     4  11  23  41  63  93 130 160 203 252 328 384
#     4  11  24  36  61  93 129 164 195 259 325 377
#     4  10  23  42  61  89 128 168 205 263 315 371
#     4  11  23  41  64  93 123 168 210 260 309 380
#     4  11  23  41  66  90 121 164 225 260 299 370
#     4  10  22  41  63  88 124 165 210 261 313 362
#     4   9  23  37  58  89 125 161 211 255 313 374
#
# _framework density 21.137891
#
# number of rings (size 3 to 8) (size 9 to 14) (size 15 to 20)
#    0.000    1.500    2.500    1.500   14.000    0.500 
#    0.000    0.000    0.000    0.750    0.000    0.000 
#    0.000    0.000    0.000    0.000    0.000    0.000 
#
# Total GULP energy -89211.760265 kJ/mol
# GULP energy per Si atom -5575.735017 kJ/mol
# Density = 2.108978 g / cm^3
# Si number density = 21.137891 Si / 1000 Ang^3
#
#
#
# Elastic Constant Matrix: (Units=GPa)
#
#
# Indices 1 2 3 4 5 6 
#
# 1 61.0740 21.9812 17.2102 7.0622 -3.3743 -6.0833
# 2 21.9812 101.5459 34.6189 27.4665 -20.6138 -15.8762
# 3 17.2102 34.6189 105.3251 8.5533 -22.5250 -8.1269
# 4 7.0622 27.4665 8.5533 40.4960 -3.7369 -2.3977
# 5 -3.3743 -20.6138 -22.5250 -3.7369 32.9094 0.1273
# 6 -6.0833 -15.8762 -8.1269 -2.3977 0.1273 32.4177
#
#
#
# Elastic Compliance Matrix: (Units=1/GPa)
#
#
# Indices 1 2 3 4 5 6 
#
# 1 0.018231 -0.003178 -0.002138 -0.000649 -0.001664 0.001287
# 2 -0.003178 0.016058 -0.002001 -0.008878 0.007332 0.006081
# 3 -0.002138 -0.002001 0.012084 -0.000101 0.006781 0.001614
# 4 -0.000649 -0.008878 -0.000101 0.030513 -0.002224 -0.002230
# 5 -0.001664 0.007332 0.006781 -0.002224 0.039179 0.004660
# 6 0.001287 0.006081 0.001614 -0.002230 0.004660 0.034288
#
#
# Mechanical properties :
#
#
# Convention : Reuss Voigt Hill
#
# Bulk Modulus (GPa) = 31.50621 46.17394 38.84008
# Shear Modulus (GPa) = 28.47890 34.10693 31.29292
#
# Velocity S-wave (km/s) = 3.67453 4.02125 3.85179
# Velocity P-wave (km/s) = 5.73937 6.59183 6.18031
#
# Compressibility (1/GPa) = 0.03173978
#
# Stress axis : x y z
#
# Youngs Moduli (GPa) = 54.85044 62.27319 82.75164
#
# Poissons Ratio (x) = 0.19793 0.17693
# Poissons Ratio (y) = 0.17434 0.16555
# Poissons Ratio (z) = 0.11727 0.12458
#
# Static dielectric constant tensor:
#      x y z
#    x 1.845400 0.019820 0.046030 
#    y 0.019820 1.814250 0.040800 
#    z 0.046030 0.040800 1.790170 
# 
# From -- ./inp_files/239876.got.cif
#   From: 2010.05.17/outbox.cif.g08.bks.cpg/sg2_120_cif.got.tgz:239876.got - 2010.06.03 11:33:40.
