data_PCOD9026444
_publ_section_title
;
Structure prediction by ZEFSAII (Michael W. Deem and Ramdas Pophale) SiO2 
 PCOD9026444
Probable space group: P -1
;
_chemical_formula_sum "Si O2"
_cell_formula_units_Z 16
_cell_length_a 9.297401
_cell_length_b 11.262686
_cell_length_c 11.220925
_cell_angle_alpha 86.601791
_cell_angle_beta 130.058266
_cell_angle_gamma 120.240449
_cell_volume 711.899328
_symmetry_space_group_name_H-M "P -1"
_symmetry_group_IT_number 2
_symmetry_cell_setting 'triclinic'
loop_
_space_group_symop_operation_xyz
x,y,z
-x,-y,-z
loop_
_atom_site_type_symbol
_atom_site_label
_atom_site_fract_x
_atom_site_fract_y
_atom_site_fract_z
Si Si1 0.159557 0.867911 0.504660
Si Si2 0.938567 0.380412 0.374608
Si Si3 0.297337 0.144790 0.446370
Si Si4 0.427865 0.279646 0.134626
Si Si5 0.048821 0.295307 0.849412
Si Si6 0.327029 0.376137 0.315165
Si Si7 0.822685 0.446335 0.745045
Si Si8 0.308210 0.009973 0.213194
O O1 0.038847 0.743928 0.552144
O O2 0.438045 0.952922 0.671874
O O3 0.072056 0.770903 0.341027
O O4 0.148575 0.005521 0.465917
O O5 0.666692 0.314510 0.208406
O O6 0.000000 0.500000 0.500000
O O7 0.106345 0.471225 0.349491
O O8 0.188447 0.222099 0.325762
O O9 0.563540 0.283229 0.622134
O O10 0.331856 0.075453 0.353420
O O11 0.449623 0.356752 0.269627
O O12 0.273705 0.103061 0.095768
O O13 0.300257 0.325977 0.980364
O O14 0.018211 0.419680 0.860770
O O15 0.901078 0.163539 0.876389
O O16 0.500000 0.500000 0.500000
O O17 0.188689 0.438197 0.190849
#
# Coordination Sequence:
#
# PCOD9026444 Si02
#       8
#     2   2   2   2   2   2   2   2
#     4  10  17  31  56  80 107 137 179 217 258 314
#     4  11  20  35  53  79 108 142 175 214 269 321
#     4   9  15  31  54  79  97 137 185 217 245 306
#     4  10  22  33  52  83 108 135 176 223 267 310
#     4  11  18  30  52  83 110 132 174 225 268 304
#     4   9  19  34  53  75 106 141 180 218 257 313
#     4  11  19  32  54  77 110 144 171 217 267 308
#     4   9  15  30  52  78 105 133 174 219 260 305
#
# _framework density 22.475089000000001
#
# number of rings (size 3 to 8) (size 9 to 14) (size 15 to 20)
#    0.000    2.000    3.750    3.375    0.000    1.000 
#    0.000    0.625    0.000    0.000    0.000   18.375 
#    0.000    0.000    0.000    0.000    0.000    0.000 
#
# Total GULP energy -89133.045422 kJ/mol
# GULP energy per Si atom -5570.815339 kJ/mol
# Density = 2.242393 g / cm^3
# Si number density = 22.475089 Si / 1000 Ang^3
#
#
#
# Elastic Constant Matrix: (Units=GPa)
#
#
# Indices 1 2 3 4 5 6 
#
# 1 55.5122 25.0904 13.5002 -8.7007 2.4800 -2.0049
# 2 25.0904 139.0626 33.5820 -29.9347 -1.0738 -14.3168
# 3 13.5002 33.5820 63.6762 -19.1282 12.9026 -1.4449
# 4 -8.7007 -29.9347 -19.1282 28.9169 -10.5317 8.3278
# 5 2.4800 -1.0738 12.9026 -10.5317 22.1527 -6.2073
# 6 -2.0049 -14.3168 -1.4449 8.3278 -6.2073 29.3427
#
#
#
# Elastic Compliance Matrix: (Units=1/GPa)
#
#
# Indices 1 2 3 4 5 6 
#
# 1 0.020076 -0.002801 -0.002179 0.001721 -0.000491 -0.000694
# 2 -0.002801 0.011462 -0.004105 0.010537 0.009448 0.004207
# 3 -0.002179 -0.004105 0.022775 0.007718 -0.011112 -0.005571
# 4 0.001721 0.010537 0.007718 0.061535 0.023135 -0.006932
# 5 -0.000491 0.009448 -0.011112 0.023135 0.066347 0.011499
# 6 -0.000694 0.004207 -0.005571 -0.006932 0.011499 0.040211
#
#
# Mechanical properties :
#
#
# Convention : Reuss Voigt Hill
#
# Bulk Modulus (GPa) = 27.66662 44.73292 36.19977
# Shear Modulus (GPa) = 19.79240 28.48768 24.14004
#
# Velocity S-wave (km/s) = 2.97077 3.56409 3.28087
# Velocity P-wave (km/s) = 4.90958 6.07318 5.52211
#
# Compressibility (1/GPa) = 0.03614464
#
# Stress axis : x y z
#
# Youngs Moduli (GPa) = 49.80956 87.24598 43.90826
#
# Poissons Ratio (x) = 0.24437 0.09565
# Poissons Ratio (y) = 0.13951 0.18023
# Poissons Ratio (z) = 0.10851 0.35812
#
# Static dielectric constant tensor:
#      x y z
#    x 1.886590 -0.026410 0.064090 
#    y -0.026410 1.895530 -0.045690 
#    z 0.064090 -0.045690 1.936600 
# 
# From -- ./inp_files/390097.got.cif
#   From: 2010.05.17/outbox.cif.g08.bks.cpg/sg2_196_cif.got.tgz:390097.got - 2010.06.03 11:33:40.
