data_PCOD9026484
_publ_section_title
;
Structure prediction by ZEFSAII (Michael W. Deem and Ramdas Pophale) SiO2 
 PCOD9026484
Probable space group: P -1
;
_chemical_formula_sum "Si O2"
_cell_formula_units_Z 10
_cell_length_a 14.035103
_cell_length_b 10.658322
_cell_length_c 13.695185
_cell_angle_alpha 42.899015
_cell_angle_beta 21.506184
_cell_angle_gamma 33.749129
_cell_volume 408.693162
_symmetry_space_group_name_H-M "P -1"
_symmetry_group_IT_number 2
_symmetry_cell_setting 'triclinic'
loop_
_space_group_symop_operation_xyz
x,y,z
-x,-y,-z
loop_
_atom_site_type_symbol
_atom_site_label
_atom_site_fract_x
_atom_site_fract_y
_atom_site_fract_z
Si Si1 0.215012 0.565736 0.308448
Si Si2 0.532135 0.521007 0.573889
Si Si3 0.429951 0.956947 0.360757
Si Si4 0.641485 0.109010 0.244198
Si Si5 0.283469 0.237610 0.011962
O O1 0.408047 0.386975 0.314159
O O2 0.000000 0.500000 0.500000
O O3 0.500000 0.500000 0.000000
O O4 0.939108 0.834700 0.438087
O O5 0.500000 0.500000 0.500000
O O6 0.410384 0.783022 0.545924
O O7 0.362378 0.421472 0.846196
O O8 0.914253 0.357157 0.322883
O O9 0.642936 0.829719 0.134240
O O10 0.603013 0.046078 0.206194
O O11 0.500000 0.000000 0.500000
O O12 0.000000 0.000000 0.000000
O O13 0.500000 0.000000 0.000000
#
# Coordination Sequence:
#
# PCOD9026484 Si02
#       5
#     2   2   2   2   2
#     4  10  22  41  64  93 128 172 222 268 323 391
#     4  10  22  42  67  98 132 174 221 268 329 401
#     4  10  23  44  68  94 138 180 210 278 336 376
#     4  11  24  42  64  96 129 171 226 269 318 393
#     4  11  24  43  68 103 134 169 223 271 327 407
#
# _framework density 24.468233999999999
#
# number of rings (size 3 to 8) (size 9 to 14) (size 15 to 20)
#    0.000    1.600    0.000    5.400    0.000   16.000 
#    0.000    8.000    0.000    0.000    0.000    0.000 
#    0.000    0.000    0.000    0.000    0.000    0.000 
#
# Total GULP energy -55973.976496 kJ/mol
# GULP energy per Si atom -5597.397650 kJ/mol
# Density = 2.441254 g / cm^3
# Si number density = 24.468234 Si / 1000 Ang^3
#
#
#
# Elastic Constant Matrix: (Units=GPa)
#
#
# Indices 1 2 3 4 5 6 
#
# 1 81.0242 37.2958 38.5533 3.3811 -11.8909 3.5390
# 2 37.2958 160.0540 30.9906 14.3203 -30.7441 -32.0678
# 3 38.5533 30.9906 148.5721 6.1268 -34.1987 -11.3343
# 4 3.3811 14.3203 6.1268 54.4629 -6.5882 -4.4833
# 5 -11.8909 -30.7441 -34.1987 -6.5882 46.1511 7.1909
# 6 3.5390 -32.0678 -11.3343 -4.4833 7.1909 51.5091
#
#
#
# Elastic Compliance Matrix: (Units=1/GPa)
#
#
# Indices 1 2 3 4 5 6 
#
# 1 0.016102 -0.004017 -0.003831 0.000047 -0.000682 -0.004351
# 2 -0.004017 0.009106 0.000636 -0.001233 0.004493 0.005351
# 3 -0.003831 0.000636 0.009087 -0.000091 0.005872 0.001831
# 4 0.000047 -0.001233 -0.000091 0.018953 0.001733 0.000617
# 5 -0.000682 0.004493 0.005872 0.001733 0.029048 0.000232
# 6 -0.004351 0.005351 0.001831 0.000617 0.000232 0.023468
#
#
# Mechanical properties :
#
#
# Convention : Reuss Voigt Hill
#
# Bulk Modulus (GPa) = 50.32419 67.03663 58.68041
# Shear Modulus (GPa) = 39.42802 49.27866 44.35334
#
# Velocity S-wave (km/s) = 4.01857 4.49261 4.26219
# Velocity P-wave (km/s) = 6.49182 7.37349 6.94666
#
# Compressibility (1/GPa) = 0.01987116
#
# Stress axis : x y z
#
# Youngs Moduli (GPa) = 62.10338 109.81603 110.04313
#
# Poissons Ratio (x) = 0.44116 0.42160
# Poissons Ratio (y) = 0.24948 -0.07001
# Poissons Ratio (z) = 0.23793 -0.06986
#
# Static dielectric constant tensor:
#      x y z
#    x 2.013950 0.035840 0.033290 
#    y 0.035840 2.018630 0.007070 
#    z 0.033290 0.007070 1.843150 
# 
# From -- ./inp_files/129956.got.cif
#   From: 2010.05.17/outbox.cif.g08.bks.cpg/sg2_65_cif.got.tgz:129956.got - 2010.06.03 11:33:40.
