data_PCOD9026296
_publ_section_title
;
Structure prediction by ZEFSAII (Michael W. Deem and Ramdas Pophale) SiO2 
 PCOD9026296
Probable space group: P -1
;
_chemical_formula_sum "Si O2"
_cell_formula_units_Z 16
_cell_length_a 10.581261
_cell_length_b 14.448336
_cell_length_c 10.134582
_cell_angle_alpha 134.867946
_cell_angle_beta 121.073384
_cell_angle_gamma 94.560279
_cell_volume 641.991282
_symmetry_space_group_name_H-M "P -1"
_symmetry_group_IT_number 2
_symmetry_cell_setting 'triclinic'
loop_
_space_group_symop_operation_xyz
x,y,z
-x,-y,-z
loop_
_atom_site_type_symbol
_atom_site_label
_atom_site_fract_x
_atom_site_fract_y
_atom_site_fract_z
Si Si1 0.997834 0.734675 0.493098
Si Si2 0.971668 0.280918 0.932188
Si Si3 0.364528 0.904035 0.662106
Si Si4 0.472242 0.620410 0.179992
Si Si5 0.044998 0.380885 0.364625
Si Si6 0.469527 0.271031 0.097855
Si Si7 0.546344 0.324344 0.483211
Si Si8 0.158294 0.087543 0.507772
O O1 0.019734 0.747398 0.674479
O O2 0.961447 0.858037 0.544464
O O3 0.195868 0.801264 0.588994
O O4 0.779573 0.512269 0.115136
O O5 0.933125 0.285143 0.068559
O O6 0.196804 0.489078 0.215158
O O7 0.777631 0.197710 0.649215
O O8 0.983591 0.132429 0.777026
O O9 0.496030 0.856602 0.699093
O O10 0.480448 0.119248 0.942938
O O11 0.513161 0.642780 0.380474
O O12 0.652306 0.821651 0.405635
O O13 0.500000 0.500000 0.000000
O O14 0.300245 0.528244 0.624698
O O15 0.000000 0.500000 0.500000
O O16 0.438965 0.292820 0.255067
O O17 0.283885 0.190917 0.816341
#
# Coordination Sequence:
#
# PCOD9026296 Si02
#       8
#     2   2   2   2   2   2   2   2
#     4  11  22  42  66  92 133 176 207 269 330 382
#     4  10  23  39  62 101 123 169 220 263 320 388
#     4  11  23  41  69  98 130 171 219 264 332 384
#     4  10  22  41  63  94 125 176 213 260 326 382
#     4  11  24  41  66  95 137 169 215 273 327 383
#     4  10  23  41  63 103 128 169 220 272 316 387
#     4  11  22  42  69  95 133 169 217 269 327 387
#     4  10  23  44  66  92 133 171 220 262 323 390
#
# _framework density 24.922457999999999
#
# number of rings (size 3 to 8) (size 9 to 14) (size 15 to 20)
#    0.000    1.500    2.500    2.250    1.750    4.500 
#    0.000    8.750    0.000    0.000    0.000    0.000 
#    0.000    0.000    0.000    0.000    0.000    0.000 
#
# Total GULP energy -89721.977623 kJ/mol
# GULP energy per Si atom -5607.623601 kJ/mol
# Density = 2.486573 g / cm^3
# Si number density = 24.922458 Si / 1000 Ang^3
#
#
#
# Elastic Constant Matrix: (Units=GPa)
#
#
# Indices 1 2 3 4 5 6 
#
# 1 81.2000 56.4000 24.3887 -18.8474 -18.1957 11.0748
# 2 56.4000 167.4656 58.4561 -41.0890 -19.6620 15.7787
# 3 24.3887 58.4561 105.0510 -28.3169 -15.2920 15.6918
# 4 -18.8474 -41.0890 -28.3169 66.1863 17.2792 -14.3121
# 5 -18.1957 -19.6620 -15.2920 17.2792 27.9444 -10.7499
# 6 11.0748 15.7787 15.6918 -14.3121 -10.7499 39.3183
#
#
#
# Elastic Compliance Matrix: (Units=1/GPa)
#
#
# Indices 1 2 3 4 5 6 
#
# 1 0.017584 -0.004961 -0.000155 -0.000358 0.007745 -0.000913
# 2 -0.004961 0.009554 -0.003354 0.003157 -0.000308 -0.000033
# 3 -0.000155 -0.003354 0.012684 0.002230 0.002236 -0.002249
# 4 -0.000358 0.003157 0.002230 0.020816 -0.008425 0.003218
# 5 0.007745 -0.000308 0.002236 -0.008425 0.049988 0.007650
# 6 -0.000913 -0.000033 -0.002249 0.003218 0.007650 0.029865
#
#
# Mechanical properties :
#
#
# Convention : Reuss Voigt Hill
#
# Bulk Modulus (GPa) = 43.69734 70.24511 56.97123
# Shear Modulus (GPa) = 30.29252 40.98793 35.64023
#
# Velocity S-wave (km/s) = 3.49014 4.05979 3.78570
# Velocity P-wave (km/s) = 5.81488 7.08678 6.48210
#
# Compressibility (1/GPa) = 0.02288469
#
# Stress axis : x y z
#
# Youngs Moduli (GPa) = 56.86910 104.66493 78.83945
#
# Poissons Ratio (x) = 0.51920 0.01220
# Poissons Ratio (y) = 0.28210 0.26440
# Poissons Ratio (z) = 0.00880 0.35101
#
# Static dielectric constant tensor:
#      x y z
#    x 1.962400 0.003990 0.018850 
#    y 0.003990 1.971840 0.023310 
#    z 0.018850 0.023310 1.981360 
# 
# From -- ./inp_files/274445.got.cif
#   From: 2010.05.17/outbox.cif.g08.bks.cpg/sg2_138_cif.got.tgz:274445.got - 2010.06.03 11:33:40.
