data_PCOD9026978
_publ_section_title
;
Structure prediction by ZEFSAII (Michael W. Deem and Ramdas Pophale) SiO2 
 PCOD9026978
Probable space group: P -1
;
_chemical_formula_sum "Si O2"
_cell_formula_units_Z 16
_cell_length_a 8.373711
_cell_length_b 7.825751
_cell_length_c 16.448615
_cell_angle_alpha 73.664722
_cell_angle_beta 55.692160
_cell_angle_gamma 50.472238
_cell_volume 681.651505
_symmetry_space_group_name_H-M "P -1"
_symmetry_group_IT_number 2
_symmetry_cell_setting 'triclinic'
loop_
_space_group_symop_operation_xyz
x,y,z
-x,-y,-z
loop_
_atom_site_type_symbol
_atom_site_label
_atom_site_fract_x
_atom_site_fract_y
_atom_site_fract_z
Si Si1 0.724013 0.649552 0.185246
Si Si2 0.493962 0.072053 0.313666
Si Si3 0.172592 0.625849 0.018989
Si Si4 0.463509 0.235948 0.543145
Si Si5 0.069826 0.542039 0.387445
Si Si6 0.438631 0.843238 0.076027
Si Si7 0.069404 0.935575 0.856301
Si Si8 0.472504 0.511103 0.368408
O O1 0.603534 0.859715 0.252873
O O2 0.563152 0.753162 0.138183
O O3 0.690514 0.477188 0.259649
O O4 0.989590 0.562923 0.094880
O O5 0.418543 0.012439 0.426476
O O6 0.705310 0.101008 0.248575
O O7 0.257734 0.306468 0.319906
O O8 0.062866 0.835724 0.082414
O O9 0.434881 0.386633 0.981163
O O10 0.145114 0.739179 0.924268
O O11 0.514035 0.305903 0.434175
O O12 0.553869 0.330567 0.571664
O O13 0.178506 0.332261 0.609697
O O14 0.241975 0.611582 0.359658
O O15 0.000000 0.500000 0.500000
O O16 0.151772 0.994711 0.146070
O O17 0.500000 0.000000 0.000000
#
# Coordination Sequence:
#
# PCOD9026978 Si02
#       8
#     2   2   2   2   2   2   2   2
#     4  10  22  42  60  91 132 166 209 276 315 378
#     4  10  23  42  63  93 130 162 219 265 316 397
#     4  10  22  43  63  85 138 166 211 277 315 383
#     4   9  20  43  63  89 128 168 204 266 327 382
#     4  10  22  41  66  93 125 168 212 268 327 382
#     4  12  24  39  64  95 126 172 221 261 330 385
#     4  10  23  41  63  95 122 178 214 260 332 379
#     4   9  20  39  65  90 123 163 214 254 321 384
#
# _framework density 23.472403
#
# number of rings (size 3 to 8) (size 9 to 14) (size 15 to 20)
#    0.000    2.000    1.250    0.750    3.500    2.000 
#    9.000   15.625    0.000    0.000    0.000    0.000 
#    0.000    0.000    0.000    0.000    0.000    0.000 
#
# Total GULP energy -89223.201274 kJ/mol
# GULP energy per Si atom -5576.450080 kJ/mol
# Density = 2.341898 g / cm^3
# Si number density = 23.472403 Si / 1000 Ang^3
#
#
#
# Elastic Constant Matrix: (Units=GPa)
#
#
# Indices 1 2 3 4 5 6 
#
# 1 85.8245 32.7287 16.9032 -4.3286 -12.2838 14.2167
# 2 32.7287 118.3185 34.0519 -2.8493 -8.0425 14.1756
# 3 16.9032 34.0519 112.3333 -19.3918 -19.8555 9.4380
# 4 -4.3286 -2.8493 -19.3918 40.9235 3.7723 -8.0971
# 5 -12.2838 -8.0425 -19.8555 3.7723 34.8801 2.6983
# 6 14.2167 14.1756 9.4380 -8.0971 2.6983 34.3530
#
#
#
# Elastic Compliance Matrix: (Units=1/GPa)
#
#
# Indices 1 2 3 4 5 6 
#
# 1 0.014324 -0.003036 0.000009 -0.000136 0.004758 -0.005083
# 2 -0.003036 0.010352 -0.002677 -0.001401 0.000149 -0.002622
# 3 0.000009 -0.002677 0.011606 0.004506 0.005619 -0.001467
# 4 -0.000136 -0.001401 0.004506 0.027773 -0.001277 0.006043
# 5 0.004758 0.000149 0.005619 -0.001277 0.034224 -0.006563
# 6 -0.005083 -0.002622 -0.001467 0.006043 -0.006563 0.034638
#
#
# Mechanical properties :
#
#
# Convention : Reuss Voigt Hill
#
# Bulk Modulus (GPa) = 40.19841 53.76042 46.97941
# Shear Modulus (GPa) = 32.76213 37.55082 35.15647
#
# Velocity S-wave (km/s) = 3.74006 4.00407 3.87431
# Velocity P-wave (km/s) = 5.98445 6.65809 6.33024
#
# Compressibility (1/GPa) = 0.02487661
#
# Stress axis : x y z
#
# Youngs Moduli (GPa) = 69.81475 96.59669 86.15903
#
# Poissons Ratio (x) = 0.29324 -0.00081
# Poissons Ratio (y) = 0.21194 0.23062
# Poissons Ratio (z) = -0.00066 0.25856
#
# Static dielectric constant tensor:
#      x y z
#    x 1.960910 0.093070 0.050050 
#    y 0.093070 1.879850 0.020170 
#    z 0.050050 0.020170 1.877380 
# 
# From -- ./inp_files/557090.got.cif
#   From: 2010.05.17/outbox.cif.g08.bks.cpg/sg2_279_cif.got.tgz:557090.got - 2010.06.03 11:33:40.
