data_PCOD9026541
_publ_section_title
;
Structure prediction by ZEFSAII (Michael W. Deem and Ramdas Pophale) SiO2 
 PCOD9026541
Probable space group: P -1
;
_chemical_formula_sum "Si O2"
_cell_formula_units_Z 14
_cell_length_a 11.722645
_cell_length_b 11.634735
_cell_length_c 12.524541
_cell_angle_alpha 141.861861
_cell_angle_beta 36.996708
_cell_angle_gamma 133.779291
_cell_volume 625.425105
_symmetry_space_group_name_H-M "P -1"
_symmetry_group_IT_number 2
_symmetry_cell_setting 'triclinic'
loop_
_space_group_symop_operation_xyz
x,y,z
-x,-y,-z
loop_
_atom_site_type_symbol
_atom_site_label
_atom_site_fract_x
_atom_site_fract_y
_atom_site_fract_z
Si Si1 0.786427 0.539280 0.223754
Si Si2 0.395318 0.233978 0.309117
Si Si3 0.532717 0.879707 0.051849
Si Si4 0.293132 0.866824 0.535626
Si Si5 0.837806 0.093806 0.125947
Si Si6 0.137316 0.236512 0.873360
Si Si7 0.325217 0.565761 0.118265
O O1 0.606539 0.367442 0.239292
O O2 0.758280 0.657547 0.438685
O O3 0.759239 0.674853 0.243926
O O4 0.000000 0.500000 0.000000
O O5 0.426415 0.050735 0.220179
O O6 0.347752 0.168937 0.175827
O O7 0.385506 0.697660 0.067084
O O8 0.666088 0.937619 0.097295
O O9 0.234664 0.785968 0.637942
O O10 0.256354 0.701049 0.356554
O O11 0.500000 0.000000 0.500000
O O12 0.176700 0.025654 0.698348
O O13 0.909631 0.206665 0.046680
O O14 0.000000 0.000000 0.000000
O O15 0.206180 0.373927 0.021262
O O16 0.500000 0.500000 0.000000
#
# Coordination Sequence:
#
# PCOD9026541 Si02
#       7
#     2   2   2   2   2   2   2
#     4  11  23  45  65 102 138 175 238 291 351 410
#     4  10  24  42  73  98 133 191 231 286 353 417
#     4  11  21  44  68 100 136 179 238 280 347 427
#     4  11  21  39  66  95 130 180 218 270 346 406
#     4  10  22  41  64  95 138 173 219 286 347 404
#     4  11  23  42  63  95 135 170 221 288 338 406
#     4  12  22  38  67  99 130 171 228 276 332 417
#
# _framework density 22.384775000000001
#
# number of rings (size 3 to 8) (size 9 to 14) (size 15 to 20)
#    0.000    1.143    4.286    2.571    0.000    0.571 
#    7.714    3.571    0.000    0.000    0.000    0.000 
#    0.000    0.000    0.000    0.000    0.000    0.000 
#
# Total GULP energy -77985.255057 kJ/mol
# GULP energy per Si atom -5570.375361 kJ/mol
# Density = 2.233383 g / cm^3
# Si number density = 22.384775 Si / 1000 Ang^3
#
#
#
# Elastic Constant Matrix: (Units=GPa)
#
#
# Indices 1 2 3 4 5 6 
#
# 1 43.1304 -13.6735 35.3623 5.5477 18.9322 -6.7888
# 2 -13.6735 78.0115 24.4743 3.0115 -2.0766 -21.1447
# 3 35.3623 24.4743 164.4379 10.6680 32.6622 -3.8082
# 4 5.5477 3.0115 10.6680 38.1701 4.9662 7.7072
# 5 18.9322 -2.0766 32.6622 4.9662 35.0180 0.0650
# 6 -6.7888 -21.1447 -3.8082 7.7072 0.0650 29.3768
#
#
#
# Elastic Compliance Matrix: (Units=1/GPa)
#
#
# Indices 1 2 3 4 5 6 
#
# 1 0.047973 0.017935 -0.008738 -0.009032 -0.015488 0.025266
# 2 0.017935 0.024296 -0.006180 -0.007187 -0.001514 0.022720
# 3 -0.008738 -0.006180 0.009646 0.000770 -0.004739 -0.005409
# 4 -0.009032 -0.007187 0.000770 0.031035 -0.000635 -0.015301
# 5 -0.015488 -0.001514 -0.004739 -0.000635 0.041360 -0.005208
# 6 0.025266 0.022720 -0.005409 -0.015301 -0.005208 0.059558
#
#
# Mechanical properties :
#
#
# Convention : Reuss Voigt Hill
#
# Bulk Modulus (GPa) = 11.37030 41.98955 26.67993
# Shear Modulus (GPa) = 21.08357 36.47410 28.77883
#
# Velocity S-wave (km/s) = 3.07232 4.04098 3.58948
# Velocity P-wave (km/s) = 4.20429 6.36958 5.39665
#
# Compressibility (1/GPa) = 0.08794839
#
# Stress axis : x y z
#
# Youngs Moduli (GPa) = 20.84505 41.15862 103.66656
#
# Poissons Ratio (x) = -0.73816 0.90588
# Poissons Ratio (y) = -0.37385 0.64064
# Poissons Ratio (z) = 0.18215 0.25435
#
# Static dielectric constant tensor:
#      x y z
#    x 1.972620 0.269380 -0.029180 
#    y 0.269380 3.059040 -0.243470 
#    z -0.029180 -0.243470 1.907350 
# 
# From -- ./inp_files/225564.got.cif
#   From: 2010.05.17/outbox.cif.g08.bks.cpg/sg2_113_cif.got.tgz:225564.got - 2010.06.03 11:33:40.
