data_PCOD9026009
_publ_section_title
;
Structure prediction by ZEFSAII (Michael W. Deem and Ramdas Pophale) SiO2 
 PCOD9026009
Probable space group: P -1
;
_chemical_formula_sum "Si O2"
_cell_formula_units_Z 14
_cell_length_a 21.206115
_cell_length_b 7.294406
_cell_length_c 5.026142
_cell_angle_alpha 98.549256
_cell_angle_beta 47.294270
_cell_angle_gamma 114.240081
_cell_volume 511.084910
_symmetry_space_group_name_H-M "P -1"
_symmetry_group_IT_number 2
_symmetry_cell_setting 'triclinic'
loop_
_space_group_symop_operation_xyz
x,y,z
-x,-y,-z
loop_
_atom_site_type_symbol
_atom_site_label
_atom_site_fract_x
_atom_site_fract_y
_atom_site_fract_z
Si Si1 0.263917 0.758492 0.452353
Si Si2 0.072589 0.839732 0.363016
Si Si3 0.310442 0.467797 0.519268
Si Si4 0.511371 0.255567 0.721500
Si Si5 0.395208 0.047378 0.539239
Si Si6 0.188697 0.027416 0.542208
Si Si7 0.872799 0.522983 0.864190
O O1 0.332413 0.646717 0.271121
O O2 0.252610 0.900193 0.292083
O O3 0.294360 0.918365 0.651146
O O4 0.163130 0.564570 0.753043
O O5 0.126865 0.014105 0.459004
O O6 0.091601 0.644504 0.371002
O O7 0.958990 0.744042 0.658598
O O8 0.116982 0.913699 0.963338
O O9 0.407211 0.518264 0.404853
O O10 0.258597 0.251838 0.481764
O O11 0.227306 0.483133 0.946615
O O12 0.437405 0.217305 0.687188
O O13 0.575020 0.127900 0.469642
O O14 0.454803 0.155222 0.128605
#
# Coordination Sequence:
#
# PCOD9026009 Si02
#       7
#     2   2   2   2   2   2   2
#     4   8  19  39  59  88 117 157 195 239 297 346
#     4  10  22  41  61  88 121 155 201 239 298 346
#     4   9  20  41  60  92 118 156 199 242 297 346
#     4   9  18  33  54  84 114 146 193 238 284 346
#     4   9  17  33  55  80 115 151 187 236 290 343
#     4  11  23  41  61  88 122 156 195 250 287 355
#     4   8  19  40  61  90 115 161 193 247 288 357
#
# _framework density 27.392709
#
# number of rings (size 3 to 8) (size 9 to 14) (size 15 to 20)
#    0.857    2.000    0.000    0.000    0.000    9.714 
#    7.714    1.429    0.000    0.000    0.000    0.000 
#    0.000    0.000    0.000    0.000    0.000    0.000 
#
# Total GULP energy -78117.810240 kJ/mol
# GULP energy per Si atom -5579.843589 kJ/mol
# Density = 2.733036 g / cm^3
# Si number density = 27.392709 Si / 1000 Ang^3
#
#
#
# Elastic Constant Matrix: (Units=GPa)
#
#
# Indices 1 2 3 4 5 6 
#
# 1 95.3172 29.1782 33.3771 -5.3267 4.6559 3.7638
# 2 29.1782 111.4062 23.8924 -16.7180 -8.4403 12.5048
# 3 33.3771 23.8924 76.1864 -11.6189 -0.0818 15.9852
# 4 -5.3267 -16.7180 -11.6189 22.3110 12.3289 -8.5744
# 5 4.6559 -8.4403 -0.0818 12.3289 43.9553 3.1891
# 6 3.7638 12.5048 15.9852 -8.5744 3.1891 44.7970
#
#
#
# Elastic Compliance Matrix: (Units=1/GPa)
#
#
# Indices 1 2 3 4 5 6 
#
# 1 0.013196 -0.002639 -0.005277 0.000246 -0.002107 0.001708
# 2 -0.002639 0.011029 -0.001084 0.006120 0.000777 -0.001354
# 3 -0.005277 -0.001084 0.017593 0.005970 -0.000978 -0.004320
# 4 0.000246 0.006120 0.005970 0.066573 -0.018252 0.010183
# 5 -0.002107 0.000777 -0.000978 -0.018252 0.028619 -0.005222
# 6 0.001708 -0.001354 -0.004320 0.010183 -0.005222 0.026420
#
#
# Mechanical properties :
#
#
# Convention : Reuss Voigt Hill
#
# Bulk Modulus (GPa) = 41.98468 50.64502 46.31485
# Shear Modulus (GPa) = 26.40337 35.31013 30.85675
#
# Velocity S-wave (km/s) = 3.10801 3.59421 3.35992
# Velocity P-wave (km/s) = 5.31412 5.97939 5.65654
#
# Compressibility (1/GPa) = 0.02381821
#
# Stress axis : x y z
#
# Youngs Moduli (GPa) = 75.78008 90.66933 56.84021
#
# Poissons Ratio (x) = 0.23927 0.29993
# Poissons Ratio (y) = 0.19998 0.06164
# Poissons Ratio (z) = 0.39987 0.09833
#
# Static dielectric constant tensor:
#      x y z
#    x 2.155090 -0.010460 -0.062480 
#    y -0.010460 2.237680 0.057100 
#    z -0.062480 0.057100 2.231980 
# 
# From -- ./inp_files/122262.got.cif
#   From: 2010.05.17/outbox.cif.g08.bks.cpg/sg2_62_cif.got.tgz:122262.got - 2010.06.03 11:33:40.
