data_PCOD9026814
_publ_section_title
;
Structure prediction by ZEFSAII (Michael W. Deem and Ramdas Pophale) SiO2 
 PCOD9026814
Probable space group: P -1
;
_chemical_formula_sum "Si O2"
_cell_formula_units_Z 15
_cell_length_a 11.547725
_cell_length_b 8.343352
_cell_length_c 12.049971
_cell_angle_alpha 121.328184
_cell_angle_beta 141.443797
_cell_angle_gamma 77.140889
_cell_volume 580.011898
_symmetry_space_group_name_H-M "P -1"
_symmetry_group_IT_number 2
_symmetry_cell_setting 'triclinic'
loop_
_space_group_symop_operation_xyz
x,y,z
-x,-y,-z
loop_
_atom_site_type_symbol
_atom_site_label
_atom_site_fract_x
_atom_site_fract_y
_atom_site_fract_z
Si Si1 0.754312 0.313683 0.477075
Si Si2 0.670033 0.329186 0.881255
Si Si3 0.033051 0.861758 0.069383
Si Si4 0.728780 0.026094 0.162056
Si Si5 0.605023 0.589646 0.728489
Si Si6 0.000000 0.000000 0.500000
Si Si7 0.073733 0.618384 0.712783
Si Si8 0.258811 0.010653 0.501080
O O1 0.832185 0.172495 0.402709
O O2 0.523688 0.277694 0.278183
O O3 0.876855 0.537129 0.612654
O O4 0.778160 0.222152 0.579225
O O5 0.838480 0.263257 0.926487
O O6 0.596806 0.442364 0.770913
O O7 0.488722 0.133137 0.709285
O O8 0.767310 0.430338 0.106787
O O9 0.159968 0.009351 0.310596
O O10 0.827629 0.717620 0.912426
O O11 0.000000 0.000000 0.000000
O O12 0.816608 0.155120 0.165753
O O13 0.830955 0.872237 0.222386
O O14 0.500000 0.000000 0.000000
O O15 0.500000 0.500000 0.500000
O O16 0.161834 0.100226 0.556648
O O17 0.000000 0.500000 0.500000
#
# Coordination Sequence:
#
# PCOD9026814 Si02
#       8
#     2   2   2   2   2   1   2   2
#     4  10  22  42  64  96 134 177 223 288 345 410
#     4  12  25  44  71 104 140 186 236 291 359 427
#     4  12  26  43  71 102 140 185 233 294 356 423
#     4  10  22  41  65  97 135 183 229 292 347 421
#     4  12  25  43  69 102 140 183 233 289 355 424
#     4  10  24  38  70  96 140 178 234 284 360 406
#     4  10  22  42  66  94 139 182 230 283 346 416
#     4  11  24  45  69 103 139 181 241 289 354 431
#
# _framework density 25.861537999999999
#
# number of rings (size 3 to 8) (size 9 to 14) (size 15 to 20)
#    0.000    1.067    0.000    6.400    5.600    0.000 
#    0.000    1.333    0.000    0.000    0.000    0.000 
#    0.000    0.000    0.000    0.000    0.000    0.000 
#
# Total GULP energy -83687.355066 kJ/mol
# GULP energy per Si atom -5579.157004 kJ/mol
# Density = 2.580268 g / cm^3
# Si number density = 25.861538 Si / 1000 Ang^3
#
#
#
# Elastic Constant Matrix: (Units=GPa)
#
#
# Indices 1 2 3 4 5 6 
#
# 1 124.6497 40.9869 58.0700 -1.8163 14.8698 11.6617
# 2 40.9869 142.6667 42.6401 -33.2199 -4.7451 25.8572
# 3 58.0700 42.6401 152.4440 -21.6448 11.5450 21.3674
# 4 -1.8163 -33.2199 -21.6448 50.7071 12.6203 -2.1069
# 5 14.8698 -4.7451 11.5450 12.6203 65.4394 -0.6977
# 6 11.6617 25.8572 21.3674 -2.1069 -0.6977 48.1840
#
#
#
# Elastic Compliance Matrix: (Units=1/GPa)
#
#
# Indices 1 2 3 4 5 6 
#
# 1 0.010704 -0.002695 -0.003617 -0.002540 -0.001496 0.000327
# 2 -0.002695 0.010113 -0.000329 0.006165 0.000168 -0.004357
# 3 -0.003617 -0.000329 0.009086 0.003806 -0.001569 -0.002834
# 4 -0.002540 0.006165 0.003806 0.026342 -0.004763 -0.003299
# 5 -0.001496 0.000168 -0.001569 -0.004763 0.016840 0.001003
# 6 0.000327 -0.004357 -0.002834 -0.003299 0.001003 0.024140
#
#
# Mechanical properties :
#
#
# Convention : Reuss Voigt Hill
#
# Bulk Modulus (GPa) = 60.16024 78.12826 69.14425
# Shear Modulus (GPa) = 43.08630 51.40367 47.24498
#
# Velocity S-wave (km/s) = 4.08614 4.46314 4.27880
# Velocity P-wave (km/s) = 6.75093 7.53892 7.15578
#
# Compressibility (1/GPa) = 0.01662227
#
# Stress axis : x y z
#
# Youngs Moduli (GPa) = 93.41879 98.88673 110.05913
#
# Poissons Ratio (x) = 0.26646 0.39808
# Poissons Ratio (y) = 0.25173 0.03619
# Poissons Ratio (z) = 0.33789 0.03251
#
# Static dielectric constant tensor:
#      x y z
#    x 1.972350 0.304920 -0.305810 
#    y 0.304920 0.816610 0.662170 
#    z -0.305810 0.662170 1.887530 
# 
# From -- ./inp_files/417966.got.cif
#   From: 2010.05.17/outbox.cif.g08.bks.cpg/sg2_209_cif.got.tgz:417966.got - 2010.06.03 11:33:40.
