data_PCOD9026200
_publ_section_title
;
Structure prediction by ZEFSAII (Michael W. Deem and Ramdas Pophale) SiO2 
 PCOD9026200
Probable space group: P -1
;
_chemical_formula_sum "Si O2"
_cell_formula_units_Z 16
_cell_length_a 13.721127
_cell_length_b 11.364949
_cell_length_c 7.963200
_cell_angle_alpha 118.902270
_cell_angle_beta 90.597902
_cell_angle_gamma 126.292502
_cell_volume 795.098913
_symmetry_space_group_name_H-M "P -1"
_symmetry_group_IT_number 2
_symmetry_cell_setting 'triclinic'
loop_
_space_group_symop_operation_xyz
x,y,z
-x,-y,-z
loop_
_atom_site_type_symbol
_atom_site_label
_atom_site_fract_x
_atom_site_fract_y
_atom_site_fract_z
Si Si1 0.909876 0.591858 0.061411
Si Si2 0.400242 0.280952 0.835016
Si Si3 0.442513 0.168603 0.088949
Si Si4 0.183427 0.760086 0.307226
Si Si5 0.449654 0.123225 0.432800
Si Si6 0.146951 0.197572 0.655258
Si Si7 0.696904 0.195037 0.347004
Si Si8 0.759309 0.466835 0.292069
O O1 0.858137 0.694694 0.121475
O O2 0.838805 0.470962 0.146385
O O3 0.065957 0.733598 0.201674
O O4 0.865936 0.440581 0.824707
O O5 0.460000 0.226842 0.669009
O O6 0.260524 0.197735 0.696434
O O7 0.500000 0.500000 0.000000
O O8 0.384395 0.212230 0.976787
O O9 0.431171 0.186142 0.299564
O O10 0.600817 0.316114 0.155648
O O11 0.373195 0.960629 0.904358
O O12 0.217743 0.821431 0.543455
O O13 0.318331 0.911349 0.313130
O O14 0.577872 0.150150 0.422754
O O15 0.188346 0.330781 0.588205
O O16 0.000000 0.000000 0.500000
O O17 0.777383 0.394245 0.406249
#
# Coordination Sequence:
#
# PCOD9026200 Si02
#       8
#     2   2   2   2   2   2   2   2
#     4   9  21  37  60  82 125 164 209 258 314 366
#     4  12  24  41  66  93 125 178 221 250 310 388
#     4  11  22  41  64 101 125 162 207 272 323 375
#     4  11  20  36  61  96 119 165 206 257 330 382
#     4  11  24  38  64  95 135 155 205 271 323 368
#     4  10  22  41  63  84 129 177 213 255 315 376
#     4  11  22  36  67  96 128 156 209 263 339 373
#     4   9  20  39  58  88 124 162 204 262 313 369
#
# _framework density 20.123283000000001
#
# number of rings (size 3 to 8) (size 9 to 14) (size 15 to 20)
#    0.750    0.750    2.500    4.125    3.500    1.000 
#    0.000    2.500    0.000    2.250    0.000    0.000 
#    0.000    0.000    0.000    0.000    0.000    0.000 
#
# Total GULP energy -89136.604939 kJ/mol
# GULP energy per Si atom -5571.037809 kJ/mol
# Density = 2.007748 g / cm^3
# Si number density = 20.123283 Si / 1000 Ang^3
#
#
#
# Elastic Constant Matrix: (Units=GPa)
#
#
# Indices 1 2 3 4 5 6 
#
# 1 18.3804 10.8114 -0.4451 3.2193 -1.0806 -6.3618
# 2 10.8114 107.7729 19.2191 2.8240 24.3471 -13.5341
# 3 -0.4451 19.2191 58.1623 4.3200 5.2504 3.5686
# 4 3.2193 2.8240 4.3200 30.7461 -1.6615 3.1144
# 5 -1.0806 24.3471 5.2504 -1.6615 22.2916 3.4957
# 6 -6.3618 -13.5341 3.5686 3.1144 3.4957 24.2211
#
#
#
# Elastic Compliance Matrix: (Units=1/GPa)
#
#
# Indices 1 2 3 4 5 6 
#
# 1 0.064524 -0.006670 0.001781 -0.007290 0.007439 0.012822
# 2 -0.006670 0.016552 -0.004286 -0.002402 -0.019332 0.011228
# 3 0.001781 -0.004286 0.018971 -0.001945 0.000875 -0.004598
# 4 -0.007290 -0.002402 -0.001945 0.034996 0.006658 -0.008431
# 5 0.007439 -0.019332 0.000875 0.006658 0.069746 -0.019900
# 6 0.012822 0.011228 -0.004598 -0.008431 -0.019900 0.055561
#
#
# Mechanical properties :
#
#
# Convention : Reuss Voigt Hill
#
# Bulk Modulus (GPa) = 12.24023 27.05405 19.64714
# Shear Modulus (GPa) = 16.34348 25.76710 21.05529
#
# Velocity S-wave (km/s) = 2.85295 3.58224 3.23819
# Velocity P-wave (km/s) = 4.11682 5.53021 4.87501
#
# Compressibility (1/GPa) = 0.08169784
#
# Stress axis : x y z
#
# Youngs Moduli (GPa) = 15.49809 60.41410 52.71269
#
# Poissons Ratio (x) = 0.40295 -0.09388
# Poissons Ratio (y) = 0.10337 0.22593
# Poissons Ratio (z) = -0.02760 0.25893
#
# Static dielectric constant tensor:
#      x y z
#    x 1.720580 -0.028780 0.003580 
#    y -0.028780 1.720030 -0.003810 
#    z 0.003580 -0.003810 1.753160 
# 
# From -- ./inp_files/305723.got.cif
#   From: 2010.05.17/outbox.cif.g08.bks.cpg/sg2_153_cif.got.tgz:305723.got - 2010.06.03 11:33:40.
