data_PCOD9026740
_publ_section_title
;
Structure prediction by ZEFSAII (Michael W. Deem and Ramdas Pophale) SiO2 
 PCOD9026740
Probable space group: P -1
;
_chemical_formula_sum "Si O2"
_cell_formula_units_Z 16
_cell_length_a 25.355837
_cell_length_b 8.283212
_cell_length_c 5.894013
_cell_angle_alpha 116.046902
_cell_angle_beta 89.742916
_cell_angle_gamma 44.789250
_cell_volume 678.808899
_symmetry_space_group_name_H-M "P -1"
_symmetry_group_IT_number 2
_symmetry_cell_setting 'triclinic'
loop_
_space_group_symop_operation_xyz
x,y,z
-x,-y,-z
loop_
_atom_site_type_symbol
_atom_site_label
_atom_site_fract_x
_atom_site_fract_y
_atom_site_fract_z
Si Si1 0.435256 0.834231 0.763317
Si Si2 0.663642 0.108582 0.838915
Si Si3 0.543566 0.714731 0.019888
Si Si4 0.812447 0.789299 0.349099
Si Si5 0.744936 0.192503 0.209897
Si Si6 0.623819 0.782038 0.356618
Si Si7 0.903625 0.833306 0.692148
Si Si8 0.049935 0.879666 0.178275
O O1 0.500000 0.500000 0.500000
O O2 0.373549 0.044655 0.683388
O O3 0.375884 0.941884 0.042015
O O4 0.502023 0.810688 0.830122
O O5 0.751141 0.832610 0.533502
O O6 0.587328 0.404482 0.878737
O O7 0.695246 0.181663 0.050761
O O8 0.614040 0.666986 0.075908
O O9 0.464276 0.958821 0.343204
O O10 0.860704 0.816851 0.500195
O O11 0.748473 0.079984 0.375554
O O12 0.881190 0.469780 0.037727
O O13 0.694991 0.512039 0.357425
O O14 0.843796 0.959124 0.989874
O O15 0.000000 0.500000 0.500000
O O16 0.907783 0.034987 0.768902
O O17 0.000000 0.000000 0.500000
O O18 0.000000 0.000000 0.000000
#
# Coordination Sequence:
#
# PCOD9026740 Si02
#       8
#     2   2   2   2   2   2   2   2
#     4  12  24  39  70  99 137 189 242 310 370 437
#     4  10  24  42  67 104 143 189 247 303 383 442
#     4  10  22  41  65  94 135 186 242 295 366 444
#     4  11  26  48  78 104 154 201 245 320 381 459
#     4  10  25  45  69 103 144 195 239 309 381 448
#     4  10  23  43  65 100 135 184 247 296 368 443
#     4  11  24  48  78 111 149 193 252 303 389 456
#     4  12  28  49  81 121 154 196 260 316 384 470
#
# _framework density 23.570696999999999
#
# number of rings (size 3 to 8) (size 9 to 14) (size 15 to 20)
#    0.000    1.250    2.500    1.500    5.250    6.000 
#    0.000    0.000    0.000    0.000    0.000    0.000 
#    0.000    0.000    0.000    0.000    0.000    0.000 
#
# Total GULP energy -89294.737815 kJ/mol
# GULP energy per Si atom -5580.921113 kJ/mol
# Density = 2.351705 g / cm^3
# Si number density = 23.570697 Si / 1000 Ang^3
#
#
#
# Elastic Constant Matrix: (Units=GPa)
#
#
# Indices 1 2 3 4 5 6 
#
# 1 112.2987 16.3151 40.7635 -0.0861 7.8367 6.4282
# 2 16.3151 135.5339 37.1415 6.1944 -7.9111 4.4074
# 3 40.7635 37.1415 119.9585 15.1661 0.5172 3.6849
# 4 -0.0861 6.1944 15.1661 32.7993 1.7688 2.8805
# 5 7.8367 -7.9111 0.5172 1.7688 44.5087 -3.1558
# 6 6.4282 4.4074 3.6849 2.8805 -3.1558 37.0549
#
#
#
# Elastic Compliance Matrix: (Units=1/GPa)
#
#
# Indices 1 2 3 4 5 6 
#
# 1 0.010539 -0.000429 -0.003646 0.002062 -0.002096 -0.001753
# 2 -0.000429 0.008195 -0.002318 -0.000517 0.001544 -0.000498
# 3 -0.003646 -0.002318 0.010871 -0.004633 0.000303 0.000213
# 4 0.002062 -0.000517 -0.004633 0.033062 -0.001897 -0.002567
# 5 -0.002096 0.001544 0.000303 -0.001897 0.023345 0.002285
# 6 -0.001753 -0.000498 0.000213 -0.002567 0.002285 0.027723
#
#
# Mechanical properties :
#
#
# Convention : Reuss Voigt Hill
#
# Bulk Modulus (GPa) = 59.45620 61.80347 60.62984
# Shear Modulus (GPa) = 37.84256 41.11064 39.47660
#
# Velocity S-wave (km/s) = 4.01121 4.18082 4.09689
# Velocity P-wave (km/s) = 6.83611 7.04153 6.93958
#
# Compressibility (1/GPa) = 0.01681910
#
# Stress axis : x y z
#
# Youngs Moduli (GPa) = 94.88677 122.02677 91.98999
#
# Poissons Ratio (x) = 0.05235 0.33541
# Poissons Ratio (y) = 0.04070 0.21319
# Poissons Ratio (z) = 0.34597 0.28281
#
# Static dielectric constant tensor:
#      x y z
#    x 2.035380 -0.013980 0.068430 
#    y -0.013980 1.974570 -0.026850 
#    z 0.068430 -0.026850 1.916890 
# 
# From -- ./inp_files/126523.got.cif
#   From: 2010.05.17/outbox.cif.g08.bks.cpg/sg2_64_cif.got.tgz:126523.got - 2010.06.03 11:33:40.
