data_PCOD9026071
_publ_section_title
;
Structure prediction by ZEFSAII (Michael W. Deem and Ramdas Pophale) SiO2 
 PCOD9026071
Probable space group: P -1
;
_chemical_formula_sum "Si O2"
_cell_formula_units_Z 14
_cell_length_a 12.381094
_cell_length_b 6.385820
_cell_length_c 17.050564
_cell_angle_alpha 97.655540
_cell_angle_beta 35.189102
_cell_angle_gamma 114.773994
_cell_volume 646.511020
_symmetry_space_group_name_H-M "P -1"
_symmetry_group_IT_number 2
_symmetry_cell_setting 'triclinic'
loop_
_space_group_symop_operation_xyz
x,y,z
-x,-y,-z
loop_
_atom_site_type_symbol
_atom_site_label
_atom_site_fract_x
_atom_site_fract_y
_atom_site_fract_z
Si Si1 0.587783 0.246294 0.714080
Si Si2 0.833587 0.573035 0.781512
Si Si3 0.368782 0.151164 0.993386
Si Si4 0.354948 0.891163 0.692953
Si Si5 0.006066 0.384511 0.795632
Si Si6 0.321810 0.203899 0.591126
Si Si7 0.020054 0.248157 0.475916
O O1 0.432580 0.256584 0.872282
O O2 0.778075 0.203727 0.632922
O O3 0.768625 0.527448 0.589840
O O4 0.423219 0.027697 0.742198
O O5 0.613901 0.291478 0.892705
O O6 0.003035 0.543627 0.732613
O O7 0.921748 0.683921 0.647860
O O8 0.754664 0.734418 0.882311
O O9 0.239842 0.849567 0.048115
O O10 0.579478 0.905896 0.532926
O O11 0.152957 0.599064 0.784774
O O12 0.307671 0.062333 0.672719
O O13 0.110994 0.222194 0.702323
O O14 0.500000 0.500000 0.500000
O O15 0.000000 0.000000 0.500000
#
# Coordination Sequence:
#
# PCOD9026071 Si02
#       7
#     2   2   2   2   2   2   2
#     4  10  24  43  62  95 134 164 213 269 318 382
#     4  10  23  43  68  93 129 166 224 266 308 394
#     4  10  23  42  64  95 127 176 211 263 323 378
#     4  10  22  41  61  97 133 165 216 265 314 388
#     4  11  22  39  66  97 126 171 220 259 322 378
#     4   9  21  38  61  94 126 169 217 257 316 375
#     4  10  24  44  66  94 125 170 215 269 325 370
#
# _framework density 21.654696000000001
#
# number of rings (size 3 to 8) (size 9 to 14) (size 15 to 20)
#    0.000    2.000    0.000    1.286    8.000    9.714 
#    0.000    2.857    0.000    0.000    0.000    0.000 
#    0.000    0.000    0.000    0.000    0.000    0.000 
#
# Total GULP energy -77955.774769 kJ/mol
# GULP energy per Si atom -5568.269626 kJ/mol
# Density = 2.160541 g / cm^3
# Si number density = 21.654696 Si / 1000 Ang^3
#
#
#
# Elastic Constant Matrix: (Units=GPa)
#
#
# Indices 1 2 3 4 5 6 
#
# 1 66.5052 47.3105 26.8805 1.2214 -8.0064 17.8517
# 2 47.3105 118.3070 43.1507 -23.5269 -8.7031 14.4286
# 3 26.8805 43.1507 60.3832 -7.7464 -2.2498 15.3040
# 4 1.2214 -23.5269 -7.7464 55.9983 14.7506 -8.5859
# 5 -8.0064 -8.7031 -2.2498 14.7506 16.8425 -5.1164
# 6 17.8517 14.4286 15.3040 -8.5859 -5.1164 48.9937
#
#
#
# Elastic Compliance Matrix: (Units=1/GPa)
#
#
# Indices 1 2 3 4 5 6 
#
# 1 0.026967 -0.009287 -0.004601 -0.009760 0.014166 -0.005885
# 2 -0.009287 0.015523 -0.006643 0.006786 -0.002679 0.001797
# 3 -0.004601 -0.006643 0.024426 0.001295 -0.004788 -0.004270
# 4 -0.009760 0.006786 0.001295 0.028092 -0.024494 0.003518
# 5 0.014166 -0.002679 -0.004788 -0.024494 0.086089 0.001821
# 6 -0.005885 0.001797 -0.004270 0.003518 0.001821 0.024166
#
#
# Mechanical properties :
#
#
# Convention : Reuss Voigt Hill
#
# Bulk Modulus (GPa) = 38.67904 53.31986 45.99945
# Shear Modulus (GPa) = 19.61212 32.89050 26.25131
#
# Velocity S-wave (km/s) = 3.01271 3.90149 3.48554
# Velocity P-wave (km/s) = 5.47744 6.70609 6.12267
#
# Compressibility (1/GPa) = 0.02585379
#
# Stress axis : x y z
#
# Youngs Moduli (GPa) = 37.08248 64.42146 40.93934
#
# Poissons Ratio (x) = 0.59828 0.18836
# Poissons Ratio (y) = 0.34439 0.27197
# Poissons Ratio (z) = 0.17061 0.42796
#
# Static dielectric constant tensor:
#      x y z
#    x 1.827850 0.043600 -0.049410 
#    y 0.043600 1.798080 -0.018620 
#    z -0.049410 -0.018620 1.935300 
# 
# From -- ./inp_files/564156.got.cif
#   From: 2010.05.17/outbox.cif.g08.bks.cpg/sg2_283_cif.got.tgz:564156.got - 2010.06.03 11:33:40.
