data_PCOD9026491
_publ_section_title
;
Structure prediction by ZEFSAII (Michael W. Deem and Ramdas Pophale) SiO2 
 PCOD9026491
Probable space group: P -1
;
_chemical_formula_sum "Si O2"
_cell_formula_units_Z 16
_cell_length_a 8.220262
_cell_length_b 5.119068
_cell_length_c 19.315357
_cell_angle_alpha 111.629063
_cell_angle_beta 115.144108
_cell_angle_gamma 68.849591
_cell_volume 663.523721
_symmetry_space_group_name_H-M "P -1"
_symmetry_group_IT_number 2
_symmetry_cell_setting 'triclinic'
loop_
_space_group_symop_operation_xyz
x,y,z
-x,-y,-z
loop_
_atom_site_type_symbol
_atom_site_label
_atom_site_fract_x
_atom_site_fract_y
_atom_site_fract_z
Si Si1 0.251611 0.538147 0.350105
Si Si2 0.803399 0.229855 0.481558
Si Si3 0.922170 0.725652 0.199058
Si Si4 0.539333 0.663560 0.165995
Si Si5 0.415268 0.201309 0.570945
Si Si6 0.434468 0.111505 0.073437
Si Si7 0.935991 0.743697 0.923470
Si Si8 0.779644 0.990718 0.774355
O O1 0.229900 0.638956 0.434463
O O2 0.070928 0.639165 0.279910
O O3 0.421859 0.651753 0.362257
O O4 0.280467 0.197233 0.314433
O O5 0.751728 0.517826 0.452866
O O6 0.666249 0.021254 0.420508
O O7 0.000000 0.000000 0.500000
O O8 0.911219 0.516043 0.109541
O O9 0.022217 0.950676 0.202464
O O10 0.729453 0.765316 0.208003
O O11 0.568530 0.319025 0.137299
O O12 0.397192 0.759145 0.212590
O O13 0.446330 0.829805 0.095922
O O14 0.500000 0.000000 0.500000
O O15 0.224337 0.315401 0.060805
O O16 0.500000 0.000000 0.000000
O O17 0.821205 0.828490 0.839615
O O18 0.000000 0.000000 0.000000
#
# Coordination Sequence:
#
# PCOD9026491 Si02
#       8
#     2   2   2   2   2   2   2   2
#     4  10  24  42  67  97 133 182 228 276 352 421
#     4  11  24  44  70 108 143 178 237 291 345 423
#     4  11  24  42  67  95 134 180 231 286 345 423
#     4  11  25  44  63  93 132 171 225 284 344 416
#     4  10  22  43  70  98 137 185 224 283 349 414
#     4  11  23  42  64  95 128 169 224 288 351 418
#     4  10  22  41  64  93 130 178 229 289 350 412
#     4  10  24  44  63  95 136 178 230 286 350 420
#
# _framework density 24.113679999999999
#
# number of rings (size 3 to 8) (size 9 to 14) (size 15 to 20)
#    0.000    1.500    1.250    3.000   10.500    2.500 
#    2.250    0.000    0.000    0.000    0.000    0.000 
#    0.000    0.000    0.000    0.000    0.000    0.000 
#
# Total GULP energy -89144.063206 kJ/mol
# GULP energy per Si atom -5571.503950 kJ/mol
# Density = 2.405880 g / cm^3
# Si number density = 24.113680 Si / 1000 Ang^3
#
#
#
# Elastic Constant Matrix: (Units=GPa)
#
#
# Indices 1 2 3 4 5 6 
#
# 1 90.0382 7.8405 25.8485 18.5631 23.3065 1.6155
# 2 7.8405 81.7897 17.8030 19.1664 -2.9314 10.4923
# 3 25.8485 17.8030 88.0857 27.7272 6.6594 1.5231
# 4 18.5631 19.1664 27.7272 39.6743 12.7689 7.8771
# 5 23.3065 -2.9314 6.6594 12.7689 32.4924 -5.1107
# 6 1.6155 10.4923 1.5231 7.8771 -5.1107 33.0712
#
#
#
# Elastic Compliance Matrix: (Units=1/GPa)
#
#
# Indices 1 2 3 4 5 6 
#
# 1 0.014875 -0.000675 -0.003173 -0.000854 -0.010014 -0.001711
# 2 -0.000675 0.014581 -0.000788 -0.007178 0.004442 -0.002161
# 3 -0.003173 -0.000788 0.015483 -0.010696 0.003677 0.002808
# 4 -0.000854 -0.007178 -0.010696 0.043968 -0.016733 -0.010247
# 5 -0.010014 0.004442 0.003677 -0.016733 0.045750 0.009966
# 6 -0.001711 -0.002161 0.002808 -0.010247 0.009966 0.034858
#
#
# Mechanical properties :
#
#
# Convention : Reuss Voigt Hill
#
# Bulk Modulus (GPa) = 28.03638 40.32194 34.17916
# Shear Modulus (GPa) = 26.22243 34.94236 30.58239
#
# Velocity S-wave (km/s) = 3.30123 3.81079 3.56513
# Velocity P-wave (km/s) = 5.11691 6.01005 5.58138
#
# Compressibility (1/GPa) = 0.03566794
#
# Stress axis : x y z
#
# Youngs Moduli (GPa) = 67.22731 68.58139 64.58505
#
# Poissons Ratio (x) = 0.04627 0.20495
# Poissons Ratio (y) = 0.04535 0.05089
# Poissons Ratio (z) = 0.21333 0.05404
#
# Static dielectric constant tensor:
#      x y z
#    x 2.082280 -0.144160 0.030370 
#    y -0.144160 2.249160 -0.068640 
#    z 0.030370 -0.068640 1.906050 
# 
# From -- ./inp_files/351062.got.cif
#   From: 2010.05.17/outbox.cif.g08.bks.cpg/sg2_176_cif.got.tgz:351062.got - 2010.06.03 11:33:40.
