data_PCOD9026311
_publ_section_title
;
Structure prediction by ZEFSAII (Michael W. Deem and Ramdas Pophale) SiO2 
 PCOD9026311
Probable space group: P -1
;
_chemical_formula_sum "Si O2"
_cell_formula_units_Z 12
_cell_length_a 6.715457
_cell_length_b 13.214254
_cell_length_c 10.098864
_cell_angle_alpha 40.007692
_cell_angle_beta 63.772711
_cell_angle_gamma 77.970997
_cell_volume 503.502954
_symmetry_space_group_name_H-M "P -1"
_symmetry_group_IT_number 2
_symmetry_cell_setting 'triclinic'
loop_
_space_group_symop_operation_xyz
x,y,z
-x,-y,-z
loop_
_atom_site_type_symbol
_atom_site_label
_atom_site_fract_x
_atom_site_fract_y
_atom_site_fract_z
Si Si1 0.881398 0.604548 0.785227
Si Si2 0.053913 0.066775 0.063402
Si Si3 0.987971 0.401485 0.735905
Si Si4 0.734994 0.104281 0.612245
Si Si5 0.460571 0.676716 0.695725
Si Si6 0.607141 0.139206 0.204318
O O1 0.029687 0.510349 0.745781
O O2 0.701316 0.640604 0.694349
O O3 0.032473 0.772092 0.626378
O O4 0.734141 0.485944 0.055595
O O5 0.810922 0.043133 0.235865
O O6 0.213057 0.969912 0.189946
O O7 0.130017 0.261540 0.839087
O O8 0.000000 0.000000 0.000000
O O9 0.000000 0.500000 0.500000
O O10 0.726981 0.297177 0.928173
O O11 0.563573 0.225723 0.527808
O O12 0.621335 0.954236 0.704221
O O13 0.422514 0.796326 0.706375
#
# Coordination Sequence:
#
# PCOD9026311 Si02
#       6
#     2   2   2   2   2   2
#     4  10  22  41  63  95 130 168 207 260 313 375
#     4  10  23  42  64  90 128 165 212 264 309 371
#     4   9  20  45  63  84 129 168 205 265 314 365
#     4  12  22  39  68  97 124 170 212 258 319 375
#     4  10  22  42  64  95 134 165 208 258 315 383
#     4   9  23  40  63  98 123 164 211 262 312 372
#
# _framework density 23.833027000000001
#
# number of rings (size 3 to 8) (size 9 to 14) (size 15 to 20)
#    1.000    1.000    0.000    3.000    0.000    3.333 
#    9.000    0.833    0.000    0.000    0.000    0.000 
#    0.000    0.000    0.000    0.000    0.000    0.000 
#
# Total GULP energy -66975.780523 kJ/mol
# GULP energy per Si atom -5581.315044 kJ/mol
# Density = 2.377878 g / cm^3
# Si number density = 23.833027 Si / 1000 Ang^3
#
#
#
# Elastic Constant Matrix: (Units=GPa)
#
#
# Indices 1 2 3 4 5 6 
#
# 1 112.0937 37.3307 62.9290 -16.8570 28.5224 21.7510
# 2 37.3307 83.4225 27.4372 -12.0787 0.9532 -0.8612
# 3 62.9290 27.4372 144.5730 -15.2106 23.3895 20.0731
# 4 -16.8570 -12.0787 -15.2106 23.6109 4.3421 -7.0578
# 5 28.5224 0.9532 23.3895 4.3421 65.3673 -17.7628
# 6 21.7510 -0.8612 20.0731 -7.0578 -17.7628 34.4225
#
#
#
# Elastic Compliance Matrix: (Units=1/GPa)
#
#
# Indices 1 2 3 4 5 6 
#
# 1 0.020229 -0.007395 -0.002259 0.006505 -0.012964 -0.017006
# 2 -0.007395 0.016521 -0.001930 0.003837 0.006191 0.010193
# 3 -0.002259 -0.001930 0.010181 0.002909 -0.004535 -0.006302
# 4 0.006505 0.003837 0.002909 0.052557 -0.007037 0.001434
# 5 -0.012964 0.006191 -0.004535 -0.007037 0.029716 0.024882
# 6 -0.017006 0.010193 -0.006302 0.001434 0.024882 0.056860
#
#
# Mechanical properties :
#
#
# Convention : Reuss Voigt Hill
#
# Bulk Modulus (GPa) = 42.08034 66.16478 54.12256
# Shear Modulus (GPa) = 23.02535 38.83963 30.93249
#
# Velocity S-wave (km/s) = 3.11160 4.04128 3.60652
# Velocity P-wave (km/s) = 5.53210 7.04258 6.33254
#
# Compressibility (1/GPa) = 0.02376407
#
# Stress axis : x y z
#
# Youngs Moduli (GPa) = 49.43503 60.52891 98.22221
#
# Poissons Ratio (x) = 0.44760 0.22186
# Poissons Ratio (y) = 0.36556 0.18954
# Poissons Ratio (z) = 0.11166 0.11680
#
# Static dielectric constant tensor:
#      x y z
#    x 1.960870 -0.038530 -0.001990 
#    y -0.038530 1.890430 -0.045120 
#    z -0.001990 -0.045120 1.981790 
# 
# From -- ./inp_files/365544.got.cif
#   From: 2010.05.17/outbox.cif.g08.bks.cpg/sg2_183_cif.got.tgz:365544.got - 2010.06.03 11:33:40.
