data_PCOD9026947
_publ_section_title
;
Structure prediction by ZEFSAII (Michael W. Deem and Ramdas Pophale) SiO2 
 PCOD9026947
Probable space group: P -1
;
_chemical_formula_sum "Si O2"
_cell_formula_units_Z 12
_cell_length_a 7.191246
_cell_length_b 7.040257
_cell_length_c 10.376205
_cell_angle_alpha 78.206414
_cell_angle_beta 122.317449
_cell_angle_gamma 95.178380
_cell_volume 434.468341
_symmetry_space_group_name_H-M "P -1"
_symmetry_group_IT_number 2
_symmetry_cell_setting 'triclinic'
loop_
_space_group_symop_operation_xyz
x,y,z
-x,-y,-z
loop_
_atom_site_type_symbol
_atom_site_label
_atom_site_fract_x
_atom_site_fract_y
_atom_site_fract_z
Si Si1 0.310193 0.460761 0.828647
Si Si2 0.190746 0.045980 0.871965
Si Si3 0.624487 0.703671 0.520566
Si Si4 0.865590 0.508165 0.821877
Si Si5 0.914041 0.202415 0.376316
Si Si6 0.300764 0.897490 0.207274
O O1 0.304112 0.232648 0.825144
O O2 0.278144 0.635257 0.687699
O O3 0.067257 0.476318 0.802601
O O4 0.500000 0.500000 0.000000
O O5 0.935512 0.073479 0.815936
O O6 0.175944 0.874566 0.785873
O O7 0.305916 0.013078 0.059295
O O8 0.500000 0.500000 0.500000
O O9 0.726452 0.699713 0.704239
O O10 0.488909 0.884117 0.387201
O O11 0.854099 0.690364 0.532240
O O12 0.705407 0.329827 0.803016
O O13 0.000000 0.500000 0.000000
O O14 0.000000 0.000000 0.500000
#
# Coordination Sequence:
#
# PCOD9026947 Si02
#       6
#     2   2   2   2   2   2
#     4  10  23  42  62  93 129 168 219 259 319 395
#     4  10  22  41  66  91 132 167 211 270 322 382
#     4   9  19  37  62  92 125 161 216 268 310 377
#     4   9  17  36  61  91 126 161 207 269 320 372
#     4  11  25  44  63  92 136 174 209 264 330 388
#     4   9  18  36  63  93 119 161 215 265 317 376
#
# _framework density 27.619965000000001
#
# number of rings (size 3 to 8) (size 9 to 14) (size 15 to 20)
#    0.000    2.333    0.000    3.000    2.333    2.000 
#    9.000    0.000    0.000    0.000    0.000    0.000 
#    0.000    0.000    0.000    0.000    0.000    0.000 
#
# Total GULP energy -66838.407378 kJ/mol
# GULP energy per Si atom -5569.867282 kJ/mol
# Density = 2.755710 g / cm^3
# Si number density = 27.619965 Si / 1000 Ang^3
#
#
#
# Elastic Constant Matrix: (Units=GPa)
#
#
# Indices 1 2 3 4 5 6 
#
# 1 85.7497 24.9691 38.2346 -7.3702 30.1139 10.3479
# 2 24.9691 142.0849 37.3588 0.9959 16.8255 18.1163
# 3 38.2346 37.3588 218.4590 -32.6094 29.0858 -12.1525
# 4 -7.3702 0.9959 -32.6094 50.4851 -9.3389 8.9751
# 5 30.1139 16.8255 29.0858 -9.3389 40.4659 2.0276
# 6 10.3479 18.1163 -12.1525 8.9751 2.0276 35.7945
#
#
#
# Elastic Compliance Matrix: (Units=1/GPa)
#
#
# Indices 1 2 3 4 5 6 
#
# 1 0.016985 -0.000688 -0.001621 0.000239 -0.010905 -0.004554
# 2 -0.000688 0.008286 -0.001390 -0.000774 -0.001904 -0.004165
# 3 -0.001621 -0.001390 0.005920 0.002792 -0.001957 0.002593
# 4 0.000239 -0.000774 0.002792 0.023197 0.003729 -0.004757
# 5 -0.010905 -0.001904 -0.001957 0.003729 0.035862 0.000485
# 6 -0.004554 -0.004165 0.002593 -0.004757 0.000485 0.033408
#
#
# Mechanical properties :
#
#
# Convention : Reuss Voigt Hill
#
# Bulk Modulus (GPa) = 42.02897 71.93540 56.98219
# Shear Modulus (GPa) = 35.97427 48.39783 42.18605
#
# Velocity S-wave (km/s) = 3.61289 4.19056 3.91240
# Velocity P-wave (km/s) = 5.71436 7.03674 6.40974
#
# Compressibility (1/GPa) = 0.02379311
#
# Stress axis : x y z
#
# Youngs Moduli (GPa) = 58.87608 120.67824 168.90495
#
# Poissons Ratio (x) = 0.08306 0.27375
# Poissons Ratio (y) = 0.04052 0.23483
# Poissons Ratio (z) = 0.09542 0.16778
#
# Static dielectric constant tensor:
#      x y z
#    x 2.193420 0.073950 -0.028800 
#    y 0.073950 2.360450 0.254900 
#    z -0.028800 0.254900 4.069450 
# 
# From -- ./inp_files/344878.got.cif
#   From: 2010.05.17/outbox.cif.g08.bks.cpg/sg2_173_cif.got.tgz:344878.got - 2010.06.03 11:33:40.
