data_PCOD9026977
_publ_section_title
;
Structure prediction by ZEFSAII (Michael W. Deem and Ramdas Pophale) SiO2 
 PCOD9026977
Probable space group: P -1
;
_chemical_formula_sum "Si O2"
_cell_formula_units_Z 14
_cell_length_a 10.252810
_cell_length_b 12.572458
_cell_length_c 17.147578
_cell_angle_alpha 37.321932
_cell_angle_beta 116.298132
_cell_angle_gamma 145.166113
_cell_volume 609.192556
_symmetry_space_group_name_H-M "P -1"
_symmetry_group_IT_number 2
_symmetry_cell_setting 'triclinic'
loop_
_space_group_symop_operation_xyz
x,y,z
-x,-y,-z
loop_
_atom_site_type_symbol
_atom_site_label
_atom_site_fract_x
_atom_site_fract_y
_atom_site_fract_z
Si Si1 0.774305 0.346712 0.709202
Si Si2 0.657028 0.351813 0.834522
Si Si3 0.268306 0.559529 0.030014
Si Si4 0.107672 0.986798 0.871521
Si Si5 0.030150 0.267584 0.622298
Si Si6 0.423322 0.496465 0.873504
Si Si7 0.749499 0.399187 0.347272
O O1 0.796499 0.497379 0.701430
O O2 0.873366 0.544082 0.541796
O O3 0.985391 0.401383 0.747933
O O4 0.466877 0.936593 0.855678
O O5 0.841053 0.562168 0.838807
O O6 0.402365 0.227358 0.844152
O O7 0.500000 0.000000 0.000000
O O8 0.458275 0.578543 0.056401
O O9 0.027201 0.303526 0.049848
O O10 0.153266 0.199822 0.703136
O O11 0.860446 0.784357 0.985276
O O12 0.146562 0.484228 0.603949
O O13 0.685087 0.882819 0.754266
O O14 0.348828 0.516013 0.761466
O O15 0.500000 0.000000 0.500000
#
# Coordination Sequence:
#
# PCOD9026977 Si02
#       7
#     2   2   2   2   2   2   2
#     4  11  23  42  62  91 131 161 201 260 303 362
#     4  10  23  42  61  92 127 161 211 248 298 372
#     4  10  22  41  66  93 123 162 209 253 302 364
#     4  11  23  41  67  92 121 168 205 248 314 362
#     4  11  24  42  62  95 128 153 207 262 306 363
#     4  11  22  41  66  94 122 162 206 257 307 361
#     4  12  24  38  64  94 123 161 202 254 317 357
#
# _framework density 22.981241000000001
#
# number of rings (size 3 to 8) (size 9 to 14) (size 15 to 20)
#    0.000    1.143    1.429    6.429    2.000    4.571 
#    2.571    2.857    0.000    0.000    0.000    0.000 
#    0.000    0.000    0.000    0.000    0.000    0.000 
#
# Total GULP energy -78329.788323 kJ/mol
# GULP energy per Si atom -5594.984880 kJ/mol
# Density = 2.292893 g / cm^3
# Si number density = 22.981241 Si / 1000 Ang^3
#
#
#
# Elastic Constant Matrix: (Units=GPa)
#
#
# Indices 1 2 3 4 5 6 
#
# 1 78.5213 17.0025 18.0555 8.7664 -5.9976 -7.8937
# 2 17.0025 85.9074 21.1229 1.0353 -13.0024 -18.7815
# 3 18.0555 21.1229 78.7830 13.5406 4.5757 -7.3514
# 4 8.7664 1.0353 13.5406 39.3532 -4.9382 9.5883
# 5 -5.9976 -13.0024 4.5757 -4.9382 23.7263 11.5758
# 6 -7.8937 -18.7815 -7.3514 9.5883 11.5758 46.0097
#
#
#
# Elastic Compliance Matrix: (Units=1/GPa)
#
#
# Indices 1 2 3 4 5 6 
#
# 1 0.014190 -0.001579 -0.002406 -0.002379 0.002010 0.001396
# 2 -0.001579 0.014657 -0.003985 0.001542 0.007299 0.002918
# 3 -0.002406 -0.003985 0.016588 -0.007421 -0.009790 0.004621
# 4 -0.002379 0.001542 -0.007421 0.032998 0.014099 -0.011388
# 5 0.002010 0.007299 -0.009790 0.014099 0.059336 -0.016107
# 6 0.001396 0.002918 0.004621 -0.011388 -0.016107 0.030329
#
#
# Mechanical properties :
#
#
# Convention : Reuss Voigt Hill
#
# Bulk Modulus (GPa) = 33.90343 39.50817 36.70580
# Shear Modulus (GPa) = 25.79066 34.28654 30.03860
#
# Velocity S-wave (km/s) = 3.35363 3.86675 3.61930
# Velocity P-wave (km/s) = 5.45715 6.09627 5.78554
#
# Compressibility (1/GPa) = 0.02949554
#
# Stress axis : x y z
#
# Youngs Moduli (GPa) = 70.47190 68.22846 60.28416
#
# Poissons Ratio (x) = 0.10772 0.14506
# Poissons Ratio (y) = 0.11126 0.24020
# Poissons Ratio (z) = 0.16958 0.27186
#
# Static dielectric constant tensor:
#      x y z
#    x 1.908910 -0.034420 -0.002890 
#    y -0.034420 1.899210 -0.008470 
#    z -0.002890 -0.008470 1.870230 
# 
# From -- ./inp_files/269847.got.cif
#   From: 2010.05.17/outbox.cif.g08.bks.cpg/sg2_135_cif.got.tgz:269847.got - 2010.06.03 11:33:40.
