data_PCOD9026286
_publ_section_title
;
Structure prediction by ZEFSAII (Michael W. Deem and Ramdas Pophale) SiO2 
 PCOD9026286
Probable space group: P -1
;
_chemical_formula_sum "Si O2"
_cell_formula_units_Z 16
_cell_length_a 8.351776
_cell_length_b 17.572923
_cell_length_c 19.612938
_cell_angle_alpha 19.769115
_cell_angle_beta 129.486258
_cell_angle_gamma 129.281460
_cell_volume 744.724557
_symmetry_space_group_name_H-M "P -1"
_symmetry_group_IT_number 2
_symmetry_cell_setting 'triclinic'
loop_
_space_group_symop_operation_xyz
x,y,z
-x,-y,-z
loop_
_atom_site_type_symbol
_atom_site_label
_atom_site_fract_x
_atom_site_fract_y
_atom_site_fract_z
Si Si1 0.827216 0.702728 0.549076
Si Si2 0.097389 0.875017 0.694313
Si Si3 0.725255 0.567124 0.930034
Si Si4 0.257197 0.502859 0.847335
Si Si5 0.033924 0.141592 0.998538
Si Si6 0.313424 0.133956 0.769340
Si Si7 0.479366 0.294689 0.820024
Si Si8 0.020369 0.302509 0.724548
O O1 0.674135 0.488483 0.718393
O O2 0.067176 0.651813 0.661699
O O3 0.799136 0.927355 0.394688
O O4 0.766839 0.744998 0.419295
O O5 0.906043 0.730708 0.804036
O O6 0.244477 0.691989 0.863323
O O7 0.000000 0.000000 0.500000
O O8 0.494316 0.619381 0.803760
O O9 0.752562 0.586794 0.002147
O O10 0.212318 0.296693 0.955960
O O11 0.938113 0.295686 0.785183
O O12 0.870902 0.031106 0.103438
O O13 0.079023 0.926535 0.147505
O O14 0.414187 0.292551 0.723955
O O15 0.467264 0.956198 0.938936
O O16 0.272183 0.320141 0.784534
O O17 0.000000 0.500000 0.500000
#
# Coordination Sequence:
#
# PCOD9026286 Si02
#       8
#     2   2   2   2   2   2   2   2
#     4  12  24  39  73  99 128 168 230 257 323 394
#     4  11  24  45  68  96 129 174 213 270 331 394
#     4  10  25  48  67  92 138 162 214 280 334 376
#     4  11  23  44  70 100 125 171 216 275 323 383
#     4  10  22  41  63  93 131 166 214 257 323 375
#     4  10  22  41  65  93 132 171 208 271 305 376
#     4  10  23  40  64  95 131 169 216 255 324 373
#     4  10  24  41  63  93 137 173 209 264 314 385
#
# _framework density 21.484453999999999
#
# number of rings (size 3 to 8) (size 9 to 14) (size 15 to 20)
#    0.000    1.500    2.500    1.125    3.500    7.500 
#    2.250    0.000    0.000    0.000    0.000    0.000 
#    0.000    0.000    0.000    0.000    0.000    0.000 
#
# Total GULP energy -89392.916923 kJ/mol
# GULP energy per Si atom -5587.057308 kJ/mol
# Density = 2.143555 g / cm^3
# Si number density = 21.484454 Si / 1000 Ang^3
#
#
#
# Elastic Constant Matrix: (Units=GPa)
#
#
# Indices 1 2 3 4 5 6 
#
# 1 62.3627 16.6272 15.0164 2.3845 -5.9922 1.8362
# 2 16.6272 107.3385 34.0771 -11.2888 6.7604 -7.8393
# 3 15.0164 34.0771 66.9110 -3.8114 -6.1139 -6.3668
# 4 2.3845 -11.2888 -3.8114 34.1756 -0.1040 7.0845
# 5 -5.9922 6.7604 -6.1139 -0.1040 23.3778 2.1143
# 6 1.8362 -7.8393 -6.3668 7.0845 2.1143 25.3670
#
#
#
# Elastic Compliance Matrix: (Units=1/GPa)
#
#
# Indices 1 2 3 4 5 6 
#
# 1 0.017994 -0.002667 -0.002588 -0.001857 0.004940 -0.002669
# 2 -0.002667 0.012482 -0.005920 0.003179 -0.006024 0.002179
# 3 -0.002588 -0.005920 0.019330 -0.000176 0.005853 0.002771
# 4 -0.001857 0.003179 -0.000176 0.032041 -0.000591 -0.007827
# 5 0.004940 -0.006024 0.005853 -0.000591 0.047725 -0.004563
# 6 -0.002669 0.002179 0.002771 -0.007827 -0.004563 0.043549
#
#
# Mechanical properties :
#
#
# Convention : Reuss Voigt Hill
#
# Bulk Modulus (GPa) = 36.42481 40.89486 38.65984
# Shear Modulus (GPa) = 24.43515 27.97686 26.20600
#
# Velocity S-wave (km/s) = 3.37611 3.61250 3.49630
# Velocity P-wave (km/s) = 5.67347 6.03955 5.85937
#
# Compressibility (1/GPa) = 0.02745382
#
# Stress axis : x y z
#
# Youngs Moduli (GPa) = 55.57482 80.11599 51.73371
#
# Poissons Ratio (x) = 0.21366 0.13391
# Poissons Ratio (y) = 0.14821 0.30629
# Poissons Ratio (z) = 0.14385 0.47433
#
# Static dielectric constant tensor:
#      x y z
#    x 1.792670 -0.003510 0.028690 
#    y -0.003510 1.767670 0.004970 
#    z 0.028690 0.004970 1.818050 
# 
# From -- ./inp_files/591181.got.cif
#   From: 2010.05.17/outbox.cif.g08.bks.cpg/sg2_296_cif.got.tgz:591181.got - 2010.06.03 11:33:40.
