data_PCOD9026136
_publ_section_title
;
Structure prediction by ZEFSAII (Michael W. Deem and Ramdas Pophale) SiO2 
 PCOD9026136
Probable space group: P -1
;
_chemical_formula_sum "Si O2"
_cell_formula_units_Z 16
_cell_length_a 15.363573
_cell_length_b 8.903485
_cell_length_c 21.234431
_cell_angle_alpha 68.911127
_cell_angle_beta 163.911995
_cell_angle_gamma 101.745585
_cell_volume 627.302094
_symmetry_space_group_name_H-M "P -1"
_symmetry_group_IT_number 2
_symmetry_cell_setting 'triclinic'
loop_
_space_group_symop_operation_xyz
x,y,z
-x,-y,-z
loop_
_atom_site_type_symbol
_atom_site_label
_atom_site_fract_x
_atom_site_fract_y
_atom_site_fract_z
Si Si1 0.959297 0.017004 0.115446
Si Si2 0.980771 0.733027 0.078821
Si Si3 0.825164 0.376495 0.909841
Si Si4 0.080571 0.912199 0.442341
Si Si5 0.020813 0.504471 0.781673
Si Si6 0.795250 0.413021 0.337438
Si Si7 0.045202 0.751875 0.318409
Si Si8 0.112063 0.243494 0.459063
O O1 0.011352 0.191129 0.112334
O O2 0.507115 0.117345 0.789492
O O3 0.066332 0.875142 0.152336
O O4 0.140133 0.881092 0.321920
O O5 0.525505 0.825535 0.747931
O O6 0.130121 0.543229 0.254695
O O7 0.146848 0.696552 0.130748
O O8 0.413270 0.542961 0.623026
O O9 0.000000 0.500000 0.000000
O O10 0.052959 0.798606 0.498492
O O11 0.899535 0.871118 0.263280
O O12 0.938007 0.124899 0.333334
O O13 0.160227 0.314390 0.862503
O O14 0.799674 0.680513 0.553649
O O15 0.359840 0.523236 0.035319
O O16 0.000000 0.500000 0.500000
O O17 0.845365 0.406708 0.298565
#
# Coordination Sequence:
#
# PCOD9026136 Si02
#       8
#     2   2   2   2   2   2   2   2
#     4  10  24  41  64  93 135 172 218 270 323 384
#     4   9  21  42  62  93 129 171 217 269 322 380
#     4  12  23  40  68  94 132 173 222 267 327 383
#     4  10  22  41  62  93 134 167 216 273 321 385
#     4  10  22  42  67  95 131 171 216 267 328 390
#     4  11  24  41  69  95 129 170 219 270 324 398
#     4  11  23  44  65  96 135 176 216 270 323 386
#     4  11  22  43  66  96 130 175 216 268 331 385
#
# _framework density 25.506052
#
# number of rings (size 3 to 8) (size 9 to 14) (size 15 to 20)
#    0.000    1.500    2.500    2.625    0.000    4.500 
#    4.500    1.875    0.000    0.000    0.000    0.000 
#    0.000    0.000    0.000    0.000    0.000    0.000 
#
# Total GULP energy -89444.386364 kJ/mol
# GULP energy per Si atom -5590.274148 kJ/mol
# Density = 2.544800 g / cm^3
# Si number density = 25.506052 Si / 1000 Ang^3
#
#
#
# Elastic Constant Matrix: (Units=GPa)
#
#
# Indices 1 2 3 4 5 6 
#
# 1 98.5641 19.1960 11.0162 -3.8873 2.7917 5.2735
# 2 19.1960 130.6752 27.9873 2.2556 3.4496 20.8364
# 3 11.0162 27.9873 37.9124 -1.1261 -3.7158 5.5589
# 4 -3.8873 2.2556 -1.1261 44.8577 9.3454 -9.7703
# 5 2.7917 3.4496 -3.7158 9.3454 27.4971 -3.4100
# 6 5.2735 20.8364 5.5589 -9.7703 -3.4100 42.0136
#
#
#
# Elastic Compliance Matrix: (Units=1/GPa)
#
#
# Indices 1 2 3 4 5 6 
#
# 1 0.010728 -0.000951 -0.002493 0.001193 -0.001763 -0.000411
# 2 -0.000951 0.010018 -0.006721 -0.001264 -0.002188 -0.004431
# 3 -0.002493 -0.006721 0.032642 -0.000281 0.005567 -0.000286
# 4 0.001193 -0.001264 -0.000281 0.025356 -0.007903 0.005769
# 5 -0.001763 -0.002188 0.005567 -0.007903 0.040510 0.002020
# 6 -0.000411 -0.004431 -0.000286 0.005769 0.002020 0.027595
#
#
# Mechanical properties :
#
#
# Convention : Reuss Voigt Hill
#
# Bulk Modulus (GPa) = 30.24912 42.61676 36.43294
# Shear Modulus (GPa) = 28.05882 36.80384 32.43133
#
# Velocity S-wave (km/s) = 3.32035 3.80273 3.56970
# Velocity P-wave (km/s) = 5.15606 6.00215 5.59512
#
# Compressibility (1/GPa) = 0.03305881
#
# Stress axis : x y z
#
# Youngs Moduli (GPa) = 93.21067 99.82115 30.63547
#
# Poissons Ratio (x) = 0.09489 0.07636
# Poissons Ratio (y) = 0.08861 0.20591
# Poissons Ratio (z) = 0.23235 0.67094
#
# Static dielectric constant tensor:
#      x y z
#    x 1.978340 -0.023780 0.028140 
#    y -0.023780 2.020800 0.023140 
#    z 0.028140 0.023140 2.137500 
# 
# From -- ./inp_files/356287.got.cif
#   From: 2010.05.17/outbox.cif.g08.bks.cpg/sg2_179_cif.got.tgz:356287.got - 2010.06.03 11:33:40.
