data_PCOD9026702
_publ_section_title
;
Structure prediction by ZEFSAII (Michael W. Deem and Ramdas Pophale) SiO2 
 PCOD9026702
Probable space group: P -1
;
_chemical_formula_sum "Si O2"
_cell_formula_units_Z 16
_cell_length_a 8.408980
_cell_length_b 14.125109
_cell_length_c 8.780467
_cell_angle_alpha 63.419226
_cell_angle_beta 63.713062
_cell_angle_gamma 109.662627
_cell_volume 623.205041
_symmetry_space_group_name_H-M "P -1"
_symmetry_group_IT_number 2
_symmetry_cell_setting 'triclinic'
loop_
_space_group_symop_operation_xyz
x,y,z
-x,-y,-z
loop_
_atom_site_type_symbol
_atom_site_label
_atom_site_fract_x
_atom_site_fract_y
_atom_site_fract_z
Si Si1 0.420011 0.135917 0.836485
Si Si2 0.478763 0.377086 0.519986
Si Si3 0.992189 0.384033 0.914390
Si Si4 0.895302 0.261575 0.380521
Si Si5 0.780753 0.096114 0.115145
Si Si6 0.659308 0.549743 0.748160
Si Si7 0.719545 0.981540 0.536580
Si Si8 0.541060 0.273976 0.998011
O O1 0.344250 0.224233 0.759694
O O2 0.633972 0.188700 0.596443
O O3 0.519612 0.184850 0.929268
O O4 0.236635 0.970237 0.990378
O O5 0.500000 0.500000 0.500000
O O6 0.380065 0.367465 0.403662
O O7 0.759822 0.459587 0.329315
O O8 0.773685 0.357028 0.946682
O O9 0.959970 0.346495 0.134082
O O10 0.984654 0.265227 0.921871
O O11 0.074195 0.354071 0.374853
O O12 0.888523 0.133873 0.436093
O O13 0.545289 0.071799 0.283031
O O14 0.788671 0.013514 0.307448
O O15 0.562043 0.399834 0.830838
O O16 0.500000 0.500000 0.000000
O O17 0.684031 0.851514 0.714730
#
# Coordination Sequence:
#
# PCOD9026702 Si02
#       8
#     2   2   2   2   2   2   2   2
#     4  11  23  39  63  91 122 158 200 245 300 357
#     4  12  26  44  58  84 129 163 195 252 302 349
#     4  10  22  41  66  90 119 156 203 250 292 356
#     4  10  22  41  65  93 116 156 205 246 297 357
#     4   8  17  36  62  90 116 152 197 248 299 346
#     4  12  26  42  62  86 121 163 205 246 297 355
#     4   8  17  36  62  89 119 148 198 253 292 346
#     4  11  23  39  62  94 121 155 201 249 296 356
#
# _framework density 25.673734
#
# number of rings (size 3 to 8) (size 9 to 14) (size 15 to 20)
#    0.000    1.750    2.500    3.000    5.250    6.500 
#    0.000    2.500    0.000    0.000    0.000    0.000 
#    0.000    0.000    0.000    0.000    0.000    0.000 
#
# Total GULP energy -89498.189720 kJ/mol
# GULP energy per Si atom -5593.636857 kJ/mol
# Density = 2.561530 g / cm^3
# Si number density = 25.673734 Si / 1000 Ang^3
#
#
#
# Elastic Constant Matrix: (Units=GPa)
#
#
# Indices 1 2 3 4 5 6 
#
# 1 55.3418 16.8524 21.2641 -2.4823 26.0478 -12.5026
# 2 16.8524 117.2966 0.0770 -10.7314 -0.7059 17.9180
# 3 21.2641 0.0770 53.6210 -16.4818 13.7244 12.3922
# 4 -2.4823 -10.7314 -16.4818 35.9461 -1.5247 3.9334
# 5 26.0478 -0.7059 13.7244 -1.5247 28.4382 11.2672
# 6 -12.5026 17.9180 12.3922 3.9334 11.2672 14.3480
#
#
#
# Elastic Compliance Matrix: (Units=1/GPa)
#
#
# Indices 1 2 3 4 5 6 
#
# 1 -0.005342 0.008287 0.011174 0.012441 0.016683 -0.041166
# 2 0.008287 0.005003 -0.004229 -0.001842 -0.010970 0.013745
# 3 0.011174 -0.004229 0.018003 0.004593 -0.026235 0.018812
# 4 0.012441 -0.001842 0.004593 0.027675 -0.018585 0.016182
# 5 0.016683 -0.010970 -0.026235 -0.018585 0.013199 0.045626
# 6 -0.041166 0.013745 0.018812 0.016182 0.045626 -0.039853
#
#
# Mechanical properties :
#
#
# Convention : Reuss Voigt Hill
#
# Bulk Modulus (GPa) = 20.77668 33.62738 27.20203
# Shear Modulus (GPa) = 1172.44052 28.28420 600.36236
#
# Velocity S-wave (km/s) = 21.39300 3.32276 15.30852
# Velocity P-wave (km/s) = 24.86613 5.27706 17.97459
#
# Compressibility (1/GPa) = 0.04813088
#
# Stress axis : x y z
#
# Youngs Moduli (GPa) = -187.20931 199.86809 55.54484
#
# Poissons Ratio (x) = -1.65634 -0.62067
# Poissons Ratio (y) = 1.55143 0.23487
# Poissons Ratio (z) = 2.09193 0.84515
#
# Static dielectric constant tensor:
#      x y z
#    x 2.119480 0.022300 -0.023490 
#    y 0.022300 2.176370 -0.068100 
#    z -0.023490 -0.068100 2.016920 
# 
# From -- ./inp_files/205912.got.cif
#   From: 2010.05.17/outbox.cif.g08.bks.cpg/sg2_103_cif.got.tgz:205912.got - 2010.06.03 11:33:40.
