data_PCOD9026452
_publ_section_title
;
Structure prediction by ZEFSAII (Michael W. Deem and Ramdas Pophale) SiO2 
 PCOD9026452
Probable space group: P -1
;
_chemical_formula_sum "Si O2"
_cell_formula_units_Z 16
_cell_length_a 16.049726
_cell_length_b 15.804575
_cell_length_c 7.375576
_cell_angle_alpha 37.349028
_cell_angle_beta 118.823291
_cell_angle_gamma 140.159814
_cell_volume 686.389388
_symmetry_space_group_name_H-M "P -1"
_symmetry_group_IT_number 2
_symmetry_cell_setting 'triclinic'
loop_
_space_group_symop_operation_xyz
x,y,z
-x,-y,-z
loop_
_atom_site_type_symbol
_atom_site_label
_atom_site_fract_x
_atom_site_fract_y
_atom_site_fract_z
Si Si1 0.210006 0.808269 0.744220
Si Si2 0.472534 0.528694 0.223217
Si Si3 0.086699 0.393301 0.329163
Si Si4 0.997827 0.137505 0.384176
Si Si5 0.712717 0.721511 0.859854
Si Si6 0.640210 0.084519 0.921862
Si Si7 0.553175 0.901781 0.767283
Si Si8 0.156771 0.444494 0.722230
O O1 0.054459 0.693526 0.751744
O O2 0.307127 0.970167 0.416483
O O3 0.204208 0.632776 0.013512
O O4 0.278279 0.901982 0.852403
O O5 0.500000 0.500000 0.500000
O O6 0.348960 0.330094 0.318879
O O7 0.601790 0.639050 0.037075
O O8 0.453179 0.674121 0.982375
O O9 0.077654 0.369621 0.575171
O O10 0.099755 0.265432 0.445283
O O11 0.845514 0.959408 0.609705
O O12 0.000000 0.000000 0.500000
O O13 0.049939 0.310973 0.002456
O O14 0.755017 0.603867 0.118785
O O15 0.742113 0.315505 0.563853
O O16 0.591476 0.936273 0.959365
O O17 0.500000 0.000000 0.000000
O O18 0.500000 0.000000 0.500000
#
# Coordination Sequence:
#
# PCOD9026452 Si02
#       8
#     2   2   2   2   2   2   2   2
#     4  10  23  41  63  97 130 168 215 277 335 399
#     4  11  27  43  66 100 139 182 222 284 340 402
#     4  10  22  41  65  93 132 169 217 275 334 393
#     4  10  22  41  64  92 125 172 219 271 322 396
#     4  10  24  44  65  95 138 177 230 275 334 400
#     4  11  23  40  66 100 131 170 219 282 345 394
#     4  12  24  41  69  98 131 175 227 272 336 409
#     4  10  23  42  70  95 132 176 224 278 334 406
#
# _framework density 23.310383000000002
#
# number of rings (size 3 to 8) (size 9 to 14) (size 15 to 20)
#    0.000    1.500    1.250    2.250    1.750   10.000 
#    0.000    3.750    0.000    0.000    0.000    0.000 
#    0.000    0.000    0.000    0.000    0.000    0.000 
#
# Total GULP energy -89444.705083 kJ/mol
# GULP energy per Si atom -5590.294068 kJ/mol
# Density = 2.325733 g / cm^3
# Si number density = 23.310383 Si / 1000 Ang^3
#
#
#
# Elastic Constant Matrix: (Units=GPa)
#
#
# Indices 1 2 3 4 5 6 
#
# 1 54.6006 5.3650 2.4296 6.2614 1.7841 -7.9333
# 2 5.3650 122.7051 15.6233 15.6085 -10.5254 -23.9534
# 3 2.4296 15.6233 53.4570 10.2567 -19.4832 -5.6656
# 4 6.2614 15.6085 10.2567 44.7664 -0.5360 4.5628
# 5 1.7841 -10.5254 -19.4832 -0.5360 34.6573 3.0379
# 6 -7.9333 -23.9534 -5.6656 4.5628 3.0379 35.6606
#
#
#
# Elastic Compliance Matrix: (Units=1/GPa)
#
#
# Indices 1 2 3 4 5 6 
#
# 1 0.019471 0.000500 -0.000422 -0.003346 -0.001592 0.005164
# 2 0.000500 0.010362 -0.000732 -0.004238 0.002002 0.007327
# 3 -0.000422 -0.000732 0.025325 -0.005629 0.013687 0.002993
# 4 -0.003346 -0.004238 -0.005629 0.026308 -0.003208 -0.007578
# 5 -0.001592 0.002002 0.013687 -0.003208 0.037153 0.000411
# 6 0.005164 0.007327 0.002993 -0.007578 0.000411 0.035522
#
#
# Mechanical properties :
#
#
# Convention : Reuss Voigt Hill
#
# Bulk Modulus (GPa) = 18.57020 30.84428 24.70724
# Shear Modulus (GPa) = 28.83520 36.83984 32.83752
#
# Velocity S-wave (km/s) = 3.52093 3.97974 3.75735
# Velocity P-wave (km/s) = 4.95107 5.86332 5.42640
#
# Compressibility (1/GPa) = 0.05384973
#
# Stress axis : x y z
#
# Youngs Moduli (GPa) = 51.35962 96.50610 39.48600
#
# Poissons Ratio (x) = -0.04821 0.01666
# Poissons Ratio (y) = -0.02566 0.02889
# Poissons Ratio (z) = 0.02167 0.07062
#
# Static dielectric constant tensor:
#      x y z
#    x 2.034610 -0.059650 0.037740 
#    y -0.059650 1.862460 -0.002330 
#    z 0.037740 -0.002330 1.855430 
# 
# From -- ./inp_files/110655.got.cif
#   From: 2010.05.17/outbox.cif.g08.bks.cpg/sg2_56_cif.got.tgz:110655.got - 2010.06.03 11:33:40.
