data_PCOD9026982
_publ_section_title
;
Structure prediction by ZEFSAII (Michael W. Deem and Ramdas Pophale) SiO2 
 PCOD9026982
Probable space group: P -1
;
_chemical_formula_sum "Si O2"
_cell_formula_units_Z 16
_cell_length_a 6.080479
_cell_length_b 25.634589
_cell_length_c 12.108721
_cell_angle_alpha 153.296555
_cell_angle_beta 48.405555
_cell_angle_gamma 130.310742
_cell_volume 626.088539
_symmetry_space_group_name_H-M "P -1"
_symmetry_group_IT_number 2
_symmetry_cell_setting 'triclinic'
loop_
_space_group_symop_operation_xyz
x,y,z
-x,-y,-z
loop_
_atom_site_type_symbol
_atom_site_label
_atom_site_fract_x
_atom_site_fract_y
_atom_site_fract_z
Si Si1 0.594688 0.414808 0.188352
Si Si2 0.673323 0.073528 0.184181
Si Si3 0.960721 0.334399 0.329217
Si Si4 0.818770 0.883817 0.048424
Si Si5 0.164243 0.737594 0.016262
Si Si6 0.722822 0.318066 0.740602
Si Si7 0.626361 0.566833 0.258870
Si Si8 0.117338 0.052561 0.445546
O O1 0.654452 0.530819 0.312188
O O2 0.290298 0.408448 0.346475
O O3 0.825290 0.371022 0.111566
O O4 0.575044 0.315458 0.907786
O O5 0.655855 0.211236 0.476450
O O6 0.450126 0.024298 0.264620
O O7 0.022631 0.078695 0.050510
O O8 0.500000 0.000000 0.000000
O O9 0.687715 0.391816 0.573759
O O10 0.890190 0.304771 0.169381
O O11 0.996689 0.216676 0.159136
O O12 0.481614 0.823829 0.065469
O O13 0.906667 0.993100 0.306419
O O14 0.923892 0.812629 0.282517
O O15 0.080623 0.339866 0.686096
O O16 0.652764 0.443607 0.957423
O O17 0.000000 0.000000 0.500000
#
# Coordination Sequence:
#
# PCOD9026982 Si02
#       8
#     2   2   2   2   2   2   2   2
#     4   9  21  38  60  96 129 169 220 260 321 389
#     4  10  22  41  66  93 129 169 215 269 325 389
#     4  11  20  37  63  90 131 169 208 272 318 379
#     4  10  23  41  60  94 130 165 222 261 324 393
#     4  11  22  37  66  92 129 172 213 272 325 385
#     4   9  19  40  62  91 133 166 219 267 316 390
#     4   9  20  37  64  90 132 173 211 267 322 377
#     4  11  22  41  65  90 126 169 213 270 327 376
#
# _framework density 25.555493999999999
#
# number of rings (size 3 to 8) (size 9 to 14) (size 15 to 20)
#    0.750    1.250    1.250    2.250    1.750    1.500 
#    0.000    2.500    0.000    0.000    0.000    0.000 
#    0.000    0.000    0.000    0.000    0.000    0.000 
#
# Total GULP energy -89361.747553 kJ/mol
# GULP energy per Si atom -5585.109222 kJ/mol
# Density = 2.549733 g / cm^3
# Si number density = 25.555494 Si / 1000 Ang^3
#
#
#
# Elastic Constant Matrix: (Units=GPa)
#
#
# Indices 1 2 3 4 5 6 
#
# 1 63.4368 20.8085 39.1546 -2.9082 -17.2269 9.5192
# 2 20.8085 90.7053 26.0858 -24.9577 -3.6126 1.7775
# 3 39.1546 26.0858 149.4955 -11.7832 4.3963 18.1128
# 4 -2.9082 -24.9577 -11.7832 48.7103 13.2504 -0.9468
# 5 -17.2269 -3.6126 4.3963 13.2504 36.1825 -6.6309
# 6 9.5192 1.7775 18.1128 -0.9468 -6.6309 49.6049
#
#
#
# Elastic Compliance Matrix: (Units=1/GPa)
#
#
# Indices 1 2 3 4 5 6 
#
# 1 0.025315 -0.005160 -0.006647 -0.006760 0.014747 -0.000404
# 2 -0.005160 0.014381 -0.000447 0.008004 -0.003847 0.000277
# 3 -0.006647 -0.000447 0.009283 0.003205 -0.006032 -0.002843
# 4 -0.006760 0.008004 0.003205 0.028665 -0.013568 -0.001426
# 5 0.014747 -0.003847 -0.006032 -0.013568 0.040840 0.004711
# 6 -0.000404 0.000277 -0.002843 -0.001426 0.004711 0.021867
#
#
# Mechanical properties :
#
#
# Convention : Reuss Voigt Hill
#
# Bulk Modulus (GPa) = 40.86976 52.85950 46.86463
# Shear Modulus (GPa) = 28.89896 41.40545 35.15221
#
# Velocity S-wave (km/s) = 3.36643 4.02956 3.71283
# Velocity P-wave (km/s) = 5.58012 6.50991 6.06286
#
# Compressibility (1/GPa) = 0.02446797
#
# Stress axis : x y z
#
# Youngs Moduli (GPa) = 39.50294 69.53692 107.72723
#
# Poissons Ratio (x) = 0.35884 0.71610
# Poissons Ratio (y) = 0.20385 0.04819
# Poissons Ratio (z) = 0.26259 0.03110
#
# Static dielectric constant tensor:
#      x y z
#    x 2.038100 -0.028310 -0.029420 
#    y -0.028310 2.258260 0.184670 
#    z -0.029420 0.184670 2.124480 
# 
# From -- ./inp_files/371450.got.cif
#   From: 2010.05.17/outbox.cif.g08.bks.cpg/sg2_186_cif.got.tgz:371450.got - 2010.06.03 11:33:40.
