data_PCOD9026625
_publ_section_title
;
Structure prediction by ZEFSAII (Michael W. Deem and Ramdas Pophale) SiO2 
 PCOD9026625
Probable space group: P -1
;
_chemical_formula_sum "Si O2"
_cell_formula_units_Z 16
_cell_length_a 17.846393
_cell_length_b 4.804931
_cell_length_c 13.811117
_cell_angle_alpha 125.638474
_cell_angle_beta 138.514741
_cell_angle_gamma 61.570867
_cell_volume 635.862580
_symmetry_space_group_name_H-M "P -1"
_symmetry_group_IT_number 2
_symmetry_cell_setting 'triclinic'
loop_
_space_group_symop_operation_xyz
x,y,z
-x,-y,-z
loop_
_atom_site_type_symbol
_atom_site_label
_atom_site_fract_x
_atom_site_fract_y
_atom_site_fract_z
Si Si1 0.901453 0.649935 0.789354
Si Si2 0.790560 0.326266 0.450737
Si Si3 0.891953 0.274781 0.336604
Si Si4 0.348773 0.013194 0.600491
Si Si5 0.235357 0.693809 0.258140
Si Si6 0.853495 0.544560 0.051950
Si Si7 0.710508 0.300747 0.035789
Si Si8 0.548818 0.865145 0.915317
O O1 0.881695 0.539186 0.637193
O O2 0.865130 0.389201 0.782930
O O3 0.035132 0.662940 0.925442
O O4 0.803391 0.956231 0.763979
O O5 0.848916 0.190224 0.383619
O O6 0.753996 0.072076 0.445868
O O7 0.680810 0.590500 0.375874
O O8 0.894495 0.911396 0.204856
O O9 0.788468 0.491243 0.226562
O O10 0.000000 0.500000 0.500000
O O11 0.338001 0.778523 0.445933
O O12 0.456484 0.920879 0.752821
O O13 0.236279 0.413012 0.116535
O O14 0.798454 0.317565 0.033963
O O15 0.600157 0.488484 0.916788
O O16 0.655404 0.046311 0.008684
O O17 0.500000 0.000000 0.000000
#
# Coordination Sequence:
#
# PCOD9026625 Si02
#       8
#     2   2   2   2   2   2   2   2
#     4  10  23  41  72  99 138 187 236 285 341 410
#     4  10  22  41  65 102 134 172 235 286 342 416
#     4  12  28  44  69 100 148 189 226 281 362 429
#     4  10  22  44  73  99 131 180 236 295 344 402
#     4  10  24  44  72 103 139 185 242 288 337 414
#     4  12  27  45  68 103 149 189 235 286 353 421
#     4  12  27  45  67 104 139 182 231 291 351 417
#     4  12  24  46  73 101 137 182 237 293 355 415
#
# _framework density 25.162668
#
# number of rings (size 3 to 8) (size 9 to 14) (size 15 to 20)
#    0.000    1.000    1.250    4.125   10.500    1.000 
#    0.000    1.250    0.000    0.000    0.000    0.000 
#    0.000    0.000    0.000    0.000    0.000    0.000 
#
# Total GULP energy -89189.709525 kJ/mol
# GULP energy per Si atom -5574.356845 kJ/mol
# Density = 2.510540 g / cm^3
# Si number density = 25.162668 Si / 1000 Ang^3
#
#
#
# Elastic Constant Matrix: (Units=GPa)
#
#
# Indices 1 2 3 4 5 6 
#
# 1 116.2804 24.5130 39.6444 20.0308 -15.8694 23.6574
# 2 24.5130 78.6496 11.8844 5.9591 -10.4146 25.2496
# 3 39.6444 11.8844 182.6719 6.2072 -29.2059 -4.5850
# 4 20.0308 5.9591 6.2072 33.5419 -5.2660 -3.9814
# 5 -15.8694 -10.4146 -29.2059 -5.2660 48.5172 0.5140
# 6 23.6574 25.2496 -4.5850 -3.9814 0.5140 37.1078
#
#
#
# Elastic Compliance Matrix: (Units=1/GPa)
#
#
# Indices 1 2 3 4 5 6 
#
# 1 0.013070 0.000342 -0.002496 -0.008243 0.002055 -0.009787
# 2 0.000342 0.017564 -0.000913 -0.004199 0.003012 -0.012775
# 3 -0.002496 -0.000913 0.006601 0.001284 0.003067 0.003123
# 4 -0.008243 -0.004199 0.001284 0.036858 0.001046 0.012211
# 5 0.002055 0.003012 0.003067 0.001046 0.023924 -0.003200
# 6 -0.009787 -0.012775 0.003123 0.012211 -0.003200 0.043621
#
#
# Mechanical properties :
#
#
# Convention : Reuss Voigt Hill
#
# Bulk Modulus (GPa) = 32.15334 58.85396 45.50365
# Shear Modulus (GPa) = 31.61775 43.93740 37.77757
#
# Velocity S-wave (km/s) = 3.54861 4.18321 3.87891
# Velocity P-wave (km/s) = 5.44023 6.83904 6.17934
#
# Compressibility (1/GPa) = 0.03110097
#
# Stress axis : x y z
#
# Youngs Moduli (GPa) = 76.50915 56.93413 151.50286
#
# Poissons Ratio (x) = -0.01948 0.37812
# Poissons Ratio (y) = -0.02618 0.13838
# Poissons Ratio (z) = 0.19095 0.05200
#
# Static dielectric constant tensor:
#      x y z
#    x 1.945880 -0.115990 -0.017140 
#    y -0.115990 2.222400 -0.016300 
#    z -0.017140 -0.016300 2.156330 
# 
# From -- ./inp_files/536199.got.cif
#   From: 2010.05.17/outbox.cif.g08.bks.cpg/sg2_269_cif.got.tgz:536199.got - 2010.06.03 11:33:40.
