data_PCOD9026821
_publ_section_title
;
Structure prediction by ZEFSAII (Michael W. Deem and Ramdas Pophale) SiO2 
 PCOD9026821
Probable space group: P -1
;
_chemical_formula_sum "Si O2"
_cell_formula_units_Z 16
_cell_length_a 8.279568
_cell_length_b 16.696063
_cell_length_c 12.588834
_cell_angle_alpha 28.120403
_cell_angle_beta 91.803580
_cell_angle_gamma 80.520947
_cell_volume 748.285799
_symmetry_space_group_name_H-M "P -1"
_symmetry_group_IT_number 2
_symmetry_cell_setting 'triclinic'
loop_
_space_group_symop_operation_xyz
x,y,z
-x,-y,-z
loop_
_atom_site_type_symbol
_atom_site_label
_atom_site_fract_x
_atom_site_fract_y
_atom_site_fract_z
Si Si1 0.717203 0.741751 0.478219
Si Si2 0.238416 0.656145 0.087045
Si Si3 0.324731 0.740465 0.773020
Si Si4 0.274669 0.386382 0.137814
Si Si5 0.155786 0.163707 0.223987
Si Si6 0.648155 0.899547 0.918749
Si Si7 0.422177 0.710333 0.218652
Si Si8 0.169616 0.045849 0.940689
O O1 0.712500 0.559623 0.636764
O O2 0.779260 0.671306 0.682153
O O3 0.830131 0.818747 0.315060
O O4 0.524016 0.907530 0.294253
O O5 0.266993 0.752043 0.080326
O O6 0.361483 0.672340 0.975388
O O7 0.042720 0.748131 0.927420
O O8 0.510856 0.704647 0.763033
O O9 0.204322 0.959463 0.513186
O O10 0.236979 0.606547 0.878072
O O11 0.193889 0.301865 0.143981
O O12 0.280480 0.124073 0.170262
O O13 0.577785 0.744506 0.125480
O O14 0.793824 0.883268 0.028598
O O15 0.500000 0.500000 0.500000
O O16 0.339851 0.855498 0.141187
O O17 0.000000 0.000000 0.000000
#
# Coordination Sequence:
#
# PCOD9026821 Si02
#       8
#     2   2   2   2   2   2   2   2
#     4  10  22  43  66  89 133 171 220 267 319 400
#     4  11  24  41  63 105 131 167 216 275 334 381
#     4  10  22  41  65  97 141 172 225 260 323 405
#     4  10  22  42  67  98 129 184 219 264 325 394
#     4  12  24  41  66 100 140 172 218 275 325 388
#     4  11  23  43  66  94 125 176 220 265 329 394
#     4  11  23  43  70  92 125 172 223 271 323 402
#     4  11  24  43  65  95 127 167 216 278 336 378
#
# _framework density 21.382206
#
# number of rings (size 3 to 8) (size 9 to 14) (size 15 to 20)
#    0.000    1.250    1.250    5.250    3.500    3.000 
#   11.250    2.500    0.000    0.000    0.000    0.000 
#    0.000    0.000    0.000    0.000    0.000    0.000 
#
# Total GULP energy -89432.799091 kJ/mol
# GULP energy per Si atom -5589.549943 kJ/mol
# Density = 2.133354 g / cm^3
# Si number density = 21.382206 Si / 1000 Ang^3
#
#
#
# Elastic Constant Matrix: (Units=GPa)
#
#
# Indices 1 2 3 4 5 6 
#
# 1 82.4523 26.9848 31.2277 17.8202 -22.6223 13.7073
# 2 26.9848 114.0705 17.8626 8.4952 -16.0687 32.0928
# 3 31.2277 17.8626 110.4450 -4.7116 -29.6082 11.8118
# 4 17.8202 8.4952 -4.7116 26.1793 -7.2743 -3.4351
# 5 -22.6223 -16.0687 -29.6082 -7.2743 26.5132 4.4392
# 6 13.7073 32.0928 11.8118 -3.4351 4.4392 43.2017
#
#
#
# Elastic Compliance Matrix: (Units=1/GPa)
#
#
# Indices 1 2 3 4 5 6 
#
# 1 0.020473 0.000915 -0.001514 -0.011633 0.014680 -0.009195
# 2 0.000915 0.013823 0.002247 -0.002750 0.013045 -0.012732
# 3 -0.001514 0.002247 0.015929 0.008152 0.021282 -0.007083
# 4 -0.011633 -0.002750 0.008152 0.052329 0.010771 0.006559
# 5 0.014680 0.013045 0.021282 0.010771 0.089646 -0.028522
# 6 -0.009195 -0.012732 -0.007083 0.006559 -0.028522 0.040912
#
#
# Mechanical properties :
#
#
# Convention : Reuss Voigt Hill
#
# Bulk Modulus (GPa) = 18.68405 51.01310 34.84857
# Shear Modulus (GPa) = 20.18933 34.57168 27.38051
#
# Velocity S-wave (km/s) = 3.07614 4.02536 3.58233
# Velocity P-wave (km/s) = 4.62319 6.74642 5.78309
#
# Compressibility (1/GPa) = 0.05352158
#
# Stress axis : x y z
#
# Youngs Moduli (GPa) = 48.84586 72.34518 62.77713
#
# Poissons Ratio (x) = -0.06621 0.09504
# Poissons Ratio (y) = -0.04471 -0.14107
# Poissons Ratio (z) = 0.07395 -0.16257
#
# Static dielectric constant tensor:
#      x y z
#    x 1.766890 -0.016220 -0.007520 
#    y -0.016220 1.786700 0.003750 
#    z -0.007520 0.003750 1.784570 
# 
# From -- ./inp_files/398209.got.cif
#   From: 2010.05.17/outbox.cif.g08.bks.cpg/sg2_200_cif.got.tgz:398209.got - 2010.06.03 11:33:40.
