data_PCOD9026779
_publ_section_title
;
Structure prediction by ZEFSAII (Michael W. Deem and Ramdas Pophale) SiO2 
 PCOD9026779
Probable space group: P -1
;
_chemical_formula_sum "Si O2"
_cell_formula_units_Z 16
_cell_length_a 23.101106
_cell_length_b 5.987439
_cell_length_c 4.887058
_cell_angle_alpha 84.535910
_cell_angle_beta 92.071988
_cell_angle_gamma 73.922343
_cell_volume 645.187633
_symmetry_space_group_name_H-M "P -1"
_symmetry_group_IT_number 2
_symmetry_cell_setting 'triclinic'
loop_
_space_group_symop_operation_xyz
x,y,z
-x,-y,-z
loop_
_atom_site_type_symbol
_atom_site_label
_atom_site_fract_x
_atom_site_fract_y
_atom_site_fract_z
Si Si1 0.314679 0.392675 0.569241
Si Si2 0.978889 0.817925 0.704659
Si Si3 0.374482 0.118728 0.090917
Si Si4 0.486402 0.221539 0.271530
Si Si5 0.138859 0.014263 0.038441
Si Si6 0.092747 0.445749 0.667822
Si Si7 0.181448 0.710487 0.559029
Si Si8 0.405270 0.667602 0.532907
O O1 0.335659 0.310331 0.276538
O O2 0.244695 0.519211 0.567765
O O3 0.350011 0.581102 0.641361
O O4 0.338351 0.168479 0.796947
O O5 0.938712 0.696075 0.523327
O O6 0.039261 0.617588 0.813243
O O7 0.932761 0.942310 0.917636
O O8 0.000000 0.000000 0.500000
O O9 0.439958 0.168635 0.050673
O O10 0.384731 0.878634 0.287750
O O11 0.447004 0.446088 0.402537
O O12 0.551010 0.270258 0.235556
O O13 0.500000 0.000000 0.500000
O O14 0.175557 0.926887 0.329083
O O15 0.165352 0.816633 0.843580
O O16 0.139612 0.262464 0.887674
O O17 0.128130 0.596003 0.490845
#
# Coordination Sequence:
#
# PCOD9026779 Si02
#       8
#     2   2   2   2   2   2   2   2
#     4  11  25  44  64  94 129 178 225 277 319 394
#     4  11  23  47  71 105 137 169 219 275 338 410
#     4  10  22  41  65  96 131 171 228 270 332 389
#     4   8  16  36  64 102 133 170 216 275 331 399
#     4  12  25  47  68 103 131 175 221 277 332 406
#     4  11  25  43  72 100 138 177 214 275 342 401
#     4  12  28  45  69  96 137 175 233 275 331 397
#     4   9  19  38  67  94 136 175 216 273 338 383
#
# _framework density 24.798984999999998
#
# number of rings (size 3 to 8) (size 9 to 14) (size 15 to 20)
#    0.000    1.500    2.500    1.125    1.750    6.500 
#    0.000   21.250    0.000    0.000    0.000    0.000 
#    0.000    0.000    0.000    0.000    0.000    0.000 
#
# Total GULP energy -89622.698925 kJ/mol
# GULP energy per Si atom -5601.418683 kJ/mol
# Density = 2.474254 g / cm^3
# Si number density = 24.798985 Si / 1000 Ang^3
#
#
#
# Elastic Constant Matrix: (Units=GPa)
#
#
# Indices 1 2 3 4 5 6 
#
# 1 90.2112 37.6468 15.8605 -2.3929 -3.0117 -30.5814
# 2 37.6468 97.3602 17.8175 -9.2247 -7.4915 -18.6216
# 3 15.8605 17.8175 90.5025 -0.8644 -1.9783 -16.5451
# 4 -2.3929 -9.2247 -0.8644 43.2356 -8.6706 2.2845
# 5 -3.0117 -7.4915 -1.9783 -8.6706 26.9815 -4.4816
# 6 -30.5814 -18.6216 -16.5451 2.2845 -4.4816 40.4295
#
#
#
# Elastic Compliance Matrix: (Units=1/GPa)
#
#
# Indices 1 2 3 4 5 6 
#
# 1 0.016601 -0.004135 -0.000046 -0.000039 0.002502 0.010913
# 2 -0.004135 0.013321 -0.001246 0.003382 0.004702 0.002829
# 3 -0.000046 -0.001246 0.012155 -0.000005 0.001287 0.004509
# 4 -0.000039 0.003382 -0.000005 0.025668 0.009368 0.001114
# 5 0.002502 0.004702 0.001287 0.009368 0.043221 0.008847
# 6 0.010913 0.002829 0.004509 0.001114 0.008847 0.037055
#
#
# Mechanical properties :
#
#
# Convention : Reuss Voigt Hill
#
# Bulk Modulus (GPa) = 32.02617 46.74706 39.38661
# Shear Modulus (GPa) = 29.53647 35.91259 32.72453
#
# Velocity S-wave (km/s) = 3.45488 3.80958 3.63656
# Velocity P-wave (km/s) = 5.37190 6.18400 5.79220
#
# Compressibility (1/GPa) = 0.03122447
#
# Stress axis : x y z
#
# Youngs Moduli (GPa) = 60.23853 75.06864 82.27014
#
# Poissons Ratio (x) = 0.31038 0.00377
# Poissons Ratio (y) = 0.24906 0.10249
# Poissons Ratio (z) = 0.00276 0.09352
#
# Static dielectric constant tensor:
#      x y z
#    x 1.945000 0.018330 0.016070 
#    y 0.018330 1.996660 0.028710 
#    z 0.016070 0.028710 1.950570 
# 
# From -- ./inp_files/121452.got.cif
#   From: 2010.05.17/outbox.cif.g08.bks.cpg/sg2_61_cif.got.tgz:121452.got - 2010.06.03 11:33:40.
