data_PCOD9026487
_publ_section_title
;
Structure prediction by ZEFSAII (Michael W. Deem and Ramdas Pophale) SiO2 
 PCOD9026487
Probable space group: P -1
;
_chemical_formula_sum "Si O2"
_cell_formula_units_Z 16
_cell_length_a 6.279351
_cell_length_b 18.581321
_cell_length_c 7.492776
_cell_angle_alpha 63.695040
_cell_angle_beta 65.901665
_cell_angle_gamma 69.899046
_cell_volume 701.123724
_symmetry_space_group_name_H-M "P -1"
_symmetry_group_IT_number 2
_symmetry_cell_setting 'triclinic'
loop_
_space_group_symop_operation_xyz
x,y,z
-x,-y,-z
loop_
_atom_site_type_symbol
_atom_site_label
_atom_site_fract_x
_atom_site_fract_y
_atom_site_fract_z
Si Si1 0.620180 0.746722 0.714440
Si Si2 0.132990 0.684213 0.579583
Si Si3 0.378397 0.022715 0.776732
Si Si4 0.993149 0.594712 0.376319
Si Si5 0.734202 0.092671 0.346844
Si Si6 0.619937 0.403813 0.057344
Si Si7 0.411193 0.264636 0.685057
Si Si8 0.772707 0.882912 0.948066
O O1 0.430379 0.823810 0.766768
O O2 0.608600 0.757054 0.492439
O O3 0.894012 0.740351 0.677413
O O4 0.551572 0.658671 0.868429
O O5 0.056502 0.631020 0.503920
O O6 0.312799 0.737000 0.376826
O O7 0.267884 0.628643 0.753975
O O8 0.583620 0.070637 0.590402
O O9 0.255126 0.987411 0.691982
O O10 0.530248 0.941657 0.904322
O O11 0.196412 0.079397 0.907229
O O12 0.178335 0.607464 0.148647
O O13 0.000000 0.500000 0.500000
O O14 0.734981 0.643026 0.350705
O O15 0.998916 0.109353 0.255534
O O16 0.500000 0.500000 0.000000
O O17 0.281154 0.206605 0.908905
#
# Coordination Sequence:
#
# PCOD9026487 Si02
#       8
#     2   2   2   2   2   2   2   2
#     4  10  22  41  64  93 129 169 214 269 326 392
#     4  10  24  44  65  94 132 174 212 271 330 390
#     4  10  24  40  61  96 126 172 216 265 334 390
#     4  11  24  42  66  97 131 170 218 271 329 394
#     4  11  22  42  64  92 129 169 217 270 327 389
#     4  11  24  42  66  97 131 170 218 271 329 394
#     4  10  22  41  64  93 129 169 214 269 326 392
#     4  11  22  42  64  92 129 169 217 270 327 389
#
# _framework density 22.820509000000001
#
# number of rings (size 3 to 8) (size 9 to 14) (size 15 to 20)
#    0.000    1.500    1.250    3.750    0.000   11.000 
#    9.000    0.000    0.000    0.000    0.000    0.000 
#    0.000    0.000    0.000    0.000    0.000    0.000 
#
# Total GULP energy -89441.080757 kJ/mol
# GULP energy per Si atom -5590.067547 kJ/mol
# Density = 2.276857 g / cm^3
# Si number density = 22.820509 Si / 1000 Ang^3
#
#
#
# Elastic Constant Matrix: (Units=GPa)
#
#
# Indices 1 2 3 4 5 6 
#
# 1 59.2382 15.0795 11.2201 -2.0356 -24.2142 -3.9250
# 2 15.0795 96.0545 13.4071 -11.9102 -5.6757 -7.0865
# 3 11.2201 13.4071 98.6386 -5.2682 -27.8926 12.5113
# 4 -2.0356 -11.9102 -5.2682 41.9913 1.9700 0.2473
# 5 -24.2142 -5.6757 -27.8926 1.9700 32.7025 4.0958
# 6 -3.9250 -7.0865 12.5113 0.2473 4.0958 23.1109
#
#
#
# Elastic Compliance Matrix: (Units=1/GPa)
#
#
# Indices 1 2 3 4 5 6 
#
# 1 0.026081 -0.003613 0.004343 -0.000267 0.022788 -0.003065
# 2 -0.003613 0.011895 -0.002781 0.002998 -0.003813 0.005183
# 3 0.004343 -0.002781 0.016961 0.000745 0.018736 -0.012626
# 4 -0.000267 0.002998 0.000745 0.024770 -0.000572 0.000307
# 5 0.022788 -0.003813 0.018736 -0.000572 0.065183 -0.018988
# 6 -0.003065 0.005183 -0.012626 0.000307 -0.018988 0.054535
#
#
# Mechanical properties :
#
#
# Convention : Reuss Voigt Hill
#
# Bulk Modulus (GPa) = 19.67178 37.03828 28.35503
# Shear Modulus (GPa) = 22.67842 33.84259 28.26050
#
# Velocity S-wave (km/s) = 3.15584 3.85514 3.52288
# Velocity P-wave (km/s) = 4.68167 6.00680 5.38515
#
# Compressibility (1/GPa) = 0.05083425
#
# Stress axis : x y z
#
# Youngs Moduli (GPa) = 38.34225 84.06866 58.95739
#
# Poissons Ratio (x) = 0.30376 -0.25605
# Poissons Ratio (y) = 0.13854 0.16398
# Poissons Ratio (z) = -0.16652 0.23382
#
# Static dielectric constant tensor:
#      x y z
#    x 1.885590 0.018620 0.014420 
#    y 0.018620 1.877630 0.014250 
#    z 0.014420 0.014250 1.886830 
# 
# From -- ./inp_files/138678.got.cif
#   From: 2010.05.17/outbox.cif.g08.bks.cpg/sg2_70_cif.got.tgz:138678.got - 2010.06.03 11:33:40.
