data_PCOD9026521
_publ_section_title
;
Structure prediction by ZEFSAII (Michael W. Deem and Ramdas Pophale) SiO2 
 PCOD9026521
Probable space group: P -1
;
_chemical_formula_sum "Si O2"
_cell_formula_units_Z 14
_cell_length_a 6.010558
_cell_length_b 19.522900
_cell_length_c 7.701919
_cell_angle_alpha 95.181331
_cell_angle_beta 90.530220
_cell_angle_gamma 141.203912
_cell_volume 559.332192
_symmetry_space_group_name_H-M "P -1"
_symmetry_group_IT_number 2
_symmetry_cell_setting 'triclinic'
loop_
_space_group_symop_operation_xyz
x,y,z
-x,-y,-z
loop_
_atom_site_type_symbol
_atom_site_label
_atom_site_fract_x
_atom_site_fract_y
_atom_site_fract_z
Si Si1 0.073977 0.450509 0.606467
Si Si2 0.091951 0.995821 0.691915
Si Si3 0.942853 0.164199 0.356964
Si Si4 0.936217 0.657101 0.705840
Si Si5 0.078990 0.390300 0.937613
Si Si6 0.047903 0.789545 0.253241
Si Si7 0.243006 0.962297 0.145068
O O1 0.503553 0.549668 0.658928
O O2 0.937746 0.352955 0.467645
O O3 0.937405 0.409874 0.795760
O O4 0.000000 0.500000 0.500000
O O5 0.520726 0.103341 0.727623
O O6 0.956388 0.014747 0.840862
O O7 0.915824 0.877791 0.693537
O O8 0.000000 0.000000 0.500000
O O9 0.075732 0.222018 0.557206
O O10 0.975711 0.240428 0.258581
O O11 0.521658 0.043762 0.324404
O O12 0.073902 0.651439 0.877933
O O13 0.057252 0.309989 0.832982
O O14 0.500000 0.500000 0.000000
O O15 0.956541 0.832973 0.144609
O O16 0.500000 0.000000 0.000000
#
# Coordination Sequence:
#
# PCOD9026521 Si02
#       7
#     2   2   2   2   2   2   2
#     4  10  22  41  66  93 128 173 232 285 341 403
#     4  11  21  39  65  98 132 178 229 274 344 415
#     4  11  21  37  65  94 131 179 230 272 339 416
#     4  10  22  41  64  94 131 181 221 282 348 402
#     4  10  22  43  67  95 137 183 228 281 345 408
#     4  11  21  39  64  94 131 183 229 278 337 408
#     4  11  23  40  62  95 136 171 219 287 340 404
#
# _framework density 25.029848999999999
#
# number of rings (size 3 to 8) (size 9 to 14) (size 15 to 20)
#    0.000    1.429    4.286    1.714    0.000    5.143 
#    0.000    4.286    0.000    0.000    0.000    0.000 
#    0.000    0.000    0.000    0.000    0.000    0.000 
#
# Total GULP energy -78137.527462 kJ/mol
# GULP energy per Si atom -5581.251962 kJ/mol
# Density = 2.497288 g / cm^3
# Si number density = 25.029849 Si / 1000 Ang^3
#
#
#
# Elastic Constant Matrix: (Units=GPa)
#
#
# Indices 1 2 3 4 5 6 
#
# 1 66.9871 21.5160 41.0590 -3.3992 -3.4675 -25.5043
# 2 21.5160 117.5919 38.7616 15.0131 10.0688 -30.8687
# 3 41.0590 38.7616 148.4399 -22.6740 17.5911 -25.8711
# 4 -3.3992 15.0131 -22.6740 50.6943 -13.9301 4.8194
# 5 -3.4675 10.0688 17.5911 -13.9301 39.6272 -6.9512
# 6 -25.5043 -30.8687 -25.8711 4.8194 -6.9512 35.4630
#
#
#
# Elastic Compliance Matrix: (Units=1/GPa)
#
#
# Indices 1 2 3 4 5 6 
#
# 1 0.024043 0.000902 -0.005008 -0.000564 0.006672 0.015808
# 2 0.000902 0.012997 -0.002515 -0.006626 -0.002591 0.010520
# 3 -0.005008 -0.002515 0.009753 0.004012 -0.002673 0.000255
# 4 -0.000564 -0.006626 0.004012 0.026177 0.008142 -0.005207
# 5 0.006672 -0.002591 -0.002673 0.008142 0.031520 0.005665
# 6 0.015808 0.010520 0.000255 -0.005207 0.005665 0.050728
#
#
# Mechanical properties :
#
#
# Convention : Reuss Voigt Hill
#
# Bulk Modulus (GPa) = 29.80492 59.52134 44.66313
# Shear Modulus (GPa) = 27.83284 40.60240 34.21762
#
# Velocity S-wave (km/s) = 3.33826 4.03197 3.70141
# Velocity P-wave (km/s) = 5.17612 6.74593 6.01248
#
# Compressibility (1/GPa) = 0.03355151
#
# Stress axis : x y z
#
# Youngs Moduli (GPa) = 41.59153 76.93944 102.53554
#
# Poissons Ratio (x) = -0.06938 0.51347
# Poissons Ratio (y) = -0.03750 0.25786
# Poissons Ratio (z) = 0.20828 0.19349
#
# Static dielectric constant tensor:
#      x y z
#    x 2.246040 -0.111660 0.075010 
#    y -0.111660 2.028090 -0.090920 
#    z 0.075010 -0.090920 2.031080 
# 
# From -- ./inp_files/90894.got.cif
#   From: 2010.05.17/outbox.cif.g08.bks.cpg/sg2_46_cif.got.tgz:90894.got - 2010.06.03 11:33:40.
