data_PCOD9026585
_publ_section_title
;
Structure prediction by ZEFSAII (Michael W. Deem and Ramdas Pophale) SiO2 
 PCOD9026585
Probable space group: P -1
;
_chemical_formula_sum "Si O2"
_cell_formula_units_Z 16
_cell_length_a 14.912799
_cell_length_b 11.761522
_cell_length_c 9.400672
_cell_angle_alpha 71.322247
_cell_angle_beta 111.355351
_cell_angle_gamma 48.332014
_cell_volume 675.431112
_symmetry_space_group_name_H-M "P -1"
_symmetry_group_IT_number 2
_symmetry_cell_setting 'triclinic'
loop_
_space_group_symop_operation_xyz
x,y,z
-x,-y,-z
loop_
_atom_site_type_symbol
_atom_site_label
_atom_site_fract_x
_atom_site_fract_y
_atom_site_fract_z
Si Si1 0.284906 0.748004 0.494514
Si Si2 0.903432 0.249443 0.950843
Si Si3 0.175276 0.400169 0.187487
Si Si4 0.156859 0.649491 0.425350
Si Si5 0.264694 0.786126 0.991494
Si Si6 0.741731 0.039311 0.350320
Si Si7 0.123794 0.469053 0.664266
Si Si8 0.487684 0.083210 0.233837
O O1 0.212058 0.700722 0.537149
O O2 0.518497 0.463156 0.705889
O O3 0.261494 0.884975 0.533420
O O4 0.130874 0.940256 0.197946
O O5 0.937265 0.350447 0.958456
O O6 0.765670 0.409013 0.664954
O O7 0.811805 0.267696 0.016591
O O8 0.345327 0.240167 0.229297
O O9 0.303536 0.215130 0.474175
O O10 0.000000 0.500000 0.000000
O O11 0.210037 0.466429 0.598111
O O12 0.908036 0.935325 0.154787
O O13 0.297601 0.811804 0.847384
O O14 0.567148 0.127754 0.216173
O O15 0.957510 0.731287 0.557373
O O16 0.000000 0.500000 0.500000
O O17 0.326171 0.207357 0.975986
#
# Coordination Sequence:
#
# PCOD9026585 Si02
#       8
#     2   2   2   2   2   2   2   2
#     4  11  21  40  68  96 133 174 225 285 346 406
#     4  11  24  41  64  96 139 177 227 279 344 410
#     4  11  25  45  71 102 139 182 233 291 338 407
#     4  10  25  42  63  98 138 182 223 282 341 412
#     4  10  22  41  64  98 130 172 225 278 344 405
#     4  11  24  43  70 103 137 174 232 292 347 410
#     4  11  26  47  69  99 142 188 232 284 344 409
#     4  11  24  45  72 104 133 184 237 282 348 405
#
# _framework density 23.688576000000001
#
# number of rings (size 3 to 8) (size 9 to 14) (size 15 to 20)
#    0.000    1.250    0.000    5.625    3.500   10.000 
#    4.500    0.000    0.000    0.000    0.000    0.000 
#    0.000    0.000    0.000    0.000    0.000    0.000 
#
# Total GULP energy -89239.301429 kJ/mol
# GULP energy per Si atom -5577.456339 kJ/mol
# Density = 2.363466 g / cm^3
# Si number density = 23.688576 Si / 1000 Ang^3
#
#
#
# Elastic Constant Matrix: (Units=GPa)
#
#
# Indices 1 2 3 4 5 6 
#
# 1 138.7369 16.9480 48.3658 7.7417 -12.0228 18.2371
# 2 16.9480 33.0496 8.4784 1.8049 -3.1782 6.8332
# 3 48.3658 8.4784 143.9226 -0.6151 3.7932 11.7739
# 4 7.7417 1.8049 -0.6151 32.0949 -2.0200 1.2024
# 5 -12.0228 -3.1782 3.7932 -2.0200 38.2216 -4.6455
# 6 18.2371 6.8332 11.7739 1.2024 -4.6455 36.2392
#
#
#
# Elastic Compliance Matrix: (Units=1/GPa)
#
#
# Indices 1 2 3 4 5 6 
#
# 1 0.009237 -0.003112 -0.002766 -0.001845 0.002485 -0.002783
# 2 -0.003112 0.033060 -0.000588 -0.000880 0.001261 -0.004286
# 3 -0.002766 -0.000588 0.008078 0.000791 -0.001847 -0.001384
# 4 -0.001845 -0.000880 0.000791 0.031730 0.000933 -0.000095
# 5 0.002485 0.001261 -0.001847 0.000933 0.027601 0.002619
# 6 -0.002783 -0.004286 -0.001384 -0.000095 0.002619 0.030592
#
#
# Mechanical properties :
#
#
# Convention : Reuss Voigt Hill
#
# Bulk Modulus (GPa) = 26.70847 51.47704 39.09275
# Shear Modulus (GPa) = 30.17333 37.43894 33.80614
#
# Velocity S-wave (km/s) = 3.57284 3.97982 3.78181
# Velocity P-wave (km/s) = 5.32161 6.54954 5.96725
#
# Compressibility (1/GPa) = 0.03744130
#
# Stress axis : x y z
#
# Youngs Moduli (GPa) = 108.26493 30.24842 123.79589
#
# Poissons Ratio (x) = 0.09412 0.34247
# Poissons Ratio (y) = 0.33689 0.07282
# Poissons Ratio (z) = 0.29951 0.01779
#
# Static dielectric constant tensor:
#      x y z
#    x 1.986280 -0.065180 0.029870 
#    y -0.065180 1.967360 0.011120 
#    z 0.029870 0.011120 1.923720 
# 
# From -- ./inp_files/307096.got.cif
#   From: 2010.05.17/outbox.cif.g08.bks.cpg/sg2_154_cif.got.tgz:307096.got - 2010.06.03 11:33:40.
