data_PCOD9026131
_publ_section_title
;
Structure prediction by ZEFSAII (Michael W. Deem and Ramdas Pophale) SiO2 
 PCOD9026131
Probable space group: P -1
;
_chemical_formula_sum "Si O2"
_cell_formula_units_Z 16
_cell_length_a 7.853370
_cell_length_b 12.268987
_cell_length_c 11.941059
_cell_angle_alpha 54.068843
_cell_angle_beta 55.143391
_cell_angle_gamma 52.988239
_cell_volume 700.245820
_symmetry_space_group_name_H-M "P -1"
_symmetry_group_IT_number 2
_symmetry_cell_setting 'triclinic'
loop_
_space_group_symop_operation_xyz
x,y,z
-x,-y,-z
loop_
_atom_site_type_symbol
_atom_site_label
_atom_site_fract_x
_atom_site_fract_y
_atom_site_fract_z
Si Si1 0.136140 0.534382 0.704088
Si Si2 0.687085 0.552692 0.946834
Si Si3 0.561292 0.912998 0.353407
Si Si4 0.711360 0.019327 0.806608
Si Si5 0.739823 0.562086 0.524841
Si Si6 0.371663 0.249259 0.946363
Si Si7 0.699088 0.349643 0.243030
Si Si8 0.801307 0.023327 0.365842
O O1 0.249479 0.512666 0.554090
O O2 0.261433 0.386073 0.820207
O O3 0.167055 0.664047 0.683276
O O4 0.871814 0.561525 0.786170
O O5 0.500000 0.500000 0.000000
O O6 0.600382 0.694490 0.974448
O O7 0.806004 0.425431 0.070347
O O8 0.644572 0.737677 0.438444
O O9 0.345538 0.997256 0.464577
O O10 0.476869 0.952417 0.235604
O O11 0.754389 0.954873 0.310822
O O12 0.936553 0.031209 0.670835
O O13 0.605955 0.139030 0.870454
O O14 0.764754 0.855792 0.929456
O O15 0.560568 0.545442 0.689182
O O16 0.000000 0.500000 0.500000
O O17 0.707830 0.199165 0.282288
#
# Coordination Sequence:
#
# PCOD9026131 Si02
#       8
#     2   2   2   2   2   2   2   2
#     4  11  21  42  64  89 128 166 207 264 311 379
#     4  11  23  38  62  93 125 165 208 265 314 372
#     4  10  23  42  63  94 129 161 213 263 307 386
#     4  11  21  42  66  90 128 169 207 260 315 376
#     4  11  23  42  64  95 127 162 211 264 321 373
#     4  10  23  40  62  92 122 163 215 251 316 381
#     4  10  22  41  62  93 126 165 212 256 315 383
#     4  10  22  41  64  93 126 167 209 258 318 374
#
# _framework density 22.849119000000002
#
# number of rings (size 3 to 8) (size 9 to 14) (size 15 to 20)
#    0.000    1.500    1.250    4.500    1.750    3.000 
#   13.500    1.250    0.000    0.000    0.000    0.000 
#    0.000    0.000    0.000    0.000    0.000    0.000 
#
# Total GULP energy -89403.014643 kJ/mol
# GULP energy per Si atom -5587.688415 kJ/mol
# Density = 2.279711 g / cm^3
# Si number density = 22.849119 Si / 1000 Ang^3
#
#
#
# Elastic Constant Matrix: (Units=GPa)
#
#
# Indices 1 2 3 4 5 6 
#
# 1 78.6979 8.8206 1.3141 16.7768 -6.4021 6.7209
# 2 8.8206 70.3791 7.0487 17.6213 4.8950 10.6517
# 3 1.3141 7.0487 50.7314 14.6390 -3.0126 -4.4208
# 4 16.7768 17.6213 14.6390 32.5329 0.4082 3.5020
# 5 -6.4021 4.8950 -3.0126 0.4082 31.5428 3.3386
# 6 6.7209 10.6517 -4.4208 3.5020 3.3386 33.3335
#
#
#
# Elastic Compliance Matrix: (Units=1/GPa)
#
#
# Indices 1 2 3 4 5 6 
#
# 1 0.014955 0.000146 0.002067 -0.008524 0.003558 -0.002249
# 2 0.000146 0.017236 -0.000394 -0.008727 -0.002098 -0.004462
# 3 0.002067 -0.000394 0.023640 -0.011936 0.002486 0.003849
# 4 -0.008524 -0.008727 -0.011936 0.045434 -0.001928 -0.001656
# 5 0.003558 -0.002098 0.002486 -0.001928 0.033315 -0.002852
# 6 -0.002249 -0.004462 0.003849 -0.001656 -0.002852 0.032849
#
#
# Mechanical properties :
#
#
# Convention : Reuss Voigt Hill
#
# Bulk Modulus (GPa) = 16.81538 26.01944 21.41741
# Shear Modulus (GPa) = 27.23110 31.65684 29.44397
#
# Velocity S-wave (km/s) = 3.45596 3.72623 3.59364
# Velocity P-wave (km/s) = 4.82703 5.47040 5.15875
#
# Compressibility (1/GPa) = 0.05946936
#
# Stress axis : x y z
#
# Youngs Moduli (GPa) = 66.86929 58.01704 42.30113
#
# Poissons Ratio (x) = -0.00845 -0.08745
# Poissons Ratio (y) = -0.00974 0.01666
# Poissons Ratio (z) = -0.13824 0.02284
#
# Static dielectric constant tensor:
#      x y z
#    x 1.912350 0.002930 0.008020 
#    y 0.002930 1.844940 -0.004040 
#    z 0.008020 -0.004040 1.868650 
# 
# From -- ./inp_files/392312.got.cif
#   From: 2010.05.17/outbox.cif.g08.bks.cpg/sg2_197_cif.got.tgz:392312.got - 2010.06.03 11:33:40.
