data_PCOD9026023
_publ_section_title
;
Structure prediction by ZEFSAII (Michael W. Deem and Ramdas Pophale) SiO2 
 PCOD9026023
Probable space group: P -1
;
_chemical_formula_sum "Si O2"
_cell_formula_units_Z 16
_cell_length_a 15.105054
_cell_length_b 16.042878
_cell_length_c 9.505412
_cell_angle_alpha 145.503032
_cell_angle_beta 75.084673
_cell_angle_gamma 127.725399
_cell_volume 860.997091
_symmetry_space_group_name_H-M "P -1"
_symmetry_group_IT_number 2
_symmetry_cell_setting 'triclinic'
loop_
_space_group_symop_operation_xyz
x,y,z
-x,-y,-z
loop_
_atom_site_type_symbol
_atom_site_label
_atom_site_fract_x
_atom_site_fract_y
_atom_site_fract_z
Si Si1 0.891807 0.864430 0.233879
Si Si2 0.333362 0.895314 0.294210
Si Si3 0.146414 0.521017 0.353294
Si Si4 0.388560 0.278204 0.154523
Si Si5 0.078679 0.963723 0.837920
Si Si6 0.377039 0.290384 0.842719
Si Si7 0.608858 0.064080 0.343752
Si Si8 0.077179 0.516500 0.692394
O O1 0.751873 0.761327 0.205043
O O2 0.928078 0.008815 0.286734
O O3 0.874883 0.678011 0.928057
O O4 0.000000 0.000000 0.500000
O O5 0.337397 0.870530 0.425903
O O6 0.348306 0.087610 0.534288
O O7 0.462893 0.967663 0.274669
O O8 0.196119 0.680726 0.982222
O O9 0.284656 0.730248 0.513422
O O10 0.140303 0.562524 0.576312
O O11 0.023569 0.463574 0.249546
O O12 0.500000 0.500000 0.500000
O O13 0.404739 0.325560 0.047314
O O14 0.235671 0.144009 0.066492
O O15 0.402727 0.120035 0.951817
O O16 0.011427 0.729227 0.573628
O O17 0.000000 0.000000 0.000000
O O18 0.500000 0.500000 0.000000
#
# Coordination Sequence:
#
# PCOD9026023 Si02
#       8
#     2   2   2   2   2   2   2   2
#     4  11  24  39  63  93 122 161 205 249 310 359
#     4  10  23  40  63  90 120 167 203 249 315 358
#     4  11  23  41  61  92 127 157 206 258 295 370
#     4  10  23  40  63  90 121 164 204 248 308 361
#     4  11  23  43  61  92 129 158 206 253 300 374
#     4  10  22  42  59  89 126 155 206 255 296 369
#     4  10  22  41  61  91 124 155 212 253 295 372
#     4  11  24  41  64  91 127 163 202 252 312 361
#
# _framework density 18.583106999999998
#
# number of rings (size 3 to 8) (size 9 to 14) (size 15 to 20)
#    0.000    1.500    2.500    1.500    3.500    3.000 
#    0.000    0.000    0.000    0.000    0.000    0.000 
#    0.000    0.000    0.000    0.000    0.000    0.000 
#
# Total GULP energy -89435.901136 kJ/mol
# GULP energy per Si atom -5589.743821 kJ/mol
# Density = 1.854081 g / cm^3
# Si number density = 18.583107 Si / 1000 Ang^3
#
#
#
# Elastic Constant Matrix: (Units=GPa)
#
#
# Indices 1 2 3 4 5 6 
#
# 1 122.3241 32.3443 49.2073 2.1755 -0.9622 15.4900
# 2 32.3443 98.1724 34.5012 29.8582 5.5162 13.0332
# 3 49.2073 34.5012 113.5885 6.6787 20.9705 3.4180
# 4 2.1755 29.8582 6.6787 22.4744 -1.7613 -4.8021
# 5 -0.9622 5.5162 20.9705 -1.7613 29.1671 -0.2234
# 6 15.4900 13.0332 3.4180 -4.8021 -0.2234 29.7659
#
#
#
# Elastic Compliance Matrix: (Units=1/GPa)
#
#
# Indices 1 2 3 4 5 6 
#
# 1 0.011396 -0.003085 -0.005032 0.004163 0.004804 -0.003294
# 2 -0.003085 0.025670 -0.002887 -0.036613 -0.005208 -0.015249
# 3 -0.005032 -0.002887 0.013507 0.000065 -0.009310 0.002273
# 4 0.004163 -0.036613 0.000065 0.100193 0.013296 0.030121
# 5 0.004804 -0.005208 -0.009310 0.013296 0.042951 0.003317
# 6 -0.003294 -0.015249 0.002273 0.030121 0.003317 0.046610
#
#
# Mechanical properties :
#
#
# Convention : Reuss Voigt Hill
#
# Bulk Modulus (GPa) = 35.00912 62.91007 48.95960
# Shear Modulus (GPa) = 18.39202 30.81694 24.60448
#
# Velocity S-wave (km/s) = 3.14939 4.07668 3.64266
# Velocity P-wave (km/s) = 5.66613 7.48905 6.64044
#
# Compressibility (1/GPa) = 0.02856398
#
# Stress axis : x y z
#
# Youngs Moduli (GPa) = 87.75087 38.95629 74.03381
#
# Poissons Ratio (x) = 0.12017 0.37256
# Poissons Ratio (y) = 0.27070 0.21376
# Poissons Ratio (z) = 0.44159 0.11248
#
# Static dielectric constant tensor:
#      x y z
#    x 1.629680 -0.001320 -0.009420 
#    y -0.001320 1.629880 -0.011780 
#    z -0.009420 -0.011780 1.586240 
# 
# From -- ./inp_files/189451.got.cif
#   From: 2010.05.17/outbox.cif.g08.bks.cpg/sg2_95_cif.got.tgz:189451.got - 2010.06.03 11:33:40.
