data_PCOD9026229
_publ_section_title
;
Structure prediction by ZEFSAII (Michael W. Deem and Ramdas Pophale) SiO2 
 PCOD9026229
Probable space group: P -1
;
_chemical_formula_sum "Si O2"
_cell_formula_units_Z 16
_cell_length_a 17.241969
_cell_length_b 27.064713
_cell_length_c 27.085832
_cell_angle_alpha 169.215170
_cell_angle_beta 19.501923
_cell_angle_gamma 160.587438
_cell_volume 759.163823
_symmetry_space_group_name_H-M "P -1"
_symmetry_group_IT_number 2
_symmetry_cell_setting 'triclinic'
loop_
_space_group_symop_operation_xyz
x,y,z
-x,-y,-z
loop_
_atom_site_type_symbol
_atom_site_label
_atom_site_fract_x
_atom_site_fract_y
_atom_site_fract_z
Si Si1 0.647889 0.564935 0.097590
Si Si2 0.182560 0.108291 0.452442
Si Si3 0.954099 0.149474 0.526710
Si Si4 0.987355 0.034129 0.925540
Si Si5 0.809434 0.704926 0.569504
Si Si6 0.120736 0.285682 0.992650
Si Si7 0.895972 0.473749 0.591535
Si Si8 0.507276 0.305657 0.163430
O O1 0.380832 0.518196 0.232295
O O2 0.828105 0.833439 0.278037
O O3 0.755504 0.311937 0.795654
O O4 0.661712 0.609277 0.073256
O O5 0.379209 0.389281 0.625473
O O6 0.042621 0.176247 0.555603
O O7 0.000000 0.000000 0.500000
O O8 0.309467 0.877781 0.133054
O O9 0.173204 0.283666 0.488813
O O10 0.736883 0.859921 0.880341
O O11 0.092953 0.812517 0.671947
O O12 0.156253 0.197446 0.940265
O O13 0.956713 0.267295 0.210187
O O14 0.564059 0.658085 0.701204
O O15 0.955724 0.496517 0.297241
O O16 0.962114 0.007103 0.789958
O O17 0.000000 0.500000 0.500000
#
# Coordination Sequence:
#
# PCOD9026229 Si02
#       8
#     2   2   2   2   2   2   2   2
#     4  10  22  41  63  89 125 161 198 255 309 355
#     4  12  26  41  61  93 123 163 216 243 289 372
#     4  10  22  41  63  89 125 161 198 255 309 355
#     4  11  23  42  65  90 123 158 199 258 309 352
#     4   9  18  36  62  91 119 153 200 247 307 371
#     4   9  18  36  62  91 119 153 200 247 307 371
#     4  12  26  41  61  93 123 163 216 243 289 372
#     4  11  23  42  65  90 123 158 199 258 309 352
#
# _framework density 21.075818999999999
#
# number of rings (size 3 to 8) (size 9 to 14) (size 15 to 20)
#    0.000    1.500    0.000    6.000    0.000    5.000 
#    0.000    0.000    0.000    0.000    0.000    0.000 
#    0.000    0.000    0.000    0.000    0.000    0.000 
#
# Total GULP energy -89431.037862 kJ/mol
# GULP energy per Si atom -5589.439866 kJ/mol
# Density = 2.102785 g / cm^3
# Si number density = 21.075819 Si / 1000 Ang^3
#
#
#
# Elastic Constant Matrix: (Units=GPa)
#
#
# Indices 1 2 3 4 5 6 
#
# 1 173.0038 78.7867 15.6801 8.3060 0.6433 -66.5698
# 2 78.7867 157.2867 30.4116 -14.8744 5.2137 -43.1873
# 3 15.6801 30.4116 114.0164 3.6219 1.9172 -16.8569
# 4 8.3060 -14.8744 3.6219 41.8461 0.7054 5.4798
# 5 0.6433 5.2137 1.9172 0.7054 28.8931 12.7166
# 6 -66.5698 -43.1873 -16.8569 5.4798 12.7166 50.9497
#
#
#
# Elastic Compliance Matrix: (Units=1/GPa)
#
#
# Indices 1 2 3 4 5 6 
#
# 1 0.015604 -0.002493 0.002173 -0.006908 -0.009616 0.022137
# 2 -0.002493 0.009775 -0.001552 0.003499 -0.003946 0.005124
# 3 0.002173 -0.001552 0.009872 -0.002546 -0.002909 0.005790
# 4 -0.006908 0.003499 -0.002546 0.028092 0.003789 -0.010869
# 5 -0.009616 -0.003946 -0.002909 0.003789 0.048578 -0.029404
# 6 0.022137 0.005124 0.005790 -0.010869 -0.029404 0.063318
#
#
# Mechanical properties :
#
#
# Convention : Reuss Voigt Hill
#
# Bulk Modulus (GPa) = 31.73823 77.11820 54.42821
# Shear Modulus (GPa) = 26.38744 45.63300 36.01022
#
# Velocity S-wave (km/s) = 3.54223 4.65820 4.13801
# Velocity P-wave (km/s) = 5.64107 8.09951 6.97939
#
# Compressibility (1/GPa) = 0.03150774
#
# Stress axis : x y z
#
# Youngs Moduli (GPa) = 64.08709 102.30034 101.30120
#
# Poissons Ratio (x) = 0.25499 -0.22012
# Poissons Ratio (y) = 0.15974 0.15719
# Poissons Ratio (z) = -0.13925 0.15874
#
# Static dielectric constant tensor:
#      x y z
#    x 1.776280 0.001250 0.015470 
#    y 0.001250 1.773500 0.001440 
#    z 0.015470 0.001440 1.720290 
# 
# From -- ./inp_files/434043.got.cif
#   From: 2010.05.17/outbox.cif.g08.bks.cpg/sg2_218_cif.got.tgz:434043.got - 2010.06.03 11:33:40.
