data_PCOD9026415
_publ_section_title
;
Structure prediction by ZEFSAII (Michael W. Deem and Ramdas Pophale) SiO2 
 PCOD9026415
Probable space group: P -1
;
_chemical_formula_sum "Si O2"
_cell_formula_units_Z 14
_cell_length_a 6.090959
_cell_length_b 21.806634
_cell_length_c 5.069640
_cell_angle_alpha 78.362303
_cell_angle_beta 82.167774
_cell_angle_gamma 119.507359
_cell_volume 551.613204
_symmetry_space_group_name_H-M "P -1"
_symmetry_group_IT_number 2
_symmetry_cell_setting 'triclinic'
loop_
_space_group_symop_operation_xyz
x,y,z
-x,-y,-z
loop_
_atom_site_type_symbol
_atom_site_label
_atom_site_fract_x
_atom_site_fract_y
_atom_site_fract_z
Si Si1 0.024954 0.774923 0.807101
Si Si2 0.066198 0.562658 0.668247
Si Si3 0.435555 0.088258 0.265295
Si Si4 0.645268 0.494034 0.228333
Si Si5 0.312774 0.186727 0.865987
Si Si6 0.960043 0.051136 0.758217
Si Si7 0.117809 0.706820 0.367488
O O1 0.073749 0.730058 0.066564
O O2 0.779256 0.780544 0.919958
O O3 0.285199 0.858912 0.691595
O O4 0.993551 0.734885 0.573897
O O5 0.356889 0.581359 0.669630
O O6 0.019994 0.621638 0.487850
O O7 0.000000 0.500000 0.500000
O O8 0.933722 0.547793 0.995610
O O9 0.191990 0.075453 0.490971
O O10 0.330445 0.004351 0.263158
O O11 0.423240 0.136250 0.988486
O O12 0.500000 0.500000 0.500000
O O13 0.500000 0.500000 0.000000
O O14 0.573631 0.252329 0.635001
O O15 0.043143 0.128955 0.807692
O O16 0.000000 0.000000 0.000000
#
# Coordination Sequence:
#
# PCOD9026415 Si02
#       7
#     2   2   2   2   2   2   2
#     4  11  25  42  67  96 131 178 219 269 330 401
#     4  11  26  46  74 102 139 182 227 286 348 402
#     4   9  19  38  61  91 131 163 220 275 324 386
#     4  11  24  44  72 105 139 172 221 280 341 410
#     4  10  22  41  64  90 131 174 217 267 336 386
#     4   9  17  35  63  89 125 169 212 279 322 380
#     4  11  27  44  66  96 136 169 225 270 328 397
#
# _framework density 25.380105
#
# number of rings (size 3 to 8) (size 9 to 14) (size 15 to 20)
#    0.000    1.714    2.857    0.000    6.000    2.857 
#    0.000    6.429    0.000    0.000    0.000    0.000 
#    0.000    0.000    0.000    0.000    0.000    0.000 
#
# Total GULP energy -78029.780700 kJ/mol
# GULP energy per Si atom -5573.555764 kJ/mol
# Density = 2.532234 g / cm^3
# Si number density = 25.380105 Si / 1000 Ang^3
#
#
#
# Elastic Constant Matrix: (Units=GPa)
#
#
# Indices 1 2 3 4 5 6 
#
# 1 60.2795 16.9725 6.3193 4.7870 -8.1545 -13.4389
# 2 16.9725 115.1102 45.1264 5.9276 -20.8391 -3.8472
# 3 6.3193 45.1264 133.4006 12.9996 -2.6898 -1.8059
# 4 4.7870 5.9276 12.9996 33.8669 -13.5995 -0.1604
# 5 -8.1545 -20.8391 -2.6898 -13.5995 42.8935 10.1008
# 6 -13.4389 -3.8472 -1.8059 -0.1604 10.1008 27.9301
#
#
#
# Elastic Compliance Matrix: (Units=1/GPa)
#
#
# Indices 1 2 3 4 5 6 
#
# 1 0.019491 -0.002671 0.000347 -0.002605 -0.000568 0.009224
# 2 -0.002671 0.011520 -0.003900 0.002286 0.006072 -0.002133
# 3 0.000347 -0.003900 0.009149 -0.004000 -0.002809 0.001214
# 4 -0.002605 0.002286 -0.004000 0.036320 0.013240 -0.005777
# 5 -0.000568 0.006072 -0.002809 0.013240 0.032869 -0.011429
# 6 0.009224 -0.002133 0.001214 -0.005777 -0.011429 0.044127
#
#
# Mechanical properties :
#
#
# Convention : Reuss Voigt Hill
#
# Bulk Modulus (GPa) = 36.08255 49.51408 42.79831
# Shear Modulus (GPa) = 28.54546 36.96293 32.75419
#
# Velocity S-wave (km/s) = 3.35732 3.82039 3.59631
# Velocity P-wave (km/s) = 5.41078 6.24595 5.84330
#
# Compressibility (1/GPa) = 0.02771423
#
# Stress axis : x y z
#
# Youngs Moduli (GPa) = 51.30500 86.80518 109.30669
#
# Poissons Ratio (x) = 0.23181 -0.03797
# Poissons Ratio (y) = 0.13701 0.42626
# Poissons Ratio (z) = -0.01782 0.33851
#
# Static dielectric constant tensor:
#      x y z
#    x 2.198410 -0.014060 -0.015610 
#    y -0.014060 2.379810 0.124060 
#    z -0.015610 0.124060 2.259190 
# 
# From -- ./inp_files/10347.got.cif
#   From: 2010.05.17/outbox.cif.g08.bks.cpg/sg2_6_cif.got.tgz:10347.got - 2010.06.03 11:33:40.
