data_PCOD9026617
_publ_section_title
;
Structure prediction by ZEFSAII (Michael W. Deem and Ramdas Pophale) SiO2 
 PCOD9026617
Probable space group: P -1
;
_chemical_formula_sum "Si O2"
_cell_formula_units_Z 16
_cell_length_a 9.177952
_cell_length_b 11.384321
_cell_length_c 9.097387
_cell_angle_alpha 129.557478
_cell_angle_beta 109.449755
_cell_angle_gamma 73.826931
_cell_volume 688.135296
_symmetry_space_group_name_H-M "P -1"
_symmetry_group_IT_number 2
_symmetry_cell_setting 'triclinic'
loop_
_space_group_symop_operation_xyz
x,y,z
-x,-y,-z
loop_
_atom_site_type_symbol
_atom_site_label
_atom_site_fract_x
_atom_site_fract_y
_atom_site_fract_z
Si Si1 0.211650 0.279568 0.775100
Si Si2 0.373357 0.990166 0.724974
Si Si3 0.564440 0.733301 0.413893
Si Si4 0.472854 0.578494 0.710215
Si Si5 0.200879 0.374815 0.158882
Si Si6 0.314399 0.878615 0.944681
Si Si7 0.035150 0.621585 0.480459
Si Si8 0.864369 0.837252 0.780720
O O1 0.233022 0.106488 0.708532
O O2 0.375866 0.272540 0.737676
O O3 0.091345 0.343061 0.662050
O O4 0.164041 0.383393 0.982530
O O5 0.428739 0.859731 0.519762
O O6 0.324227 0.921901 0.809910
O O7 0.531480 0.067623 0.879348
O O8 0.515968 0.565271 0.294586
O O9 0.713476 0.768837 0.595465
O O10 0.500000 0.500000 0.500000
O O11 0.617678 0.679674 0.835153
O O12 0.327479 0.694131 0.799563
O O13 0.121129 0.250579 0.128542
O O14 0.174632 0.533585 0.365949
O O15 0.180795 0.984940 0.067555
O O16 0.010999 0.782701 0.685699
O O17 0.000000 0.500000 0.500000
#
# Coordination Sequence:
#
# PCOD9026617 Si02
#       8
#     2   2   2   2   2   2   2   2
#     4  11  20  34  56  85 112 140 190 233 275 318
#     4  10  17  32  53  82 114 143 181 229 271 327
#     4  10  21  32  52  86 118 146 177 218 282 332
#     4  12  20  33  56  85 116 154 177 215 279 346
#     4  11  19  34  55  83 112 144 185 230 273 324
#     4  10  17  31  56  83 112 145 183 223 275 325
#     4   9  21  36  57  82 106 145 187 240 273 317
#     4   9  17  35  57  82 107 141 192 228 266 322
#
# _framework density 23.251242000000001
#
# number of rings (size 3 to 8) (size 9 to 14) (size 15 to 20)
#    0.000    1.750    5.000    1.500    0.000    0.500 
#    0.000    0.000    0.000    1.500    6.500    0.000 
#    0.000    0.000    0.000    0.000    0.000    0.000 
#
# Total GULP energy -89132.797381 kJ/mol
# GULP energy per Si atom -5570.799836 kJ/mol
# Density = 2.319832 g / cm^3
# Si number density = 23.251242 Si / 1000 Ang^3
#
#
#
# Elastic Constant Matrix: (Units=GPa)
#
#
# Indices 1 2 3 4 5 6 
#
# 1 59.4509 19.7012 40.9896 8.8031 -34.7733 -24.1270
# 2 19.7012 89.9863 45.5424 3.3841 -14.3057 -12.1412
# 3 40.9896 45.5424 157.8756 22.9434 -53.4853 -5.5159
# 4 8.8031 3.3841 22.9434 57.0912 -12.3514 -17.4609
# 5 -34.7733 -14.3057 -53.4853 -12.3514 42.4162 8.6409
# 6 -24.1270 -12.1412 -5.5159 -17.4609 8.6409 36.0880
#
#
#
# Elastic Compliance Matrix: (Units=1/GPa)
#
#
# Indices 1 2 3 4 5 6 
#
# 1 0.048140 -0.001302 -0.000445 0.008916 0.035459 0.027502
# 2 -0.001302 0.013933 -0.004739 0.002160 -0.002689 0.004782
# 3 -0.000445 -0.004739 0.013046 -0.003263 0.014548 -0.004960
# 4 0.008916 0.002160 -0.003263 0.023836 0.007626 0.015896
# 5 0.035459 -0.002689 0.014548 0.007626 0.069861 0.011988
# 6 0.027502 0.004782 -0.004960 0.015896 0.011988 0.051768
#
#
# Mechanical properties :
#
#
# Convention : Reuss Voigt Hill
#
# Bulk Modulus (GPa) = 16.09081 57.75323 36.92202
# Shear Modulus (GPa) = 19.66396 40.52438 30.09417
#
# Velocity S-wave (km/s) = 2.91128 4.17932 3.60155
# Velocity P-wave (km/s) = 4.27038 6.94130 5.76272
#
# Compressibility (1/GPa) = 0.06214728
#
# Stress axis : x y z
#
# Youngs Moduli (GPa) = 20.77262 71.77371 76.65102
#
# Poissons Ratio (x) = 0.09343 0.03412
# Poissons Ratio (y) = 0.02704 0.36325
# Poissons Ratio (z) = 0.00925 0.34013
#
# Static dielectric constant tensor:
#      x y z
#    x 1.808760 -0.059670 -0.085710 
#    y -0.059670 1.917030 -0.066980 
#    z -0.085710 -0.066980 1.808640 
# 
# From -- ./inp_files/245098.got.cif
#   From: 2010.05.17/outbox.cif.g08.bks.cpg/sg2_123_cif.got.tgz:245098.got - 2010.06.03 11:33:40.
