data_PCOD9026777
_publ_section_title
;
Structure prediction by ZEFSAII (Michael W. Deem and Ramdas Pophale) SiO2 
 PCOD9026777
Probable space group: P -1
;
_chemical_formula_sum "Si O2"
_cell_formula_units_Z 14
_cell_length_a 11.041149
_cell_length_b 7.942024
_cell_length_c 6.984564
_cell_angle_alpha 82.651916
_cell_angle_beta 100.843087
_cell_angle_gamma 107.324706
_cell_volume 572.554855
_symmetry_space_group_name_H-M "P -1"
_symmetry_group_IT_number 2
_symmetry_cell_setting 'triclinic'
loop_
_space_group_symop_operation_xyz
x,y,z
-x,-y,-z
loop_
_atom_site_type_symbol
_atom_site_label
_atom_site_fract_x
_atom_site_fract_y
_atom_site_fract_z
Si Si1 0.570642 0.846017 0.553972
Si Si2 0.673729 0.405326 0.641786
Si Si3 0.229341 0.116591 0.735695
Si Si4 0.161842 0.576166 0.672723
Si Si5 0.347897 0.458546 0.985078
Si Si6 0.252013 0.937305 0.138698
Si Si7 0.024256 0.788824 0.367380
O O1 0.460891 0.666770 0.500581
O O2 0.676568 0.874587 0.414861
O O3 0.500000 0.000000 0.500000
O O4 0.643132 0.890456 0.770564
O O5 0.781654 0.472916 0.504934
O O6 0.698764 0.231385 0.770737
O O7 0.677949 0.539171 0.795890
O O8 0.284110 0.288951 0.861515
O O9 0.089463 0.126292 0.630800
O O10 0.228790 0.962129 0.907216
O O11 0.279153 0.599202 0.850855
O O12 0.045929 0.405012 0.718342
O O13 0.105268 0.737382 0.573476
O O14 0.500000 0.500000 0.000000
O O15 0.121765 0.906083 0.226886
#
# Coordination Sequence:
#
# PCOD9026777 Si02
#       7
#     2   2   2   2   2   2   2
#     4  10  23  40  61  97 133 172 213 257 333 389
#     4  10  22  41  65  96 130 172 214 261 335 389
#     4  11  23  41  66  99 134 167 217 275 318 385
#     4   9  21  41  67  91 136 171 209 274 321 385
#     4  11  23  40  65 101 129 165 218 267 327 381
#     4  10  23  41  66  94 130 176 215 264 324 387
#     4   9  20  44  64  94 129 174 223 259 322 384
#
# _framework density 24.451803999999999
#
# number of rings (size 3 to 8) (size 9 to 14) (size 15 to 20)
#    0.000    2.000    1.429    0.429    2.000    9.143 
#    0.000   23.571    0.000    0.000    0.000    0.000 
#    0.000    0.000    0.000    0.000    0.000    0.000 
#
# Total GULP energy -78328.150786 kJ/mol
# GULP energy per Si atom -5594.867913 kJ/mol
# Density = 2.439615 g / cm^3
# Si number density = 24.451804 Si / 1000 Ang^3
#
#
#
# Elastic Constant Matrix: (Units=GPa)
#
#
# Indices 1 2 3 4 5 6 
#
# 1 134.8801 12.2277 42.2179 10.0696 31.5575 -6.8132
# 2 12.2277 68.2058 12.7981 10.8100 12.9311 -14.4367
# 3 42.2179 12.7981 122.8868 17.7733 27.4026 -7.1469
# 4 10.0696 10.8100 17.7733 44.8241 -11.9549 4.2717
# 5 31.5575 12.9311 27.4026 -11.9549 36.2080 0.9480
# 6 -6.8132 -14.4367 -7.1469 4.2717 0.9480 36.4687
#
#
#
# Elastic Compliance Matrix: (Units=1/GPa)
#
#
# Indices 1 2 3 4 5 6 
#
# 1 0.010883 0.002429 0.000102 -0.006884 -0.012812 0.004154
# 2 0.002429 0.021057 0.003018 -0.012226 -0.016252 0.011236
# 3 0.000102 0.003018 0.012745 -0.010118 -0.014291 0.005268
# 4 -0.006884 -0.012226 -0.010118 0.040599 0.031787 -0.013691
# 5 -0.012812 -0.016252 -0.014291 0.031787 0.066347 -0.017076
# 6 0.004154 0.011236 0.005268 -0.013691 -0.017076 0.035725
#
#
# Mechanical properties :
#
#
# Convention : Reuss Voigt Hill
#
# Bulk Modulus (GPa) = 17.92626 51.16223 34.54424
# Shear Modulus (GPa) = 25.66085 40.74874 33.20480
#
# Velocity S-wave (km/s) = 3.24303 4.08670 3.68906
# Velocity P-wave (km/s) = 4.62279 6.57550 5.68364
#
# Compressibility (1/GPa) = 0.05578410
#
# Stress axis : x y z
#
# Youngs Moduli (GPa) = 91.88521 47.49061 78.46505
#
# Poissons Ratio (x) = -0.11536 -0.00803
# Poissons Ratio (y) = -0.22320 -0.23683
# Poissons Ratio (z) = -0.00940 -0.14334
#
# Static dielectric constant tensor:
#      x y z
#    x 1.918430 -0.019790 0.060140 
#    y -0.019790 2.059040 -0.013490 
#    z 0.060140 -0.013490 1.904280 
# 
# From -- ./inp_files/60784.got.cif
#   From: 2010.05.17/outbox.cif.g08.bks.cpg/sg2_31_cif.got.tgz:60784.got - 2010.06.03 11:33:40.
