data_PCOD9026149
_publ_section_title
;
Structure prediction by ZEFSAII (Michael W. Deem and Ramdas Pophale) SiO2 
 PCOD9026149
Probable space group: P -1
;
_chemical_formula_sum "Si O2"
_cell_formula_units_Z 11
_cell_length_a 9.610558
_cell_length_b 13.587225
_cell_length_c 9.009069
_cell_angle_alpha 137.021121
_cell_angle_beta 136.524182
_cell_angle_gamma 35.935031
_cell_volume 443.773180
_symmetry_space_group_name_H-M "P -1"
_symmetry_group_IT_number 2
_symmetry_cell_setting 'triclinic'
loop_
_space_group_symop_operation_xyz
x,y,z
-x,-y,-z
loop_
_atom_site_type_symbol
_atom_site_label
_atom_site_fract_x
_atom_site_fract_y
_atom_site_fract_z
Si Si1 0.793743 0.900754 0.579477
Si Si2 0.500000 0.000000 0.000000
Si Si3 0.752588 0.677011 0.068474
Si Si4 0.912042 0.690769 0.713119
Si Si5 0.663784 0.135578 0.477530
Si Si6 0.642209 0.456703 0.904943
O O1 0.853537 0.742811 0.344171
O O2 0.938751 0.806677 0.740101
O O3 0.500000 0.000000 0.500000
O O4 0.798412 0.038514 0.630184
O O5 0.744079 0.006136 0.258601
O O6 0.594887 0.832115 0.998961
O O7 0.580407 0.628174 0.959224
O O8 0.000000 0.500000 0.000000
O O9 0.622697 0.810979 0.674500
O O10 0.000000 0.500000 0.500000
O O11 0.074156 0.645978 0.933289
O O12 0.620851 0.323121 0.643228
O O13 0.500000 0.500000 0.000000
#
# Coordination Sequence:
#
# PCOD9026149 Si02
#       6
#     2   1   2   2   2   2
#     4   9  19  39  64  93 135 177 217 275 337 404
#     4  10  24  44  64  88 142 188 212 268 344 400
#     4  11  23  42  69  97 134 182 226 272 338 408
#     4  11  19  37  66  92 130 171 214 273 341 384
#     4  10  22  41  62  94 132 172 223 273 331 399
#     4  12  23  39  70 106 128 168 233 281 328 404
#
# _framework density 24.787438999999999
#
# number of rings (size 3 to 8) (size 9 to 14) (size 15 to 20)
#    0.000    1.455    3.636    2.182    0.000    1.455 
#    0.000   10.000    0.000    0.000    0.000    0.000 
#    0.000    0.000    0.000    0.000    0.000    0.000 
#
# Total GULP energy -61283.920097 kJ/mol
# GULP energy per Si atom -5571.265463 kJ/mol
# Density = 2.473102 g / cm^3
# Si number density = 24.787439 Si / 1000 Ang^3
#
#
#
# Elastic Constant Matrix: (Units=GPa)
#
#
# Indices 1 2 3 4 5 6 
#
# 1 98.3649 49.1772 -7.1419 3.6595 -4.1755 23.2294
# 2 49.1772 131.3979 9.5039 -2.5006 -3.1238 43.7022
# 3 -7.1419 9.5039 64.1064 2.1031 -0.1067 14.2298
# 4 3.6595 -2.5006 2.1031 41.6521 6.3334 -17.1169
# 5 -4.1755 -3.1238 -0.1067 6.3334 26.3046 11.3997
# 6 23.2294 43.7022 14.2298 -17.1169 11.3997 71.1197
#
#
#
# Elastic Compliance Matrix: (Units=1/GPa)
#
#
# Indices 1 2 3 4 5 6 
#
# 1 0.013752 -0.003836 0.003256 -0.004192 0.004722 -0.004552
# 2 -0.003836 0.011465 -0.000485 -0.002493 0.004384 -0.006998
# 3 0.003256 -0.000485 0.017505 -0.004280 0.004145 -0.005963
# 4 -0.004192 -0.002493 -0.004280 0.032425 -0.014826 0.013937
# 5 0.004722 0.004384 0.004145 -0.014826 0.050094 -0.016663
# 6 -0.004552 -0.006998 -0.005963 0.013937 -0.016663 0.027066
#
#
# Mechanical properties :
#
#
# Convention : Reuss Voigt Hill
#
# Bulk Modulus (GPa) = 24.63441 44.10531 34.36986
# Shear Modulus (GPa) = 29.76784 43.97061 36.86922
#
# Velocity S-wave (km/s) = 3.46920 4.21635 3.86089
# Velocity P-wave (km/s) = 5.09970 6.44480 5.81130
#
# Compressibility (1/GPa) = 0.04059362
#
# Stress axis : x y z
#
# Youngs Moduli (GPa) = 72.71804 87.21860 57.12811
#
# Poissons Ratio (x) = 0.33456 -0.18604
# Poissons Ratio (y) = 0.27894 0.02769
# Poissons Ratio (z) = -0.23680 0.04227
#
# Static dielectric constant tensor:
#      x y z
#    x 1.872740 0.073580 0.263740 
#    y 0.073580 1.892710 -0.037680 
#    z 0.263740 -0.037680 2.011240 
# 
# From -- ./inp_files/165804.got.cif
#   From: 2010.05.17/outbox.cif.g08.bks.cpg/sg2_83_cif.got.tgz:165804.got - 2010.06.03 11:33:40.
