data_PCOD9026510
_publ_section_title
;
Structure prediction by ZEFSAII (Michael W. Deem and Ramdas Pophale) SiO2 
 PCOD9026510
Probable space group: P -1
;
_chemical_formula_sum "Si O2"
_cell_formula_units_Z 16
_cell_length_a 14.131085
_cell_length_b 9.145202
_cell_length_c 11.183104
_cell_angle_alpha 107.534745
_cell_angle_beta 132.618644
_cell_angle_gamma 48.405562
_cell_volume 765.959866
_symmetry_space_group_name_H-M "P -1"
_symmetry_group_IT_number 2
_symmetry_cell_setting 'triclinic'
loop_
_space_group_symop_operation_xyz
x,y,z
-x,-y,-z
loop_
_atom_site_type_symbol
_atom_site_label
_atom_site_fract_x
_atom_site_fract_y
_atom_site_fract_z
Si Si1 0.349073 0.218913 0.366773
Si Si2 0.775950 0.347194 0.975549
Si Si3 0.448392 0.660995 0.395647
Si Si4 0.302733 0.667159 0.841159
Si Si5 0.870464 0.861880 0.737721
Si Si6 0.273764 0.017405 0.788400
Si Si7 0.373837 0.206923 0.095872
Si Si8 0.018447 0.666942 0.556249
O O1 0.388480 0.356877 0.485196
O O2 0.184795 0.256606 0.280630
O O3 0.357291 0.218469 0.228808
O O4 0.500000 0.000000 0.500000
O O5 0.627022 0.380650 0.784983
O O6 0.720082 0.570221 0.986025
O O7 0.781857 0.252437 0.081597
O O8 0.971508 0.197294 0.063865
O O9 0.500000 0.500000 0.500000
O O10 0.289607 0.898123 0.347428
O O11 0.280538 0.835453 0.786480
O O12 0.207755 0.590844 0.690058
O O13 0.500000 0.500000 0.000000
O O14 0.937424 0.782120 0.641678
O O15 0.428807 0.933351 0.809210
O O16 0.096655 0.184177 0.613193
O O17 0.301872 0.109702 0.947614
O O18 0.000000 0.500000 0.500000
#
# Coordination Sequence:
#
# PCOD9026510 Si02
#       8
#     2   2   2   2   2   2   2   2
#     4  10  22  41  64  94 127 169 221 265 325 396
#     4  11  23  43  63  94 133 172 217 270 334 390
#     4  11  22  41  65  95 127 173 218 270 324 385
#     4  11  24  42  67 100 131 173 224 275 330 401
#     4  10  24  43  65  93 135 171 214 271 327 395
#     4  11  23  41  69  97 133 176 222 281 327 392
#     4  11  23  41  68  94 134 177 223 272 337 392
#     4  11  25  46  70  99 135 173 221 277 339 391
#
# _framework density 20.888822000000001
#
# number of rings (size 3 to 8) (size 9 to 14) (size 15 to 20)
#    0.000    1.250    2.500    3.750    5.250    1.500 
#    0.000    2.500    0.000    0.000    0.000    0.000 
#    0.000    0.000    0.000    0.000    0.000    0.000 
#
# Total GULP energy -89279.236547 kJ/mol
# GULP energy per Si atom -5579.952284 kJ/mol
# Density = 2.084128 g / cm^3
# Si number density = 20.888822 Si / 1000 Ang^3
#
#
#
# Elastic Constant Matrix: (Units=GPa)
#
#
# Indices 1 2 3 4 5 6 
#
# 1 89.2380 13.2573 53.9405 5.8758 23.6254 25.9250
# 2 13.2573 75.9083 22.3934 2.0515 17.0425 26.5154
# 3 53.9405 22.3934 137.6234 4.9086 23.3954 19.5233
# 4 5.8758 2.0515 4.9086 35.5252 8.5430 1.8797
# 5 23.6254 17.0425 23.3954 8.5430 41.3169 3.6372
# 6 25.9250 26.5154 19.5233 1.8797 3.6372 37.6586
#
#
#
# Elastic Compliance Matrix: (Units=1/GPa)
#
#
# Indices 1 2 3 4 5 6 
#
# 1 0.020021 0.004894 -0.005110 0.000093 -0.009388 -0.013677
# 2 0.004894 0.020440 -0.001417 0.001292 -0.009269 -0.016196
# 3 -0.005110 -0.001417 0.009912 0.000081 -0.002085 -0.000425
# 4 0.000093 0.001292 0.000081 0.029737 -0.006617 -0.001861
# 5 -0.009388 -0.009269 -0.002085 -0.006617 0.034973 0.011023
# 6 -0.013677 -0.016196 -0.000425 -0.001861 0.011023 0.046622
#
#
# Mechanical properties :
#
#
# Convention : Reuss Voigt Hill
#
# Bulk Modulus (GPa) = 21.22896 53.55023 37.38960
# Shear Modulus (GPa) = 27.67407 37.11205 32.39306
#
# Velocity S-wave (km/s) = 3.64377 4.21960 3.94221
# Velocity P-wave (km/s) = 5.28087 7.03076 6.21768
#
# Compressibility (1/GPa) = 0.04710546
#
# Stress axis : x y z
#
# Youngs Moduli (GPa) = 49.94849 48.92260 100.89131
#
# Poissons Ratio (x) = -0.23941 0.51560
# Poissons Ratio (y) = -0.24443 0.14295
# Poissons Ratio (z) = 0.25526 0.06932
#
# Static dielectric constant tensor:
#      x y z
#    x 2.059360 0.159240 0.172100 
#    y 0.159240 1.857540 0.122910 
#    z 0.172100 0.122910 1.855240 
# 
# From -- ./inp_files/274353.got.cif
#   From: 2010.05.17/outbox.cif.g08.bks.cpg/sg2_138_cif.got.tgz:274353.got - 2010.06.03 11:33:40.
