data_PCOD9026291
_publ_section_title
;
Structure prediction by ZEFSAII (Michael W. Deem and Ramdas Pophale) SiO2 
 PCOD9026291
Probable space group: P -1
;
_chemical_formula_sum "Si O2"
_cell_formula_units_Z 14
_cell_length_a 9.047775
_cell_length_b 16.462109
_cell_length_c 5.085172
_cell_angle_alpha 66.669416
_cell_angle_beta 85.057209
_cell_angle_gamma 115.410037
_cell_volume 597.506002
_symmetry_space_group_name_H-M "P -1"
_symmetry_group_IT_number 2
_symmetry_cell_setting 'triclinic'
loop_
_space_group_symop_operation_xyz
x,y,z
-x,-y,-z
loop_
_atom_site_type_symbol
_atom_site_label
_atom_site_fract_x
_atom_site_fract_y
_atom_site_fract_z
Si Si1 0.078915 0.446776 0.230497
Si Si2 0.191723 0.761640 0.360309
Si Si3 0.779619 0.960125 0.308830
Si Si4 0.652983 0.538753 0.131459
Si Si5 0.577134 0.387758 0.730169
Si Si6 0.585282 0.199133 0.209484
Si Si7 0.932986 0.090515 0.619345
O O1 0.249627 0.528189 0.252778
O O2 0.937456 0.356770 0.546935
O O3 0.157107 0.395828 0.089651
O O4 0.000000 0.500000 0.000000
O O5 0.292899 0.758186 0.608150
O O6 0.090599 0.817675 0.396109
O O7 0.316837 0.819918 0.021272
O O8 0.587238 0.895710 0.527483
O O9 0.879207 0.896280 0.395398
O O10 0.877383 0.055428 0.373285
O O11 0.806418 0.998185 0.955848
O O12 0.636403 0.432893 0.372823
O O13 0.594256 0.601926 0.242773
O O14 0.500000 0.500000 0.000000
O O15 0.541329 0.280146 0.977410
#
# Coordination Sequence:
#
# PCOD9026291 Si02
#       7
#     2   2   2   2   2   2   2
#     4  11  22  40  63  92 141 179 220 279 333 395
#     4  12  27  41  67 104 135 181 229 270 341 403
#     4  10  23  46  73  96 134 175 216 289 339 397
#     4   9  21  40  61  89 123 180 226 281 326 389
#     4  10  22  41  63  93 135 174 237 271 336 398
#     4  12  26  42  67 102 134 181 220 281 338 405
#     4  10  23  47  69 101 130 171 229 276 343 405
#
# _framework density 23.430727999999998
#
# number of rings (size 3 to 8) (size 9 to 14) (size 15 to 20)
#    0.000    1.429    1.429    2.571    6.000    4.571 
#    0.000    4.286    0.000    0.000    0.000    0.000 
#    0.000    0.000    0.000    0.000    0.000    0.000 
#
# Total GULP energy -78140.200308 kJ/mol
# GULP energy per Si atom -5581.442879 kJ/mol
# Density = 2.337740 g / cm^3
# Si number density = 23.430728 Si / 1000 Ang^3
#
#
#
# Elastic Constant Matrix: (Units=GPa)
#
#
# Indices 1 2 3 4 5 6 
#
# 1 104.9460 23.5018 35.9474 -0.8327 -10.6462 -16.2440
# 2 23.5018 31.2178 0.1138 5.4302 -3.9621 -13.7328
# 3 35.9474 0.1138 91.8310 15.9147 -5.2502 1.2102
# 4 -0.8327 5.4302 15.9147 35.5602 -0.9442 -0.9201
# 5 -10.6462 -3.9621 -5.2502 -0.9442 46.8223 7.0215
# 6 -16.2440 -13.7328 1.2102 -0.9201 7.0215 31.2872
#
#
#
# Elastic Compliance Matrix: (Units=1/GPa)
#
#
# Indices 1 2 3 4 5 6 
#
# 1 0.014799 -0.010402 -0.006614 0.005014 0.001362 0.003215
# 2 -0.010402 0.048243 0.005477 -0.009670 -0.000160 0.015314
# 3 -0.006614 0.005477 0.014873 -0.007679 0.000773 -0.002004
# 4 0.005014 -0.009670 -0.007679 0.033146 0.000191 -0.000412
# 5 0.001362 -0.000160 0.000773 0.000191 0.022406 -0.004416
# 6 0.003215 0.015314 -0.002004 -0.000412 -0.004416 0.041410
#
#
# Mechanical properties :
#
#
# Convention : Reuss Voigt Hill
#
# Bulk Modulus (GPa) = 18.23586 38.56895 28.40240
# Shear Modulus (GPa) = 23.12309 33.96275 28.54292
#
# Velocity S-wave (km/s) = 3.14486 3.81136 3.49403
# Velocity P-wave (km/s) = 4.58111 5.98875 5.33159
#
# Compressibility (1/GPa) = 0.05483701
#
# Stress axis : x y z
#
# Youngs Moduli (GPa) = 67.57076 20.72861 67.23504
#
# Poissons Ratio (x) = 0.21562 0.44468
# Poissons Ratio (y) = 0.70288 -0.36825
# Poissons Ratio (z) = 0.44690 -0.11353
#
# Static dielectric constant tensor:
#      x y z
#    x 1.915050 -0.075950 -0.053260 
#    y -0.075950 1.983670 0.062410 
#    z -0.053260 0.062410 1.962050 
# 
# From -- ./inp_files/43297.got.cif
#   From: 2010.05.17/outbox.cif.g08.bks.cpg/sg2_22_cif.got.tgz:43297.got - 2010.06.03 11:33:40.
