data_PCOD9026626
_publ_section_title
;
Structure prediction by ZEFSAII (Michael W. Deem and Ramdas Pophale) SiO2 
 PCOD9026626
Probable space group: P -1
;
_chemical_formula_sum "Si O2"
_cell_formula_units_Z 12
_cell_length_a 10.967598
_cell_length_b 6.521055
_cell_length_c 8.209212
_cell_angle_alpha 78.281124
_cell_angle_beta 82.322200
_cell_angle_gamma 49.890070
_cell_volume 439.676467
_symmetry_space_group_name_H-M "P -1"
_symmetry_group_IT_number 2
_symmetry_cell_setting 'triclinic'
loop_
_space_group_symop_operation_xyz
x,y,z
-x,-y,-z
loop_
_atom_site_type_symbol
_atom_site_label
_atom_site_fract_x
_atom_site_fract_y
_atom_site_fract_z
Si Si1 0.571117 0.679504 0.887651
Si Si2 0.925251 0.737750 0.389775
Si Si3 0.349890 0.933117 0.201810
Si Si4 0.559817 0.170638 0.462306
Si Si5 0.157328 0.849266 0.895050
Si Si6 0.009456 0.154123 0.355788
O O1 0.503561 0.681453 0.724334
O O2 0.661100 0.801960 0.818382
O O3 0.437392 0.837928 0.026355
O O4 0.698325 0.385885 0.987523
O O5 0.010892 0.569616 0.609228
O O6 0.750204 0.952215 0.464856
O O7 0.865789 0.887381 0.200492
O O8 0.018620 0.858918 0.424677
O O9 0.467053 0.726019 0.363400
O O10 0.177464 0.009703 0.248824
O O11 0.500000 0.000000 0.500000
O O12 0.139450 0.715008 0.761687
O O13 0.000000 0.000000 0.000000
#
# Coordination Sequence:
#
# PCOD9026626 Si02
#       6
#     2   2   2   2   2   2
#     4  10  22  41  65 102 135 171 229 277 343 405
#     4  10  23  43  67  94 130 180 225 267 340 411
#     4   9  20  41  69  96 132 179 222 279 338 407
#     4   9  20  39  64  96 126 170 219 271 333 398
#     4  11  26  42  62 102 137 173 223 286 338 397
#     4   9  21  44  63  93 133 173 227 271 337 398
#
# _framework density 27.292795000000002
#
# number of rings (size 3 to 8) (size 9 to 14) (size 15 to 20)
#    0.000    2.333    0.000    0.000    9.333    5.333 
#    6.000    4.167    0.000    0.000    0.000    0.000 
#    0.000    0.000    0.000    0.000    0.000    0.000 
#
# Total GULP energy -66818.693308 kJ/mol
# GULP energy per Si atom -5568.224442 kJ/mol
# Density = 2.723068 g / cm^3
# Si number density = 27.292795 Si / 1000 Ang^3
#
#
#
# Elastic Constant Matrix: (Units=GPa)
#
#
# Indices 1 2 3 4 5 6 
#
# 1 169.0463 65.9352 78.8877 -1.0161 -24.5934 7.2224
# 2 65.9352 101.4051 69.3972 -14.1832 2.4677 20.5477
# 3 78.8877 69.3972 221.6664 -39.0609 -3.6934 17.2966
# 4 -1.0161 -14.1832 -39.0609 57.5774 -8.7779 0.4317
# 5 -24.5934 2.4677 -3.6934 -8.7779 66.1343 8.4059
# 6 7.2224 20.5477 17.2966 0.4317 8.4059 38.0911
#
#
#
# Elastic Compliance Matrix: (Units=1/GPa)
#
#
# Indices 1 2 3 4 5 6 
#
# 1 0.009331 -0.005282 -0.002091 -0.002093 0.003098 0.001370
# 2 -0.005282 0.016649 -0.002474 0.002132 -0.001611 -0.006524
# 3 -0.002091 -0.002474 0.006880 0.004099 0.000438 -0.001536
# 4 -0.002093 0.002132 0.004099 0.021059 0.002602 -0.003428
# 5 0.003098 -0.001611 0.000438 0.002602 0.017178 -0.003738
# 6 0.001370 -0.006524 -0.001536 -0.003428 -0.003738 0.031074
#
#
# Mechanical properties :
#
#
# Convention : Reuss Voigt Hill
#
# Bulk Modulus (GPa) = 75.96225 102.28423 89.12324
# Shear Modulus (GPa) = 39.60264 50.88707 45.24485
#
# Velocity S-wave (km/s) = 3.81337 4.32266 4.07597
# Velocity P-wave (km/s) = 6.87618 7.90391 7.40789
#
# Compressibility (1/GPa) = 0.01316443
#
# Stress axis : x y z
#
# Youngs Moduli (GPa) = 107.16625 60.06485 145.35495
#
# Poissons Ratio (x) = 0.31725 0.30399
# Poissons Ratio (y) = 0.56603 0.35968
# Poissons Ratio (z) = 0.22412 0.14863
#
# Static dielectric constant tensor:
#      x y z
#    x 2.161350 0.158340 0.117740 
#    y 0.158340 2.178570 0.015380 
#    z 0.117740 0.015380 2.587710 
# 
# From -- ./inp_files/151353.got.cif
#   From: 2010.05.17/outbox.cif.g08.bks.cpg/sg2_76_cif.got.tgz:151353.got - 2010.06.03 11:33:40.
