data_PCOD9026436
_publ_section_title
;
Structure prediction by ZEFSAII (Michael W. Deem and Ramdas Pophale) SiO2 
 PCOD9026436
Probable space group: P -1
;
_chemical_formula_sum "Si O2"
_cell_formula_units_Z 10
_cell_length_a 14.561607
_cell_length_b 4.844724
_cell_length_c 5.257371
_cell_angle_alpha 85.716209
_cell_angle_beta 85.604675
_cell_angle_gamma 100.182130
_cell_volume 362.502216
_symmetry_space_group_name_H-M "P -1"
_symmetry_group_IT_number 2
_symmetry_cell_setting 'triclinic'
loop_
_space_group_symop_operation_xyz
x,y,z
-x,-y,-z
loop_
_atom_site_type_symbol
_atom_site_label
_atom_site_fract_x
_atom_site_fract_y
_atom_site_fract_z
Si Si1 0.583557 0.749466 0.399381
Si Si2 0.057748 0.802866 0.657282
Si Si3 0.376970 0.926406 0.126721
Si Si4 0.276394 0.368890 0.969063
Si Si5 0.116708 0.680037 0.157743
O O1 0.500000 0.500000 0.500000
O O2 0.596355 0.977292 0.602802
O O3 0.680312 0.638489 0.322372
O O4 0.564421 0.895362 0.126129
O O5 0.138281 0.766975 0.441257
O O6 0.984493 0.519755 0.753233
O O7 0.099414 0.893144 0.920383
O O8 0.000000 0.000000 0.500000
O O9 0.281641 0.058847 0.090535
O O10 0.354375 0.599704 0.085293
O O11 0.183419 0.484835 0.034682
#
# Coordination Sequence:
#
# PCOD9026436 Si02
#       5
#     2   2   2   2   2
#     4  10  24  44  68  99 134 174 221 274 330 396
#     4  10  22  41  64  91 127 173 221 276 335 395
#     4  10  25  41  67  96 133 175 221 272 333 392
#     4  10  26  43  67 100 134 176 224 273 335 397
#     4  10  23  40  62  94 129 172 225 274 332 401
#
# _framework density 27.586037999999999
#
# number of rings (size 3 to 8) (size 9 to 14) (size 15 to 20)
#    1.200    0.800    0.000    1.200    8.400    1.600 
#    0.000    0.000    0.000    0.000    0.000    0.000 
#    0.000    0.000    0.000    0.000    0.000    0.000 
#
# Total GULP energy -55913.823167 kJ/mol
# GULP energy per Si atom -5591.382317 kJ/mol
# Density = 2.752325 g / cm^3
# Si number density = 27.586038 Si / 1000 Ang^3
#
#
#
# Elastic Constant Matrix: (Units=GPa)
#
#
# Indices 1 2 3 4 5 6 
#
# 1 80.1805 -1.4001 61.4023 8.3624 -25.8144 -26.2684
# 2 -1.4001 100.5583 39.0189 23.9218 -8.2621 -17.8358
# 3 61.4023 39.0189 247.9434 13.4540 -16.1413 -10.5208
# 4 8.3624 23.9218 13.4540 50.1898 -7.2535 -0.2420
# 5 -25.8144 -8.2621 -16.1413 -7.2535 70.4936 2.4100
# 6 -26.2684 -17.8358 -10.5208 -0.2420 2.4100 49.3177
#
#
#
# Elastic Compliance Matrix: (Units=1/GPa)
#
#
# Indices 1 2 3 4 5 6 
#
# 1 0.024442 0.006747 -0.005792 -0.004589 0.007470 0.013836
# 2 0.006747 0.014477 -0.003078 -0.006801 0.002489 0.008018
# 3 -0.005792 -0.003078 0.005723 0.000740 -0.000995 -0.002925
# 4 -0.004589 -0.006801 0.000740 0.023752 0.000295 -0.004644
# 5 0.007470 0.002489 -0.000995 0.000295 0.016884 0.003843
# 6 0.013836 0.008018 -0.002925 -0.004644 0.003843 0.029711
#
#
# Mechanical properties :
#
#
# Convention : Reuss Voigt Hill
#
# Bulk Modulus (GPa) = 24.75485 69.63604 47.19545
# Shear Modulus (GPa) = 37.67879 55.97764 46.82822
#
# Velocity S-wave (km/s) = 3.69977 4.50955 4.12458
# Velocity P-wave (km/s) = 5.21960 7.23967 6.31098
#
# Compressibility (1/GPa) = 0.04039612
#
# Stress axis : x y z
#
# Youngs Moduli (GPa) = 40.91345 69.07385 174.73543
#
# Poissons Ratio (x) = -0.46607 1.01213
# Poissons Ratio (y) = -0.27606 0.53783
# Poissons Ratio (z) = 0.23699 0.21261
#
# Static dielectric constant tensor:
#      x y z
#    x 2.421190 0.015660 -0.010850 
#    y 0.015660 2.106090 0.038520 
#    z -0.010850 0.038520 2.172200 
# 
# From -- ./inp_files/3544.got.cif
#   From: 2010.05.17/outbox.cif.g08.bks.cpg/sg2_2_cif.got.tgz:3544.got - 2010.06.03 11:33:40.
