data_PCOD9026135
_publ_section_title
;
Structure prediction by ZEFSAII (Michael W. Deem and Ramdas Pophale) SiO2 
 PCOD9026135
Probable space group: P -1
;
_chemical_formula_sum "Si O2"
_cell_formula_units_Z 16
_cell_length_a 11.401521
_cell_length_b 12.026530
_cell_length_c 21.814666
_cell_angle_alpha 25.348878
_cell_angle_beta 146.919345
_cell_angle_gamma 138.271997
_cell_volume 698.233643
_symmetry_space_group_name_H-M "P -1"
_symmetry_group_IT_number 2
_symmetry_cell_setting 'triclinic'
loop_
_space_group_symop_operation_xyz
x,y,z
-x,-y,-z
loop_
_atom_site_type_symbol
_atom_site_label
_atom_site_fract_x
_atom_site_fract_y
_atom_site_fract_z
Si Si1 0.520613 0.176745 0.236039
Si Si2 0.566309 0.903166 0.900616
Si Si3 0.207226 0.281464 0.617808
Si Si4 0.862353 0.338336 0.822426
Si Si5 0.858997 0.639939 0.956066
Si Si6 0.899138 0.464859 0.286268
Si Si7 0.488230 0.283438 0.455195
Si Si8 0.125747 0.122797 0.286981
O O1 0.519897 0.190103 0.156142
O O2 0.363596 0.397687 0.087872
O O3 0.762166 0.208746 0.348977
O O4 0.432128 0.922589 0.355987
O O5 0.384785 0.060279 0.782646
O O6 0.735584 0.113842 0.847928
O O7 0.721994 0.695533 0.108073
O O8 0.336053 0.512705 0.591348
O O9 0.092075 0.417924 0.440794
O O10 0.014410 0.131982 0.640461
O O11 0.686558 0.541158 0.671330
O O12 0.012665 0.470069 0.774306
O O13 0.993707 0.235148 0.990273
O O14 0.833209 0.810960 0.798781
O O15 0.973681 0.364927 0.124800
O O16 0.350144 0.142815 0.412402
#
# Coordination Sequence:
#
# PCOD9026135 Si02
#       8
#     2   2   2   2   2   2   2   2
#     4  12  23  38  63  98 130 167 213 268 322 384
#     4  11  24  39  63  99 132 166 212 268 319 391
#     4  11  24  43  68  97 131 170 213 264 324 383
#     4  10  22  41  62  93 131 172 210 259 328 385
#     4  10  23  41  70  89 127 172 216 267 319 376
#     4  12  23  37  65  98 131 171 211 257 332 387
#     4  10  23  41  64  95 129 168 215 264 321 377
#     4  10  22  48  66  89 127 176 217 263 319 379
#
# _framework density 22.914966
#
# number of rings (size 3 to 8) (size 9 to 14) (size 15 to 20)
#    0.000    1.250    2.500    3.000    5.250    3.500 
#    0.000   11.875    0.000    0.000    0.000    0.000 
#    0.000    0.000    0.000    0.000    0.000    0.000 
#
# Total GULP energy -89376.819000 kJ/mol
# GULP energy per Si atom -5586.051187 kJ/mol
# Density = 2.286281 g / cm^3
# Si number density = 22.914966 Si / 1000 Ang^3
#
#
#
# Elastic Constant Matrix: (Units=GPa)
#
#
# Indices 1 2 3 4 5 6 
#
# 1 64.4402 47.9279 13.9420 2.4954 -11.7220 5.3962
# 2 47.9279 108.1980 20.4068 5.0045 -7.6738 36.3914
# 3 13.9420 20.4068 85.8818 6.5465 -13.5226 -7.4672
# 4 2.4954 5.0045 6.5465 26.4377 5.7096 -3.6920
# 5 -11.7220 -7.6738 -13.5226 5.7096 34.9916 -0.9253
# 6 5.3962 36.3914 -7.4672 -3.6920 -0.9253 12.6446
#
#
#
# Elastic Compliance Matrix: (Units=1/GPa)
#
#
# Indices 1 2 3 4 5 6 
#
# 1 0.013531 0.011571 -0.007556 -0.008946 0.004398 -0.045828
# 2 0.011571 -0.029709 0.012519 0.013786 0.002386 0.092157
# 3 -0.007556 0.012519 0.008628 -0.008890 0.004206 -0.029997
# 4 -0.008946 0.013786 -0.008890 0.036074 -0.010124 -0.031317
# 5 0.004398 0.002386 0.004206 -0.010124 0.033674 -0.006753
# 6 -0.045828 0.092157 -0.029997 -0.031317 -0.006753 -0.193940
#
#
# Mechanical properties :
#
#
# Convention : Reuss Voigt Hill
#
# Bulk Modulus (GPa) = 39.19048 47.00815 43.09931
# Shear Modulus (GPa) = -31.98911 26.56434 -2.71239
#
# Velocity S-wave (km/s) = -3.74035 3.40848 -1.08915
# Velocity P-wave (km/s) = 1.23042 6.00408 4.15542
#
# Compressibility (1/GPa) = 0.02551640
#
# Stress axis : x y z
#
# Youngs Moduli (GPa) = 73.90208 -33.66008 115.90592
#
# Poissons Ratio (x) = 0.38947 0.87581
# Poissons Ratio (y) = -0.85509 -1.45098
# Poissons Ratio (z) = 0.55842 0.42138
#
# Static dielectric constant tensor:
#      x y z
#    x 1.795060 0.010400 0.050500 
#    y 0.010400 1.907040 -0.047690 
#    z 0.050500 -0.047690 1.872580 
# 
# From -- ./inp_files/201485.got.cif
#   From: 2010.05.17/outbox.cif.g08.bks.cpg/sg2_101_cif.got.tgz:201485.got - 2010.06.03 11:33:40.
