data_PCOD9026776
_publ_section_title
;
Structure prediction by ZEFSAII (Michael W. Deem and Ramdas Pophale) SiO2 
 PCOD9026776
Probable space group: P -1
;
_chemical_formula_sum "Si O2"
_cell_formula_units_Z 16
_cell_length_a 7.523459
_cell_length_b 7.370700
_cell_length_c 15.333772
_cell_angle_alpha 93.727021
_cell_angle_beta 91.652808
_cell_angle_gamma 127.631543
_cell_volume 669.447302
_symmetry_space_group_name_H-M "P -1"
_symmetry_group_IT_number 2
_symmetry_cell_setting 'triclinic'
loop_
_space_group_symop_operation_xyz
x,y,z
-x,-y,-z
loop_
_atom_site_type_symbol
_atom_site_label
_atom_site_fract_x
_atom_site_fract_y
_atom_site_fract_z
Si Si1 0.414907 0.961753 0.247938
Si Si2 0.437430 0.852777 0.910391
Si Si3 0.551574 0.464055 0.284408
Si Si4 0.598565 0.220777 0.567965
Si Si5 0.920631 0.659375 0.661206
Si Si6 0.044351 0.495432 0.159784
Si Si7 0.409893 0.434399 0.096261
Si Si8 0.828413 0.867441 0.415081
O O1 0.560200 0.006207 0.166159
O O2 0.498440 0.217120 0.277381
O O3 0.425041 0.859248 0.334341
O O4 0.171953 0.761295 0.196171
O O5 0.618868 0.803323 0.901492
O O6 0.184301 0.617169 0.899620
O O7 0.500000 0.000000 0.000000
O O8 0.317870 0.399099 0.316921
O O9 0.567154 0.555848 0.189184
O O10 0.774226 0.659321 0.347914
O O11 0.845349 0.465990 0.579793
O O12 0.413422 0.256198 0.548450
O O13 0.500000 0.000000 0.500000
O O14 0.005018 0.618287 0.748740
O O15 0.093259 0.918188 0.639057
O O16 0.206703 0.449476 0.111710
O O17 0.500000 0.500000 0.000000
O O18 0.000000 0.000000 0.500000
#
# Coordination Sequence:
#
# PCOD9026776 Si02
#       8
#     2   2   2   2   2   2   2   2
#     4  10  22  42  65  92 129 168 219 271 319 383
#     4  11  24  41  66 100 132 171 220 268 322 393
#     4   9  22  41  64  93 128 167 210 271 322 376
#     4  10  23  40  61  87 126 166 209 268 315 377
#     4   9  21  41  63  89 124 168 214 257 323 379
#     4  10  22  44  68  92 132 177 213 267 330 379
#     4  10  22  41  65  96 130 170 219 267 320 384
#     4  11  24  39  61  91 125 167 213 263 324 389
#
# _framework density 23.900312
#
# number of rings (size 3 to 8) (size 9 to 14) (size 15 to 20)
#    0.000    2.000    0.000    2.250    3.500    7.000 
#    4.500    5.000    0.000    0.000    0.000    0.000 
#    0.000    0.000    0.000    0.000    0.000    0.000 
#
# Total GULP energy -89084.163846 kJ/mol
# GULP energy per Si atom -5567.760240 kJ/mol
# Density = 2.384591 g / cm^3
# Si number density = 23.900312 Si / 1000 Ang^3
#
#
#
# Elastic Constant Matrix: (Units=GPa)
#
#
# Indices 1 2 3 4 5 6 
#
# 1 70.6977 23.6941 26.4811 15.7866 -4.6145 0.3056
# 2 23.6941 145.4637 51.2370 34.4805 10.3156 -10.7711
# 3 26.4811 51.2370 122.2839 35.7000 -1.5937 7.7870
# 4 15.7866 34.4805 35.7000 53.3133 2.3152 6.5298
# 5 -4.6145 10.3156 -1.5937 2.3152 31.0335 6.6097
# 6 0.3056 -10.7711 7.7870 6.5298 6.6097 29.2824
#
#
#
# Elastic Compliance Matrix: (Units=1/GPa)
#
#
# Indices 1 2 3 4 5 6 
#
# 1 0.016202 -0.001564 -0.002063 -0.002498 0.003080 -0.000334
# 2 -0.001564 0.010145 -0.003037 -0.004674 -0.004837 0.006690
# 3 -0.002063 -0.003037 0.011572 -0.004833 0.002434 -0.003644
# 4 -0.002498 -0.004674 -0.004833 0.026526 0.000317 -0.006395
# 5 0.003080 -0.004837 0.002434 0.000317 0.036693 -0.010812
# 6 -0.000334 0.006690 -0.003644 -0.006395 -0.010812 0.041450
#
#
# Mechanical properties :
#
#
# Convention : Reuss Voigt Hill
#
# Bulk Modulus (GPa) = 40.66282 60.14108 50.40195
# Shear Modulus (GPa) = 30.46725 38.52806 34.49765
#
# Velocity S-wave (km/s) = 3.57426 4.01937 3.80333
# Velocity P-wave (km/s) = 5.83817 6.83801 6.35777
#
# Compressibility (1/GPa) = 0.02459249
#
# Stress axis : x y z
#
# Youngs Moduli (GPa) = 61.72205 98.56854 86.41888
#
# Poissons Ratio (x) = 0.15412 0.17826
# Poissons Ratio (y) = 0.09651 0.26242
# Poissons Ratio (z) = 0.12732 0.29932
#
# Static dielectric constant tensor:
#      x y z
#    x 2.001750 -0.033780 -0.038220 
#    y -0.033780 2.041070 -0.029170 
#    z -0.038220 -0.029170 2.041140 
# 
# From -- ./inp_files/495231.got.cif
#   From: 2010.05.17/outbox.cif.g08.bks.cpg/sg2_248_cif.got.tgz:495231.got - 2010.06.03 11:33:40.
