data_PCOD9026216
_publ_section_title
;
Structure prediction by ZEFSAII (Michael W. Deem and Ramdas Pophale) SiO2 
 PCOD9026216
Probable space group: P -1
;
_chemical_formula_sum "Si O2"
_cell_formula_units_Z 14
_cell_length_a 7.935809
_cell_length_b 15.811454
_cell_length_c 7.217618
_cell_angle_alpha 93.854468
_cell_angle_beta 62.838641
_cell_angle_gamma 51.257695
_cell_volume 541.141639
_symmetry_space_group_name_H-M "P -1"
_symmetry_group_IT_number 2
_symmetry_cell_setting 'triclinic'
loop_
_space_group_symop_operation_xyz
x,y,z
-x,-y,-z
loop_
_atom_site_type_symbol
_atom_site_label
_atom_site_fract_x
_atom_site_fract_y
_atom_site_fract_z
Si Si1 0.464999 0.712905 0.725492
Si Si2 0.131832 0.057796 0.138179
Si Si3 0.152075 0.309285 0.697738
Si Si4 0.640748 0.039557 0.381702
Si Si5 0.102402 0.735844 0.485181
Si Si6 0.257036 0.849240 0.206065
Si Si7 0.403449 0.538083 0.836631
O O1 0.745284 0.642243 0.458428
O O2 0.410230 0.633010 0.786108
O O3 0.186559 0.841697 0.776582
O O4 0.487368 0.749920 0.920766
O O5 0.121694 0.155743 0.238405
O O6 0.219299 0.963965 0.244874
O O7 0.332898 0.968207 0.854693
O O8 0.446956 0.173569 0.597850
O O9 0.044975 0.271832 0.600973
O O10 0.911382 0.395323 0.984604
O O11 0.500000 0.000000 0.500000
O O12 0.957971 0.930844 0.270101
O O13 0.250938 0.774420 0.345311
O O14 0.359742 0.593799 0.407408
O O15 0.500000 0.500000 0.000000
#
# Coordination Sequence:
#
# PCOD9026216 Si02
#       7
#     2   2   2   2   2   2   2
#     4  11  20  40  67  88 114 168 214 245 294 370
#     4  11  23  38  61  94 130 154 196 262 319 353
#     4  11  20  38  68  88 115 163 217 244 291 370
#     4  11  19  36  64  90 115 161 212 245 300 369
#     4  11  24  40  58  93 131 161 191 261 319 348
#     4  11  19  39  63  89 123 163 198 252 309 369
#     4  10  22  41  63  88 124 162 211 249 295 366
#
# _framework density 25.871229
#
# number of rings (size 3 to 8) (size 9 to 14) (size 15 to 20)
#    0.000    1.143    7.143    2.143    0.000    3.429 
#    0.000    0.714    0.000    0.000    0.000    0.000 
#    0.000    0.000    0.000    0.000    0.000    0.000 
#
# Total GULP energy -78161.679065 kJ/mol
# GULP energy per Si atom -5582.977076 kJ/mol
# Density = 2.581234 g / cm^3
# Si number density = 25.871229 Si / 1000 Ang^3
#
#
#
# Elastic Constant Matrix: (Units=GPa)
#
#
# Indices 1 2 3 4 5 6 
#
# 1 39.3148 2.8530 15.5132 -4.1273 -1.8151 6.7222
# 2 2.8530 150.7141 50.3427 -4.4217 -18.7226 8.1804
# 3 15.5132 50.3427 83.3721 -4.5787 -21.6823 15.4973
# 4 -4.1273 -4.4217 -4.5787 44.8373 2.4580 -5.0164
# 5 -1.8151 -18.7226 -21.6823 2.4580 42.0984 -6.3579
# 6 6.7222 8.1804 15.4973 -5.0164 -6.3579 16.8153
#
#
#
# Elastic Compliance Matrix: (Units=1/GPa)
#
#
# Indices 1 2 3 4 5 6 
#
# 1 0.028777 0.001406 -0.005229 0.001505 -0.002079 -0.007705
# 2 0.001406 0.008459 -0.005145 0.000445 0.001248 0.000669
# 3 -0.005229 -0.005145 0.019728 -0.000588 0.005942 -0.011517
# 4 0.001505 0.000445 -0.000588 0.023173 -0.000415 0.006480
# 5 -0.002079 0.001248 0.005942 -0.000415 0.028096 0.005247
# 6 -0.007705 0.000669 -0.011517 0.006480 0.005247 0.076756
#
#
# Mechanical properties :
#
#
# Convention : Reuss Voigt Hill
#
# Bulk Modulus (GPa) = 25.62289 45.64654 35.63471
# Shear Modulus (GPa) = 23.15535 34.39635 28.77585
#
# Velocity S-wave (km/s) = 2.99494 3.65022 3.33869
# Velocity P-wave (km/s) = 4.67815 5.95378 5.35409
#
# Compressibility (1/GPa) = 0.03902760
#
# Stress axis : x y z
#
# Youngs Moduli (GPa) = 34.75038 118.22198 50.69019
#
# Poissons Ratio (x) = -0.16624 0.26507
# Poissons Ratio (y) = -0.04886 0.26078
# Poissons Ratio (z) = 0.18172 0.60820
#
# Static dielectric constant tensor:
#      x y z
#    x 2.139950 -0.035290 0.046650 
#    y -0.035290 2.066070 -0.111300 
#    z 0.046650 -0.111300 2.368900 
# 
# From -- ./inp_files/180821.got.cif
#   From: 2010.05.17/outbox.cif.g08.bks.cpg/sg2_91_cif.got.tgz:180821.got - 2010.06.03 11:33:40.
