data_PCOD9026411
_publ_section_title
;
Structure prediction by ZEFSAII (Michael W. Deem and Ramdas Pophale) SiO2 
 PCOD9026411
Probable space group: P -1
;
_chemical_formula_sum "Si O2"
_cell_formula_units_Z 16
_cell_length_a 15.318998
_cell_length_b 12.088715
_cell_length_c 9.975968
_cell_angle_alpha 99.200630
_cell_angle_beta 107.224089
_cell_angle_gamma 27.985520
_cell_volume 806.470565
_symmetry_space_group_name_H-M "P -1"
_symmetry_group_IT_number 2
_symmetry_cell_setting 'triclinic'
loop_
_space_group_symop_operation_xyz
x,y,z
-x,-y,-z
loop_
_atom_site_type_symbol
_atom_site_label
_atom_site_fract_x
_atom_site_fract_y
_atom_site_fract_z
Si Si1 0.457570 0.773793 0.737139
Si Si2 0.870446 0.346614 0.703820
Si Si3 0.036353 0.551247 0.643379
Si Si4 0.084462 0.091120 0.483187
Si Si5 0.344926 0.598788 0.037993
Si Si6 0.117961 0.411681 0.167514
Si Si7 0.048711 0.969150 0.202742
Si Si8 0.552972 0.959181 0.171486
O O1 0.640616 0.584258 0.681518
O O2 0.540805 0.626104 0.880530
O O3 0.285768 0.887244 0.617521
O O4 0.385467 0.977908 0.770582
O O5 0.934703 0.402716 0.781530
O O6 0.973509 0.139952 0.802179
O O7 0.917389 0.270945 0.556299
O O8 0.266868 0.308346 0.741018
O O9 0.000000 0.500000 0.500000
O O10 0.951484 0.760503 0.595131
O O11 0.932339 0.615924 0.740066
O O12 0.091316 0.979281 0.365752
O O13 0.227799 0.790287 0.143444
O O14 0.500000 0.500000 0.000000
O O15 0.158640 0.761444 0.896279
O O16 0.350702 0.158005 0.196032
O O17 0.000000 0.500000 0.000000
O O18 0.500000 0.000000 0.000000
#
# Coordination Sequence:
#
# PCOD9026411 Si02
#       8
#     2   2   2   2   2   2   2   2
#     4  10  23  40  63  90 124 167 210 260 316 384
#     4  10  22  41  64  90 129 165 212 264 318 376
#     4  12  24  42  63  97 132 165 213 271 324 377
#     4  12  24  41  65  93 132 166 208 262 326 378
#     4  10  22  42  63  91 126 163 211 263 312 372
#     4  11  23  41  68  95 127 172 214 264 326 383
#     4  10  24  41  64  95 125 168 213 259 313 385
#     4  11  23  41  65  93 126 169 217 261 323 385
#
# _framework density 19.839531999999998
#
# number of rings (size 3 to 8) (size 9 to 14) (size 15 to 20)
#    0.000    1.250    3.750    1.125    1.750    6.500 
#    2.250    0.000    0.000    0.000    0.000    0.000 
#    0.000    0.000    0.000    0.000    0.000    0.000 
#
# Total GULP energy -89399.470812 kJ/mol
# GULP energy per Si atom -5587.466926 kJ/mol
# Density = 1.979438 g / cm^3
# Si number density = 19.839532 Si / 1000 Ang^3
#
#
#
# Elastic Constant Matrix: (Units=GPa)
#
#
# Indices 1 2 3 4 5 6 
#
# 1 85.8318 30.3986 14.2834 8.5057 -28.2891 -11.1040
# 2 30.3986 55.0567 15.8442 -8.2623 -8.3341 -6.7129
# 3 14.2834 15.8442 82.3080 7.8183 -9.8264 -6.4045
# 4 8.5057 -8.2623 7.8183 42.9397 -1.9073 -11.3254
# 5 -28.2891 -8.3341 -9.8264 -1.9073 39.4111 2.6112
# 6 -11.1040 -6.7129 -6.4045 -11.3254 2.6112 31.0779
#
#
#
# Elastic Compliance Matrix: (Units=1/GPa)
#
#
# Indices 1 2 3 4 5 6 
#
# 1 0.019627 -0.009607 0.000478 -0.004683 0.011795 0.002339
# 2 -0.009607 0.026226 -0.004120 0.008866 -0.002266 0.004805
# 3 0.000478 -0.004120 0.013522 -0.003037 0.002647 0.000738
# 4 -0.004683 0.008866 -0.003037 0.029141 -0.001520 0.010363
# 5 0.011795 -0.002266 0.002647 -0.001520 0.033889 0.000869
# 6 0.002339 0.004805 0.000738 0.010363 0.000869 0.037906
#
#
# Mechanical properties :
#
#
# Convention : Reuss Voigt Hill
#
# Bulk Modulus (GPa) = 30.41583 38.24989 34.33286
# Shear Modulus (GPa) = 25.28203 33.53043 29.40623
#
# Velocity S-wave (km/s) = 3.57364 4.11552 3.85412
# Velocity P-wave (km/s) = 5.69141 6.47339 6.09495
#
# Compressibility (1/GPa) = 0.03287761
#
# Stress axis : x y z
#
# Youngs Moduli (GPa) = 50.94908 38.12970 73.95543
#
# Poissons Ratio (x) = 0.36630 -0.03536
# Poissons Ratio (y) = 0.48945 0.30472
# Poissons Ratio (z) = -0.02436 0.15711
#
# Static dielectric constant tensor:
#      x y z
#    x 1.691290 -0.004540 0.001910 
#    y -0.004540 1.685530 0.030930 
#    z 0.001910 0.030930 1.663120 
# 
# From -- ./inp_files/188161.got.cif
#   From: 2010.05.17/outbox.cif.g08.bks.cpg/sg2_95_cif.got.tgz:188161.got - 2010.06.03 11:33:40.
