data_PCOD9026141
_publ_section_title
;
Structure prediction by ZEFSAII (Michael W. Deem and Ramdas Pophale) SiO2 
 PCOD9026141
Probable space group: P -1
;
_chemical_formula_sum "Si O2"
_cell_formula_units_Z 16
_cell_length_a 26.923098
_cell_length_b 8.919807
_cell_length_c 10.364786
_cell_angle_alpha 42.785180
_cell_angle_beta 26.010662
_cell_angle_gamma 34.517190
_cell_volume 618.319642
_symmetry_space_group_name_H-M "P -1"
_symmetry_group_IT_number 2
_symmetry_cell_setting 'triclinic'
loop_
_space_group_symop_operation_xyz
x,y,z
-x,-y,-z
loop_
_atom_site_type_symbol
_atom_site_label
_atom_site_fract_x
_atom_site_fract_y
_atom_site_fract_z
Si Si1 0.112353 0.683422 0.375792
Si Si2 0.345858 0.238983 0.689855
Si Si3 0.280497 0.810431 0.420638
Si Si4 0.645681 0.633135 0.142576
Si Si5 0.804032 0.294192 0.564594
Si Si6 0.474348 0.131027 0.116421
Si Si7 0.869865 0.667091 0.063182
Si Si8 0.186018 0.928556 0.843218
O O1 0.142925 0.806687 0.350494
O O2 0.256524 0.417919 0.173111
O O3 0.092820 0.846139 0.187376
O O4 0.001731 0.630177 0.713171
O O5 0.289229 0.319186 0.915749
O O6 0.497591 0.889548 0.304065
O O7 0.249627 0.205120 0.843307
O O8 0.500000 0.000000 0.500000
O O9 0.339761 0.497784 0.491183
O O10 0.218464 0.873932 0.381130
O O11 0.179033 0.952233 0.690347
O O12 0.404240 0.841734 0.136009
O O13 0.666084 0.351107 0.299871
O O14 0.661331 0.580452 0.737694
O O15 0.893886 0.388248 0.226152
O O16 0.500000 0.000000 0.000000
O O17 0.827183 0.842990 0.181559
#
# Coordination Sequence:
#
# PCOD9026141 Si02
#       8
#     2   2   2   2   2   2   2   2
#     4  10  22  41  64  89 128 161 217 248 310 367
#     4  10  22  41  62  94 127 161 205 258 316 368
#     4  10  23  40  62  92 129 161 203 259 316 366
#     4   9  21  38  59  92 125 155 207 253 312 361
#     4  11  23  41  61  94 125 165 208 256 310 370
#     4  12  21  39  65  93 126 165 206 259 311 369
#     4  11  22  40  69  87 122 170 207 257 307 370
#     4   9  21  40  60  91 124 159 211 255 307 371
#
# _framework density 25.876583
#
# number of rings (size 3 to 8) (size 9 to 14) (size 15 to 20)
#    0.750    1.000    1.250    3.375    0.000    3.500 
#    0.000    5.625    0.000    0.000    0.000    0.000 
#    0.000    0.000    0.000    0.000    0.000    0.000 
#
# Total GULP energy -89422.963258 kJ/mol
# GULP energy per Si atom -5588.935204 kJ/mol
# Density = 2.581769 g / cm^3
# Si number density = 25.876583 Si / 1000 Ang^3
#
#
#
# Elastic Constant Matrix: (Units=GPa)
#
#
# Indices 1 2 3 4 5 6 
#
# 1 184.8993 27.0878 61.5084 8.7865 13.0328 36.4984
# 2 27.0878 76.1545 21.5211 -0.8828 -5.9398 14.9519
# 3 61.5084 21.5211 102.4363 9.0213 9.4720 24.8572
# 4 8.7865 -0.8828 9.0213 36.1206 11.8874 2.0958
# 5 13.0328 -5.9398 9.4720 11.8874 42.9952 1.3587
# 6 36.4984 14.9519 24.8572 2.0958 1.3587 48.3629
#
#
#
# Elastic Compliance Matrix: (Units=1/GPa)
#
#
# Indices 1 2 3 4 5 6 
#
# 1 0.007475 -0.001174 -0.003204 -0.000341 -0.001515 -0.003574
# 2 -0.001174 0.014897 -0.002052 0.000386 0.002847 -0.002762
# 3 -0.003204 -0.002052 0.013320 -0.001852 -0.001619 -0.003668
# 4 -0.000341 0.000386 -0.001852 0.030863 -0.007968 -0.000024
# 5 -0.001515 0.002847 -0.001619 -0.007968 0.026649 0.000692
# 6 -0.003574 -0.002762 -0.003668 -0.000024 0.000692 0.026095
#
#
# Mechanical properties :
#
#
# Convention : Reuss Voigt Hill
#
# Bulk Modulus (GPa) = 43.79788 64.85829 54.32808
# Shear Modulus (GPa) = 35.77315 42.38726 39.08021
#
# Velocity S-wave (km/s) = 3.72217 4.05168 3.89041
# Velocity P-wave (km/s) = 5.95274 6.85617 6.42036
#
# Compressibility (1/GPa) = 0.02283216
#
# Stress axis : x y z
#
# Youngs Moduli (GPa) = 133.78530 67.12621 75.07430
#
# Poissons Ratio (x) = 0.07878 0.24056
# Poissons Ratio (y) = 0.15701 0.15406
# Poissons Ratio (z) = 0.42869 0.13775
#
# Static dielectric constant tensor:
#      x y z
#    x 2.079170 -0.052950 0.010410 
#    y -0.052950 2.122050 0.026870 
#    z 0.010410 0.026870 2.074340 
# 
# From -- ./inp_files/351691.got.cif
#   From: 2010.05.17/outbox.cif.g08.bks.cpg/sg2_176_cif.got.tgz:351691.got - 2010.06.03 11:33:40.
