data_PCOD9026399
_publ_section_title
;
Structure prediction by ZEFSAII (Michael W. Deem and Ramdas Pophale) SiO2 
 PCOD9026399
Probable space group: P -1
;
_chemical_formula_sum "Si O2"
_cell_formula_units_Z 16
_cell_length_a 8.714447
_cell_length_b 5.330487
_cell_length_c 16.147927
_cell_angle_alpha 94.796037
_cell_angle_beta 65.540465
_cell_angle_gamma 79.756441
_cell_volume 661.471749
_symmetry_space_group_name_H-M "P -1"
_symmetry_group_IT_number 2
_symmetry_cell_setting 'triclinic'
loop_
_space_group_symop_operation_xyz
x,y,z
-x,-y,-z
loop_
_atom_site_type_symbol
_atom_site_label
_atom_site_fract_x
_atom_site_fract_y
_atom_site_fract_z
Si Si1 0.678791 0.358905 0.501661
Si Si2 0.025838 0.141326 0.318322
Si Si3 0.316816 0.126850 0.392277
Si Si4 0.525962 0.532302 0.126298
Si Si5 0.200970 0.938602 0.959088
Si Si6 0.689821 0.699252 0.940860
Si Si7 0.998902 0.376585 0.783131
Si Si8 0.634120 0.852162 0.230161
O O1 0.732843 0.596047 0.543774
O O2 0.833567 0.226637 0.402092
O O3 0.660065 0.121868 0.558834
O O4 0.508851 0.093496 0.308988
O O5 0.169506 0.118560 0.357221
O O6 0.037489 0.371665 0.259804
O O7 0.046284 0.870333 0.258000
O O8 0.500000 0.500000 0.500000
O O9 0.718449 0.357965 0.083979
O O10 0.402069 0.343752 0.125855
O O11 0.499850 0.689230 0.220510
O O12 0.544380 0.688564 0.043039
O O13 0.278626 0.072615 0.870132
O O14 0.252500 0.045834 0.037581
O O15 0.000000 0.000000 0.000000
O O16 0.866610 0.472147 0.891722
O O17 0.203051 0.297833 0.757303
#
# Coordination Sequence:
#
# PCOD9026399 Si02
#       8
#     2   2   2   2   2   2   2   2
#     4  12  25  48  76 106 142 180 227 283 354 418
#     4  12  27  46  71 105 140 186 229 287 348 417
#     4  12  26  46  76 103 143 181 232 284 346 419
#     4  10  22  41  64  89 138 173 243 281 356 408
#     4  11  23  39  66  92 138 177 238 284 355 409
#     4  10  23  40  62  97 128 189 227 296 344 416
#     4  12  26  43  69 100 144 178 240 282 348 409
#     4  11  26  41  66 103 132 186 231 295 345 410
#
# _framework density 24.188485
#
# number of rings (size 3 to 8) (size 9 to 14) (size 15 to 20)
#    0.000    0.750    0.000    6.750    8.750    2.000 
#    0.000    0.000    0.000    0.000    0.000    0.000 
#    0.000    0.000    0.000    0.000    0.000    0.000 
#
# Total GULP energy -89489.803465 kJ/mol
# GULP energy per Si atom -5593.112717 kJ/mol
# Density = 2.413343 g / cm^3
# Si number density = 24.188485 Si / 1000 Ang^3
#
#
#
# Elastic Constant Matrix: (Units=GPa)
#
#
# Indices 1 2 3 4 5 6 
#
# 1 111.9525 14.8904 16.8839 -16.3621 -2.5161 -12.6061
# 2 14.8904 130.7101 43.6418 9.3628 13.5789 -3.9151
# 3 16.8839 43.6418 74.1132 8.9655 -10.4508 4.4471
# 4 -16.3621 9.3628 8.9655 38.1359 -4.1968 -3.0008
# 5 -2.5161 13.5789 -10.4508 -4.1968 49.5287 7.1678
# 6 -12.6061 -3.9151 4.4471 -3.0008 7.1678 32.3431
#
#
#
# Elastic Compliance Matrix: (Units=1/GPa)
#
#
# Indices 1 2 3 4 5 6 
#
# 1 0.010950 -0.000357 -0.003369 0.005961 -0.000320 0.005312
# 2 -0.000357 0.010727 -0.006948 -0.001460 -0.004996 0.003086
# 3 -0.003369 -0.006948 0.020213 -0.004298 0.006619 -0.006799
# 4 0.005961 -0.001460 -0.004298 0.030741 0.001645 0.005225
# 5 -0.000320 -0.004996 0.006619 0.001645 0.024067 -0.006821
# 6 0.005312 0.003086 -0.006799 0.005225 -0.006821 0.036294
#
#
# Mechanical properties :
#
#
# Convention : Reuss Voigt Hill
#
# Bulk Modulus (GPa) = 48.68299 51.95647 50.31973
# Shear Modulus (GPa) = 31.01973 40.09220 35.55596
#
# Velocity S-wave (km/s) = 3.58497 4.07565 3.83816
# Velocity P-wave (km/s) = 6.10788 6.60866 6.36320
#
# Compressibility (1/GPa) = 0.02054106
#
# Stress axis : x y z
#
# Youngs Moduli (GPa) = 91.32356 93.22154 49.47250
#
# Poissons Ratio (x) = 0.03328 0.16669
# Poissons Ratio (y) = 0.03261 0.34375
# Poissons Ratio (z) = 0.30770 0.64774
#
# Static dielectric constant tensor:
#      x y z
#    x 1.924660 0.032390 0.014710 
#    y 0.032390 1.988110 -0.058520 
#    z 0.014710 -0.058520 1.986440 
# 
# From -- ./inp_files/106848.got.cif
#   From: 2010.05.17/outbox.cif.g08.bks.cpg/sg2_54_cif.got.tgz:106848.got - 2010.06.03 11:33:40.
