data_PCOD9026053
_publ_section_title
;
Structure prediction by ZEFSAII (Michael W. Deem and Ramdas Pophale) SiO2 
 PCOD9026053
Probable space group: P -1
;
_chemical_formula_sum "Si O2"
_cell_formula_units_Z 16
_cell_length_a 15.138389
_cell_length_b 8.054241
_cell_length_c 12.655023
_cell_angle_alpha 80.666423
_cell_angle_beta 27.184932
_cell_angle_gamma 87.225533
_cell_volume 679.701937
_symmetry_space_group_name_H-M "P -1"
_symmetry_group_IT_number 2
_symmetry_cell_setting 'triclinic'
loop_
_space_group_symop_operation_xyz
x,y,z
-x,-y,-z
loop_
_atom_site_type_symbol
_atom_site_label
_atom_site_fract_x
_atom_site_fract_y
_atom_site_fract_z
Si Si1 0.823763 0.006145 0.105654
Si Si2 0.947869 0.157638 0.469509
Si Si3 0.631411 0.670034 0.991849
Si Si4 0.938648 0.731662 0.316049
Si Si5 0.558830 0.271958 0.429168
Si Si6 0.372025 0.124108 0.235457
Si Si7 0.763548 0.332013 0.831399
Si Si8 0.363003 0.499992 0.477451
O O1 0.697184 0.142810 0.265739
O O2 0.659264 0.831041 0.291330
O O3 0.934279 0.084545 0.874542
O O4 0.000000 0.000000 0.000000
O O5 0.877501 0.290477 0.610355
O O6 0.156990 0.247130 0.188668
O O7 0.764281 0.065751 0.603322
O O8 0.000000 0.000000 0.500000
O O9 0.593414 0.801108 0.928102
O O10 0.665179 0.496517 0.915934
O O11 0.461619 0.617905 0.263708
O O12 0.759865 0.763842 0.574804
O O13 0.840445 0.618589 0.334018
O O14 0.082608 0.644470 0.239891
O O15 0.513865 0.379289 0.364297
O O16 0.655018 0.392811 0.409704
O O17 0.587594 0.163301 0.053227
#
# Coordination Sequence:
#
# PCOD9026053 Si02
#       8
#     2   2   2   2   2   2   2   2
#     4  11  24  47  74  99 132 178 226 285 347 406
#     4  10  22  41  61  94 135 183 225 270 322 392
#     4  11  23  42  69  99 138 181 225 274 335 406
#     4  12  25  42  70 101 139 177 225 277 344 404
#     4  10  25  49  72 100 137 173 231 293 342 403
#     4  11  25  43  65 101 143 177 228 275 326 411
#     4  12  23  42  68  93 141 186 219 279 332 394
#     4  11  24  46  70 105 137 178 231 287 341 407
#
# _framework density 23.539732000000001
#
# number of rings (size 3 to 8) (size 9 to 14) (size 15 to 20)
#    0.000    1.000    5.000    1.875    1.750    0.500 
#    2.250    2.500    0.000    0.000    0.000    0.000 
#    0.000    0.000    0.000    0.000    0.000    0.000 
#
# Total GULP energy -89570.068152 kJ/mol
# GULP energy per Si atom -5598.129259 kJ/mol
# Density = 2.348615 g / cm^3
# Si number density = 23.539732 Si / 1000 Ang^3
#
#
#
# Elastic Constant Matrix: (Units=GPa)
#
#
# Indices 1 2 3 4 5 6 
#
# 1 106.4447 31.1734 20.1445 -0.6243 -20.0524 16.7254
# 2 31.1734 56.1166 -4.1218 -5.5582 -7.1695 9.2369
# 3 20.1445 -4.1218 94.8270 -17.5073 -8.4687 -4.6581
# 4 -0.6243 -5.5582 -17.5073 33.6634 -3.0655 -7.8617
# 5 -20.0524 -7.1695 -8.4687 -3.0655 29.3165 -11.6090
# 6 16.7254 9.2369 -4.6581 -7.8617 -11.6090 34.2739
#
#
#
# Elastic Compliance Matrix: (Units=1/GPa)
#
#
# Indices 1 2 3 4 5 6 
#
# 1 0.013631 -0.006864 -0.003666 -0.003462 0.004401 -0.004603
# 2 -0.006864 0.022822 0.003740 0.005791 0.002530 -0.000108
# 3 -0.003666 0.003740 0.014328 0.010298 0.006512 0.007296
# 4 -0.003462 0.005791 0.010298 0.040557 0.012188 0.014959
# 5 0.004401 0.002530 0.006512 0.012188 0.047619 0.016981
# 6 -0.004603 -0.000108 0.007296 0.014959 0.016981 0.041627
#
#
# Mechanical properties :
#
#
# Convention : Reuss Voigt Hill
#
# Bulk Modulus (GPa) = 26.88132 39.08672 32.98402
# Shear Modulus (GPa) = 24.20549 33.46357 28.83453
#
# Velocity S-wave (km/s) = 3.21016 3.77447 3.50370
# Velocity P-wave (km/s) = 5.01842 5.96960 5.51456
#
# Compressibility (1/GPa) = 0.03720055
#
# Stress axis : x y z
#
# Youngs Moduli (GPa) = 73.36418 43.81676 69.79253
#
# Poissons Ratio (x) = 0.30076 0.25587
# Poissons Ratio (y) = 0.50358 -0.26102
# Poissons Ratio (z) = 0.26897 -0.16387
#
# Static dielectric constant tensor:
#      x y z
#    x 1.897050 0.007360 -0.012620 
#    y 0.007360 1.917540 -0.043770 
#    z -0.012620 -0.043770 1.887310 
# 
# From -- ./inp_files/447320.got.cif
#   From: 2010.05.17/outbox.cif.g08.bks.cpg/sg2_224_cif.got.tgz:447320.got - 2010.06.03 11:33:40.
