data_PCOD9026577
_publ_section_title
;
Structure prediction by ZEFSAII (Michael W. Deem and Ramdas Pophale) SiO2 
 PCOD9026577
Probable space group: P -1
;
_chemical_formula_sum "Si O2"
_cell_formula_units_Z 16
_cell_length_a 8.913287
_cell_length_b 5.467432
_cell_length_c 18.868591
_cell_angle_alpha 82.572517
_cell_angle_beta 117.740454
_cell_angle_gamma 121.067164
_cell_volume 689.597381
_symmetry_space_group_name_H-M "P -1"
_symmetry_group_IT_number 2
_symmetry_cell_setting 'triclinic'
loop_
_space_group_symop_operation_xyz
x,y,z
-x,-y,-z
loop_
_atom_site_type_symbol
_atom_site_label
_atom_site_fract_x
_atom_site_fract_y
_atom_site_fract_z
Si Si1 0.947855 0.511948 0.375194
Si Si2 0.850526 0.147469 0.240225
Si Si3 0.551347 0.119488 0.927028
Si Si4 0.258704 0.420141 0.492233
Si Si5 0.670791 0.894732 0.594867
Si Si6 0.329288 0.293425 0.654586
Si Si7 0.239485 0.256384 0.241835
Si Si8 0.220691 0.185104 0.073398
O O1 0.899001 0.428037 0.285086
O O2 0.754290 0.489761 0.365148
O O3 0.035555 0.350380 0.445351
O O4 0.145713 0.823292 0.407443
O O5 0.039141 0.216679 0.232176
O O6 0.655857 0.007578 0.155066
O O7 0.796824 0.931534 0.303388
O O8 0.672418 0.471935 0.936480
O O9 0.665274 0.972713 0.922819
O O10 0.500000 0.000000 0.000000
O O11 0.438881 0.746276 0.533623
O O12 0.292301 0.348949 0.422411
O O13 0.294524 0.234041 0.565467
O O14 0.704187 0.921003 0.685374
O O15 0.559233 0.429703 0.718734
O O16 0.212251 0.171713 0.157400
O O17 0.000000 0.000000 0.000000
#
# Coordination Sequence:
#
# PCOD9026577 Si02
#       8
#     2   2   2   2   2   2   2   2
#     4  12  22  40  66 103 135 192 257 309 386 448
#     4  12  26  46  72 105 148 198 246 316 385 455
#     4  12  28  53  83 121 163 202 255 323 389 472
#     4  10  22  41  64  97 139 193 253 315 378 448
#     4  10  22  41  64  97 140 190 250 311 380 447
#     4  11  24  44  67  97 148 189 254 311 374 459
#     4  11  23  48  70 104 148 198 244 310 379 459
#     4  12  27  51  84 124 159 204 257 314 393 471
#
# _framework density 23.201943
#
# number of rings (size 3 to 8) (size 9 to 14) (size 15 to 20)
#    0.000    0.750    3.750    3.000    0.000    5.000 
#    4.500    0.000    0.000    0.000    0.000    0.000 
#    0.000    0.000    0.000    0.000    0.000    0.000 
#
# Total GULP energy -89289.430393 kJ/mol
# GULP energy per Si atom -5580.589400 kJ/mol
# Density = 2.314913 g / cm^3
# Si number density = 23.201943 Si / 1000 Ang^3
#
#
#
# Elastic Constant Matrix: (Units=GPa)
#
#
# Indices 1 2 3 4 5 6 
#
# 1 151.8534 69.4308 60.1480 7.2209 5.1520 29.6553
# 2 69.4308 126.1849 57.2066 20.0902 5.4828 24.8603
# 3 60.1480 57.2066 187.9332 21.2332 2.0265 14.7570
# 4 7.2209 20.0902 21.2332 32.4940 14.5309 1.1885
# 5 5.1520 5.4828 2.0265 14.5309 51.7073 2.0871
# 6 29.6553 24.8603 14.7570 1.1885 2.0871 30.0891
#
#
#
# Elastic Compliance Matrix: (Units=1/GPa)
#
#
# Indices 1 2 3 4 5 6 
#
# 1 0.010175 -0.003868 -0.001818 0.001906 -0.000828 -0.005959
# 2 -0.003868 0.012869 -0.001505 -0.006397 0.001116 -0.005907
# 3 -0.001818 -0.001505 0.006769 -0.003567 0.001087 -0.000220
# 4 0.001906 -0.006397 -0.003567 0.041491 -0.011205 0.004294
# 5 -0.000828 0.001116 0.001087 -0.011205 0.022481 -0.001756
# 6 -0.005959 -0.005907 -0.000220 0.004294 -0.001756 0.044048
#
#
# Mechanical properties :
#
#
# Convention : Reuss Voigt Hill
#
# Bulk Modulus (GPa) = 64.79858 93.28247 79.04053
# Shear Modulus (GPa) = 31.77459 41.47050 36.62254
#
# Velocity S-wave (km/s) = 3.70466 4.23232 3.97725
# Velocity P-wave (km/s) = 6.80353 8.01094 7.43180
#
# Compressibility (1/GPa) = 0.01543244
#
# Stress axis : x y z
#
# Youngs Moduli (GPa) = 98.28067 77.70491 147.72388
#
# Poissons Ratio (x) = 0.30057 0.26850
# Poissons Ratio (y) = 0.38016 0.22230
# Poissons Ratio (z) = 0.17863 0.11693
#
# Static dielectric constant tensor:
#      x y z
#    x 1.903090 -0.061100 -0.008010 
#    y -0.061100 2.074740 -0.057360 
#    z -0.008010 -0.057360 1.874390 
# 
# From -- ./inp_files/553455.got.cif
#   From: 2010.05.17/outbox.cif.g08.bks.cpg/sg2_277_cif.got.tgz:553455.got - 2010.06.03 11:33:40.
