data_PCOD9026756
_publ_section_title
;
Structure prediction by ZEFSAII (Michael W. Deem and Ramdas Pophale) SiO2 
 PCOD9026756
Probable space group: P -1
;
_chemical_formula_sum "Si O2"
_cell_formula_units_Z 16
_cell_length_a 10.874135
_cell_length_b 7.036762
_cell_length_c 13.818856
_cell_angle_alpha 137.486056
_cell_angle_beta 81.980975
_cell_angle_gamma 93.843906
_cell_volume 706.559512
_symmetry_space_group_name_H-M "P -1"
_symmetry_group_IT_number 2
_symmetry_cell_setting 'triclinic'
loop_
_space_group_symop_operation_xyz
x,y,z
-x,-y,-z
loop_
_atom_site_type_symbol
_atom_site_label
_atom_site_fract_x
_atom_site_fract_y
_atom_site_fract_z
Si Si1 0.032250 0.600204 0.427835
Si Si2 0.803344 0.920541 0.471028
Si Si3 0.649898 0.317796 0.785411
Si Si4 0.266592 0.999148 0.777981
Si Si5 0.412989 0.118547 0.641346
Si Si6 0.637532 0.969776 0.014902
Si Si7 0.772183 0.328690 0.979774
Si Si8 0.992703 0.953440 0.867227
O O1 0.127351 0.847891 0.512081
O O2 0.000000 0.500000 0.500000
O O3 0.075955 0.328876 0.258275
O O4 0.909372 0.728166 0.436723
O O5 0.727885 0.100998 0.627862
O O6 0.706316 0.752429 0.355904
O O7 0.504712 0.287752 0.762925
O O8 0.679508 0.639455 0.882389
O O9 0.691991 0.251999 0.865549
O O10 0.347463 0.900088 0.638456
O O11 0.130405 0.908126 0.788871
O O12 0.352112 0.951128 0.844457
O O13 0.242250 0.335052 0.887842
O O14 0.500000 0.000000 0.500000
O O15 0.719380 0.167500 0.016348
O O16 0.500000 0.000000 0.000000
O O17 0.915337 0.209309 0.918632
O O18 0.000000 0.000000 0.000000
#
# Coordination Sequence:
#
# PCOD9026756 Si02
#       8
#     2   2   2   2   2   2   2   2
#     4  11  24  43  67  97 135 180 230 275 346 408
#     4  10  23  42  68  91 133 181 221 284 330 403
#     4  10  22  41  65  95 131 177 229 273 339 408
#     4  11  24  42  66  97 138 177 224 276 346 404
#     4  10  22  42  66  95 125 175 233 276 327 398
#     4  11  22  38  64  97 134 179 220 280 339 403
#     4  11  23  41  66  97 141 178 218 278 349 412
#     4  12  25  42  68 106 139 176 227 287 347 408
#
# _framework density 22.644943999999999
#
# number of rings (size 3 to 8) (size 9 to 14) (size 15 to 20)
#    0.000    1.250    1.250    4.125    3.500    4.000 
#    0.000    1.250    0.000   12.000    0.000    0.000 
#    0.000    0.000    0.000    0.000    0.000    0.000 
#
# Total GULP energy -89401.133417 kJ/mol
# GULP energy per Si atom -5587.570839 kJ/mol
# Density = 2.259340 g / cm^3
# Si number density = 22.644944 Si / 1000 Ang^3
#
#
#
# Elastic Constant Matrix: (Units=GPa)
#
#
# Indices 1 2 3 4 5 6 
#
# 1 122.4286 34.8759 29.4517 -19.2592 10.9836 -3.5195
# 2 34.8759 123.6804 45.9650 -15.4320 9.3279 -0.0118
# 3 29.4517 45.9650 91.7940 -22.5778 7.0522 -4.1779
# 4 -19.2592 -15.4320 -22.5778 37.1360 -1.6246 -1.3404
# 5 10.9836 9.3279 7.0522 -1.6246 33.8911 -12.4810
# 6 -3.5195 -0.0118 -4.1779 -1.3404 -12.4810 39.4878
#
#
#
# Elastic Compliance Matrix: (Units=1/GPa)
#
#
# Indices 1 2 3 4 5 6 
#
# 1 0.009693 -0.001672 -0.001239 0.003488 -0.002199 0.000156
# 2 -0.001672 0.010422 -0.004439 0.000645 -0.001800 -0.001163
# 3 -0.001239 -0.004439 0.015321 0.006854 -0.000673 0.001529
# 4 0.003488 0.000645 0.006854 0.033229 -0.000390 0.002041
# 5 -0.002199 -0.001800 -0.000673 -0.000390 0.034781 0.010712
# 6 0.000156 -0.001163 0.001529 0.002041 0.010712 0.028955
#
#
# Mechanical properties :
#
#
# Convention : Reuss Voigt Hill
#
# Bulk Modulus (GPa) = 48.22027 62.05425 55.13726
# Shear Modulus (GPa) = 32.46515 37.27700 34.87108
#
# Velocity S-wave (km/s) = 3.79048 4.06168 3.92842
# Velocity P-wave (km/s) = 6.36375 7.03271 6.70657
#
# Compressibility (1/GPa) = 0.02073817
#
# Stress axis : x y z
#
# Youngs Moduli (GPa) = 103.17001 95.94667 65.26962
#
# Poissons Ratio (x) = 0.16040 0.08085
# Poissons Ratio (y) = 0.17247 0.28970
# Poissons Ratio (z) = 0.12780 0.42587
#
# Static dielectric constant tensor:
#      x y z
#    x 1.932100 -0.028220 -0.044720 
#    y -0.028220 2.014120 0.040210 
#    z -0.044720 0.040210 1.892630 
# 
# From -- ./inp_files/411239.got.cif
#   From: 2010.05.17/outbox.cif.g08.bks.cpg/sg2_206_cif.got.tgz:411239.got - 2010.06.03 11:33:40.
