data_PCOD9026362
_publ_section_title
;
Structure prediction by ZEFSAII (Michael W. Deem and Ramdas Pophale) SiO2 
 PCOD9026362
Probable space group: P -1
;
_chemical_formula_sum "Si O2"
_cell_formula_units_Z 16
_cell_length_a 15.334447
_cell_length_b 8.285877
_cell_length_c 8.394865
_cell_angle_alpha 97.817339
_cell_angle_beta 111.126083
_cell_angle_gamma 125.368166
_cell_volume 723.279176
_symmetry_space_group_name_H-M "P -1"
_symmetry_group_IT_number 2
_symmetry_cell_setting 'triclinic'
loop_
_space_group_symop_operation_xyz
x,y,z
-x,-y,-z
loop_
_atom_site_type_symbol
_atom_site_label
_atom_site_fract_x
_atom_site_fract_y
_atom_site_fract_z
Si Si1 0.531795 0.000572 0.241432
Si Si2 0.459867 0.295536 0.237884
Si Si3 0.192126 0.027133 0.874466
Si Si4 0.949793 0.391787 0.126590
Si Si5 0.907131 0.782239 0.302797
Si Si6 0.277177 0.698870 0.843220
Si Si7 0.606516 0.787998 0.453595
Si Si8 0.123737 0.811938 0.452846
O O1 0.518518 0.182078 0.269903
O O2 0.661708 0.133464 0.242679
O O3 0.539236 0.880040 0.373372
O O4 0.404538 0.800198 0.035371
O O5 0.551021 0.559060 0.302096
O O6 0.405094 0.255830 0.373296
O O7 0.339290 0.161320 0.022821
O O8 0.098693 0.850353 0.925969
O O9 0.142610 0.883676 0.658609
O O10 0.170960 0.193363 0.860001
O O11 0.819284 0.322547 0.102179
O O12 0.066771 0.566124 0.348882
O O13 0.000000 0.500000 0.000000
O O14 0.804870 0.552935 0.299013
O O15 0.007629 0.777276 0.293698
O O16 0.000000 0.000000 0.500000
O O17 0.750676 0.989388 0.527816
#
# Coordination Sequence:
#
# PCOD9026362 Si02
#       8
#     2   2   2   2   2   2   2   2
#     4  11  23  42  71  95 136 175 222 285 323 392
#     4  11  25  43  67  96 137 174 224 276 334 405
#     4  11  21  41  67  95 123 174 223 271 333 387
#     4  11  22  42  65  93 134 171 212 272 334 400
#     4   9  21  39  62  94 130 162 214 279 325 387
#     4  10  22  41  64 101 126 166 232 267 327 402
#     4  11  25  44  63 102 135 177 221 274 344 399
#     4  10  23  40  65  95 132 167 221 276 322 407
#
# _framework density 22.121472000000001
#
# number of rings (size 3 to 8) (size 9 to 14) (size 15 to 20)
#    0.000    1.500    1.250    3.000    5.250    2.500 
#    0.000    6.875    0.000    0.000    0.000    0.000 
#    0.000    0.000    0.000    0.000    0.000    0.000 
#
# Total GULP energy -89193.802615 kJ/mol
# GULP energy per Si atom -5574.612663 kJ/mol
# Density = 2.207112 g / cm^3
# Si number density = 22.121472 Si / 1000 Ang^3
#
#
#
# Elastic Constant Matrix: (Units=GPa)
#
#
# Indices 1 2 3 4 5 6 
#
# 1 66.2243 48.0659 29.0700 5.1818 12.2545 0.9774
# 2 48.0659 121.9215 33.3080 21.8710 21.2552 5.1852
# 3 29.0700 33.3080 73.4516 16.2259 9.2573 1.2669
# 4 5.1818 21.8710 16.2259 47.7534 0.4271 3.8721
# 5 12.2545 21.2552 9.2573 0.4271 27.6204 -3.2427
# 6 0.9774 5.1852 1.2669 3.8721 -3.2427 44.0367
#
#
#
# Elastic Compliance Matrix: (Units=1/GPa)
#
#
# Indices 1 2 3 4 5 6 
#
# 1 0.023686 -0.007768 -0.006230 0.003117 -0.002478 0.000112
# 2 -0.007768 0.013708 -0.001187 -0.004851 -0.006804 -0.001482
# 3 -0.006230 -0.001187 0.017980 -0.004871 -0.002271 0.000022
# 4 0.003117 -0.004851 -0.004871 0.024551 0.003455 -0.001262
# 5 -0.002478 -0.006804 -0.002271 0.003455 0.043698 0.003835
# 6 0.000112 -0.001482 0.000022 -0.001262 0.003835 0.023273
#
#
# Mechanical properties :
#
#
# Convention : Reuss Voigt Hill
#
# Bulk Modulus (GPa) = 39.99336 53.60946 46.80141
# Shear Modulus (GPa) = 26.93947 33.95900 30.44924
#
# Velocity S-wave (km/s) = 3.49348 3.92230 3.71409
# Velocity P-wave (km/s) = 5.86436 6.69323 6.29246
#
# Compressibility (1/GPa) = 0.02500415
#
# Stress axis : x y z
#
# Youngs Moduli (GPa) = 42.21938 72.94996 55.61641
#
# Poissons Ratio (x) = 0.56666 0.34649
# Poissons Ratio (y) = 0.32795 0.06603
# Poissons Ratio (z) = 0.26303 0.08661
#
# Static dielectric constant tensor:
#      x y z
#    x 1.982940 -0.213100 -0.046400 
#    y -0.213100 2.009740 0.039780 
#    z -0.046400 0.039780 1.862900 
# 
# From -- ./inp_files/327617.got.cif
#   From: 2010.05.17/outbox.cif.g08.bks.cpg/sg2_164_cif.got.tgz:327617.got - 2010.06.03 11:33:40.
