data_PCOD9026130
_publ_section_title
;
Structure prediction by ZEFSAII (Michael W. Deem and Ramdas Pophale) SiO2 
 PCOD9026130
Probable space group: P -1
;
_chemical_formula_sum "Si O2"
_cell_formula_units_Z 12
_cell_length_a 20.161909
_cell_length_b 12.029651
_cell_length_c 15.594513
_cell_angle_alpha 23.925469
_cell_angle_beta 163.103144
_cell_angle_gamma 152.795217
_cell_volume 442.317535
_symmetry_space_group_name_H-M "P -1"
_symmetry_group_IT_number 2
_symmetry_cell_setting 'triclinic'
loop_
_space_group_symop_operation_xyz
x,y,z
-x,-y,-z
loop_
_atom_site_type_symbol
_atom_site_label
_atom_site_fract_x
_atom_site_fract_y
_atom_site_fract_z
Si Si1 0.241878 0.602079 0.421205
Si Si2 0.463896 0.860741 0.356945
Si Si3 0.636629 0.286464 0.938075
Si Si4 0.939822 0.540499 0.539843
Si Si5 0.921670 0.269097 0.136274
Si Si6 0.960290 0.091866 0.758670
O O1 0.428354 0.799999 0.457723
O O2 0.277831 0.534041 0.613364
O O3 0.143030 0.329718 0.433509
O O4 0.036230 0.794239 0.042903
O O5 0.504125 0.550483 0.597088
O O6 0.226118 0.939619 0.966465
O O7 0.683160 0.052518 0.455658
O O8 0.724910 0.280535 0.955131
O O9 0.856860 0.314363 0.252452
O O10 0.500000 0.000000 0.000000
O O11 0.931051 0.720559 0.317206
O O12 0.032051 0.262406 0.813099
O O13 0.000000 0.500000 0.000000
#
# Coordination Sequence:
#
# PCOD9026130 Si02
#       6
#     2   2   2   2   2   2
#     4  10  22  41  62  93 124 160 204 254 302 361
#     4  11  22  39  65  92 120 168 201 247 315 359
#     4  11  22  38  62  91 124 159 203 255 299 367
#     4  10  23  42  62  94 121 163 206 249 308 358
#     4   9  19  37  58  87 118 155 202 240 301 357
#     4  11  22  43  66  85 129 162 201 257 300 365
#
# _framework density 27.129830999999999
#
# number of rings (size 3 to 8) (size 9 to 14) (size 15 to 20)
#    0.000    1.667    3.333    2.000    2.333    0.667 
#    9.000    4.167    0.000    0.000    0.000    0.000 
#    0.000    0.000    0.000    0.000    0.000    0.000 
#
# Total GULP energy -66916.877208 kJ/mol
# GULP energy per Si atom -5576.406434 kJ/mol
# Density = 2.706808 g / cm^3
# Si number density = 27.129831 Si / 1000 Ang^3
#
#
#
# Elastic Constant Matrix: (Units=GPa)
#
#
# Indices 1 2 3 4 5 6 
#
# 1 230.1989 43.5068 8.4424 -2.0641 6.2787 42.2567
# 2 43.5068 87.0650 22.0159 0.3280 12.1783 27.3578
# 3 8.4424 22.0159 66.7538 -9.6304 7.5389 6.0139
# 4 -2.0641 0.3280 -9.6304 40.2841 4.3885 1.6176
# 5 6.2787 12.1783 7.5389 4.3885 28.1474 3.6744
# 6 42.2567 27.3578 6.0139 1.6176 3.6744 46.6269
#
#
#
# Elastic Compliance Matrix: (Units=1/GPa)
#
#
# Indices 1 2 3 4 5 6 
#
# 1 0.005361 -0.001449 0.000263 0.000533 -0.000194 -0.004045
# 2 -0.001449 0.016155 -0.004027 -0.000378 -0.004580 -0.007272
# 3 0.000263 -0.004027 0.017353 0.004595 -0.003683 0.000017
# 4 0.000533 -0.000378 0.004595 0.026569 -0.005150 -0.001370
# 5 -0.000194 -0.004580 -0.003683 -0.005150 0.039286 0.000421
# 6 -0.004045 -0.007272 0.000017 -0.001370 0.000421 0.029392
#
#
# Mechanical properties :
#
#
# Convention : Reuss Voigt Hill
#
# Bulk Modulus (GPa) = 35.15796 59.10533 47.13164
# Shear Modulus (GPa) = 32.46279 43.68186 38.07233
#
# Velocity S-wave (km/s) = 3.46290 4.01696 3.75018
# Velocity P-wave (km/s) = 5.38296 6.58392 6.01350
#
# Compressibility (1/GPa) = 0.02844306
#
# Stress axis : x y z
#
# Youngs Moduli (GPa) = 186.53341 61.89961 57.62839
#
# Poissons Ratio (x) = 0.08970 -0.01517
# Poissons Ratio (y) = 0.27031 0.23206
# Poissons Ratio (z) = -0.04910 0.24926
#
# Static dielectric constant tensor:
#      x y z
#    x 2.120980 0.010420 -0.021730 
#    y 0.010420 2.179860 -0.032460 
#    z -0.021730 -0.032460 2.185920 
# 
# From -- ./inp_files/268906.got.cif
#   From: 2010.05.17/outbox.cif.g08.bks.cpg/sg2_135_cif.got.tgz:268906.got - 2010.06.03 11:33:40.
