data_PCOD9026653
_publ_section_title
;
Structure prediction by ZEFSAII (Michael W. Deem and Ramdas Pophale) SiO2 
 PCOD9026653
Probable space group: P -1
;
_chemical_formula_sum "Si O2"
_cell_formula_units_Z 16
_cell_length_a 11.346940
_cell_length_b 15.781515
_cell_length_c 15.851909
_cell_angle_alpha 26.459248
_cell_angle_beta 143.729656
_cell_angle_gamma 136.925223
_cell_volume 747.835275
_symmetry_space_group_name_H-M "P -1"
_symmetry_group_IT_number 2
_symmetry_cell_setting 'triclinic'
loop_
_space_group_symop_operation_xyz
x,y,z
-x,-y,-z
loop_
_atom_site_type_symbol
_atom_site_label
_atom_site_fract_x
_atom_site_fract_y
_atom_site_fract_z
Si Si1 0.217746 0.082178 0.531522
Si Si2 0.474967 0.237401 0.952313
Si Si3 0.363188 0.648873 0.239491
Si Si4 0.782259 0.839525 0.733291
Si Si5 0.547927 0.485485 0.157813
Si Si6 0.690476 0.249408 0.316322
Si Si7 0.196893 0.018598 0.875408
Si Si8 0.887759 0.684926 0.582505
O O1 0.195314 0.163190 0.352906
O O2 0.228570 0.241936 0.467407
O O3 0.000000 0.000000 0.500000
O O4 0.379892 0.919294 0.782935
O O5 0.580337 0.314335 0.858145
O O6 0.431641 0.418874 0.824199
O O7 0.271688 0.122239 0.910958
O O8 0.500000 0.500000 0.500000
O O9 0.351929 0.855869 0.089726
O O10 0.150336 0.539851 0.230022
O O11 0.649792 0.651679 0.841322
O O12 0.658345 0.028018 0.507560
O O13 0.983666 0.907790 0.838329
O O14 0.717661 0.364791 0.317343
O O15 0.501572 0.665179 0.913251
O O16 0.877396 0.278050 0.334191
O O17 0.199279 0.189414 0.655859
#
# Coordination Sequence:
#
# PCOD9026653 Si02
#       8
#     2   2   2   2   2   2   2   2
#     4  12  20  37  64  92 132 163 209 263 317 373
#     4  12  23  41  62  99 132 166 207 269 316 378
#     4  12  22  36  63  92 128 171 205 250 322 393
#     4  11  22  42  67  94 123 172 212 265 318 380
#     4  11  23  41  66  94 124 165 226 256 314 374
#     4  10  22  41  65  90 126 171 209 272 306 376
#     4  11  23  39  61  92 133 165 201 262 325 377
#     4  11  21  39  60  91 129 166 208 256 324 372
#
# _framework density 21.395087
#
# number of rings (size 3 to 8) (size 9 to 14) (size 15 to 20)
#    0.000    0.750    6.250    3.000    0.000    0.000 
#    0.000    6.250    0.000    3.750    0.000    0.000 
#    0.000    0.000    0.000    0.000    0.000    0.000 
#
# Total GULP energy -89112.959061 kJ/mol
# GULP energy per Si atom -5569.559941 kJ/mol
# Density = 2.134639 g / cm^3
# Si number density = 21.395087 Si / 1000 Ang^3
#
#
#
# Elastic Constant Matrix: (Units=GPa)
#
#
# Indices 1 2 3 4 5 6 
#
# 1 87.5251 36.1304 -3.7716 1.4295 -1.5947 -13.9429
# 2 36.1304 141.3875 23.0500 -8.8696 0.3477 -13.2890
# 3 -3.7716 23.0500 53.2726 -9.7476 -0.3358 -0.2671
# 4 1.4295 -8.8696 -9.7476 38.2823 -6.0167 6.9520
# 5 -1.5947 0.3477 -0.3358 -6.0167 14.4014 -10.4603
# 6 -13.9429 -13.2890 -0.2671 6.9520 -10.4603 35.3352
#
#
#
# Elastic Compliance Matrix: (Units=1/GPa)
#
#
# Indices 1 2 3 4 5 6 
#
# 1 0.014066 -0.003480 0.002398 -0.000930 0.005778 0.006153
# 2 -0.003480 0.008851 -0.003873 0.001011 0.001258 0.002100
# 3 0.002398 -0.003873 0.021545 0.005002 0.002528 -0.000583
# 4 -0.000930 0.001011 0.005002 0.029803 0.010470 -0.002713
# 5 0.005778 0.001258 0.002528 0.010470 0.095541 0.028996
# 6 0.006153 0.002100 -0.000583 -0.002713 0.028996 0.040631
#
#
# Mechanical properties :
#
#
# Convention : Reuss Voigt Hill
#
# Bulk Modulus (GPa) = 28.93984 43.66696 36.30340
# Shear Modulus (GPa) = 21.56458 32.72219 27.14338
#
# Velocity S-wave (km/s) = 3.17822 3.91503 3.56571
# Velocity P-wave (km/s) = 5.19845 6.39459 5.82729
#
# Compressibility (1/GPa) = 0.03455444
#
# Stress axis : x y z
#
# Youngs Moduli (GPa) = 71.09485 112.98178 46.41432
#
# Poissons Ratio (x) = 0.39313 -0.11132
# Poissons Ratio (y) = 0.24738 0.17974
# Poissons Ratio (z) = -0.17052 0.43753
#
# Static dielectric constant tensor:
#      x y z
#    x -1.347000 7.225100 0.229030 
#    y 7.225100 -14.273990 -0.429560 
#    z 0.229030 -0.429560 1.806960 
# 
# From -- ./inp_files/522226.got.cif
#   From: 2010.05.17/outbox.cif.g08.bks.cpg/sg2_262_cif.got.tgz:522226.got - 2010.06.03 11:33:40.
