data_PCOD9026102
_publ_section_title
;
Structure prediction by ZEFSAII (Michael W. Deem and Ramdas Pophale) SiO2 
 PCOD9026102
Probable space group: P -1
;
_chemical_formula_sum "Si O2"
_cell_formula_units_Z 16
_cell_length_a 13.662136
_cell_length_b 9.120749
_cell_length_c 8.452999
_cell_angle_alpha 134.423468
_cell_angle_beta 94.734219
_cell_angle_gamma 94.946918
_cell_volume 734.194688
_symmetry_space_group_name_H-M "P -1"
_symmetry_group_IT_number 2
_symmetry_cell_setting 'triclinic'
loop_
_space_group_symop_operation_xyz
x,y,z
-x,-y,-z
loop_
_atom_site_type_symbol
_atom_site_label
_atom_site_fract_x
_atom_site_fract_y
_atom_site_fract_z
Si Si1 0.866938 0.370063 0.968620
Si Si2 0.084616 0.196502 0.604720
Si Si3 0.723854 0.947845 0.014145
Si Si4 0.594002 0.175711 0.614894
Si Si5 0.469228 0.431999 0.264292
Si Si6 0.907288 0.956680 0.836321
Si Si7 0.784561 0.079930 0.452510
Si Si8 0.330939 0.694457 0.935022
O O1 0.933926 0.601244 0.152923
O O2 0.779595 0.428462 0.120515
O O3 0.900130 0.177204 0.916472
O O4 0.832620 0.280995 0.720664
O O5 0.076591 0.201967 0.419428
O O6 0.185886 0.118503 0.607629
O O7 0.000000 0.000000 0.500000
O O8 0.797716 0.042284 0.240561
O O9 0.683281 0.137652 0.071425
O O10 0.800464 0.874892 0.845367
O O11 0.626040 0.765557 0.899378
O O12 0.567820 0.383799 0.696213
O O13 0.668174 0.086394 0.443914
O O14 0.500000 0.000000 0.500000
O O15 0.642525 0.202493 0.813528
O O16 0.500000 0.500000 0.500000
O O17 0.573247 0.399032 0.173402
O O18 0.000000 0.000000 0.000000
#
# Coordination Sequence:
#
# PCOD9026102 Si02
#       8
#     2   2   2   2   2   2   2   2
#     4   9  23  42  69  96 128 182 219 270 341 390
#     4  11  24  44  69  99 130 174 225 277 330 401
#     4  11  23  43  65  98 138 174 222 280 336 399
#     4  11  23  40  62  93 131 177 222 269 326 391
#     4  12  25  37  64 101 132 182 223 275 339 395
#     4  10  23  45  66 100 135 175 219 279 333 400
#     4  10  23  41  65  94 135 167 226 276 325 393
#     4  10  22  41  62  89 133 172 221 271 328 394
#
# _framework density 21.792586
#
# number of rings (size 3 to 8) (size 9 to 14) (size 15 to 20)
#    0.000    1.500    0.000    4.500    7.000    2.500 
#    2.250    0.000    0.000    0.000    0.000    0.000 
#    0.000    0.000    0.000    0.000    0.000    0.000 
#
# Total GULP energy -89214.518150 kJ/mol
# GULP energy per Si atom -5575.907384 kJ/mol
# Density = 2.174298 g / cm^3
# Si number density = 21.792586 Si / 1000 Ang^3
#
#
#
# Elastic Constant Matrix: (Units=GPa)
#
#
# Indices 1 2 3 4 5 6 
#
# 1 79.6331 1.9656 9.8570 6.2098 -8.2391 -4.1086
# 2 1.9656 79.7385 43.6750 1.2812 14.6102 -10.0929
# 3 9.8570 43.6750 138.9939 -4.9849 -2.7709 -0.7456
# 4 6.2098 1.2812 -4.9849 41.4955 -0.4804 0.1612
# 5 -8.2391 14.6102 -2.7709 -0.4804 35.0653 -10.5775
# 6 -4.1086 -10.0929 -0.7456 0.1612 -10.5775 30.7448
#
#
#
# Elastic Compliance Matrix: (Units=1/GPa)
#
#
# Indices 1 2 3 4 5 6 
#
# 1 0.013414 -0.000168 -0.000875 -0.002072 0.004067 0.003126
# 2 -0.000168 0.017254 -0.005572 -0.001267 -0.006720 0.003201
# 3 -0.000875 -0.005572 0.009106 0.001430 0.002603 -0.000837
# 4 -0.002072 -0.001267 0.001430 0.024626 0.000283 -0.000690
# 5 0.004067 -0.006720 0.002603 0.000283 0.035706 0.010683
# 6 0.003126 0.003201 -0.000837 -0.000690 0.010683 0.037653
#
#
# Mechanical properties :
#
#
# Convention : Reuss Voigt Hill
#
# Bulk Modulus (GPa) = 37.67230 45.48453 41.57841
# Shear Modulus (GPa) = 31.28195 37.65232 34.46714
#
# Velocity S-wave (km/s) = 3.79283 4.16114 3.98125
# Velocity P-wave (km/s) = 6.04194 6.63353 6.34463
#
# Compressibility (1/GPa) = 0.02654470
#
# Stress axis : x y z
#
# Youngs Moduli (GPa) = 74.55034 57.95789 109.81610
#
# Poissons Ratio (x) = 0.00971 0.09610
# Poissons Ratio (y) = 0.01249 0.61189
# Poissons Ratio (z) = 0.06524 0.32294
#
# Static dielectric constant tensor:
#      x y z
#    x 1.957900 0.059210 -0.124550 
#    y 0.059210 1.801280 -0.094990 
#    z -0.124550 -0.094990 1.671330 
# 
# From -- ./inp_files/299726.got.cif
#   From: 2010.05.17/outbox.cif.g08.bks.cpg/sg2_150_cif.got.tgz:299726.got - 2010.06.03 11:33:40.
