data_PCOD9026500
_publ_section_title
;
Structure prediction by ZEFSAII (Michael W. Deem and Ramdas Pophale) SiO2 
 PCOD9026500
Probable space group: P -1
;
_chemical_formula_sum "Si O2"
_cell_formula_units_Z 16
_cell_length_a 11.287867
_cell_length_b 9.412116
_cell_length_c 18.420970
_cell_angle_alpha 49.702246
_cell_angle_beta 43.989776
_cell_angle_gamma 29.639286
_cell_volume 670.895722
_symmetry_space_group_name_H-M "P -1"
_symmetry_group_IT_number 2
_symmetry_cell_setting 'triclinic'
loop_
_space_group_symop_operation_xyz
x,y,z
-x,-y,-z
loop_
_atom_site_type_symbol
_atom_site_label
_atom_site_fract_x
_atom_site_fract_y
_atom_site_fract_z
Si Si1 0.201992 0.203037 0.590763
Si Si2 0.299209 0.352826 0.765955
Si Si3 0.094850 0.659911 0.454747
Si Si4 0.587335 0.018289 0.030981
Si Si5 0.287786 0.828814 0.458961
Si Si6 0.023749 0.916419 0.903888
Si Si7 0.646202 0.342608 0.278129
Si Si8 0.914004 0.370519 0.883701
O O1 0.138115 0.464787 0.561649
O O2 0.944241 0.393613 0.589951
O O3 0.500000 0.000000 0.500000
O O4 0.239381 0.960639 0.678812
O O5 0.566362 0.160056 0.666331
O O6 0.213178 0.631272 0.737366
O O7 0.105030 0.389939 0.790795
O O8 0.328581 0.216899 0.873514
O O9 0.349158 0.576948 0.361583
O O10 0.811492 0.982580 0.488260
O O11 0.369787 0.311371 0.076928
O O12 0.500000 0.000000 0.000000
O O13 0.812028 0.982618 0.927405
O O14 0.500000 0.500000 0.500000
O O15 0.000000 0.000000 0.500000
O O16 0.302957 0.642526 0.832538
O O17 0.945760 0.195741 0.862636
O O18 0.009976 0.816445 0.018208
#
# Coordination Sequence:
#
# PCOD9026500 Si02
#       8
#     2   2   2   2   2   2   2   2
#     4   9  21  38  61  90 128 177 232 293 354 427
#     4  11  25  41  68 104 139 186 245 295 378 434
#     4  10  22  41  64  93 136 182 235 300 359 438
#     4  11  23  42  69 103 142 187 239 303 369 444
#     4  12  27  47  73 107 150 197 244 310 371 443
#     4  10  23  42  65  97 134 181 236 298 371 442
#     4  11  21  39  65  95 134 177 242 294 363 438
#     4  10  23  43  65  95 140 180 233 305 364 451
#
# _framework density 23.848714000000001
#
# number of rings (size 3 to 8) (size 9 to 14) (size 15 to 20)
#    0.000    1.500    1.250    2.625    3.500    9.000 
#    0.000    0.000    0.000    0.000    0.000    0.000 
#    0.000    0.000    0.000    0.000    0.000    0.000 
#
# Total GULP energy -89090.971251 kJ/mol
# GULP energy per Si atom -5568.185703 kJ/mol
# Density = 2.379443 g / cm^3
# Si number density = 23.848714 Si / 1000 Ang^3
#
#
#
# Elastic Constant Matrix: (Units=GPa)
#
#
# Indices 1 2 3 4 5 6 
#
# 1 78.7225 14.5330 50.6394 -9.6467 -16.8895 13.5081
# 2 14.5330 130.3553 39.9500 9.6166 -14.9111 18.6556
# 3 50.6394 39.9500 104.0854 15.9822 -19.3821 24.0010
# 4 -9.6467 9.6166 15.9822 21.5303 8.8736 4.7126
# 5 -16.8895 -14.9111 -19.3821 8.8736 29.0205 -0.5775
# 6 13.5081 18.6556 24.0010 4.7126 -0.5775 36.0924
#
#
#
# Elastic Compliance Matrix: (Units=1/GPa)
#
#
# Indices 1 2 3 4 5 6 
#
# 1 0.026748 0.000184 -0.017659 0.027313 -0.004524 -0.002002
# 2 0.000184 0.009507 -0.001121 -0.004902 0.005672 -0.003507
# 3 -0.017659 -0.001121 0.029492 -0.035767 0.019632 -0.007439
# 4 0.027313 -0.004902 -0.035767 0.104526 -0.042436 0.001769
# 5 -0.004524 0.005672 0.019632 -0.042436 0.060673 -0.007782
# 6 -0.002002 -0.003507 -0.007439 0.001769 -0.007782 0.034860
#
#
# Mechanical properties :
#
#
# Convention : Reuss Voigt Hill
#
# Bulk Modulus (GPa) = 35.01931 58.15643 46.58787
# Shear Modulus (GPa) = 15.99925 31.19804 23.59865
#
# Velocity S-wave (km/s) = 2.59291 3.62078 3.14907
# Velocity P-wave (km/s) = 4.86622 6.47445 5.72707
#
# Compressibility (1/GPa) = 0.02855568
#
# Stress axis : x y z
#
# Youngs Moduli (GPa) = 37.38610 105.18974 33.90746
#
# Poissons Ratio (x) = -0.01934 0.59876
# Poissons Ratio (y) = -0.00687 0.03800
# Poissons Ratio (z) = 0.66018 0.11789
#
# Static dielectric constant tensor:
#      x y z
#    x 2.069450 0.076540 0.033410 
#    y 0.076540 2.021630 -0.037560 
#    z 0.033410 -0.037560 2.018100 
# 
# From -- ./inp_files/594034.got.cif
#   From: 2010.05.17/outbox.cif.g08.bks.cpg/sg2_298_cif.got.tgz:594034.got - 2010.06.03 11:33:40.
