data_PCOD9026636
_publ_section_title
;
Structure prediction by ZEFSAII (Michael W. Deem and Ramdas Pophale) SiO2 
 PCOD9026636
Probable space group: P -1
;
_chemical_formula_sum "Si O2"
_cell_formula_units_Z 14
_cell_length_a 11.893928
_cell_length_b 9.324139
_cell_length_c 5.305696
_cell_angle_alpha 105.535604
_cell_angle_beta 78.993304
_cell_angle_gamma 90.896297
_cell_volume 556.086854
_symmetry_space_group_name_H-M "P -1"
_symmetry_group_IT_number 2
_symmetry_cell_setting 'triclinic'
loop_
_space_group_symop_operation_xyz
x,y,z
-x,-y,-z
loop_
_atom_site_type_symbol
_atom_site_label
_atom_site_fract_x
_atom_site_fract_y
_atom_site_fract_z
Si Si1 0.974682 0.867560 0.687791
Si Si2 0.232192 0.182721 0.587006
Si Si3 0.599956 0.387914 0.798056
Si Si4 0.030068 0.585707 0.778192
Si Si5 0.714104 0.472459 0.279880
Si Si6 0.386195 0.928333 0.118669
Si Si7 0.808981 0.053707 0.141857
O O1 0.897849 0.813944 0.465422
O O2 0.964709 0.742036 0.845286
O O3 0.112503 0.886719 0.633043
O O4 0.907674 0.017733 0.876454
O O5 0.277080 0.348086 0.631459
O O6 0.311683 0.063228 0.341237
O O7 0.235398 0.104715 0.819948
O O8 0.626054 0.425138 0.514089
O O9 0.583725 0.212169 0.777011
O O10 0.500000 0.500000 0.000000
O O11 0.698224 0.429516 0.974441
O O12 0.165122 0.602205 0.727274
O O13 0.000000 0.500000 0.500000
O O14 0.000000 0.500000 0.000000
O O15 0.302008 0.870929 0.905334
O O16 0.500000 0.000000 0.000000
#
# Coordination Sequence:
#
# PCOD9026636 Si02
#       7
#     2   2   2   2   2   2   2
#     4  10  22  41  65 105 138 190 234 295 360 434
#     4  11  24  43  75 103 143 189 244 295 368 440
#     4  12  29  52  76 108 148 193 251 312 375 437
#     4  12  24  41  68 104 148 189 240 284 362 441
#     4  12  27  48  77 109 152 195 246 306 374 441
#     4  11  27  47  73 104 140 191 248 309 369 436
#     4  10  23  43  69  99 144 181 243 298 364 432
#
# _framework density 25.175922
#
# number of rings (size 3 to 8) (size 9 to 14) (size 15 to 20)
#    0.000    0.857    1.429    4.286   10.000    0.571 
#    0.000    0.000    0.000    0.000    0.000    0.000 
#    0.000    0.000    0.000    0.000    0.000    0.000 
#
# Total GULP energy -78256.597352 kJ/mol
# GULP energy per Si atom -5589.756954 kJ/mol
# Density = 2.511862 g / cm^3
# Si number density = 25.175922 Si / 1000 Ang^3
#
#
#
# Elastic Constant Matrix: (Units=GPa)
#
#
# Indices 1 2 3 4 5 6 
#
# 1 95.2906 9.4703 4.5007 -1.3386 -7.0717 -3.9932
# 2 9.4703 152.9403 32.0023 -23.5095 1.4366 2.0367
# 3 4.5007 32.0023 88.5559 -6.0109 -3.3881 4.3819
# 4 -1.3386 -23.5095 -6.0109 51.7503 -0.9564 1.5253
# 5 -7.0717 1.4366 -3.3881 -0.9564 34.1342 2.3411
# 6 -3.9932 2.0367 4.3819 1.5253 2.3411 44.4069
#
#
#
# Elastic Compliance Matrix: (Units=1/GPa)
#
#
# Indices 1 2 3 4 5 6 
#
# 1 0.010770 -0.000646 -0.000278 -0.000034 0.002167 0.000913
# 2 -0.000646 0.007595 -0.002510 0.003138 -0.000599 -0.000235
# 3 -0.000278 -0.002510 0.012349 0.000348 0.001367 -0.001213
# 4 -0.000034 0.003138 0.000348 0.020826 0.000542 -0.000925
# 5 0.002167 -0.000599 0.001367 0.000542 0.030025 -0.001514
# 6 0.000913 -0.000235 -0.001213 -0.000925 -0.001514 0.022843
#
#
# Mechanical properties :
#
#
# Convention : Reuss Voigt Hill
#
# Bulk Modulus (GPa) = 41.93782 47.63704 44.78743
# Shear Modulus (GPa) = 41.93704 45.44587 43.69146
#
# Velocity S-wave (km/s) = 4.08580 4.25329 4.17039
# Velocity P-wave (km/s) = 6.24119 6.56380 6.40452
#
# Compressibility (1/GPa) = 0.02384483
#
# Stress axis : x y z
#
# Youngs Moduli (GPa) = 92.84876 131.66839 80.97540
#
# Poissons Ratio (x) = 0.08512 0.02254
# Poissons Ratio (y) = 0.06002 0.20325
# Poissons Ratio (z) = 0.02584 0.33049
#
# Static dielectric constant tensor:
#      x y z
#    x 2.020910 0.021810 0.022810 
#    y 0.021810 2.027480 0.044740 
#    z 0.022810 0.044740 2.046940 
# 
# From -- ./inp_files/60662.got.cif
#   From: 2010.05.17/outbox.cif.g08.bks.cpg/sg2_31_cif.got.tgz:60662.got - 2010.06.03 11:33:40.
