data_PCOD9026304
_publ_section_title
;
Structure prediction by ZEFSAII (Michael W. Deem and Ramdas Pophale) SiO2 
 PCOD9026304
Probable space group: P -1
;
_chemical_formula_sum "Si O2"
_cell_formula_units_Z 14
_cell_length_a 10.224929
_cell_length_b 14.113930
_cell_length_c 12.460676
_cell_angle_alpha 32.450758
_cell_angle_beta 34.364177
_cell_angle_gamma 52.928921
_cell_volume 517.877060
_symmetry_space_group_name_H-M "P -1"
_symmetry_group_IT_number 2
_symmetry_cell_setting 'triclinic'
loop_
_space_group_symop_operation_xyz
x,y,z
-x,-y,-z
loop_
_atom_site_type_symbol
_atom_site_label
_atom_site_fract_x
_atom_site_fract_y
_atom_site_fract_z
Si Si1 0.528794 0.721073 0.817210
Si Si2 0.509352 0.450310 0.282380
Si Si3 0.013129 0.916032 0.241878
Si Si4 0.763023 0.100957 0.672789
Si Si5 0.003583 0.685501 0.134381
Si Si6 0.237421 0.482505 0.744242
Si Si7 0.527520 0.026945 0.687176
O O1 0.552256 0.576879 0.028604
O O2 0.256211 0.655692 0.019947
O O3 0.721903 0.551928 0.126659
O O4 0.561765 0.921558 0.658533
O O5 0.519050 0.237729 0.476351
O O6 0.241251 0.241258 0.454390
O O7 0.242899 0.440357 0.520754
O O8 0.058948 0.926131 0.329834
O O9 0.260624 0.906337 0.029320
O O10 0.982937 0.107832 0.040043
O O11 0.797506 0.318390 0.436071
O O12 0.725825 0.030326 0.642747
O O13 0.500000 0.000000 0.000000
O O14 0.955139 0.659798 0.064104
O O15 0.500000 0.500000 0.500000
#
# Coordination Sequence:
#
# PCOD9026304 Si02
#       7
#     2   2   2   2   2   2   2
#     4  12  24  42  68  98 134 174 218 277 328 385
#     4   9  21  41  65  97 127 170 229 268 326 395
#     4  10  23  41  64  97 131 172 225 264 327 402
#     4   9  18  37  64  93 123 169 220 262 322 390
#     4  10  22  41  63  94 135 174 216 267 336 393
#     4   9  18  36  65  92 125 172 215 268 323 390
#     4   9  22  43  67  94 133 173 216 275 332 389
#
# _framework density 27.033442999999998
#
# number of rings (size 3 to 8) (size 9 to 14) (size 15 to 20)
#    0.000    2.286    0.000    3.429   10.000    2.857 
#    5.143    2.143    0.000    0.000    0.000    0.000 
#    0.000    0.000    0.000    0.000    0.000    0.000 
#
# Total GULP energy -78501.689655 kJ/mol
# GULP energy per Si atom -5607.263547 kJ/mol
# Density = 2.697191 g / cm^3
# Si number density = 27.033443 Si / 1000 Ang^3
#
#
#
# Elastic Constant Matrix: (Units=GPa)
#
#
# Indices 1 2 3 4 5 6 
#
# 1 105.2582 21.8532 13.1495 10.6505 -10.8505 -28.6782
# 2 21.8532 94.4464 37.8940 22.0781 -4.0397 -4.8785
# 3 13.1495 37.8940 83.6991 20.7647 -0.9006 -3.9848
# 4 10.6505 22.0781 20.7647 51.4782 8.2374 -2.1089
# 5 -10.8505 -4.0397 -0.9006 8.2374 43.5676 -1.2199
# 6 -28.6782 -4.8785 -3.9848 -2.1089 -1.2199 46.2352
#
#
#
# Elastic Compliance Matrix: (Units=1/GPa)
#
#
# Indices 1 2 3 4 5 6 
#
# 1 0.012530 -0.001787 -0.000272 -0.001972 0.003534 0.007563
# 2 -0.001787 0.013992 -0.005102 -0.003816 0.001463 -0.000207
# 3 -0.000272 -0.005102 0.015321 -0.004005 0.000546 0.000445
# 4 -0.001972 -0.003816 -0.004005 0.023920 -0.005479 -0.001024
# 5 0.003534 0.001463 0.000546 -0.005479 0.025094 0.002805
# 6 0.007563 -0.000207 0.000445 -0.001024 0.002805 0.026364
#
#
# Mechanical properties :
#
#
# Convention : Reuss Voigt Hill
#
# Bulk Modulus (GPa) = 36.33597 47.68857 42.01227
# Shear Modulus (GPa) = 35.53246 42.29000 38.91123
#
# Velocity S-wave (km/s) = 3.62938 3.95949 3.79802
# Velocity P-wave (km/s) = 5.57077 6.21146 5.89982
#
# Compressibility (1/GPa) = 0.02752094
#
# Stress axis : x y z
#
# Youngs Moduli (GPa) = 79.80886 71.46799 65.27190
#
# Poissons Ratio (x) = 0.12774 0.01776
# Poissons Ratio (y) = 0.14264 0.33299
# Poissons Ratio (z) = 0.02171 0.36460
#
# Static dielectric constant tensor:
#      x y z
#    x 2.125870 0.059130 -0.036620 
#    y 0.059130 2.063550 0.027000 
#    z -0.036620 0.027000 2.036740 
# 
# From -- ./inp_files/591872.got.cif
#   From: 2010.05.17/outbox.cif.g08.bks.cpg/sg2_296_cif.got.tgz:591872.got - 2010.06.03 11:33:40.
