data_PCOD9026243
_publ_section_title
;
Structure prediction by ZEFSAII (Michael W. Deem and Ramdas Pophale) SiO2 
 PCOD9026243
Probable space group: P -1
;
_chemical_formula_sum "Si O2"
_cell_formula_units_Z 12
_cell_length_a 9.712737
_cell_length_b 13.209019
_cell_length_c 8.421328
_cell_angle_alpha 111.756809
_cell_angle_beta 146.637890
_cell_angle_gamma 81.319027
_cell_volume 524.531994
_symmetry_space_group_name_H-M "P -1"
_symmetry_group_IT_number 2
_symmetry_cell_setting 'triclinic'
loop_
_space_group_symop_operation_xyz
x,y,z
-x,-y,-z
loop_
_atom_site_type_symbol
_atom_site_label
_atom_site_fract_x
_atom_site_fract_y
_atom_site_fract_z
Si Si1 0.496299 0.327163 0.150712
Si Si2 0.300326 0.064372 0.784098
Si Si3 0.554053 0.657945 0.267088
Si Si4 0.496727 0.884561 0.343547
Si Si5 0.024693 0.385254 0.878345
Si Si6 0.062753 0.677994 0.904587
O O1 0.800087 0.354662 0.509698
O O2 0.371435 0.192781 0.992471
O O3 0.458947 0.342420 0.935259
O O4 0.313848 0.388363 0.103438
O O5 0.361705 0.079424 0.665392
O O6 0.000000 0.000000 0.500000
O O7 0.500000 0.000000 0.000000
O O8 0.625778 0.790067 0.480680
O O9 0.776427 0.612374 0.524739
O O10 0.260951 0.605142 0.018574
O O11 0.500000 0.000000 0.500000
O O12 0.198091 0.794846 0.001713
O O13 0.944926 0.298274 0.902446
O O14 0.000000 0.500000 0.000000
#
# Coordination Sequence:
#
# PCOD9026243 Si02
#       6
#     2   2   2   2   2   2
#     4  11  24  44  68  93 139 169 218 282 321 390
#     4  11  25  39  65  98 132 177 220 254 326 397
#     4   9  21  41  64  89 128 170 210 256 330 381
#     4   9  23  38  61  91 133 167 218 256 324 386
#     4  12  26  45  69  98 127 173 227 280 337 381
#     4  10  22  41  63  90 130 166 214 269 320 385
#
# _framework density 22.877537
#
# number of rings (size 3 to 8) (size 9 to 14) (size 15 to 20)
#    1.000    0.667    0.000    3.500    9.333    0.667 
#    0.000    5.000    0.000    0.000    0.000    0.000 
#    0.000    0.000    0.000    0.000    0.000    0.000 
#
# Total GULP energy -66947.105030 kJ/mol
# GULP energy per Si atom -5578.925419 kJ/mol
# Density = 2.282547 g / cm^3
# Si number density = 22.877537 Si / 1000 Ang^3
#
#
#
# Elastic Constant Matrix: (Units=GPa)
#
#
# Indices 1 2 3 4 5 6 
#
# 1 114.5555 14.9787 24.8392 -17.5086 20.1284 -1.2950
# 2 14.9787 78.3800 13.6310 -2.4790 2.8532 -6.0223
# 3 24.8392 13.6310 121.1848 -31.6397 19.9054 4.7373
# 4 -17.5086 -2.4790 -31.6397 45.2840 -8.1826 -1.1987
# 5 20.1284 2.8532 19.9054 -8.1826 35.3273 -2.5300
# 6 -1.2950 -6.0223 4.7373 -1.1987 -2.5300 30.8943
#
#
#
# Elastic Compliance Matrix: (Units=1/GPa)
#
#
# Indices 1 2 3 4 5 6 
#
# 1 0.010307 -0.001644 -0.000409 0.002723 -0.004887 -0.000120
# 2 -0.001644 0.013522 -0.001639 -0.000824 0.000781 0.002850
# 3 -0.000409 -0.001639 0.011070 0.006618 -0.004492 -0.002145
# 4 0.002723 -0.000824 0.006618 0.027947 0.001269 0.000127
# 5 -0.004887 0.000781 -0.004492 0.001269 0.034102 0.003478
# 6 -0.000120 0.002850 -0.002145 0.000127 0.003478 0.033538
#
#
# Mechanical properties :
#
#
# Convention : Reuss Voigt Hill
#
# Bulk Modulus (GPa) = 36.34460 46.77979 41.56220
# Shear Modulus (GPa) = 34.00429 39.67922 36.84175
#
# Velocity S-wave (km/s) = 3.85952 4.16915 4.01732
# Velocity P-wave (km/s) = 5.98183 6.60818 6.30279
#
# Compressibility (1/GPa) = 0.02751440
#
# Stress axis : x y z
#
# Youngs Moduli (GPa) = 97.02599 73.95362 90.33664
#
# Poissons Ratio (x) = 0.12155 0.03698
# Poissons Ratio (y) = 0.15948 0.14805
# Poissons Ratio (z) = 0.03972 0.12120
#
# Static dielectric constant tensor:
#      x y z
#    x 1.880950 0.062920 0.004350 
#    y 0.062920 1.978060 -0.025680 
#    z 0.004350 -0.025680 1.921590 
# 
# From -- ./inp_files/55809.got.cif
#   From: 2010.05.17/outbox.cif.g08.bks.cpg/sg2_28_cif.got.tgz:55809.got - 2010.06.03 11:33:40.
