data_PCOD9026297
_publ_section_title
;
Structure prediction by ZEFSAII (Michael W. Deem and Ramdas Pophale) SiO2 
 PCOD9026297
Probable space group: P -1
;
_chemical_formula_sum "Si O2"
_cell_formula_units_Z 16
_cell_length_a 19.888462
_cell_length_b 11.452167
_cell_length_c 7.460510
_cell_angle_alpha 87.888210
_cell_angle_beta 87.889517
_cell_angle_gamma 154.848834
_cell_volume 711.782994
_symmetry_space_group_name_H-M "P -1"
_symmetry_group_IT_number 2
_symmetry_cell_setting 'triclinic'
loop_
_space_group_symop_operation_xyz
x,y,z
-x,-y,-z
loop_
_atom_site_type_symbol
_atom_site_label
_atom_site_fract_x
_atom_site_fract_y
_atom_site_fract_z
Si Si1 0.376989 0.047761 0.364627
Si Si2 0.918096 0.441160 0.796325
Si Si3 0.882926 0.625496 0.029442
Si Si4 0.542382 0.293872 0.721785
Si Si5 0.174705 0.210699 0.129323
Si Si6 0.760037 0.047965 0.136854
Si Si7 0.538242 0.076558 0.278268
Si Si8 0.417076 0.451374 0.865090
O O1 0.458009 0.165763 0.544094
O O2 0.462148 0.079843 0.239063
O O3 0.440860 0.272574 0.280405
O O4 0.191707 0.731072 0.358909
O O5 0.106377 0.712588 0.741572
O O6 0.902861 0.539453 0.909526
O O7 0.849724 0.226154 0.935547
O O8 0.722108 0.359949 0.180794
O O9 0.876222 0.735538 0.906668
O O10 0.030710 0.891761 0.133604
O O11 0.718115 0.624981 0.709502
O O12 0.403421 0.138050 0.853106
O O13 0.551830 0.174436 0.786864
O O14 0.306632 0.378920 0.960549
O O15 0.706947 0.833162 0.196420
O O16 0.500000 0.000000 0.500000
O O17 0.500000 0.500000 0.000000
#
# Coordination Sequence:
#
# PCOD9026297 Si02
#       8
#     2   2   2   2   2   2   2   2
#     4  11  24  40  63  90 126 165 207 256 313 370
#     4  11  22  39  63  94 119 159 207 262 304 358
#     4  11  22  39  69  94 123 161 214 263 311 361
#     4  11  23  42  62  93 128 168 205 249 318 378
#     4  11  23  39  65  97 122 163 210 262 310 367
#     4  11  23  38  62  91 125 159 208 256 306 365
#     4  10  22  41  63  94 127 161 207 256 316 372
#     4  12  21  40  63  90 123 163 212 257 304 371
#
# _framework density 22.478760000000001
#
# number of rings (size 3 to 8) (size 9 to 14) (size 15 to 20)
#    0.000    1.000    6.250    0.750    0.000    2.000 
#    0.000    5.000    0.000    0.000    0.000    0.000 
#    0.000    0.000    0.000    0.000    0.000    0.000 
#
# Total GULP energy -89143.937737 kJ/mol
# GULP energy per Si atom -5571.496109 kJ/mol
# Density = 2.242760 g / cm^3
# Si number density = 22.478760 Si / 1000 Ang^3
#
#
#
# Elastic Constant Matrix: (Units=GPa)
#
#
# Indices 1 2 3 4 5 6 
#
# 1 57.4697 16.5016 5.6422 0.0027 2.7727 -13.4378
# 2 16.5016 169.1272 37.4511 42.1659 6.7333 -3.0977
# 3 5.6422 37.4511 45.2162 19.9404 2.2681 -5.5534
# 4 0.0027 42.1659 19.9404 33.5576 0.4630 8.2344
# 5 2.7727 6.7333 2.2681 0.4630 21.8033 -0.6472
# 6 -13.4378 -3.0977 -5.5534 8.2344 -0.6472 38.6944
#
#
#
# Elastic Compliance Matrix: (Units=1/GPa)
#
#
# Indices 1 2 3 4 5 6 
#
# 1 0.019549 -0.001904 -0.000531 0.001189 -0.001682 0.006279
# 2 -0.001904 0.009490 -0.002436 -0.010949 -0.002142 0.002043
# 3 -0.000531 -0.002436 0.033741 -0.019041 -0.002034 0.008481
# 4 0.001189 -0.010949 -0.019041 0.058656 0.003502 -0.015620
# 5 -0.001682 -0.002142 -0.002034 0.003502 0.046847 -0.001009
# 6 0.006279 0.002043 0.008481 -0.015620 -0.001009 0.032712
#
#
# Mechanical properties :
#
#
# Convention : Reuss Voigt Hill
#
# Bulk Modulus (GPa) = 18.85474 43.44477 31.14975
# Shear Modulus (GPa) = 21.88980 32.95894 27.42437
#
# Velocity S-wave (km/s) = 3.12396 3.83329 3.49666
# Velocity P-wave (km/s) = 4.62798 6.24188 5.49451
#
# Compressibility (1/GPa) = 0.05303707
#
# Stress axis : x y z
#
# Youngs Moduli (GPa) = 51.15438 105.36990 29.63772
#
# Poissons Ratio (x) = 0.20066 0.01574
# Poissons Ratio (y) = 0.09741 0.07220
# Poissons Ratio (z) = 0.02716 0.25669
#
# Static dielectric constant tensor:
#      x y z
#    x 1.960990 -0.048720 0.042190 
#    y -0.048720 1.905810 0.142960 
#    z 0.042190 0.142960 2.557340 
# 
# From -- ./inp_files/199597.got.cif
#   From: 2010.05.17/outbox.cif.g08.bks.cpg/sg2_100_cif.got.tgz:199597.got - 2010.06.03 11:33:40.
