data_PCOD9026672
_publ_section_title
;
Structure prediction by ZEFSAII (Michael W. Deem and Ramdas Pophale) SiO2 
 PCOD9026672
Probable space group: P -1
;
_chemical_formula_sum "Si O2"
_cell_formula_units_Z 12
_cell_length_a 9.606757
_cell_length_b 8.264592
_cell_length_c 9.840637
_cell_angle_alpha 53.278657
_cell_angle_beta 92.295319
_cell_angle_gamma 60.830363
_cell_volume 481.619517
_symmetry_space_group_name_H-M "P -1"
_symmetry_group_IT_number 2
_symmetry_cell_setting 'triclinic'
loop_
_space_group_symop_operation_xyz
x,y,z
-x,-y,-z
loop_
_atom_site_type_symbol
_atom_site_label
_atom_site_fract_x
_atom_site_fract_y
_atom_site_fract_z
Si Si1 0.843716 0.145512 0.534014
Si Si2 0.076627 0.515275 0.679119
Si Si3 0.706250 0.733209 0.638692
Si Si4 0.839818 0.029007 0.063925
Si Si5 0.451318 0.517843 0.333811
Si Si6 0.876201 0.355727 0.089322
O O1 0.852123 0.370187 0.470681
O O2 0.647362 0.292063 0.392097
O O3 0.000000 0.000000 0.500000
O O4 0.911151 0.911670 0.758103
O O5 0.157314 0.505263 0.836428
O O6 0.858447 0.725780 0.576791
O O7 0.118450 0.246073 0.778128
O O8 0.680410 0.546923 0.655329
O O9 0.500000 0.000000 0.500000
O O10 0.800953 0.578842 0.862045
O O11 0.802981 0.204660 0.107442
O O12 0.655217 0.205538 0.880745
O O13 0.000000 0.000000 0.000000
O O14 0.500000 0.500000 0.500000
#
# Coordination Sequence:
#
# PCOD9026672 Si02
#       6
#     2   2   2   2   2   2
#     4  10  23  44  67  97 139 178 217 279 342 388
#     4  11  23  42  68  95 132 177 220 278 337 391
#     4  11  23  39  66  99 125 179 234 261 330 415
#     4  11  22  40  65 100 132 173 225 274 334 397
#     4  11  24  41  67  97 137 172 223 282 325 400
#     4  10  22  41  65  91 135 176 214 275 329 395
#
# _framework density 24.915935000000001
#
# number of rings (size 3 to 8) (size 9 to 14) (size 15 to 20)
#    0.000    1.333    3.333    3.500    2.333    1.333 
#    0.000   20.833    0.000    0.000    0.000    0.000 
#    0.000    0.000    0.000    0.000    0.000    0.000 
#
# Total GULP energy -66917.188512 kJ/mol
# GULP energy per Si atom -5576.432376 kJ/mol
# Density = 2.485923 g / cm^3
# Si number density = 24.915935 Si / 1000 Ang^3
#
#
#
# Elastic Constant Matrix: (Units=GPa)
#
#
# Indices 1 2 3 4 5 6 
#
# 1 124.4593 37.5621 50.2150 -6.6795 3.1459 17.2073
# 2 37.5621 111.5381 46.2915 2.0200 -5.8217 19.2917
# 3 50.2150 46.2915 160.2497 -25.7911 24.4160 2.6560
# 4 -6.6795 2.0200 -25.7911 49.7650 7.3230 2.9605
# 5 3.1459 -5.8217 24.4160 7.3230 41.1842 -18.6146
# 6 17.2073 19.2917 2.6560 2.9605 -18.6146 51.7065
#
#
#
# Elastic Compliance Matrix: (Units=1/GPa)
#
#
# Indices 1 2 3 4 5 6 
#
# 1 0.010007 -0.002010 -0.002233 0.000610 -0.001150 -0.002915
# 2 -0.002010 0.011838 -0.003839 -0.003173 0.003756 -0.002017
# 3 -0.002233 -0.003839 0.010457 0.006647 -0.008581 -0.001831
# 4 0.000610 -0.003173 0.006647 0.025688 -0.011202 -0.004864
# 5 -0.001150 0.003756 -0.008581 -0.011202 0.038228 0.013826
# 6 -0.002915 -0.002017 -0.001831 -0.004864 0.013826 0.026412
#
#
# Mechanical properties :
#
#
# Convention : Reuss Voigt Hill
#
# Bulk Modulus (GPa) = 61.97069 73.82048 67.89559
# Shear Modulus (GPa) = 34.68007 46.00969 40.34488
#
# Velocity S-wave (km/s) = 3.73484 4.30187 4.02834
# Velocity P-wave (km/s) = 6.59732 7.37339 6.99612
#
# Compressibility (1/GPa) = 0.01613666
#
# Stress axis : x y z
#
# Youngs Moduli (GPa) = 99.92693 84.47216 95.63239
#
# Poissons Ratio (x) = 0.16980 0.21359
# Poissons Ratio (y) = 0.20087 0.36715
# Poissons Ratio (z) = 0.22318 0.32431
#
# Static dielectric constant tensor:
#      x y z
#    x 2.030900 -0.017590 -0.061340 
#    y -0.017590 2.139350 -0.020190 
#    z -0.061340 -0.020190 2.152650 
# 
# From -- ./inp_files/243211.got.cif
#   From: 2010.05.17/outbox.cif.g08.bks.cpg/sg2_122_cif.got.tgz:243211.got - 2010.06.03 11:33:40.
