data_PCOD9026045
_publ_section_title
;
Structure prediction by ZEFSAII (Michael W. Deem and Ramdas Pophale) SiO2 
 PCOD9026045
Probable space group: P -1
;
_chemical_formula_sum "Si O2"
_cell_formula_units_Z 16
_cell_length_a 6.312890
_cell_length_b 5.204221
_cell_length_c 25.890459
_cell_angle_alpha 107.693052
_cell_angle_beta 52.838344
_cell_angle_gamma 108.967583
_cell_volume 634.499068
_symmetry_space_group_name_H-M "P -1"
_symmetry_group_IT_number 2
_symmetry_cell_setting 'triclinic'
loop_
_space_group_symop_operation_xyz
x,y,z
-x,-y,-z
loop_
_atom_site_type_symbol
_atom_site_label
_atom_site_fract_x
_atom_site_fract_y
_atom_site_fract_z
Si Si1 0.557995 0.024043 0.148162
Si Si2 0.529381 0.151794 0.580807
Si Si3 0.127665 0.671352 0.552465
Si Si4 0.367336 0.052734 0.333321
Si Si5 0.064544 0.442055 0.646970
Si Si6 0.184238 0.355063 0.836726
Si Si7 0.065256 0.936291 0.747199
Si Si8 0.431667 0.789658 0.043974
O O1 0.742018 0.318584 0.149958
O O2 0.252787 0.088728 0.196509
O O3 0.619557 0.797357 0.166374
O O4 0.593468 0.907496 0.078768
O O5 0.784444 0.293208 0.517677
O O6 0.587055 0.053529 0.622455
O O7 0.323815 0.358748 0.629321
O O8 0.363979 0.892956 0.558478
O O9 0.126312 0.413269 0.574629
O O10 0.839813 0.745199 0.613941
O O11 0.194968 0.785080 0.314252
O O12 0.666316 0.164568 0.274357
O O13 0.039729 0.744834 0.687712
O O14 0.885750 0.254591 0.898040
O O15 0.165419 0.248018 0.773215
O O16 0.500000 0.500000 0.000000
O O17 0.500000 0.000000 0.000000
#
# Coordination Sequence:
#
# PCOD9026045 Si02
#       8
#     2   2   2   2   2   2   2   2
#     4  11  26  47  72 106 146 192 238 285 337 405
#     4  10  22  41  64  88 129 161 218 283 359 436
#     4  10  22  41  61  94 123 164 215 283 358 437
#     4  11  24  40  64  93 122 172 221 282 356 424
#     4  11  24  40  64  93 122 170 223 282 354 428
#     4  11  26  47  72 105 145 194 233 288 341 397
#     4  11  26  44  66  94 134 173 237 289 341 411
#     4  11  24  44  75 115 153 188 233 283 336 400
#
# _framework density 25.216747000000002
#
# number of rings (size 3 to 8) (size 9 to 14) (size 15 to 20)
#    0.000    1.250    1.250    3.000    3.500    8.500 
#    0.000    0.000    0.000    0.000    0.000    0.000 
#    0.000    0.000    0.000    0.000    0.000    0.000 
#
# Total GULP energy -89297.745300 kJ/mol
# GULP energy per Si atom -5581.109081 kJ/mol
# Density = 2.515935 g / cm^3
# Si number density = 25.216747 Si / 1000 Ang^3
#
#
#
# Elastic Constant Matrix: (Units=GPa)
#
#
# Indices 1 2 3 4 5 6 
#
# 1 91.6677 25.2685 34.8502 0.9273 0.3453 -2.5545
# 2 25.2685 110.2384 26.7252 6.6720 12.7498 2.2412
# 3 34.8502 26.7252 94.7701 12.1062 3.3963 -5.3888
# 4 0.9273 6.6720 12.1062 34.9665 12.4016 4.3417
# 5 0.3453 12.7498 3.3963 12.4016 59.0291 -5.1140
# 6 -2.5545 2.2412 -5.3888 4.3417 -5.1140 38.6583
#
#
#
# Elastic Compliance Matrix: (Units=1/GPa)
#
#
# Indices 1 2 3 4 5 6 
#
# 1 0.013157 -0.002073 -0.004434 0.001426 0.000349 0.000257
# 2 -0.002073 0.010352 -0.002120 -0.000261 -0.002159 -0.001289
# 3 -0.004434 -0.002120 0.013491 -0.004767 0.000914 0.002367
# 4 0.001426 -0.000261 -0.004767 0.033454 -0.007162 -0.005260
# 5 0.000349 -0.002159 0.000914 -0.007162 0.019170 0.003616
# 6 0.000257 -0.001289 0.002367 -0.005260 0.003616 0.027358
#
#
# Mechanical properties :
#
#
# Convention : Reuss Voigt Hill
#
# Bulk Modulus (GPa) = 50.63944 52.26265 51.45104
# Shear Modulus (GPa) = 35.50665 40.51958 38.01312
#
# Velocity S-wave (km/s) = 3.75648 4.01290 3.88681
# Velocity P-wave (km/s) = 6.24020 6.49935 6.37110
#
# Compressibility (1/GPa) = 0.01974745
#
# Stress axis : x y z
#
# Youngs Moduli (GPa) = 76.00232 96.60073 74.12433
#
# Poissons Ratio (x) = 0.20024 0.32866
# Poissons Ratio (y) = 0.15754 0.15711
# Poissons Ratio (z) = 0.33699 0.20475
#
# Static dielectric constant tensor:
#      x y z
#    x 2.058590 0.010590 0.008450 
#    y 0.010590 1.997870 -0.018930 
#    z 0.008450 -0.018930 2.029410 
# 
# From -- ./inp_files/614922.got.cif
#   From: 2010.05.17/outbox.cif.g08.bks.cpg/sg2_308_cif.got.tgz:614922.got - 2010.06.03 11:33:40.
