data_PCOD9026266
_publ_section_title
;
Structure prediction by ZEFSAII (Michael W. Deem and Ramdas Pophale) SiO2 
 PCOD9026266
Probable space group: P -1
;
_chemical_formula_sum "Si O2"
_cell_formula_units_Z 16
_cell_length_a 21.111274
_cell_length_b 17.667934
_cell_length_c 12.468353
_cell_angle_alpha 140.194452
_cell_angle_beta 31.840128
_cell_angle_gamma 160.391342
_cell_volume 809.765023
_symmetry_space_group_name_H-M "P -1"
_symmetry_group_IT_number 2
_symmetry_cell_setting 'triclinic'
loop_
_space_group_symop_operation_xyz
x,y,z
-x,-y,-z
loop_
_atom_site_type_symbol
_atom_site_label
_atom_site_fract_x
_atom_site_fract_y
_atom_site_fract_z
Si Si1 0.777651 0.740270 0.387200
Si Si2 0.847884 0.744091 0.537591
Si Si3 0.963238 0.340963 0.747199
Si Si4 0.273186 0.820395 0.514676
Si Si5 0.913378 0.579695 0.585907
Si Si6 0.737962 0.176558 0.105257
Si Si7 0.167909 0.920706 0.955309
Si Si8 0.520710 0.433462 0.999176
O O1 0.500000 0.500000 0.500000
O O2 0.833109 0.742723 0.430037
O O3 0.931990 0.993852 0.443717
O O4 0.912104 0.761896 0.139844
O O5 0.880453 0.637378 0.413293
O O6 0.599087 0.589372 0.761536
O O7 0.950554 0.312494 0.606106
O O8 0.084221 0.569090 0.842621
O O9 0.747746 0.161738 0.946846
O O10 0.256119 0.677092 0.438660
O O11 0.236341 0.879432 0.727895
O O12 0.074640 0.689513 0.574216
O O13 0.498816 0.013877 0.326283
O O14 0.771998 0.582729 0.805886
O O15 0.805949 0.115320 0.004227
O O16 0.345286 0.176433 0.962941
O O17 0.500000 0.500000 0.000000
#
# Coordination Sequence:
#
# PCOD9026266 Si02
#       8
#     2   2   2   2   2   2   2   2
#     4  10  23  42  64  92 125 170 212 262 320 384
#     4  10  22  41  63  92 127 169 211 260 323 384
#     4  11  22  41  63  93 128 162 216 261 323 382
#     4  11  24  40  64  91 124 168 212 268 317 378
#     4  11  23  41  61  95 127 162 215 263 322 382
#     4  11  22  40  67  90 122 171 209 263 321 387
#     4  11  21  41  64  92 119 164 219 251 318 394
#     4  11  22  38  66  89 120 168 208 261 316 380
#
# _framework density 19.758818000000002
#
# number of rings (size 3 to 8) (size 9 to 14) (size 15 to 20)
#    0.000    1.250    5.000    1.125    1.750    0.500 
#    4.500    0.625    0.000    0.000    0.000    0.000 
#    0.000    0.000    0.000    0.000    0.000    0.000 
#
# Total GULP energy -89107.547621 kJ/mol
# GULP energy per Si atom -5569.221726 kJ/mol
# Density = 1.971385 g / cm^3
# Si number density = 19.758818 Si / 1000 Ang^3
#
#
#
# Elastic Constant Matrix: (Units=GPa)
#
#
# Indices 1 2 3 4 5 6 
#
# 1 100.4653 25.2149 28.3702 1.1874 0.1185 -20.3022
# 2 25.2149 39.6973 11.1204 -10.2727 -5.7782 -9.5372
# 3 28.3702 11.1204 128.7202 -20.5519 8.4386 -0.4385
# 4 1.1874 -10.2727 -20.5519 23.6235 -1.4140 -5.5695
# 5 0.1185 -5.7782 8.4386 -1.4140 41.3311 -2.8580
# 6 -20.3022 -9.5372 -0.4385 -5.5695 -2.8580 33.7532
#
#
#
# Elastic Compliance Matrix: (Units=1/GPa)
#
#
# Indices 1 2 3 4 5 6 
#
# 1 0.014096 -0.008468 -0.003307 -0.006114 -0.000413 0.004999
# 2 -0.008468 0.039099 0.001527 0.021530 0.006613 0.010086
# 3 -0.003307 0.001527 0.009966 0.009411 -0.001490 -0.000002
# 4 -0.006114 0.021530 0.009411 0.063593 0.004207 0.013377
# 5 -0.000413 0.006613 -0.001490 0.004207 0.025879 0.004486
# 6 0.004999 0.010086 -0.000002 0.013377 0.004486 0.038071
#
#
# Mechanical properties :
#
#
# Convention : Reuss Voigt Hill
#
# Bulk Modulus (GPa) = 23.43915 44.25486 33.84701
# Shear Modulus (GPa) = 22.18060 33.35339 27.76699
#
# Velocity S-wave (km/s) = 3.35411 4.11302 3.75280
# Velocity P-wave (km/s) = 5.18541 6.70835 5.99543
#
# Compressibility (1/GPa) = 0.04266366
#
# Stress axis : x y z
#
# Youngs Moduli (GPa) = 70.94222 25.57616 100.34049
#
# Poissons Ratio (x) = 0.21659 0.33186
# Poissons Ratio (y) = 0.60076 -0.15322
# Poissons Ratio (z) = 0.23463 -0.03905
#
# Static dielectric constant tensor:
#      x y z
#    x 2.343560 -1.023360 -0.991610 
#    y -1.023360 3.318300 1.543180 
#    z -0.991610 1.543180 3.337790 
# 
# From -- ./inp_files/472419.got.cif
#   From: 2010.05.17/outbox.cif.g08.bks.cpg/sg2_237_cif.got.tgz:472419.got - 2010.06.03 11:33:40.
