data_PCOD9026748
_publ_section_title
;
Structure prediction by ZEFSAII (Michael W. Deem and Ramdas Pophale) SiO2 
 PCOD9026748
Probable space group: P -1
;
_chemical_formula_sum "Si O2"
_cell_formula_units_Z 16
_cell_length_a 10.924896
_cell_length_b 11.807898
_cell_length_c 11.194995
_cell_angle_alpha 68.231522
_cell_angle_beta 97.185069
_cell_angle_gamma 41.802018
_cell_volume 680.389549
_symmetry_space_group_name_H-M "P -1"
_symmetry_group_IT_number 2
_symmetry_cell_setting 'triclinic'
loop_
_space_group_symop_operation_xyz
x,y,z
-x,-y,-z
loop_
_atom_site_type_symbol
_atom_site_label
_atom_site_fract_x
_atom_site_fract_y
_atom_site_fract_z
Si Si1 0.674910 0.671223 0.863945
Si Si2 0.003243 0.207175 0.231196
Si Si3 0.925323 0.071530 0.098637
Si Si4 0.451214 0.061036 0.831951
Si Si5 0.857324 0.885632 0.300624
Si Si6 0.644363 0.583982 0.388446
Si Si7 0.488271 0.752046 0.571842
Si Si8 0.419999 0.551896 0.757798
O O1 0.646833 0.828240 0.860354
O O2 0.671470 0.660990 0.723842
O O3 0.404670 0.850246 0.789046
O O4 0.870883 0.427021 0.055633
O O5 0.069415 0.045547 0.206440
O O6 0.808679 0.307498 0.254877
O O7 0.248784 0.032437 0.398690
O O8 0.936474 0.926932 0.208630
O O9 0.649761 0.353364 0.950715
O O10 0.000000 0.000000 0.000000
O O11 0.205600 0.193900 0.727527
O O12 0.431337 0.218920 0.741077
O O13 0.500000 0.000000 0.000000
O O14 0.072374 0.681337 0.497297
O O15 0.611298 0.612666 0.515808
O O16 0.520368 0.587093 0.292224
O O17 0.393622 0.707449 0.637647
#
# Coordination Sequence:
#
# PCOD9026748 Si02
#       8
#     2   2   2   2   2   2   2   2
#     4  10  23  44  67  95 131 175 226 261 333 394
#     4  12  23  42  66  96 138 175 222 266 331 406
#     4  12  22  37  65 101 136 171 213 276 336 387
#     4  10  23  45  70  93 125 176 232 271 323 397
#     4  10  22  41  65  95 127 171 225 264 323 393
#     4  12  24  43  66 100 131 172 224 283 329 385
#     4  12  25  41  66 101 139 169 217 281 340 389
#     4  12  22  41  67  95 137 177 221 266 332 403
#
# _framework density 23.515940000000001
#
# number of rings (size 3 to 8) (size 9 to 14) (size 15 to 20)
#    0.750    0.000    2.500    6.750    0.000    0.500 
#    0.000    0.625    0.000    0.000    0.000    0.000 
#    0.000    0.000    0.000    0.000    0.000    0.000 
#
# Total GULP energy -89430.972448 kJ/mol
# GULP energy per Si atom -5589.435778 kJ/mol
# Density = 2.346242 g / cm^3
# Si number density = 23.515940 Si / 1000 Ang^3
#
#
#
# Elastic Constant Matrix: (Units=GPa)
#
#
# Indices 1 2 3 4 5 6 
#
# 1 42.7277 17.0234 26.3275 0.1311 -11.4049 17.2655
# 2 17.0234 103.3265 46.0954 11.6922 -18.2576 10.5562
# 3 26.3275 46.0954 112.5820 5.0293 0.9520 9.1543
# 4 0.1311 11.6922 5.0293 38.6611 -1.4289 8.9048
# 5 -11.4049 -18.2576 0.9520 -1.4289 28.8206 2.1123
# 6 17.2655 10.5562 9.1543 8.9048 2.1123 25.1119
#
#
#
# Elastic Compliance Matrix: (Units=1/GPa)
#
#
# Indices 1 2 3 4 5 6 
#
# 1 0.051432 0.004066 -0.011211 0.009966 0.026634 -0.038758
# 2 0.004066 0.014876 -0.006492 -0.001601 0.011688 -0.007098
# 3 -0.011211 -0.006492 0.013764 -0.001718 -0.009590 0.006835
# 4 0.009966 -0.001601 -0.001718 0.030645 0.005744 -0.016903
# 5 0.026634 0.011688 -0.009590 0.005744 0.055178 -0.026407
# 6 -0.038758 -0.007098 0.006835 -0.016903 -0.026407 0.075177
#
#
# Mechanical properties :
#
#
# Convention : Reuss Voigt Hill
#
# Bulk Modulus (GPa) = 18.94006 48.61431 33.77719
# Shear Modulus (GPa) = 17.48588 29.79804 23.64196
#
# Velocity S-wave (km/s) = 2.72982 3.56356 3.17418
# Velocity P-wave (km/s) = 4.24352 6.13594 5.27528
#
# Compressibility (1/GPa) = 0.05279813
#
# Stress axis : x y z
#
# Youngs Moduli (GPa) = 19.44318 67.22325 72.65255
#
# Poissons Ratio (x) = -0.27332 0.81451
# Poissons Ratio (y) = -0.07905 0.47164
# Poissons Ratio (z) = 0.21798 0.43639
#
# Static dielectric constant tensor:
#      x y z
#    x 1.835030 -0.072600 0.071700 
#    y -0.072600 1.932510 -0.029160 
#    z 0.071700 -0.029160 1.938000 
# 
# From -- ./inp_files/176513.got.cif
#   From: 2010.05.17/outbox.cif.g08.bks.cpg/sg2_89_cif.got.tgz:176513.got - 2010.06.03 11:33:40.
