data_PCOD9026203
_publ_section_title
;
Structure prediction by ZEFSAII (Michael W. Deem and Ramdas Pophale) SiO2 
 PCOD9026203
Probable space group: P -1
;
_chemical_formula_sum "Si O2"
_cell_formula_units_Z 16
_cell_length_a 8.970727
_cell_length_b 8.840883
_cell_length_c 13.944356
_cell_angle_alpha 136.498209
_cell_angle_beta 101.870571
_cell_angle_gamma 93.290746
_cell_volume 709.102242
_symmetry_space_group_name_H-M "P -1"
_symmetry_group_IT_number 2
_symmetry_cell_setting 'triclinic'
loop_
_space_group_symop_operation_xyz
x,y,z
-x,-y,-z
loop_
_atom_site_type_symbol
_atom_site_label
_atom_site_fract_x
_atom_site_fract_y
_atom_site_fract_z
Si Si1 0.820956 0.998557 0.993459
Si Si2 0.228342 0.058313 0.829869
Si Si3 0.508402 0.145396 0.166198
Si Si4 0.261742 0.178867 0.695334
Si Si5 0.747674 0.341666 0.551495
Si Si6 0.584829 0.687213 0.414623
Si Si7 0.879104 0.709317 0.570781
Si Si8 0.066790 0.474389 0.710348
O O1 0.768138 0.860839 0.022781
O O2 0.831414 0.265497 0.135030
O O3 0.679223 0.906488 0.855252
O O4 0.000000 0.000000 0.000000
O O5 0.366767 0.930976 0.786944
O O6 0.043162 0.894931 0.715031
O O7 0.279707 0.249097 0.841317
O O8 0.572736 0.417954 0.287888
O O9 0.500000 0.000000 0.000000
O O10 0.398653 0.242276 0.662166
O O11 0.129624 0.285361 0.684124
O O12 0.219386 0.903071 0.572642
O O13 0.570018 0.292239 0.543430
O O14 0.787717 0.527551 0.556148
O O15 0.884069 0.453730 0.699743
O O16 0.747853 0.813089 0.552442
O O17 0.924179 0.571473 0.423596
#
# Coordination Sequence:
#
# PCOD9026203 Si02
#       8
#     2   2   2   2   2   2   2   2
#     4  11  23  44  66  92 120 158 213 267 301 338
#     4  11  22  41  66  93 118 167 209 251 299 376
#     4  10  22  41  63  86 116 164 220 250 291 355
#     4  11  23  39  59  92 129 166 196 235 320 389
#     4  12  21  37  58  93 130 158 198 252 313 364
#     4  11  25  37  58  95 132 160 193 261 314 362
#     4  11  22  38  66  94 123 159 212 251 306 368
#     4  11  22  39  66  92 125 164 203 247 307 376
#
# _framework density 22.563741
#
# number of rings (size 3 to 8) (size 9 to 14) (size 15 to 20)
#    0.000    1.000    2.500    6.750    1.750    0.000 
#    0.000    6.250    0.000    0.000    0.000    0.000 
#    0.000    0.000    0.000    0.000    0.000    0.000 
#
# Total GULP energy -89266.635523 kJ/mol
# GULP energy per Si atom -5579.164720 kJ/mol
# Density = 2.251239 g / cm^3
# Si number density = 22.563741 Si / 1000 Ang^3
#
#
#
# Elastic Constant Matrix: (Units=GPa)
#
#
# Indices 1 2 3 4 5 6 
#
# 1 157.3459 45.5020 16.3947 -12.7874 21.6735 10.4536
# 2 45.5020 127.3425 7.4570 -26.9587 -3.1387 0.7659
# 3 16.3947 7.4570 51.0328 -0.0351 16.6296 -13.2845
# 4 -12.7874 -26.9587 -0.0351 21.5046 -2.3595 -2.6048
# 5 21.6735 -3.1387 16.6296 -2.3595 38.3204 2.4448
# 6 10.4536 0.7659 -13.2845 -2.6048 2.4448 24.1181
#
#
#
# Elastic Compliance Matrix: (Units=1/GPa)
#
#
# Indices 1 2 3 4 5 6 
#
# 1 0.008200 -0.002763 -0.002147 0.000498 -0.003632 -0.004227
# 2 -0.002763 0.012019 -0.002042 0.013981 0.004245 0.000771
# 3 -0.002147 -0.002042 0.029647 -0.003012 -0.013174 0.018335
# 4 0.000498 0.013981 -0.003012 0.065474 0.005937 0.004150
# 5 -0.003632 0.004245 -0.013174 0.005937 0.035137 -0.008737
# 6 -0.004227 0.000771 0.018335 0.004150 -0.008737 0.054704
#
#
# Mechanical properties :
#
#
# Convention : Reuss Voigt Hill
#
# Bulk Modulus (GPa) = 27.80617 52.71426 40.26022
# Shear Modulus (GPa) = 21.63835 34.54646 28.09240
#
# Velocity S-wave (km/s) = 3.10011 3.91712 3.53232
# Velocity P-wave (km/s) = 5.01641 6.62356 5.87520
#
# Compressibility (1/GPa) = 0.03596324
#
# Stress axis : x y z
#
# Youngs Moduli (GPa) = 121.95605 83.19947 33.73021
#
# Poissons Ratio (x) = 0.22986 0.07242
# Poissons Ratio (y) = 0.33694 0.06886
# Poissons Ratio (z) = 0.26184 0.16986
#
# Static dielectric constant tensor:
#      x y z
#    x 1.953760 0.010970 0.004750 
#    y 0.010970 1.842240 -0.039930 
#    z 0.004750 -0.039930 1.927320 
# 
# From -- ./inp_files/495731.got.cif
#   From: 2010.05.17/outbox.cif.g08.bks.cpg/sg2_248_cif.got.tgz:495731.got - 2010.06.03 11:33:40.
