data_PCOD9026376
_publ_section_title
;
Structure prediction by ZEFSAII (Michael W. Deem and Ramdas Pophale) SiO2 
 PCOD9026376
Probable space group: P -1
;
_chemical_formula_sum "Si O2"
_cell_formula_units_Z 16
_cell_length_a 11.619852
_cell_length_b 6.744837
_cell_length_c 11.034558
_cell_angle_alpha 45.824594
_cell_angle_beta 106.977746
_cell_angle_gamma 103.751674
_cell_volume 592.488059
_symmetry_space_group_name_H-M "P -1"
_symmetry_group_IT_number 2
_symmetry_cell_setting 'triclinic'
loop_
_space_group_symop_operation_xyz
x,y,z
-x,-y,-z
loop_
_atom_site_type_symbol
_atom_site_label
_atom_site_fract_x
_atom_site_fract_y
_atom_site_fract_z
Si Si1 0.558943 0.929091 0.380491
Si Si2 0.429573 0.435763 0.671485
Si Si3 0.000343 0.034125 0.631949
Si Si4 0.140272 0.066379 0.987383
Si Si5 0.303155 0.555524 0.806862
Si Si6 0.320314 0.247320 0.170400
Si Si7 0.833774 0.469132 0.532123
Si Si8 0.857431 0.510129 0.812362
O O1 0.535132 0.650106 0.568174
O O2 0.554368 0.842920 0.276132
O O3 0.677833 0.123700 0.357308
O O4 0.443427 0.106473 0.291785
O O5 0.398546 0.406323 0.814587
O O6 0.306692 0.557417 0.528995
O O7 0.120269 0.216745 0.623612
O O8 0.904078 0.237264 0.578066
O O9 0.000000 0.000000 0.500000
O O10 0.971317 0.715040 0.798292
O O11 0.228457 0.063656 0.133309
O O12 0.164050 0.808628 0.018410
O O13 0.176348 0.381855 0.823087
O O14 0.000000 0.000000 0.000000
O O15 0.338442 0.512085 0.974956
O O16 0.250023 0.328853 0.232195
O O17 0.857442 0.478040 0.680284
#
# Coordination Sequence:
#
# PCOD9026376 Si02
#       8
#     2   2   2   2   2   2   2   2
#     4  11  24  46  68  98 135 180 233 276 341 401
#     4  11  25  42  70 101 138 172 222 296 340 397
#     4   9  20  37  65  97 132 180 223 282 327 406
#     4  10  25  43  65  99 134 174 221 282 339 406
#     4  10  26  43  67  98 137 179 224 282 336 407
#     4  10  25  45  68  98 133 183 225 275 334 413
#     4  10  22  41  64 103 134 175 230 278 342 396
#     4  11  21  40  69  94 133 181 229 274 334 405
#
# _framework density 27.004764999999999
#
# number of rings (size 3 to 8) (size 9 to 14) (size 15 to 20)
#    0.750    1.000    0.000    3.000    1.750   12.000 
#    0.000    0.000    0.000    0.000    0.000    0.000 
#    0.000    0.000    0.000    0.000    0.000    0.000 
#
# Total GULP energy -89406.555193 kJ/mol
# GULP energy per Si atom -5587.909700 kJ/mol
# Density = 2.694330 g / cm^3
# Si number density = 27.004765 Si / 1000 Ang^3
#
#
#
# Elastic Constant Matrix: (Units=GPa)
#
#
# Indices 1 2 3 4 5 6 
#
# 1 72.8911 61.7661 20.9220 -11.7513 -30.3652 21.2324
# 2 61.7661 203.6889 53.6831 -13.8656 -25.1744 10.0604
# 3 20.9220 53.6831 91.2434 -16.7417 -27.9302 19.6290
# 4 -11.7513 -13.8656 -16.7417 56.4246 18.3464 -20.8763
# 5 -30.3652 -25.1744 -27.9302 18.3464 39.6594 -3.7270
# 6 21.2324 10.0604 19.6290 -20.8763 -3.7270 64.0547
#
#
#
# Elastic Compliance Matrix: (Units=1/GPa)
#
#
# Indices 1 2 3 4 5 6 
#
# 1 0.031773 -0.008071 0.006743 -0.006080 0.025654 -0.011819
# 2 -0.008071 0.007946 -0.004696 0.001623 -0.004902 0.003110
# 3 0.006743 -0.004696 0.017867 -0.001787 0.014963 -0.006685
# 4 -0.006080 0.001623 -0.001787 0.024887 -0.015502 0.009517
# 5 0.025654 -0.004902 0.014963 -0.015502 0.058140 -0.013989
# 6 -0.011819 0.003110 -0.006685 0.009517 -0.013989 0.023377
#
#
# Mechanical properties :
#
#
# Convention : Reuss Voigt Hill
#
# Bulk Modulus (GPa) = 21.95982 71.17398 46.56690
# Shear Modulus (GPa) = 26.14842 47.45788 36.80315
#
# Velocity S-wave (km/s) = 3.11511 4.19667 3.69567
# Velocity P-wave (km/s) = 4.59217 7.06371 5.95752
#
# Compressibility (1/GPa) = 0.04553770
#
# Stress axis : x y z
#
# Youngs Moduli (GPa) = 31.47339 125.85502 55.96954
#
# Poissons Ratio (x) = 1.01583 -0.37743
# Poissons Ratio (y) = 0.25403 0.26282
# Poissons Ratio (z) = -0.21224 0.59100
#
# Static dielectric constant tensor:
#      x y z
#    x 2.077520 0.023300 -0.047010 
#    y 0.023300 2.091040 -0.028230 
#    z -0.047010 -0.028230 2.298570 
# 
# From -- ./inp_files/409838.got.cif
#   From: 2010.05.17/outbox.cif.g08.bks.cpg/sg2_205_cif.got.tgz:409838.got - 2010.06.03 11:33:40.
