data_PCOD9026882
_publ_section_title
;
Structure prediction by ZEFSAII (Michael W. Deem and Ramdas Pophale) SiO2 
 PCOD9026882
Probable space group: P -1
;
_chemical_formula_sum "Si O2"
_cell_formula_units_Z 14
_cell_length_a 9.450431
_cell_length_b 15.993314
_cell_length_c 5.241847
_cell_angle_alpha 99.922164
_cell_angle_beta 48.992643
_cell_angle_gamma 91.066537
_cell_volume 584.152947
_symmetry_space_group_name_H-M "P -1"
_symmetry_group_IT_number 2
_symmetry_cell_setting 'triclinic'
loop_
_space_group_symop_operation_xyz
x,y,z
-x,-y,-z
loop_
_atom_site_type_symbol
_atom_site_label
_atom_site_fract_x
_atom_site_fract_y
_atom_site_fract_z
Si Si1 0.496160 0.910999 0.709390
Si Si2 0.812229 0.975291 0.076284
Si Si3 0.883798 0.305810 0.604553
Si Si4 0.377958 0.587377 0.626424
Si Si5 0.224653 0.191925 0.271208
Si Si6 0.952063 0.447954 0.286019
Si Si7 0.539549 0.254867 0.669558
O O1 0.640015 0.976732 0.481671
O O2 0.625021 0.861777 0.749046
O O3 0.460565 0.835885 0.515711
O O4 0.285538 0.963409 0.001665
O O5 0.833089 0.878155 0.899430
O O6 0.000000 0.000000 0.000000
O O7 0.007379 0.349095 0.264586
O O8 0.727748 0.258670 0.616329
O O9 0.021450 0.244592 0.596215
O O10 0.768909 0.376002 0.962239
O O11 0.500000 0.500000 0.500000
O O12 0.266934 0.560199 0.497021
O O13 0.478782 0.667965 0.468975
O O14 0.352785 0.262426 0.062773
O O15 0.000000 0.500000 0.500000
O O16 0.000000 0.500000 0.000000
#
# Coordination Sequence:
#
# PCOD9026882 Si02
#       7
#     2   2   2   2   2   2   2
#     4  10  22  41  67 100 139 181 233 292 354 438
#     4  10  22  41  66 101 140 183 230 287 360 436
#     4  11  25  44  68 101 139 190 241 303 369 436
#     4  11  26  46  71  99 142 188 246 306 372 435
#     4  11  24  41  70 101 139 186 236 297 367 426
#     4  11  24  45  70 103 139 185 243 308 366 443
#     4  10  24  43  65  99 138 181 237 296 361 438
#
# _framework density 23.966325999999999
#
# number of rings (size 3 to 8) (size 9 to 14) (size 15 to 20)
#    0.000    1.429    1.429    2.143    2.000   12.000 
#    0.000    0.000    0.000    0.000    0.000    0.000 
#    0.000    0.000    0.000    0.000    0.000    0.000 
#
# Total GULP energy -77974.930419 kJ/mol
# GULP energy per Si atom -5569.637887 kJ/mol
# Density = 2.391178 g / cm^3
# Si number density = 23.966326 Si / 1000 Ang^3
#
#
#
# Elastic Constant Matrix: (Units=GPa)
#
#
# Indices 1 2 3 4 5 6 
#
# 1 189.7786 70.4707 51.4711 -2.0525 -3.7074 7.9146
# 2 70.4707 118.7528 41.8768 -9.2278 -16.8976 -6.9124
# 3 51.4711 41.8768 56.1250 -2.4225 -1.8292 -6.8890
# 4 -2.0525 -9.2278 -2.4225 36.8820 -1.2192 -3.3267
# 5 -3.7074 -16.8976 -1.8292 -1.2192 34.2849 5.5478
# 6 7.9146 -6.9124 -6.8890 -3.3267 5.5478 61.2634
#
#
#
# Elastic Compliance Matrix: (Units=1/GPa)
#
#
# Indices 1 2 3 4 5 6 
#
# 1 0.007904 -0.003132 -0.005211 -0.000884 -0.000683 -0.001947
# 2 -0.003132 0.013946 -0.007101 0.003123 0.006138 0.000793
# 3 -0.005211 -0.007101 0.028201 -0.000017 -0.003097 0.003323
# 4 -0.000884 0.003123 -0.000017 0.028077 0.002151 0.001795
# 5 -0.000683 0.006138 -0.003097 0.002151 0.032416 -0.002386
# 6 -0.001947 0.000793 0.003323 0.001795 -0.002386 0.017351
#
#
# Mechanical properties :
#
#
# Convention : Reuss Voigt Hill
#
# Bulk Modulus (GPa) = 52.18502 76.92149 64.55326
# Shear Modulus (GPa) = 30.27176 39.87526 35.07351
#
# Velocity S-wave (km/s) = 3.55786 4.08340 3.82966
# Velocity P-wave (km/s) = 6.22089 7.37547 6.82264
#
# Compressibility (1/GPa) = 0.01916259
#
# Stress axis : x y z
#
# Youngs Moduli (GPa) = 126.52020 71.70597 35.46020
#
# Poissons Ratio (x) = 0.22459 0.18478
# Poissons Ratio (y) = 0.39627 0.25180
# Poissons Ratio (z) = 0.65929 0.50918
#
# Static dielectric constant tensor:
#      x y z
#    x 1.970530 -0.172900 0.051300 
#    y -0.172900 2.154730 -0.090560 
#    z 0.051300 -0.090560 2.002930 
# 
# From -- ./inp_files/32342.got.cif
#   From: 2010.05.17/outbox.cif.g08.bks.cpg/sg2_17_cif.got.tgz:32342.got - 2010.06.03 11:33:40.
