data_PCOD9026637
_publ_section_title
;
Structure prediction by ZEFSAII (Michael W. Deem and Ramdas Pophale) SiO2 
 PCOD9026637
Probable space group: P -1
;
_chemical_formula_sum "Si O2"
_cell_formula_units_Z 16
_cell_length_a 12.413514
_cell_length_b 11.738924
_cell_length_c 5.009929
_cell_angle_alpha 64.920173
_cell_angle_beta 81.316325
_cell_angle_gamma 91.785139
_cell_volume 649.941425
_symmetry_space_group_name_H-M "P -1"
_symmetry_group_IT_number 2
_symmetry_cell_setting 'triclinic'
loop_
_space_group_symop_operation_xyz
x,y,z
-x,-y,-z
loop_
_atom_site_type_symbol
_atom_site_label
_atom_site_fract_x
_atom_site_fract_y
_atom_site_fract_z
Si Si1 0.726722 0.211060 0.239223
Si Si2 0.510453 0.738368 0.671127
Si Si3 0.138789 0.801943 0.270828
Si Si4 0.032554 0.419835 0.316822
Si Si5 0.097023 0.059238 0.206979
Si Si6 0.301128 0.074122 0.510116
Si Si7 0.580784 0.619681 0.258449
Si Si8 0.197096 0.287229 0.672393
O O1 0.617970 0.278875 0.210260
O O2 0.767342 0.198841 0.537893
O O3 0.697332 0.070490 0.269394
O O4 0.822861 0.260556 0.952634
O O5 0.574161 0.867426 0.633258
O O6 0.534470 0.726080 0.360923
O O7 0.566030 0.638323 0.931636
O O8 0.040059 0.714407 0.524623
O O9 0.105155 0.944433 0.107257
O O10 0.152038 0.378647 0.379390
O O11 0.000000 0.500000 0.500000
O O12 0.000000 0.500000 0.000000
O O13 0.213810 0.070787 0.306359
O O14 0.098520 0.202828 0.953656
O O15 0.000000 0.000000 0.500000
O O16 0.253700 0.173481 0.627671
O O17 0.500000 0.500000 0.500000
O O18 0.709754 0.632367 0.268251
#
# Coordination Sequence:
#
# PCOD9026637 Si02
#       8
#     2   2   2   2   2   2   2   2
#     4  11  23  41  69 104 145 183 222 290 359 430
#     4  11  23  42  69 101 142 185 232 286 352 413
#     4  11  25  45  68 105 140 183 241 285 359 426
#     4  12  30  48  70  99 142 190 240 294 353 420
#     4  11  23  40  75 105 140 182 235 300 362 422
#     4  10  22  41  65 107 141 177 230 282 362 427
#     4  11  25  45  71 103 138 189 244 287 340 418
#     4  11  25  46  73 104 143 184 240 299 357 424
#
# _framework density 24.617602000000002
#
# number of rings (size 3 to 8) (size 9 to 14) (size 15 to 20)
#    0.000    1.000    2.500    3.000    7.000    4.000 
#    0.000    3.750    0.000    0.000    0.000    0.000 
#    0.000    0.000    0.000    0.000    0.000    0.000 
#
# Total GULP energy -89394.404686 kJ/mol
# GULP energy per Si atom -5587.150293 kJ/mol
# Density = 2.456157 g / cm^3
# Si number density = 24.617602 Si / 1000 Ang^3
#
#
#
# Elastic Constant Matrix: (Units=GPa)
#
#
# Indices 1 2 3 4 5 6 
#
# 1 114.9227 19.5982 35.8397 -6.5238 16.5060 0.6019
# 2 19.5982 54.2675 9.9175 -1.1013 6.2990 12.2079
# 3 35.8397 9.9175 116.8767 1.7476 11.3340 0.1574
# 4 -6.5238 -1.1013 1.7476 43.8551 1.4145 -11.3881
# 5 16.5060 6.2990 11.3340 1.4145 36.3812 -1.0018
# 6 0.6019 12.2079 0.1574 -11.3881 -1.0018 31.7259
#
#
#
# Elastic Compliance Matrix: (Units=1/GPa)
#
#
# Indices 1 2 3 4 5 6 
#
# 1 0.010728 -0.003329 -0.002705 0.002191 -0.003485 0.001767
# 2 -0.003329 0.022049 -0.000581 -0.002260 -0.002294 -0.009302
# 3 -0.002705 -0.000581 0.009605 -0.000773 -0.001637 -0.000102
# 4 0.002191 -0.002260 -0.000773 0.025744 -0.001087 0.010038
# 5 -0.003485 -0.002294 -0.001637 -0.001087 0.030059 0.001516
# 6 0.001767 -0.009302 -0.000102 0.010038 0.001516 0.038717
#
#
# Mechanical properties :
#
#
# Convention : Reuss Voigt Hill
#
# Bulk Modulus (GPa) = 34.30203 46.30864 40.30533
# Shear Modulus (GPa) = 31.27937 37.10654 34.19296
#
# Velocity S-wave (km/s) = 3.56843 3.88663 3.73092
# Velocity P-wave (km/s) = 5.56259 6.24446 5.91336
#
# Compressibility (1/GPa) = 0.02915279
#
# Stress axis : x y z
#
# Youngs Moduli (GPa) = 93.21162 45.35439 104.11067
#
# Poissons Ratio (x) = 0.15097 0.28157
# Poissons Ratio (y) = 0.31028 0.06053
# Poissons Ratio (z) = 0.25209 0.02637
#
# Static dielectric constant tensor:
#      x y z
#    x 2.004190 0.024170 -0.057710 
#    y 0.024170 1.970330 -0.005910 
#    z -0.057710 -0.005910 2.060390 
# 
# From -- ./inp_files/68475.got.cif
#   From: 2010.05.17/outbox.cif.g08.bks.cpg/sg2_35_cif.got.tgz:68475.got - 2010.06.03 11:33:40.
