data_PCOD9026305
_publ_section_title
;
Structure prediction by ZEFSAII (Michael W. Deem and Ramdas Pophale) SiO2 
 PCOD9026305
Probable space group: P -1
;
_chemical_formula_sum "Si O2"
_cell_formula_units_Z 16
_cell_length_a 9.484451
_cell_length_b 24.297865
_cell_length_c 6.092250
_cell_angle_alpha 60.935202
_cell_angle_beta 45.052344
_cell_angle_gamma 42.949008
_cell_volume 675.602086
_symmetry_space_group_name_H-M "P -1"
_symmetry_group_IT_number 2
_symmetry_cell_setting 'triclinic'
loop_
_space_group_symop_operation_xyz
x,y,z
-x,-y,-z
loop_
_atom_site_type_symbol
_atom_site_label
_atom_site_fract_x
_atom_site_fract_y
_atom_site_fract_z
Si Si1 0.728288 0.934172 0.589868
Si Si2 0.095801 0.325386 0.612688
Si Si3 0.444544 0.538059 0.237408
Si Si4 0.183047 0.869695 0.504096
Si Si5 0.707512 0.704165 0.117672
Si Si6 0.089598 0.221007 0.547260
Si Si7 0.185001 0.003414 0.013595
Si Si8 0.483893 0.338879 0.948361
O O1 0.945836 0.880433 0.633517
O O2 0.769444 0.870725 0.488013
O O3 0.783352 0.987887 0.294302
O O4 0.435004 0.987030 0.877300
O O5 0.065401 0.347908 0.856438
O O6 0.862961 0.393368 0.583707
O O7 0.116756 0.245965 0.710734
O O8 0.348335 0.312401 0.290915
O O9 0.500000 0.500000 0.500000
O O10 0.564881 0.583899 0.040046
O O11 0.500000 0.500000 0.000000
O O12 0.443930 0.780135 0.372274
O O13 0.076180 0.913542 0.770858
O O14 0.210342 0.927832 0.218286
O O15 0.639158 0.653097 0.167804
O O16 0.790477 0.746157 0.792150
O O17 0.789383 0.270889 0.733659
#
# Coordination Sequence:
#
# PCOD9026305 Si02
#       8
#     2   2   2   2   2   2   2   2
#     4  11  21  41  60  85 126 178 227 294 361 419
#     4  10  26  44  70 105 137 183 234 282 341 426
#     4  11  28  50  79 114 155 190 230 288 355 426
#     4  11  22  40  60  91 125 173 233 293 359 417
#     4  11  23  41  69  96 136 181 233 296 347 417
#     4  10  22  41  63  94 135 177 233 290 353 414
#     4  10  24  38  56  89 128 172 230 295 360 429
#     4  10  24  45  71 101 139 181 234 277 345 418
#
# _framework density 23.682577999999999
#
# number of rings (size 3 to 8) (size 9 to 14) (size 15 to 20)
#    0.000    1.500    2.500    0.750    8.750    3.000 
#    9.000    0.000    0.000    0.000    0.000    0.000 
#    0.000    0.000    0.000    0.000    0.000    0.000 
#
# Total GULP energy -89235.980960 kJ/mol
# GULP energy per Si atom -5577.248810 kJ/mol
# Density = 2.362867 g / cm^3
# Si number density = 23.682578 Si / 1000 Ang^3
#
#
#
# Elastic Constant Matrix: (Units=GPa)
#
#
# Indices 1 2 3 4 5 6 
#
# 1 146.8700 42.9049 42.3756 -9.3170 11.2052 13.9801
# 2 42.9049 68.5744 28.7245 10.4805 12.0428 13.6446
# 3 42.3756 28.7245 60.5854 6.0972 -16.2526 -0.2530
# 4 -9.3170 10.4805 6.0972 26.6540 1.7622 3.0289
# 5 11.2052 12.0428 -16.2526 1.7622 33.0729 2.7846
# 6 13.9801 13.6446 -0.2530 3.0289 2.7846 36.6132
#
#
#
# Elastic Compliance Matrix: (Units=1/GPa)
#
#
# Indices 1 2 3 4 5 6 
#
# 1 0.012069 -0.002068 -0.010665 0.008496 -0.008697 -0.003953
# 2 -0.002068 0.027578 -0.015303 -0.006121 -0.015872 -0.007880
# 3 -0.010665 -0.015303 0.039902 -0.009715 0.028581 0.008681
# 4 0.008496 -0.006121 -0.009715 0.046099 -0.007520 -0.004272
# 5 -0.008697 -0.015872 0.028581 -0.007520 0.052900 0.006032
# 6 -0.003953 -0.007880 0.008681 -0.004272 0.006032 0.031713
#
#
# Mechanical properties :
#
#
# Convention : Reuss Voigt Hill
#
# Bulk Modulus (GPa) = 42.59836 56.00445 49.30141
# Shear Modulus (GPa) = 18.23763 30.06967 24.15365
#
# Velocity S-wave (km/s) = 2.77805 3.56714 3.19704
# Velocity P-wave (km/s) = 5.32131 6.37694 5.87289
#
# Compressibility (1/GPa) = 0.02347508
#
# Stress axis : x y z
#
# Youngs Moduli (GPa) = 82.85784 36.26138 25.06164
#
# Poissons Ratio (x) = 0.07500 0.26729
# Poissons Ratio (y) = 0.17138 0.38351
# Poissons Ratio (z) = 0.88370 0.55490
#
# Static dielectric constant tensor:
#      x y z
#    x 1.999580 0.023090 0.095860 
#    y 0.023090 1.898890 0.023170 
#    z 0.095860 0.023170 1.963510 
# 
# From -- ./inp_files/10665.got.cif
#   From: 2010.05.17/outbox.cif.g08.bks.cpg/sg2_6_cif.got.tgz:10665.got - 2010.06.03 11:33:40.
