data_PCOD9026471
_publ_section_title
;
Structure prediction by ZEFSAII (Michael W. Deem and Ramdas Pophale) SiO2 
 PCOD9026471
Probable space group: P -1
;
_chemical_formula_sum "Si O2"
_cell_formula_units_Z 14
_cell_length_a 13.277588
_cell_length_b 18.549076
_cell_length_c 9.027677
_cell_angle_alpha 119.282879
_cell_angle_beta 104.918399
_cell_angle_gamma 23.372479
_cell_volume 640.696329
_symmetry_space_group_name_H-M "P -1"
_symmetry_group_IT_number 2
_symmetry_cell_setting 'triclinic'
loop_
_space_group_symop_operation_xyz
x,y,z
-x,-y,-z
loop_
_atom_site_type_symbol
_atom_site_label
_atom_site_fract_x
_atom_site_fract_y
_atom_site_fract_z
Si Si1 0.701238 0.858915 0.786526
Si Si2 0.679879 0.105454 0.630483
Si Si3 0.688947 0.435018 0.569043
Si Si4 0.590863 0.753210 0.921439
Si Si5 0.297031 0.229532 0.605016
Si Si6 0.607676 0.650591 0.530515
Si Si7 0.298715 0.809151 0.008432
O O1 0.690186 0.796563 0.594100
O O2 0.066390 0.593247 0.677028
O O3 0.500000 0.000000 0.000000
O O4 0.556737 0.053809 0.875912
O O5 0.416171 0.233026 0.683215
O O6 0.649834 0.152498 0.494279
O O7 0.695387 0.178539 0.803604
O O8 0.968838 0.842485 0.543118
O O9 0.500000 0.500000 0.500000
O O10 0.637130 0.548875 0.548538
O O11 0.554092 0.556479 0.799777
O O12 0.554537 0.764571 0.742030
O O13 0.409392 0.814161 0.989563
O O14 0.958118 0.474365 0.791512
O O15 0.500000 0.000000 0.500000
O O16 0.000000 0.000000 0.000000
#
# Coordination Sequence:
#
# PCOD9026471 Si02
#       7
#     2   2   2   2   2   2   2
#     4  11  22  38  63  94 138 173 207 268 328 389
#     4  12  24  42  69  98 132 169 225 274 324 401
#     4  11  24  46  68  89 133 175 215 279 331 379
#     4  10  22  41  64  92 140 176 210 273 328 385
#     4  11  23  39  63 101 135 173 219 266 330 395
#     4  10  24  42  65 100 131 171 224 264 329 394
#     4  11  23  42  66  94 126 177 223 269 327 383
#
# _framework density 21.851224999999999
#
# number of rings (size 3 to 8) (size 9 to 14) (size 15 to 20)
#    0.000    1.143    1.429    6.000    0.000    9.714 
#    0.000    0.714    0.000    0.000    0.000    0.000 
#    0.000    0.000    0.000    0.000    0.000    0.000 
#
# Total GULP energy -78049.961777 kJ/mol
# GULP energy per Si atom -5574.997270 kJ/mol
# Density = 2.180149 g / cm^3
# Si number density = 21.851225 Si / 1000 Ang^3
#
#
#
# Elastic Constant Matrix: (Units=GPa)
#
#
# Indices 1 2 3 4 5 6 
#
# 1 48.9043 38.6575 3.5742 3.1622 9.9448 -10.7230
# 2 38.6575 117.3046 29.8722 -12.4756 1.6887 -4.2394
# 3 3.5742 29.8722 106.9162 -3.6024 17.1435 -14.3881
# 4 3.1622 -12.4756 -3.6024 33.6574 -4.4301 -2.6998
# 5 9.9448 1.6887 17.1435 -4.4301 33.1386 -3.9067
# 6 -10.7230 -4.2394 -14.3881 -2.6998 -3.9067 38.8143
#
#
#
# Elastic Compliance Matrix: (Units=1/GPa)
#
#
# Indices 1 2 3 4 5 6 
#
# 1 0.036066 -0.013765 0.005613 -0.008939 -0.013208 0.008590
# 2 -0.013765 0.014840 -0.004878 0.006896 0.006483 -0.002858
# 3 0.005613 -0.004878 0.012305 -0.001622 -0.007462 0.004715
# 4 -0.008939 0.006896 -0.001622 0.034030 0.007818 0.000836
# 5 -0.013208 0.006483 -0.007462 0.007818 0.038564 -0.001282
# 6 0.008590 -0.002858 0.004715 0.000836 -0.001282 0.029502
#
#
# Mechanical properties :
#
#
# Convention : Reuss Voigt Hill
#
# Bulk Modulus (GPa) = 26.91741 46.37035 36.64388
# Shear Modulus (GPa) = 24.53992 34.52348 29.53170
#
# Velocity S-wave (km/s) = 3.35482 3.97915 3.68025
# Velocity P-wave (km/s) = 5.22988 6.50988 5.90467
#
# Compressibility (1/GPa) = 0.03715067
#
# Stress axis : x y z
#
# Youngs Moduli (GPa) = 27.72697 67.38550 81.26908
#
# Poissons Ratio (x) = 0.92756 -0.45615
# Poissons Ratio (y) = 0.38166 0.39642
# Poissons Ratio (z) = -0.15563 0.32870
#
# Static dielectric constant tensor:
#      x y z
#    x 1.862460 -0.002110 -0.046260 
#    y -0.002110 1.904090 -0.029500 
#    z -0.046260 -0.029500 1.827600 
# 
# From -- ./inp_files/313855.got.cif
#   From: 2010.05.17/outbox.cif.g08.bks.cpg/sg2_157_cif.got.tgz:313855.got - 2010.06.03 11:33:40.
