data_PCOD9026632
_publ_section_title
;
Structure prediction by ZEFSAII (Michael W. Deem and Ramdas Pophale) SiO2 
 PCOD9026632
Probable space group: P -1
;
_chemical_formula_sum "Si O2"
_cell_formula_units_Z 12
_cell_length_a 11.316557
_cell_length_b 11.080929
_cell_length_c 5.091461
_cell_angle_alpha 96.955643
_cell_angle_beta 81.754219
_cell_angle_gamma 54.751854
_cell_volume 499.327141
_symmetry_space_group_name_H-M "P -1"
_symmetry_group_IT_number 2
_symmetry_cell_setting 'triclinic'
loop_
_space_group_symop_operation_xyz
x,y,z
-x,-y,-z
loop_
_atom_site_type_symbol
_atom_site_label
_atom_site_fract_x
_atom_site_fract_y
_atom_site_fract_z
Si Si1 0.532093 0.704846 0.490249
Si Si2 0.246762 0.810567 0.291305
Si Si3 0.896711 0.547939 0.794493
Si Si4 0.209348 0.609774 0.919547
Si Si5 0.016679 0.103034 0.221574
Si Si6 0.419466 0.172296 0.995575
O O1 0.380522 0.740667 0.434456
O O2 0.523650 0.757839 0.802896
O O3 0.673111 0.529676 0.344728
O O4 0.558485 0.800998 0.305163
O O5 0.279810 0.691855 0.024612
O O6 0.184099 0.978876 0.246658
O O7 0.102455 0.843896 0.494641
O O8 0.822104 0.462207 0.849036
O O9 0.758237 0.725073 0.873172
O O10 0.000000 0.500000 0.500000
O O11 0.000000 0.500000 0.000000
O O12 0.050177 0.740798 0.869113
O O13 0.000000 0.000000 0.000000
O O14 0.500000 0.000000 0.000000
#
# Coordination Sequence:
#
# PCOD9026632 Si02
#       6
#     2   2   2   2   2   2
#     4  11  25  42  73  98 134 178 226 273 346 407
#     4  10  22  41  65 103 139 178 218 274 347 410
#     4  11  25  46  70 100 130 180 235 279 337 396
#     4  10  23  41  68  98 140 172 224 288 330 409
#     4   9  21  40  60  95 146 171 225 268 334 405
#     4  11  26  50  66 100 137 176 233 290 331 408
#
# _framework density 24.032337999999999
#
# number of rings (size 3 to 8) (size 9 to 14) (size 15 to 20)
#    0.000    1.667    0.000    3.000   11.667    2.000 
#   12.000    0.000    0.000    0.000    0.000    0.000 
#    0.000    0.000    0.000    0.000    0.000    0.000 
#
# Total GULP energy -67153.280998 kJ/mol
# GULP energy per Si atom -5596.106750 kJ/mol
# Density = 2.397764 g / cm^3
# Si number density = 24.032338 Si / 1000 Ang^3
#
#
#
# Elastic Constant Matrix: (Units=GPa)
#
#
# Indices 1 2 3 4 5 6 
#
# 1 78.0252 39.3757 10.2790 7.4974 10.4147 -23.6583
# 2 39.3757 203.1702 33.4883 13.9507 0.6699 -15.6170
# 3 10.2790 33.4883 74.7082 -6.3832 2.1327 -3.9944
# 4 7.4974 13.9507 -6.3832 36.2936 -3.9450 5.8817
# 5 10.4147 0.6699 2.1327 -3.9450 34.6609 -4.5488
# 6 -23.6583 -15.6170 -3.9944 5.8817 -4.5488 30.0830
#
#
#
# Elastic Compliance Matrix: (Units=1/GPa)
#
#
# Indices 1 2 3 4 5 6 
#
# 1 0.019762 -0.001985 -0.001456 -0.006488 -0.004594 0.014892
# 2 -0.001985 0.006050 -0.002580 -0.002603 0.000583 0.001834
# 3 -0.001456 -0.002580 0.015029 0.004134 -0.000140 -0.001318
# 4 -0.006488 -0.002603 0.004134 0.032955 0.003954 -0.011750
# 5 -0.004594 0.000583 -0.000140 0.003954 0.030751 0.000547
# 6 0.014892 0.001834 -0.001318 -0.011750 0.000547 0.048110
#
#
# Mechanical properties :
#
#
# Convention : Reuss Voigt Hill
#
# Bulk Modulus (GPa) = 34.72344 58.02106 46.37225
# Shear Modulus (GPa) = 28.68662 38.39153 33.53907
#
# Velocity S-wave (km/s) = 3.45870 4.00120 3.73980
# Velocity P-wave (km/s) = 5.51635 6.74844 6.16326
#
# Compressibility (1/GPa) = 0.02879899
#
# Stress axis : x y z
#
# Youngs Moduli (GPa) = 50.60267 165.29935 66.53854
#
# Poissons Ratio (x) = 0.32805 0.09691
# Poissons Ratio (y) = 0.10042 0.17165
# Poissons Ratio (z) = 0.07370 0.42642
#
# Static dielectric constant tensor:
#      x y z
#    x 1.941620 0.021280 0.006570 
#    y 0.021280 1.960080 -0.012740 
#    z 0.006570 -0.012740 1.906960 
# 
# From -- ./inp_files/62427.got.cif
#   From: 2010.05.17/outbox.cif.g08.bks.cpg/sg2_32_cif.got.tgz:62427.got - 2010.06.03 11:33:40.
