data_PCOD9026572
_publ_section_title
;
Structure prediction by ZEFSAII (Michael W. Deem and Ramdas Pophale) SiO2 
 PCOD9026572
Probable space group: P -1
;
_chemical_formula_sum "Si O2"
_cell_formula_units_Z 14
_cell_length_a 11.893407
_cell_length_b 18.167317
_cell_length_c 17.583442
_cell_angle_alpha 147.415247
_cell_angle_beta 20.882331
_cell_angle_gamma 135.209088
_cell_volume 667.137166
_symmetry_space_group_name_H-M "P -1"
_symmetry_group_IT_number 2
_symmetry_cell_setting 'triclinic'
loop_
_space_group_symop_operation_xyz
x,y,z
-x,-y,-z
loop_
_atom_site_type_symbol
_atom_site_label
_atom_site_fract_x
_atom_site_fract_y
_atom_site_fract_z
Si Si1 0.672797 0.662045 0.346165
Si Si2 0.714313 0.345736 0.273784
Si Si3 0.610338 0.608722 0.863626
Si Si4 0.303710 0.677289 0.265992
Si Si5 0.524562 0.832839 0.842797
Si Si6 0.560610 0.671062 0.252596
Si Si7 0.127552 0.832707 0.244045
O O1 0.387977 0.643701 0.564317
O O2 0.530547 0.719579 0.401758
O O3 0.824422 0.774775 0.383012
O O4 0.000000 0.500000 0.000000
O O5 0.500000 0.500000 0.500000
O O6 0.602446 0.222347 0.199748
O O7 0.102542 0.318065 0.985931
O O8 0.415111 0.497260 0.897919
O O9 0.000000 0.500000 0.500000
O O10 0.535319 0.698839 0.069676
O O11 0.431004 0.724507 0.011760
O O12 0.289817 0.742267 0.416712
O O13 0.919214 0.728755 0.522736
O O14 0.500000 0.500000 0.000000
O O15 0.280616 0.821217 0.053520
O O16 0.500000 0.000000 0.000000
O O17 0.000000 0.000000 0.500000
#
# Coordination Sequence:
#
# PCOD9026572 Si02
#       7
#     2   2   2   2   2   2   2
#     4  12  22  39  65  99 133 172 227 278 332 393
#     4  12  22  39  68  96 133 176 225 280 330 394
#     4  11  23  40  67  98 135 178 223 276 335 403
#     4  10  22  41  64  97 134 172 222 273 335 394
#     4  12  25  45  68  97 138 182 225 275 338 409
#     4  11  23  40  64  98 132 171 223 277 332 388
#     4  12  23  41  68 101 132 175 230 278 328 405
#
# _framework density 20.985189999999999
#
# number of rings (size 3 to 8) (size 9 to 14) (size 15 to 20)
#    0.000    0.571    4.286    6.000    2.000    0.000 
#    0.000    0.714    0.000    2.571    0.000    0.000 
#    0.000    0.000    0.000    0.000    0.000    0.000 
#
# Total GULP energy -78171.436596 kJ/mol
# GULP energy per Si atom -5583.674043 kJ/mol
# Density = 2.093743 g / cm^3
# Si number density = 20.985190 Si / 1000 Ang^3
#
#
#
# Elastic Constant Matrix: (Units=GPa)
#
#
# Indices 1 2 3 4 5 6 
#
# 1 102.8381 19.1992 24.3048 -20.9679 17.7612 -15.0187
# 2 19.1992 101.8767 29.2071 -10.0830 6.1611 1.2807
# 3 24.3048 29.2071 73.2604 -18.5620 6.5351 0.4424
# 4 -20.9679 -10.0830 -18.5620 39.2302 -8.2135 17.0622
# 5 17.7612 6.1611 6.5351 -8.2135 34.4952 -12.7991
# 6 -15.0187 1.2807 0.4424 17.0622 -12.7991 39.2753
#
#
#
# Elastic Compliance Matrix: (Units=1/GPa)
#
#
# Indices 1 2 3 4 5 6 
#
# 1 0.012169 -0.001042 -0.002400 0.003418 -0.004109 0.001890
# 2 -0.001042 0.011282 -0.003801 0.000969 -0.001083 -0.001497
# 3 -0.002400 -0.003801 0.018212 0.008254 -0.001446 -0.005056
# 4 0.003418 0.000969 0.008254 0.038157 -0.000140 -0.015440
# 5 -0.004109 -0.001083 -0.001446 -0.000140 0.035262 0.010032
# 6 0.001890 -0.001497 -0.005056 -0.015440 0.010032 0.036267
#
#
# Mechanical properties :
#
#
# Convention : Reuss Voigt Hill
#
# Bulk Modulus (GPa) = 36.79713 47.04415 41.92064
# Shear Modulus (GPa) = 28.58863 36.28442 32.43652
#
# Velocity S-wave (km/s) = 3.69497 4.16269 3.93579
# Velocity P-wave (km/s) = 5.98136 6.75059 6.37758
#
# Compressibility (1/GPa) = 0.02717604
#
# Stress axis : x y z
#
# Youngs Moduli (GPa) = 82.17914 88.63587 54.90749
#
# Poissons Ratio (x) = 0.09236 0.13180
# Poissons Ratio (y) = 0.08563 0.20871
# Poissons Ratio (z) = 0.19727 0.33691
#
# Static dielectric constant tensor:
#      x y z
#    x 1.874220 0.084220 0.041850 
#    y 0.084220 1.813390 -0.025160 
#    z 0.041850 -0.025160 1.735390 
# 
# From -- ./inp_files/285227.got.cif
#   From: 2010.05.17/outbox.cif.g08.bks.cpg/sg2_143_cif.got.tgz:285227.got - 2010.06.03 11:33:40.
