data_PCOD9026574
_publ_section_title
;
Structure prediction by ZEFSAII (Michael W. Deem and Ramdas Pophale) SiO2 
 PCOD9026574
Probable space group: P -1
;
_chemical_formula_sum "Si O2"
_cell_formula_units_Z 16
_cell_length_a 17.422202
_cell_length_b 11.684798
_cell_length_c 8.255664
_cell_angle_alpha 122.440242
_cell_angle_beta 92.406146
_cell_angle_gamma 40.143528
_cell_volume 673.446395
_symmetry_space_group_name_H-M "P -1"
_symmetry_group_IT_number 2
_symmetry_cell_setting 'triclinic'
loop_
_space_group_symop_operation_xyz
x,y,z
-x,-y,-z
loop_
_atom_site_type_symbol
_atom_site_label
_atom_site_fract_x
_atom_site_fract_y
_atom_site_fract_z
Si Si1 0.226472 0.048585 0.613623
Si Si2 0.480161 0.430622 0.183171
Si Si3 0.949127 0.579918 0.831042
Si Si4 0.578536 0.997181 0.725436
Si Si5 0.292823 0.581902 0.560285
Si Si6 0.149196 0.531534 0.410297
Si Si7 0.448933 0.942285 0.608116
Si Si8 0.831066 0.999177 0.926881
O O1 0.138299 0.249103 0.603507
O O2 0.327613 0.758509 0.367700
O O3 0.344043 0.972791 0.651985
O O4 0.086616 0.265185 0.901413
O O5 0.429803 0.447849 0.366992
O O6 0.513233 0.247849 0.940578
O O7 0.642444 0.268475 0.073055
O O8 0.865266 0.561611 0.799828
O O9 0.891353 0.760144 0.815134
O O10 0.734810 0.719842 0.635393
O O11 0.445408 0.086242 0.820124
O O12 0.598152 0.951757 0.500226
O O13 0.219324 0.575153 0.439779
O O14 0.371739 0.388922 0.579757
O O15 0.170176 0.884678 0.844780
O O16 0.964214 0.835415 0.684782
#
# Coordination Sequence:
#
# PCOD9026574 Si02
#       8
#     2   2   2   2   2   2   2   2
#     4  11  24  42  66  96 134 176 219 275 330 390
#     4  12  24  42  71 101 129 172 230 274 319 388
#     4  11  24  42  66  96 133 176 221 270 331 397
#     4  10  24  41  65 100 135 173 218 277 328 395
#     4  11  24  43  68  99 133 175 220 274 330 392
#     4  11  25  41  67  98 135 176 222 265 338 394
#     4  10  22  41  64  97 135 172 217 271 336 381
#     4  12  22  42  69  97 131 172 221 275 323 393
#
# _framework density 23.758385000000001
#
# number of rings (size 3 to 8) (size 9 to 14) (size 15 to 20)
#    0.000    1.000    3.750    2.625    3.500    2.500 
#    0.000    3.125    0.000    0.000    0.000    0.000 
#    0.000    0.000    0.000    0.000    0.000    0.000 
#
# Total GULP energy -89263.224726 kJ/mol
# GULP energy per Si atom -5578.951545 kJ/mol
# Density = 2.370431 g / cm^3
# Si number density = 23.758385 Si / 1000 Ang^3
#
#
#
# Elastic Constant Matrix: (Units=GPa)
#
#
# Indices 1 2 3 4 5 6 
#
# 1 101.3303 11.8202 39.2908 15.4986 27.8815 -15.0936
# 2 11.8202 77.9679 24.7477 25.1468 4.7779 -12.3984
# 3 39.2908 24.7477 115.0083 17.7745 33.1225 -14.1441
# 4 15.4986 25.1468 17.7745 37.0614 2.7073 5.0180
# 5 27.8815 4.7779 33.1225 2.7073 44.0737 -2.6953
# 6 -15.0936 -12.3984 -14.1441 5.0180 -2.6953 25.6186
#
#
#
# Elastic Compliance Matrix: (Units=1/GPa)
#
#
# Indices 1 2 3 4 5 6 
#
# 1 0.014967 0.003011 -0.000773 -0.008799 -0.008017 0.010729
# 2 0.003011 0.020276 -0.000552 -0.016563 -0.001794 0.014338
# 3 -0.000773 -0.000552 0.013364 -0.006012 -0.008702 0.006918
# 4 -0.008799 -0.016563 -0.006012 0.047635 0.007421 -0.025069
# 5 -0.008017 -0.001794 -0.008702 0.007421 0.033531 -0.008322
# 6 0.010729 0.014338 0.006918 -0.025069 -0.008322 0.060148
#
#
# Mechanical properties :
#
#
# Convention : Reuss Voigt Hill
#
# Bulk Modulus (GPa) = 19.23820 49.55819 34.39819
# Shear Modulus (GPa) = 24.52473 35.91391 30.21932
#
# Velocity S-wave (km/s) = 3.21636 3.89219 3.57030
# Velocity P-wave (km/s) = 4.68063 6.41119 5.61301
#
# Compressibility (1/GPa) = 0.05197991
#
# Stress axis : x y z
#
# Youngs Moduli (GPa) = 66.81384 49.31855 74.82685
#
# Poissons Ratio (x) = -0.14852 0.05784
# Poissons Ratio (y) = -0.20121 0.04132
# Poissons Ratio (z) = 0.05165 0.02723
#
# Static dielectric constant tensor:
#      x y z
#    x 2.008260 0.026650 -0.054710 
#    y 0.026650 1.915150 -0.030280 
#    z -0.054710 -0.030280 1.926290 
# 
# From -- ./inp_files/333781.got.cif
#   From: 2010.05.17/outbox.cif.g08.bks.cpg/sg2_167_cif.got.tgz:333781.got - 2010.06.03 11:33:40.
