data_PCOD9026402
_publ_section_title
;
Structure prediction by ZEFSAII (Michael W. Deem and Ramdas Pophale) SiO2 
 PCOD9026402
Probable space group: P -1
;
_chemical_formula_sum "Si O2"
_cell_formula_units_Z 16
_cell_length_a 19.118910
_cell_length_b 6.337836
_cell_length_c 8.934353
_cell_angle_alpha 49.360306
_cell_angle_beta 52.153580
_cell_angle_gamma 69.019255
_cell_volume 647.140734
_symmetry_space_group_name_H-M "P -1"
_symmetry_group_IT_number 2
_symmetry_cell_setting 'triclinic'
loop_
_space_group_symop_operation_xyz
x,y,z
-x,-y,-z
loop_
_atom_site_type_symbol
_atom_site_label
_atom_site_fract_x
_atom_site_fract_y
_atom_site_fract_z
Si Si1 0.305739 0.876031 0.317107
Si Si2 0.897182 0.340886 0.595067
Si Si3 0.773926 0.779424 0.963496
Si Si4 0.439903 0.095691 0.265239
Si Si5 0.932748 0.401715 0.860169
Si Si6 0.302941 0.060021 0.721094
Si Si7 0.160853 0.038997 0.653226
Si Si8 0.626663 0.325349 0.963063
O O1 0.388126 0.880515 0.321116
O O2 0.297690 0.157307 0.097672
O O3 0.216558 0.887351 0.524973
O O4 0.318926 0.651002 0.274795
O O5 0.833749 0.073238 0.761391
O O6 0.929714 0.293440 0.743460
O O7 0.979786 0.388947 0.350207
O O8 0.855611 0.643604 0.511694
O O9 0.843618 0.558534 0.934745
O O10 0.722653 0.729666 0.210951
O O11 0.391692 0.093603 0.490065
O O12 0.544619 0.096424 0.146739
O O13 0.417703 0.389464 0.084765
O O14 0.927002 0.150877 0.101842
O O15 0.222797 0.042568 0.717470
O O16 0.315176 0.779998 0.930702
#
# Coordination Sequence:
#
# PCOD9026402 Si02
#       8
#     2   2   2   2   2   2   2   2
#     4  10  23  37  64  90 128 158 210 261 307 374
#     4  11  24  45  63  95 134 165 213 267 321 375
#     4  11  23  41  67  96 126 172 213 262 317 378
#     4  10  22  41  64  90 124 165 207 260 320 375
#     4  11  24  43  67  93 130 171 209 269 323 371
#     4  10  23  37  64  90 128 158 210 261 307 374
#     4  11  23  41  67  96 126 172 213 262 317 378
#     4  10  22  41  64  90 124 165 207 260 320 375
#
# _framework density 24.724143000000002
#
# number of rings (size 3 to 8) (size 9 to 14) (size 15 to 20)
#    0.000    1.500    2.500    1.500   10.500    0.000 
#    0.000    1.250    0.000    7.500    0.000    0.000 
#    0.000    0.000    0.000    0.000    0.000    0.000 
#
# Total GULP energy -89466.155665 kJ/mol
# GULP energy per Si atom -5591.634729 kJ/mol
# Density = 2.466787 g / cm^3
# Si number density = 24.724143 Si / 1000 Ang^3
#
#
#
# Elastic Constant Matrix: (Units=GPa)
#
#
# Indices 1 2 3 4 5 6 
#
# 1 74.1951 13.1281 29.7923 4.2966 8.0319 0.7034
# 2 13.1281 61.5874 16.2542 -6.1480 -3.9773 -11.8881
# 3 29.7923 16.2542 135.5276 15.9743 -1.2162 11.8024
# 4 4.2966 -6.1480 15.9743 42.0184 -0.3027 -2.0162
# 5 8.0319 -3.9773 -1.2162 -0.3027 36.4037 -1.9104
# 6 0.7034 -11.8881 11.8024 -2.0162 -1.9104 29.6740
#
#
#
# Elastic Compliance Matrix: (Units=1/GPa)
#
#
# Indices 1 2 3 4 5 6 
#
# 1 0.015691 -0.003072 -0.002932 -0.001004 -0.003944 -0.000759
# 2 -0.003072 0.020406 -0.003213 0.005030 0.003371 0.010085
# 3 -0.002932 -0.003213 0.009329 -0.003963 0.000303 -0.005178
# 4 -0.001004 0.005030 -0.003963 0.026416 0.001146 0.005484
# 5 -0.003944 0.003371 0.000303 0.001146 0.028899 0.003262
# 6 -0.000759 0.010085 -0.005178 0.005484 0.003262 0.040400
#
#
# Mechanical properties :
#
#
# Convention : Reuss Voigt Hill
#
# Bulk Modulus (GPa) = 37.04708 43.29546 40.17127
# Shear Modulus (GPa) = 29.66086 35.76161 32.71124
#
# Velocity S-wave (km/s) = 3.46739 3.80731 3.64132
# Velocity P-wave (km/s) = 5.57199 6.07264 5.82769
#
# Compressibility (1/GPa) = 0.02699268
#
# Stress axis : x y z
#
# Youngs Moduli (GPa) = 63.73038 49.00446 107.19127
#
# Poissons Ratio (x) = 0.15056 0.31426
# Poissons Ratio (y) = 0.19581 0.34438
# Poissons Ratio (z) = 0.18684 0.15744
#
# Static dielectric constant tensor:
#      x y z
#    x 1.959250 0.008070 -0.022370 
#    y 0.008070 1.984870 -0.034500 
#    z -0.022370 -0.034500 2.007310 
# 
# From -- ./inp_files/323208.got.cif
#   From: 2010.05.17/outbox.cif.g08.bks.cpg/sg2_162_cif.got.tgz:323208.got - 2010.06.03 11:33:40.
