data_PCOD9026630
_publ_section_title
;
Structure prediction by ZEFSAII (Michael W. Deem and Ramdas Pophale) SiO2 
 PCOD9026630
Probable space group: P -1
;
_chemical_formula_sum "Si O2"
_cell_formula_units_Z 12
_cell_length_a 20.843281
_cell_length_b 5.076932
_cell_length_c 12.961918
_cell_angle_alpha 125.201518
_cell_angle_beta 24.053723
_cell_angle_gamma 122.767441
_cell_volume 456.376479
_symmetry_space_group_name_H-M "P -1"
_symmetry_group_IT_number 2
_symmetry_cell_setting 'triclinic'
loop_
_space_group_symop_operation_xyz
x,y,z
-x,-y,-z
loop_
_atom_site_type_symbol
_atom_site_label
_atom_site_fract_x
_atom_site_fract_y
_atom_site_fract_z
Si Si1 0.885581 0.249719 0.175131
Si Si2 0.303468 0.791989 0.760377
Si Si3 0.209984 0.750514 0.287092
Si Si4 0.380453 0.402120 0.247708
Si Si5 0.555871 0.501154 0.229447
Si Si6 0.110831 0.059252 0.255063
O O1 0.768292 0.134104 0.228997
O O2 0.773116 0.386027 0.461143
O O3 0.000000 0.500000 0.000000
O O4 0.000000 0.000000 0.000000
O O5 0.413681 0.489112 0.518117
O O6 0.385765 0.128362 0.755075
O O7 0.171208 0.760253 0.034714
O O8 0.218633 0.367267 0.205811
O O9 0.026017 0.802858 0.588110
O O10 0.308144 0.037482 0.261971
O O11 0.299378 0.737718 0.039192
O O12 0.472003 0.436749 0.228933
O O13 0.500000 0.500000 0.000000
O O14 0.000000 0.000000 0.500000
#
# Coordination Sequence:
#
# PCOD9026630 Si02
#       6
#     2   2   2   2   2   2
#     4  11  26  52  77 110 152 205 256 317 386 454
#     4   9  20  43  70 103 139 193 246 310 369 458
#     4  10  22  41  65 102 140 188 249 303 375 439
#     4  11  25  42  73 110 150 201 250 318 379 460
#     4   9  20  42  67  96 151 183 247 298 382 438
#     4  10  22  42  70 102 145 191 251 310 376 446
#
# _framework density 26.294082
#
# number of rings (size 3 to 8) (size 9 to 14) (size 15 to 20)
#    0.000    2.000    0.000    1.500    4.667    5.333 
#   18.000    0.833    0.000    0.000    0.000    0.000 
#    0.000    0.000    0.000    0.000    0.000    0.000 
#
# Total GULP energy -66890.122582 kJ/mol
# GULP energy per Si atom -5574.176882 kJ/mol
# Density = 2.623424 g / cm^3
# Si number density = 26.294082 Si / 1000 Ang^3
#
#
#
# Elastic Constant Matrix: (Units=GPa)
#
#
# Indices 1 2 3 4 5 6 
#
# 1 93.1590 44.6526 23.9339 2.7923 17.4078 20.5630
# 2 44.6526 121.1020 33.6556 -15.8402 12.2417 33.1906
# 3 23.9339 33.6556 211.5863 35.4145 23.0815 10.2692
# 4 2.7923 -15.8402 35.4145 42.8652 6.2858 -0.1358
# 5 17.4078 12.2417 23.0815 6.2858 39.3664 -2.6090
# 6 20.5630 33.1906 10.2692 -0.1358 -2.6090 51.0201
#
#
#
# Elastic Compliance Matrix: (Units=1/GPa)
#
#
# Indices 1 2 3 4 5 6 
#
# 1 0.014456 -0.004120 0.000034 -0.001759 -0.005077 -0.003417
# 2 -0.004120 0.013553 -0.002335 0.007578 -0.002684 -0.006803
# 3 0.000034 -0.002335 0.006272 -0.005748 -0.002041 0.000123
# 4 -0.001759 0.007578 -0.005748 0.031488 -0.003446 -0.003156
# 5 -0.005077 -0.002684 -0.002041 -0.003446 0.030611 0.005759
# 6 -0.003417 -0.006803 0.000123 -0.003156 0.005759 0.025664
#
#
# Mechanical properties :
#
#
# Convention : Reuss Voigt Hill
#
# Bulk Modulus (GPa) = 46.64292 70.03685 58.33988
# Shear Modulus (GPa) = 35.20338 48.22402 41.71370
#
# Velocity S-wave (km/s) = 3.66298 4.28720 3.98732
# Velocity P-wave (km/s) = 5.97221 7.15546 6.59044
#
# Compressibility (1/GPa) = 0.02143948
#
# Stress axis : x y z
#
# Youngs Moduli (GPa) = 69.17527 73.78656 159.42834
#
# Poissons Ratio (x) = 0.30400 -0.00545
# Poissons Ratio (y) = 0.28500 0.37227
# Poissons Ratio (z) = -0.00236 0.17229
#
# Static dielectric constant tensor:
#      x y z
#    x 11.628860 3.069750 -13.366460 
#    y 3.069750 3.142480 -4.582200 
#    z -13.366460 -4.582200 21.104050 
# 
# From -- ./inp_files/543650.got.cif
#   From: 2010.05.17/outbox.cif.g08.bks.cpg/sg2_272_cif.got.tgz:543650.got - 2010.06.03 11:33:40.
