data_PCOD9026997
_publ_section_title
;
Structure prediction by ZEFSAII (Michael W. Deem and Ramdas Pophale) SiO2 
 PCOD9026997
Probable space group: P -1
;
_chemical_formula_sum "Si O2"
_cell_formula_units_Z 12
_cell_length_a 12.379935
_cell_length_b 7.992332
_cell_length_c 4.727063
_cell_angle_alpha 89.999419
_cell_angle_beta 90.000931
_cell_angle_gamma 98.691700
_cell_volume 462.345762
_symmetry_space_group_name_H-M "P -1"
_symmetry_group_IT_number 2
_symmetry_cell_setting 'triclinic'
loop_
_space_group_symop_operation_xyz
x,y,z
-x,-y,-z
loop_
_atom_site_type_symbol
_atom_site_label
_atom_site_fract_x
_atom_site_fract_y
_atom_site_fract_z
Si Si1 0.312158 0.713067 0.181619
Si Si2 0.555476 0.146809 0.295930
Si Si3 0.187843 0.286941 0.681618
Si Si4 0.399170 0.393715 0.337625
Si Si5 0.944522 0.853189 0.795936
Si Si6 0.899172 0.393714 0.162380
O O1 0.347408 0.754451 0.503477
O O2 0.351385 0.528549 0.138218
O O3 0.379372 0.862607 0.993520
O O4 0.190151 0.687755 0.064777
O O5 0.457910 0.248749 0.202388
O O6 0.500000 0.000000 0.500000
O O7 0.309850 0.312252 0.564789
O O8 0.120635 0.137397 0.493515
O O9 0.148612 0.471457 0.638209
O O10 0.152591 0.245555 0.003472
O O11 0.500000 0.500000 0.500000
O O12 0.042087 0.751254 0.702385
O O13 0.000000 0.000000 0.000000
O O14 0.000000 0.500000 0.000000
#
# Coordination Sequence:
#
# PCOD9026997 Si02
#       6
#     2   2   2   2   2   2
#     4  11  23  41  65  94 126 169 217 264 320 382
#     4  11  25  42  63  94 131 170 212 264 326 388
#     4  11  23  41  65  94 126 169 217 264 320 382
#     4  10  22  41  66  94 126 165 215 268 315 378
#     4  11  25  42  63  94 131 170 212 264 326 388
#     4  10  22  41  66  94 126 165 215 268 315 378
#
# _framework density 25.954599999999999
#
# number of rings (size 3 to 8) (size 9 to 14) (size 15 to 20)
#    0.000    1.333    0.000    6.000    0.000   10.667 
#    0.000    0.000    0.000    0.000    0.000    0.000 
#    0.000    0.000    0.000    0.000    0.000    0.000 
#
# Total GULP energy -67054.923198 kJ/mol
# GULP energy per Si atom -5587.910267 kJ/mol
# Density = 2.589553 g / cm^3
# Si number density = 25.954600 Si / 1000 Ang^3
#
#
#
# Elastic Constant Matrix: (Units=GPa)
#
#
# Indices 1 2 3 4 5 6 
#
# 1 133.7260 3.0861 20.8567 -0.0012 -0.0013 30.3316
# 2 3.0861 60.6246 3.8313 0.0011 0.0004 28.0894
# 3 20.8567 3.8313 114.5097 0.0015 -0.0013 17.3157
# 4 -0.0012 0.0011 0.0015 49.7149 6.3490 -0.0013
# 5 -0.0013 0.0004 -0.0013 6.3490 35.9925 -0.0006
# 6 30.3316 28.0894 17.3157 -0.0013 -0.0006 20.2916
#
#
#
# Elastic Compliance Matrix: (Units=1/GPa)
#
#
# Indices 1 2 3 4 5 6 
#
# 1 -0.495901 -1.119970 -0.251143 0.000083 0.000013 2.505938
# 2 -1.119970 -2.472824 -0.555771 0.000184 0.000028 5.571480
# 3 -0.251143 -0.555771 -0.114855 0.000041 0.000007 1.242762
# 4 0.000083 0.000184 0.000041 0.020578 -0.003630 -0.000413
# 5 0.000013 0.000028 0.000007 -0.003630 0.028424 -0.000063
# 6 2.505938 5.571480 1.242762 -0.000413 -0.000063-12.469596
#
#
# Mechanical properties :
#
#
# Convention : Reuss Voigt Hill
#
# Bulk Modulus (GPa) = -0.14415 40.48985 20.17285
# Shear Modulus (GPa) = -0.35809 39.93888 19.79039
#
# Velocity S-wave (km/s) = -0.37184 3.92701 2.76434
# Velocity P-wave (km/s) = 0.48992 6.01631 4.24004
#
# Compressibility (1/GPa) = -6.93734609
#
# Stress axis : x y z
#
# Youngs Moduli (GPa) = -2.01653 -0.40440 -8.70665
#
# Poissons Ratio (x) = -0.45291 -2.18661
# Poissons Ratio (y) = -2.25846 -4.83890
# Poissons Ratio (z) = -0.50644 -0.22475
#
# Static dielectric constant tensor:
#      x y z
#    x 2.049400 -0.010810 0.000020 
#    y -0.010810 2.186420 0.000000 
#    z 0.000020 0.000000 2.039110 
# 
# From -- ./inp_files/60694.got.cif
#   From: 2010.05.17/outbox.cif.g08.bks.cpg/sg2_31_cif.got.tgz:60694.got - 2010.06.03 11:33:40.
