data_PCOD9026988
_publ_section_title
;
Structure prediction by ZEFSAII (Michael W. Deem and Ramdas Pophale) SiO2 
 PCOD9026988
Probable space group: P -1
;
_chemical_formula_sum "Si O2"
_cell_formula_units_Z 12
_cell_length_a 10.820649
_cell_length_b 13.417310
_cell_length_c 15.826683
_cell_angle_alpha 17.353272
_cell_angle_beta 130.299552
_cell_angle_gamma 124.266085
_cell_volume 507.577608
_symmetry_space_group_name_H-M "P -1"
_symmetry_group_IT_number 2
_symmetry_cell_setting 'triclinic'
loop_
_space_group_symop_operation_xyz
x,y,z
-x,-y,-z
loop_
_atom_site_type_symbol
_atom_site_label
_atom_site_fract_x
_atom_site_fract_y
_atom_site_fract_z
Si Si1 0.898457 0.858807 0.308265
Si Si2 0.308669 0.664946 0.300025
Si Si3 0.417429 0.572398 0.033931
Si Si4 0.632835 0.925937 0.729049
Si Si5 0.858814 0.789200 0.096240
Si Si6 0.922387 0.174619 0.238581
O O1 0.767201 0.623305 0.455337
O O2 0.051141 0.608900 0.528671
O O3 0.960577 0.952367 0.350717
O O4 0.804987 0.197964 0.942780
O O5 0.500000 0.500000 0.500000
O O6 0.284647 0.009853 0.067278
O O7 0.343843 0.327041 0.136249
O O8 0.574640 0.314174 0.356243
O O9 0.480742 0.841752 0.785116
O O10 0.276775 0.729846 0.911579
O O11 0.787882 0.838223 0.930807
O O12 0.000000 0.000000 0.000000
O O13 0.000000 0.000000 0.500000
O O14 0.000000 0.500000 0.000000
#
# Coordination Sequence:
#
# PCOD9026988 Si02
#       6
#     2   2   2   2   2   2
#     4  11  25  44  66  98 138 175 227 276 339 410
#     4  11  25  43  68  98 132 178 229 279 340 396
#     4  10  23  40  64  98 127 174 226 273 345 396
#     4  10  22  41  66  93 134 171 221 285 332 407
#     4  10  24  44  69  99 138 181 231 278 347 404
#     4  12  25  42  69  98 139 179 228 278 347 412
#
# _framework density 23.641705000000002
#
# number of rings (size 3 to 8) (size 9 to 14) (size 15 to 20)
#    0.000    1.333    0.000    4.000    4.667    9.333 
#    0.000    0.000    0.000    0.000    0.000    0.000 
#    0.000    0.000    0.000    0.000    0.000    0.000 
#
# Total GULP energy -67219.257005 kJ/mol
# GULP energy per Si atom -5601.604750 kJ/mol
# Density = 2.358790 g / cm^3
# Si number density = 23.641705 Si / 1000 Ang^3
#
#
#
# Elastic Constant Matrix: (Units=GPa)
#
#
# Indices 1 2 3 4 5 6 
#
# 1 84.0924 -0.2147 43.1237 -14.4729 12.1404 -3.7221
# 2 -0.2147 95.1609 25.7830 8.4654 17.9752 -9.5714
# 3 43.1237 25.7830 100.6029 13.5292 13.7410 -11.3860
# 4 -14.4729 8.4654 13.5292 46.8736 -7.7401 2.8560
# 5 12.1404 17.9752 13.7410 -7.7401 50.3618 1.8959
# 6 -3.7221 -9.5714 -11.3860 2.8560 1.8959 30.5194
#
#
#
# Elastic Compliance Matrix: (Units=1/GPa)
#
#
# Indices 1 2 3 4 5 6 
#
# 1 0.018136 0.001983 -0.009298 0.007789 -0.001297 -0.001283
# 2 0.001983 0.012685 -0.002802 -0.001862 -0.004664 0.003639
# 3 -0.009298 -0.002802 0.016660 -0.007934 -0.002716 0.005114
# 4 0.007789 -0.001862 -0.007934 0.027593 0.005400 -0.005511
# 5 -0.001297 -0.004664 -0.002716 0.005400 0.023578 -0.004604
# 6 -0.001283 0.003639 0.005114 -0.005511 -0.004604 0.036460
#
#
# Mechanical properties :
#
#
# Convention : Reuss Voigt Hill
#
# Bulk Modulus (GPa) = 36.69955 46.36000 41.52977
# Shear Modulus (GPa) = 30.40859 39.62858 35.01859
#
# Velocity S-wave (km/s) = 3.59029 4.09860 3.85284
# Velocity P-wave (km/s) = 5.72222 6.48460 6.11530
#
# Compressibility (1/GPa) = 0.02724829
#
# Stress axis : x y z
#
# Youngs Moduli (GPa) = 55.13954 78.83489 60.02285
#
# Poissons Ratio (x) = -0.15634 0.55808
# Poissons Ratio (y) = -0.10935 0.16817
# Poissons Ratio (z) = 0.51267 0.22087
#
# Static dielectric constant tensor:
#      x y z
#    x 1.901910 0.019340 0.039100 
#    y 0.019340 1.927660 0.016550 
#    z 0.039100 0.016550 1.873650 
# 
# From -- ./inp_files/24937.got.cif
#   From: 2010.05.17/outbox.cif.g08.bks.cpg/sg2_13_cif.got.tgz:24937.got - 2010.06.03 11:33:40.
