data_PCOD9026615
_publ_section_title
;
Structure prediction by ZEFSAII (Michael W. Deem and Ramdas Pophale) SiO2 
 PCOD9026615
Probable space group: P -1
;
_chemical_formula_sum "Si O2"
_cell_formula_units_Z 14
_cell_length_a 16.068880
_cell_length_b 9.184733
_cell_length_c 5.788779
_cell_angle_alpha 88.149413
_cell_angle_beta 122.073436
_cell_angle_gamma 122.202776
_cell_volume 573.925371
_symmetry_space_group_name_H-M "P -1"
_symmetry_group_IT_number 2
_symmetry_cell_setting 'triclinic'
loop_
_space_group_symop_operation_xyz
x,y,z
-x,-y,-z
loop_
_atom_site_type_symbol
_atom_site_label
_atom_site_fract_x
_atom_site_fract_y
_atom_site_fract_z
Si Si1 0.459666 0.717453 0.442645
Si Si2 0.665217 0.119030 0.938222
Si Si3 0.919888 0.010690 0.193368
Si Si4 0.955771 0.760590 0.019684
Si Si5 0.925361 0.443150 0.143685
Si Si6 0.225375 0.010163 0.631549
Si Si7 0.596910 0.601863 0.344842
O O1 0.385806 0.762189 0.163946
O O2 0.537108 0.664263 0.427877
O O3 0.383250 0.542262 0.513911
O O4 0.557532 0.913705 0.701375
O O5 0.796304 0.240037 0.985407
O O6 0.702538 0.077818 0.240463
O O7 0.800565 0.961619 0.145314
O O8 0.897732 0.864317 0.983616
O O9 0.000000 0.000000 0.500000
O O10 0.009061 0.211618 0.199960
O O11 0.880475 0.569128 0.042252
O O12 0.092090 0.866970 0.329442
O O13 0.000000 0.500000 0.500000
O O14 0.000000 0.500000 0.000000
O O15 0.290374 0.204411 0.601105
O O16 0.500000 0.500000 0.000000
#
# Coordination Sequence:
#
# PCOD9026615 Si02
#       7
#     2   2   2   2   2   2   2
#     4  10  26  48  70 103 139 188 247 300 372 439
#     4  11  24  48  71 104 146 190 242 304 370 444
#     4   9  21  39  65  97 137 180 236 287 354 439
#     4  10  22  41  65 100 140 190 238 288 364 442
#     4  12  27  46  72 108 151 197 243 300 377 450
#     4  11  22  39  71 100 137 183 229 303 367 432
#     4  11  24  45  71 101 133 180 245 304 369 436
#
# _framework density 24.393418
#
# number of rings (size 3 to 8) (size 9 to 14) (size 15 to 20)
#    0.000    1.429    2.857    0.857    6.000    5.143 
#    2.571    0.000    0.000    0.000    0.000    0.000 
#    0.000    0.000    0.000    0.000    0.000    0.000 
#
# Total GULP energy -78050.666244 kJ/mol
# GULP energy per Si atom -5575.047589 kJ/mol
# Density = 2.433790 g / cm^3
# Si number density = 24.393418 Si / 1000 Ang^3
#
#
#
# Elastic Constant Matrix: (Units=GPa)
#
#
# Indices 1 2 3 4 5 6 
#
# 1 53.8577 44.2128 19.6533 -14.6839 4.0451 -5.8393
# 2 44.2128 235.3026 48.4537 -37.0933 17.2991 -2.0668
# 3 19.6533 48.4537 95.2321 -28.7373 22.7861 -10.2785
# 4 -14.6839 -37.0933 -28.7373 42.5566 -3.9450 9.9556
# 5 4.0451 17.2991 22.7861 -3.9450 35.7712 -12.1598
# 6 -5.8393 -2.0668 -10.2785 9.9556 -12.1598 37.5330
#
#
#
# Elastic Compliance Matrix: (Units=1/GPa)
#
#
# Indices 1 2 3 4 5 6 
#
# 1 0.023253 -0.003543 -0.002224 0.002990 0.001705 0.002573
# 2 -0.003543 0.005791 -0.000852 0.003542 -0.002185 -0.002113
# 3 -0.002224 -0.000852 0.016074 0.008800 -0.009030 -0.001251
# 4 0.002990 0.003542 0.008800 0.034894 -0.006643 -0.008338
# 5 0.001705 -0.002185 -0.009030 -0.006643 0.037811 0.011684
# 6 0.002573 -0.002113 -0.001251 -0.008338 0.011684 0.032581
#
#
# Mechanical properties :
#
#
# Convention : Reuss Voigt Hill
#
# Bulk Modulus (GPa) = 31.36658 67.67023 49.51841
# Shear Modulus (GPa) = 28.69102 41.31033 35.00068
#
# Velocity S-wave (km/s) = 3.43327 4.11968 3.79204
# Velocity P-wave (km/s) = 5.34817 7.10144 6.28623
#
# Compressibility (1/GPa) = 0.03188106
#
# Stress axis : x y z
#
# Youngs Moduli (GPa) = 43.00442 172.67038 62.21077
#
# Poissons Ratio (x) = 0.61171 0.13839
# Poissons Ratio (y) = 0.15235 0.05300
# Poissons Ratio (z) = 0.09566 0.14710
#
# Static dielectric constant tensor:
#      x y z
#    x 2.056210 -0.024780 -0.055760 
#    y -0.024780 2.059220 -0.027820 
#    z -0.055760 -0.027820 1.992280 
# 
# From -- ./inp_files/106794.got.cif
#   From: 2010.05.17/outbox.cif.g08.bks.cpg/sg2_54_cif.got.tgz:106794.got - 2010.06.03 11:33:40.
