data_PCOD9026051
_publ_section_title
;
Structure prediction by ZEFSAII (Michael W. Deem and Ramdas Pophale) SiO2 
 PCOD9026051
Probable space group: P -1
;
_chemical_formula_sum "Si O2"
_cell_formula_units_Z 16
_cell_length_a 8.887986
_cell_length_b 11.853712
_cell_length_c 13.333208
_cell_angle_alpha 98.615054
_cell_angle_beta 29.926864
_cell_angle_gamma 109.549660
_cell_volume 630.356472
_symmetry_space_group_name_H-M "P -1"
_symmetry_group_IT_number 2
_symmetry_cell_setting 'triclinic'
loop_
_space_group_symop_operation_xyz
x,y,z
-x,-y,-z
loop_
_atom_site_type_symbol
_atom_site_label
_atom_site_fract_x
_atom_site_fract_y
_atom_site_fract_z
Si Si1 0.332119 0.110566 0.542840
Si Si2 0.124036 0.002403 0.040788
Si Si3 0.210460 0.662035 0.555323
Si Si4 0.791037 0.381803 0.781712
Si Si5 0.743932 0.674920 0.657443
Si Si6 0.691503 0.138318 0.859573
Si Si7 0.346159 0.812467 0.822955
Si Si8 0.324177 0.394860 0.883086
O O1 0.593574 0.226196 0.468654
O O2 0.497260 0.087794 0.344382
O O3 0.063268 0.153578 0.654637
O O4 0.133699 0.002610 0.723511
O O5 0.167801 0.872564 0.007291
O O6 0.482259 0.111192 0.872152
O O7 0.000000 0.000000 0.000000
O O8 0.468941 0.641225 0.327043
O O9 0.999178 0.526568 0.710299
O O10 0.962310 0.695569 0.633582
O O11 0.693085 0.272154 0.905996
O O12 0.477625 0.374015 0.896391
O O13 0.036458 0.350880 0.560269
O O14 0.622432 0.780760 0.712870
O O15 0.427524 0.542277 0.834016
O O16 0.500000 0.000000 0.000000
O O17 0.059192 0.690567 0.923983
#
# Coordination Sequence:
#
# PCOD9026051 Si02
#       8
#     2   2   2   2   2   2   2   2
#     4  11  24  42  64 103 131 163 224 273 334 388
#     4  11  26  46  70  90 128 186 222 265 330 392
#     4   9  19  39  68  96 133 174 214 258 337 404
#     4   9  17  38  66  94 129 181 213 265 326 392
#     4   9  19  36  65  98 132 173 213 269 325 397
#     4  10  22  41  61  94 133 166 227 272 311 386
#     4  12  22  40  68  98 132 166 217 285 321 380
#     4   9  18  36  66  96 132 175 214 254 338 397
#
# _framework density 25.382462
#
# number of rings (size 3 to 8) (size 9 to 14) (size 15 to 20)
#    0.000    2.000    2.500    2.625    1.750    1.500 
#    0.000   10.000    0.000    0.000    0.000    0.000 
#    0.000    0.000    0.000    0.000    0.000    0.000 
#
# Total GULP energy -89472.956220 kJ/mol
# GULP energy per Si atom -5592.059764 kJ/mol
# Density = 2.532469 g / cm^3
# Si number density = 25.382462 Si / 1000 Ang^3
#
#
#
# Elastic Constant Matrix: (Units=GPa)
#
#
# Indices 1 2 3 4 5 6 
#
# 1 83.2042 27.8396 53.6922 -11.1540 -7.1517 -9.4734
# 2 27.8396 85.0737 24.8997 -7.8339 -10.1274 -16.9589
# 3 53.6922 24.8997 83.2814 3.5982 2.1556 1.1621
# 4 -11.1540 -7.8339 3.5982 35.4232 5.7831 -8.3396
# 5 -7.1517 -10.1274 2.1556 5.7831 46.9623 -9.2945
# 6 -9.4734 -16.9589 1.1621 -8.3396 -9.2945 49.0693
#
#
#
# Elastic Compliance Matrix: (Units=1/GPa)
#
#
# Indices 1 2 3 4 5 6 
#
# 1 0.026362 -0.000163 -0.017677 0.011191 0.005058 0.008312
# 2 -0.000163 0.015678 -0.005008 0.004894 0.004403 0.007171
# 3 -0.017677 -0.005008 0.025609 -0.010410 -0.005354 -0.008533
# 4 0.011191 0.004894 -0.010410 0.036208 0.000839 0.010411
# 5 0.005058 0.004403 -0.005354 0.000839 0.024627 0.007432
# 6 0.008312 0.007171 -0.008533 0.010411 0.007432 0.027842
#
#
# Mechanical properties :
#
#
# Convention : Reuss Voigt Hill
#
# Bulk Modulus (GPa) = 45.55369 51.60248 48.57808
# Shear Modulus (GPa) = 23.88475 35.96615 29.92545
#
# Velocity S-wave (km/s) = 3.07089 3.76835 3.43735
# Velocity P-wave (km/s) = 5.52808 6.26961 5.91049
#
# Compressibility (1/GPa) = 0.02195212
#
# Stress axis : x y z
#
# Youngs Moduli (GPa) = 37.93356 63.78412 39.04910
#
# Poissons Ratio (x) = 0.01042 0.69028
# Poissons Ratio (y) = 0.00620 0.19554
# Poissons Ratio (z) = 0.67056 0.31940
#
# Static dielectric constant tensor:
#      x y z
#    x 2.101630 -0.049740 0.108280 
#    y -0.049740 1.967940 -0.025420 
#    z 0.108280 -0.025420 2.053670 
# 
# From -- ./inp_files/312246.got.cif
#   From: 2010.05.17/outbox.cif.g08.bks.cpg/sg2_157_cif.got.tgz:312246.got - 2010.06.03 11:33:40.
