data_PCOD9026125
_publ_section_title
;
Structure prediction by ZEFSAII (Michael W. Deem and Ramdas Pophale) SiO2 
 PCOD9026125
Probable space group: P -1
;
_chemical_formula_sum "Si O2"
_cell_formula_units_Z 14
_cell_length_a 13.182566
_cell_length_b 5.142200
_cell_length_c 10.502060
_cell_angle_alpha 66.439306
_cell_angle_beta 72.856059
_cell_angle_gamma 63.125617
_cell_volume 576.389874
_symmetry_space_group_name_H-M "P -1"
_symmetry_group_IT_number 2
_symmetry_cell_setting 'triclinic'
loop_
_space_group_symop_operation_xyz
x,y,z
-x,-y,-z
loop_
_atom_site_type_symbol
_atom_site_label
_atom_site_fract_x
_atom_site_fract_y
_atom_site_fract_z
Si Si1 0.162465 0.654320 0.755694
Si Si2 0.679351 0.667937 0.594360
Si Si3 0.593080 0.616134 0.378727
Si Si4 0.951865 0.135767 0.853277
Si Si5 0.070651 0.639911 0.532877
Si Si6 0.805319 0.736160 0.921755
Si Si7 0.604816 0.116820 0.761020
O O1 0.286221 0.633583 0.665062
O O2 0.108398 0.528878 0.684951
O O3 0.864378 0.979792 0.871592
O O4 0.066164 0.986561 0.755563
O O5 0.626623 0.786854 0.450551
O O6 0.809333 0.444171 0.567104
O O7 0.617097 0.443428 0.708760
O O8 0.669015 0.929969 0.647395
O O9 0.500000 0.500000 0.500000
O O10 0.526292 0.814244 0.243720
O O11 0.878525 0.492585 0.835346
O O12 0.182021 0.447203 0.914889
O O13 0.000000 0.000000 0.000000
O O14 0.000000 0.500000 0.500000
O O15 0.000000 0.000000 0.500000
O O16 0.674361 0.902506 0.891505
#
# Coordination Sequence:
#
# PCOD9026125 Si02
#       7
#     2   2   2   2   2   2   2
#     4  10  23  43  67  96 136 173 220 270 333 394
#     4  10  22  41  62  92 128 172 215 268 327 379
#     4   9  21  44  70  93 130 178 223 274 327 380
#     4  10  22  42  64  95 134 174 215 258 332 398
#     4  11  25  39  61  93 128 168 215 269 321 388
#     4  11  24  41  67 101 132 175 213 271 334 393
#     4  11  22  40  67  94 130 167 224 268 319 394
#
# _framework density 24.289117000000001
#
# number of rings (size 3 to 8) (size 9 to 14) (size 15 to 20)
#    0.000    1.714    0.000    3.857    6.000    2.857 
#    0.000   18.571    0.000    8.571    0.000    0.000 
#    0.000    0.000    0.000    0.000    0.000    0.000 
#
# Total GULP energy -78275.105494 kJ/mol
# GULP energy per Si atom -5591.078964 kJ/mol
# Density = 2.423383 g / cm^3
# Si number density = 24.289117 Si / 1000 Ang^3
#
#
#
# Elastic Constant Matrix: (Units=GPa)
#
#
# Indices 1 2 3 4 5 6 
#
# 1 136.4713 50.3048 53.4295 -2.5628 27.2687 -8.9506
# 2 50.3048 84.9552 37.4827 2.9324 15.1419 12.7857
# 3 53.4295 37.4827 120.2036 -2.6558 24.7529 -8.9034
# 4 -2.5628 2.9324 -2.6558 41.8218 -17.7845 12.5576
# 5 27.2687 15.1419 24.7529 -17.7845 48.8364 1.3847
# 6 -8.9506 12.7857 -8.9034 12.5576 1.3847 40.6674
#
#
#
# Elastic Compliance Matrix: (Units=1/GPa)
#
#
# Indices 1 2 3 4 5 6 
#
# 1 0.011399 -0.005652 -0.002065 -0.002402 -0.004575 0.004731
# 2 -0.005652 0.017895 -0.003594 0.000424 -0.000195 -0.007781
# 3 -0.002065 -0.003594 0.011541 -0.002288 -0.004531 0.004063
# 4 -0.002402 0.000424 -0.002288 0.033549 0.014928 -0.012031
# 5 -0.004575 -0.000195 -0.004531 0.014928 0.031040 -0.007604
# 6 0.004731 -0.007781 0.004063 -0.012031 -0.007604 0.032941
#
#
# Mechanical properties :
#
#
# Convention : Reuss Voigt Hill
#
# Bulk Modulus (GPa) = 54.90906 69.34046 62.12476
# Shear Modulus (GPa) = 29.92954 39.62599 34.77776
#
# Velocity S-wave (km/s) = 3.51411 4.04348 3.78805
# Velocity P-wave (km/s) = 6.25466 7.09997 6.69068
#
# Compressibility (1/GPa) = 0.01821193
#
# Stress axis : x y z
#
# Youngs Moduli (GPa) = 87.72952 55.88133 86.64589
#
# Poissons Ratio (x) = 0.31586 0.17889
# Poissons Ratio (y) = 0.49588 0.31145
# Poissons Ratio (z) = 0.18113 0.20086
#
# Static dielectric constant tensor:
#      x y z
#    x 1.896100 -0.023480 0.000790 
#    y -0.023480 1.945520 -0.062220 
#    z 0.000790 -0.062220 2.004600 
# 
# From -- ./inp_files/410500.got.cif
#   From: 2010.05.17/outbox.cif.g08.bks.cpg/sg2_206_cif.got.tgz:410500.got - 2010.06.03 11:33:40.
