data_PCOD9026054
_publ_section_title
;
Structure prediction by ZEFSAII (Michael W. Deem and Ramdas Pophale) SiO2 
 PCOD9026054
Probable space group: P -1
;
_chemical_formula_sum "Si O2"
_cell_formula_units_Z 14
_cell_length_a 9.676520
_cell_length_b 11.200577
_cell_length_c 22.575681
_cell_angle_alpha 36.112273
_cell_angle_beta 38.465849
_cell_angle_gamma 24.908005
_cell_volume 594.768359
_symmetry_space_group_name_H-M "P -1"
_symmetry_group_IT_number 2
_symmetry_cell_setting 'triclinic'
loop_
_space_group_symop_operation_xyz
x,y,z
-x,-y,-z
loop_
_atom_site_type_symbol
_atom_site_label
_atom_site_fract_x
_atom_site_fract_y
_atom_site_fract_z
Si Si1 0.836971 0.044652 0.801944
Si Si2 0.295690 0.264154 0.801396
Si Si3 0.590487 0.651229 0.938358
Si Si4 0.117570 0.187138 0.473346
Si Si5 0.429688 0.563469 0.568084
Si Si6 0.337310 0.402766 0.926399
Si Si7 0.882370 0.709559 0.399087
O O1 0.608035 0.108262 0.801504
O O2 0.642623 0.122258 0.896490
O O3 0.899865 0.239479 0.699729
O O4 0.202882 0.697260 0.822217
O O5 0.249815 0.486434 0.684025
O O6 0.969305 0.453448 0.874700
O O7 0.373297 0.994461 0.853728
O O8 0.500000 0.500000 0.000000
O O9 0.551170 0.653842 0.020890
O O10 0.813525 0.299717 0.569867
O O11 0.929693 0.536868 0.393496
O O12 0.225961 0.906945 0.513759
O O13 0.494800 0.012999 0.423522
O O14 0.500000 0.500000 0.500000
O O15 0.000000 0.500000 0.000000
O O16 0.000000 0.500000 0.500000
#
# Coordination Sequence:
#
# PCOD9026054 Si02
#       7
#     2   2   2   2   2   2   2
#     4  12  23  41  73 104 133 184 226 276 348 415
#     4  12  24  45  73 101 131 184 234 276 350 415
#     4  12  27  48  69 100 140 176 229 299 350 405
#     4  10  22  41  61  94 138 174 219 279 338 388
#     4  11  24  45  70  95 137 187 240 281 331 421
#     4  12  23  45  72 100 136 174 235 291 342 417
#     4  11  23  40  64 101 146 173 214 279 349 411
#
# _framework density 23.538575000000002
#
# number of rings (size 3 to 8) (size 9 to 14) (size 15 to 20)
#    0.000    0.571    2.857    6.000    0.000    2.286 
#   15.429    0.000    0.000    0.000    0.000    0.000 
#    0.000    0.000    0.000    0.000    0.000    0.000 
#
# Total GULP energy -78026.381508 kJ/mol
# GULP energy per Si atom -5573.312965 kJ/mol
# Density = 2.348500 g / cm^3
# Si number density = 23.538575 Si / 1000 Ang^3
#
#
#
# Elastic Constant Matrix: (Units=GPa)
#
#
# Indices 1 2 3 4 5 6 
#
# 1 73.3047 11.2681 42.8614 0.0389 -8.7692 28.1218
# 2 11.2681 139.3777 22.3596 -2.5023 -13.3321 6.7673
# 3 42.8614 22.3596 131.6708 -7.1385 -23.5689 18.4799
# 4 0.0389 -2.5023 -7.1385 40.7216 1.3770 -17.8267
# 5 -8.7692 -13.3321 -23.5689 1.3770 30.9255 -4.1490
# 6 28.1218 6.7673 18.4799 -17.8267 -4.1490 38.4084
#
#
#
# Elastic Compliance Matrix: (Units=1/GPa)
#
#
# Indices 1 2 3 4 5 6 
#
# 1 0.024586 -0.000266 -0.005660 -0.009658 0.000333 -0.019678
# 2 -0.000266 0.007578 -0.000656 0.000031 0.002620 -0.000528
# 3 -0.005660 -0.000656 0.010675 0.001929 0.006256 0.000695
# 4 -0.009658 0.000031 0.001929 0.034632 0.000186 0.022232
# 5 0.000333 0.002620 0.006256 0.000186 0.038388 0.000518
# 6 -0.019678 -0.000528 0.000695 0.022232 0.000518 0.050577
#
#
# Mechanical properties :
#
#
# Convention : Reuss Voigt Hill
#
# Bulk Modulus (GPa) = 33.69705 55.25903 44.47804
# Shear Modulus (GPa) = 26.38632 39.86872 33.12752
#
# Velocity S-wave (km/s) = 3.35174 4.12000 3.75556
# Velocity P-wave (km/s) = 5.41531 6.79407 6.14349
#
# Compressibility (1/GPa) = 0.02967618
#
# Stress axis : x y z
#
# Youngs Moduli (GPa) = 40.67362 131.95753 93.67325
#
# Poissons Ratio (x) = 0.03506 0.53022
# Poissons Ratio (y) = 0.01081 0.06142
# Poissons Ratio (z) = 0.23022 0.08653
#
# Static dielectric constant tensor:
#      x y z
#    x 2.275440 0.147170 -0.185050 
#    y 0.147170 2.003050 -0.244460 
#    z -0.185050 -0.244460 2.256930 
# 
# From -- ./inp_files/618404.got.cif
#   From: 2010.05.17/outbox.cif.g08.bks.cpg/sg2_310_cif.got.tgz:618404.got - 2010.06.03 11:33:40.
