data_PCOD9027488
_publ_section_title
;
Structure prediction by ZEFSAII (Michael W. Deem and Ramdas Pophale) SiO2 
 PCOD9027488
Probable space group: P -1
;
_chemical_formula_sum "Si O2"
_cell_formula_units_Z 12
_cell_length_a 10.208673
_cell_length_b 5.094663
_cell_length_c 15.181999
_cell_angle_alpha 86.645973
_cell_angle_beta 38.144937
_cell_angle_gamma 79.372611
_cell_volume 474.445784
_symmetry_space_group_name_H-M "P -1"
_symmetry_group_IT_number 2
_symmetry_cell_setting 'triclinic'
loop_
_space_group_symop_operation_xyz
x,y,z
-x,-y,-z
loop_
_atom_site_type_symbol
_atom_site_label
_atom_site_fract_x
_atom_site_fract_y
_atom_site_fract_z
Si Si1 0.081673 0.909984 0.691296
Si Si2 0.575860 0.219401 0.632412
Si Si3 0.083675 0.177658 0.878716
Si Si4 0.748643 0.651289 0.636514
Si Si5 0.773379 0.582437 0.940314
Si Si6 0.318194 0.707689 0.168257
O O1 0.310315 0.828052 0.522651
O O2 0.957967 0.676236 0.785156
O O3 0.097854 0.045262 0.775262
O O4 0.913022 0.083754 0.706263
O O5 0.322771 0.222730 0.766607
O O6 0.620642 0.498421 0.639034
O O7 0.693523 0.966105 0.636420
O O8 0.895223 0.449281 0.964031
O O9 0.000000 0.000000 0.000000
O O10 0.681224 0.554763 0.768428
O O11 0.000000 0.500000 0.500000
O O12 0.694579 0.362044 0.926470
O O13 0.543757 0.793217 0.069839
#
# Coordination Sequence:
#
# PCOD9027488 Si02
#       6
#     2   2   2   2   2   2
#     4  11  24  43  71  99 140 182 239 293 354 418
#     4  12  28  45  75 107 145 188 234 293 356 422
#     4  11  27  47  68 100 140 190 242 289 355 424
#     4  12  25  45  74 106 146 182 236 293 352 423
#     4  10  23  42  70  97 142 185 234 295 352 423
#     4  10  22  41  68 105 137 184 238 288 357 410
#
# _framework density 25.292672
#
# number of rings (size 3 to 8) (size 9 to 14) (size 15 to 20)
#    0.000    1.000    1.667    3.500    9.333    1.333 
#    0.000    0.000    0.000    0.000    0.000    0.000 
#    0.000    0.000    0.000    0.000    0.000    0.000 
#
# Total GULP energy -67146.954028 kJ/mol
# GULP energy per Si atom -5595.579502 kJ/mol
# Density = 2.523510 g / cm^3
# Si number density = 25.292672 Si / 1000 Ang^3
#
#
#
# Elastic Constant Matrix: (Units=GPa)
#
#
# Indices 1 2 3 4 5 6 
#
# 1 114.5733 1.5513 61.2917 10.8853 -16.8342 -3.8412
# 2 1.5513 42.1950 7.8094 -5.6454 4.7626 0.0322
# 3 61.2917 7.8094 196.0881 -0.3874 -11.5628 5.6673
# 4 10.8853 -5.6454 -0.3874 33.0332 -4.6635 0.7971
# 5 -16.8342 4.7626 -11.5628 -4.6635 58.9877 -2.6296
# 6 -3.8412 0.0322 5.6673 0.7971 -2.6296 29.7228
#
#
#
# Elastic Compliance Matrix: (Units=1/GPa)
#
#
# Indices 1 2 3 4 5 6 
#
# 1 0.011371 -0.000534 -0.003467 -0.003594 0.002433 0.002443
# 2 -0.000534 0.024665 -0.000920 0.004102 -0.002009 -0.000208
# 3 -0.003467 -0.000920 0.006290 0.001146 0.000335 -0.001647
# 4 -0.003594 0.004102 0.001146 0.032399 0.001365 -0.001436
# 5 0.002433 -0.002009 0.000335 0.001365 0.018064 0.001814
# 6 0.002443 -0.000208 -0.001647 -0.001436 0.001814 0.034473
#
#
# Mechanical properties :
#
#
# Convention : Reuss Voigt Hill
#
# Bulk Modulus (GPa) = 30.78418 54.90681 42.84550
# Shear Modulus (GPa) = 33.79946 43.16235 38.48090
#
# Velocity S-wave (km/s) = 3.65956 4.13548 3.90478
# Velocity P-wave (km/s) = 5.48216 6.67523 6.10789
#
# Compressibility (1/GPa) = 0.03248421
#
# Stress axis : x y z
#
# Youngs Moduli (GPa) = 87.94307 40.54315 158.98848
#
# Poissons Ratio (x) = 0.02164 0.55125
# Poissons Ratio (y) = 0.04694 0.14624
# Poissons Ratio (z) = 0.30492 0.03729
#
# Static dielectric constant tensor:
#      x y z
#    x 2.010560 0.010180 -0.019250 
#    y 0.010180 2.079360 0.085700 
#    z -0.019250 0.085700 2.047350 
# 
# From -- ./inp_files/22141.got.cif
#   From: 2010.05.17/outbox.cif.g08.bks.cpg/sg2_12_cif.got.tgz:22141.got - 2010.06.03 11:33:40.
