data_PCOD9027178
_publ_section_title
;
Structure prediction by ZEFSAII (Michael W. Deem and Ramdas Pophale) SiO2 
 PCOD9027178
Probable space group: P -1
;
_chemical_formula_sum "Si O2"
_cell_formula_units_Z 12
_cell_length_a 7.607242
_cell_length_b 9.085584
_cell_length_c 13.105029
_cell_angle_alpha 139.184764
_cell_angle_beta 93.789155
_cell_angle_gamma 66.422312
_cell_volume 498.479438
_symmetry_space_group_name_H-M "P -1"
_symmetry_group_IT_number 2
_symmetry_cell_setting 'triclinic'
loop_
_space_group_symop_operation_xyz
x,y,z
-x,-y,-z
loop_
_atom_site_type_symbol
_atom_site_label
_atom_site_fract_x
_atom_site_fract_y
_atom_site_fract_z
Si Si1 0.046938 0.405202 0.083198
Si Si2 0.283515 0.511624 0.512774
Si Si3 0.497248 0.764689 0.431605
Si Si4 0.119710 0.054550 0.724895
Si Si5 0.301966 0.126428 0.136672
Si Si6 0.623874 0.416033 0.066668
O O1 0.049749 0.664968 0.187134
O O2 0.815035 0.461552 0.090822
O O3 0.115192 0.311680 0.150269
O O4 0.183956 0.163865 0.882306
O O5 0.500000 0.500000 0.500000
O O6 0.307691 0.407187 0.574308
O O7 0.293827 0.310230 0.324164
O O8 0.097522 0.817319 0.643677
O O9 0.492431 0.583627 0.247993
O O10 0.500000 0.000000 0.500000
O O11 0.292848 0.907571 0.568237
O O12 0.500000 0.000000 0.000000
O O13 0.294429 0.885982 0.059767
O O14 0.500000 0.500000 0.000000
#
# Coordination Sequence:
#
# PCOD9027178 Si02
#       6
#     2   2   2   2   2   2
#     4  11  25  46  72 104 143 182 236 294 345 423
#     4  10  22  41  67 101 134 182 230 284 342 417
#     4  11  20  42  70 100 140 178 231 286 346 411
#     4  10  22  44  71  96 145 177 234 283 354 407
#     4  12  25  44  75 102 141 188 236 288 359 413
#     4  12  27  46  72 106 142 185 235 290 354 419
#
# _framework density 24.073208000000001
#
# number of rings (size 3 to 8) (size 9 to 14) (size 15 to 20)
#    0.000    1.000    1.667    6.500    7.000    0.667 
#    3.000    1.667    0.000    0.000    0.000    0.000 
#    0.000    0.000    0.000    0.000    0.000    0.000 
#
# Total GULP energy -67125.349011 kJ/mol
# GULP energy per Si atom -5593.779084 kJ/mol
# Density = 2.401842 g / cm^3
# Si number density = 24.073208 Si / 1000 Ang^3
#
#
#
# Elastic Constant Matrix: (Units=GPa)
#
#
# Indices 1 2 3 4 5 6 
#
# 1 60.8881 27.8526 24.0219 -10.9115 -4.7754 -6.9814
# 2 27.8526 236.8497 88.1800 -5.0046 25.2111 1.9996
# 3 24.0219 88.1800 219.1707 -9.9179 9.0081 -1.4591
# 4 -10.9115 -5.0046 -9.9179 58.6574 9.5516 14.4977
# 5 -4.7754 25.2111 9.0081 9.5516 39.2068 -8.3858
# 6 -6.9814 1.9996 -1.4591 14.4977 -8.3858 32.1871
#
#
#
# Elastic Compliance Matrix: (Units=1/GPa)
#
#
# Indices 1 2 3 4 5 6 
#
# 1 0.019151 -0.002316 -0.001286 0.001104 0.004923 0.005025
# 2 -0.002316 0.005677 -0.001821 0.001080 -0.004323 -0.002550
# 3 -0.001286 -0.001821 0.005486 0.000703 -0.000495 -0.000363
# 4 0.001104 0.001080 0.000703 0.021784 -0.008561 -0.011838
# 5 0.004923 -0.004323 -0.000495 -0.008561 0.034090 0.014051
# 6 0.005025 -0.002550 -0.000363 -0.011838 0.014051 0.041293
#
#
# Mechanical properties :
#
#
# Convention : Reuss Voigt Hill
#
# Bulk Modulus (GPa) = 51.36796 88.55751 69.96273
# Shear Modulus (GPa) = 34.52661 51.13386 42.83023
#
# Velocity S-wave (km/s) = 3.79124 4.61379 4.22259
# Velocity P-wave (km/s) = 6.36782 8.07771 7.27319
#
# Compressibility (1/GPa) = 0.01946739
#
# Stress axis : x y z
#
# Youngs Moduli (GPa) = 52.21757 176.15741 182.28786
#
# Poissons Ratio (x) = 0.40806 0.23441
# Poissons Ratio (y) = 0.12096 0.33186
# Poissons Ratio (z) = 0.06715 0.32070
#
# Static dielectric constant tensor:
#      x y z
#    x 1.949150 0.007140 -0.156500 
#    y 0.007140 1.932660 0.150000 
#    z -0.156500 0.150000 1.647190 
# 
# From -- ./inp_files/188297.got.cif
#   From: 2010.05.17/outbox.cif.g08.bks.cpg/sg2_95_cif.got.tgz:188297.got - 2010.06.03 11:33:40.
