data_PCOD9027716
_publ_section_title
;
Structure prediction by ZEFSAII (Michael W. Deem and Ramdas Pophale) SiO2 
 PCOD9027716
Probable space group: P -1
;
_chemical_formula_sum "Si O2"
_cell_formula_units_Z 12
_cell_length_a 14.310409
_cell_length_b 13.514208
_cell_length_c 5.116725
_cell_angle_alpha 88.353099
_cell_angle_beta 101.004363
_cell_angle_gamma 149.933463
_cell_volume 467.541487
_symmetry_space_group_name_H-M "P -1"
_symmetry_group_IT_number 2
_symmetry_cell_setting 'triclinic'
loop_
_space_group_symop_operation_xyz
x,y,z
-x,-y,-z
loop_
_atom_site_type_symbol
_atom_site_label
_atom_site_fract_x
_atom_site_fract_y
_atom_site_fract_z
Si Si1 0.791198 0.617596 0.216401
Si Si2 0.161312 0.451428 0.250304
Si Si3 0.770427 0.805138 0.985517
Si Si4 0.249373 0.084526 0.506762
Si Si5 0.629773 0.187350 0.371682
Si Si6 0.289377 0.935588 0.840781
O O1 0.753217 0.550666 0.497276
O O2 0.768045 0.508536 0.004821
O O3 0.695024 0.627769 0.041643
O O4 0.024334 0.854035 0.329751
O O5 0.227851 0.615528 0.395735
O O6 0.922703 0.226318 0.145271
O O7 0.672568 0.775751 0.696624
O O8 0.758953 0.860891 0.234383
O O9 0.000000 0.000000 0.000000
O O10 0.338438 0.058411 0.626450
O O11 0.736206 0.201879 0.249197
O O12 0.500000 0.000000 0.500000
O O13 0.470442 0.102241 0.123785
#
# Coordination Sequence:
#
# PCOD9027716 Si02
#       6
#     2   2   2   2   2   2
#     4  10  20  36  62  98 131 166 210 259 317 375
#     4  11  24  42  68  95 131 168 211 265 316 382
#     4  10  17  31  58  95 130 161 208 258 306 375
#     4  10  19  33  61  92 128 166 207 258 310 375
#     4  11  27  43  67  92 127 170 216 270 323 378
#     4  10  24  43  64  96 126 168 218 261 322 378
#
# _framework density 25.666173000000001
#
# number of rings (size 3 to 8) (size 9 to 14) (size 15 to 20)
#    0.000    1.667    0.000    7.500   11.667    0.667 
#    0.000    0.000    0.000    6.000    0.000    0.000 
#    0.000    0.000    0.000    0.000    0.000    0.000 
#
# Total GULP energy -67212.477449 kJ/mol
# GULP energy per Si atom -5601.039787 kJ/mol
# Density = 2.560776 g / cm^3
# Si number density = 25.666173 Si / 1000 Ang^3
#
#
#
# Elastic Constant Matrix: (Units=GPa)
#
#
# Indices 1 2 3 4 5 6 
#
# 1 108.4993 27.7457 73.8344 14.1814 14.3474 -4.0656
# 2 27.7457 75.3403 38.1464 -6.0125 11.2797 -8.6154
# 3 73.8344 38.1464 160.8246 -22.1313 -7.9888 -11.3422
# 4 14.1814 -6.0125 -22.1313 40.1735 -24.1856 4.6573
# 5 14.3474 11.2797 -7.9888 -24.1856 54.0429 4.1134
# 6 -4.0656 -8.6154 -11.3422 4.6573 4.1134 31.0847
#
#
#
# Elastic Compliance Matrix: (Units=1/GPa)
#
#
# Indices 1 2 3 4 5 6 
#
# 1 0.041153 0.002042 -0.028445 -0.055813 -0.041249 0.009390
# 2 0.002042 0.016830 -0.006000 -0.007234 -0.008556 0.004958
# 3 -0.028445 -0.006000 0.028259 0.045951 0.034037 -0.006461
# 4 -0.055813 -0.007234 0.045951 0.117781 0.077384 -0.020425
# 5 -0.041249 -0.008556 0.034037 0.077384 0.072159 -0.016490
# 6 0.009390 0.004958 -0.006461 -0.020425 -0.016490 0.037657
#
#
# Mechanical properties :
#
#
# Convention : Reuss Voigt Hill
#
# Bulk Modulus (GPa) = 46.65178 69.34635 57.99906
# Shear Modulus (GPa) = 12.96045 38.72273 25.84159
#
# Velocity S-wave (km/s) = 2.24957 3.88842 3.17651
# Velocity P-wave (km/s) = 4.99633 6.87292 6.00834
#
# Compressibility (1/GPa) = 0.02143541
#
# Stress axis : x y z
#
# Youngs Moduli (GPa) = 24.29974 59.41814 35.38740
#
# Poissons Ratio (x) = -0.12134 1.00659
# Poissons Ratio (y) = -0.04962 0.21233
# Poissons Ratio (z) = 0.69120 0.35652
#
# Static dielectric constant tensor:
#      x y z
#    x 2.092270 -0.011250 0.012260 
#    y -0.011250 2.012260 -0.029110 
#    z 0.012260 -0.029110 1.971600 
# 
# From -- ./inp_files/49232.got.cif
#   From: 2010.05.17/outbox.cif.g08.bks.cpg/sg2_25_cif.got.tgz:49232.got - 2010.06.03 11:33:40.
