data_PCOD9027826
_publ_section_title
;
Structure prediction by ZEFSAII (Michael W. Deem and Ramdas Pophale) SiO2 
 PCOD9027826
Probable space group: P -1
;
_chemical_formula_sum "Si O2"
_cell_formula_units_Z 15
_cell_length_a 12.285669
_cell_length_b 12.771727
_cell_length_c 10.630535
_cell_angle_alpha 84.399725
_cell_angle_beta 67.616546
_cell_angle_gamma 142.132453
_cell_volume 674.654129
_symmetry_space_group_name_H-M "P -1"
_symmetry_group_IT_number 2
_symmetry_cell_setting 'triclinic'
loop_
_space_group_symop_operation_xyz
x,y,z
-x,-y,-z
loop_
_atom_site_type_symbol
_atom_site_label
_atom_site_fract_x
_atom_site_fract_y
_atom_site_fract_z
Si Si1 0.953345 0.268440 0.432377
Si Si2 0.358295 0.066152 0.747880
Si Si3 0.911526 0.258905 0.739277
Si Si4 0.809252 0.624145 0.161216
Si Si5 0.620292 0.242289 0.881379
Si Si6 0.294510 0.252702 0.688490
Si Si7 0.180599 0.078730 0.502793
Si Si8 0.500000 0.000000 0.500000
O O1 0.013491 0.341892 0.543118
O O2 0.200087 0.511354 0.215468
O O3 0.908127 0.110867 0.451937
O O4 0.689741 0.116440 0.519842
O O5 0.452896 0.078818 0.582714
O O6 0.500500 0.141049 0.804667
O O7 0.396446 0.223435 0.701920
O O8 0.042076 0.785262 0.940492
O O9 0.812006 0.296007 0.814678
O O10 0.101552 0.362469 0.749722
O O11 0.637885 0.971061 0.892322
O O12 0.831492 0.768150 0.154798
O O13 0.500538 0.347493 0.304316
O O14 0.500000 0.500000 0.500000
O O15 0.120589 0.073230 0.669560
O O16 0.000000 0.000000 0.500000
#
# Coordination Sequence:
#
# PCOD9027826 Si02
#       8
#     2   2   2   2   2   2   2   1
#     4  12  25  40  69  97 143 183 225 286 352 417
#     4  11  23  46  69 104 138 179 238 287 352 408
#     4  10  22  44  65 101 132 182 244 278 339 408
#     4  10  24  43  74  99 135 183 235 298 335 412
#     4  10  24  40  70  97 135 185 234 286 330 424
#     4  10  22  41  69  96 133 181 238 283 338 416
#     4  11  25  43  65 101 137 180 227 283 362 418
#     4  12  26  42  66 108 140 184 224 276 360 422
#
# _framework density 22.233615
#
# number of rings (size 3 to 8) (size 9 to 14) (size 15 to 20)
#    0.000    1.333    2.667    1.600    9.333    1.067 
#    0.000    2.000    0.000    0.000    0.000    0.000 
#    0.000    0.000    0.000    0.000    0.000    0.000 
#
# Total GULP energy -83551.390011 kJ/mol
# GULP energy per Si atom -5570.092667 kJ/mol
# Density = 2.218301 g / cm^3
# Si number density = 22.233615 Si / 1000 Ang^3
#
#
#
# Elastic Constant Matrix: (Units=GPa)
#
#
# Indices 1 2 3 4 5 6 
#
# 1 158.9824 30.4730 40.9170 -28.2657 -11.3731 14.8208
# 2 30.4730 4.4003 27.3451 -18.8340 -27.5420 13.3737
# 3 40.9170 27.3451 71.9281 -30.2892 11.6373 -17.4659
# 4 -28.2657 -18.8340 -30.2892 31.8886 -2.2295 6.7563
# 5 -11.3731 -27.5420 11.6373 -2.2295 14.4994 9.5488
# 6 14.8208 13.3737 -17.4659 6.7563 9.5488 32.4338
#
#
#
# Elastic Compliance Matrix: (Units=1/GPa)
#
#
# Indices 1 2 3 4 5 6 
#
# 1 0.009374 -0.006101 -0.003358 0.002651 0.001965 -0.004707
# 2 -0.006101 0.000075 0.011405 0.000393 -0.024245 0.015955
# 3 -0.003358 0.011405 0.021427 0.023934 0.004075 0.002185
# 4 0.002651 0.000393 0.023934 0.055392 -0.009738 0.002843
# 5 0.001965 -0.024245 0.004075 -0.009738 0.013539 0.009336
# 6 -0.004707 0.015955 0.002185 0.002843 0.009336 0.024239
#
#
# Mechanical properties :
#
#
# Convention : Reuss Voigt Hill
#
# Bulk Modulus (GPa) = 28.76214 48.08679 38.42447
# Shear Modulus (GPa) = 37.95258 24.86939 31.41099
#
# Velocity S-wave (km/s) = 4.13606 3.34810 3.76276
# Velocity P-wave (km/s) = 5.98111 6.05155 6.01644
#
# Compressibility (1/GPa) = 0.03476793
#
# Stress axis : x y z
#
# Youngs Moduli (GPa) = 106.67415 13405.90927 46.67061
#
# Poissons Ratio (x) = 81.79584 0.15670
# Poissons Ratio (y) = 0.65087 -0.53228
# Poissons Ratio (z) = 0.35816 -152.89573
#
# Static dielectric constant tensor:
#      x y z
#    x 1.837080 -0.006590 -0.020730 
#    y -0.006590 1.785350 -0.012930 
#    z -0.020730 -0.012930 1.882990 
# 
# From -- ./inp_files/428146.got.cif
#   From: 2010.05.17/outbox.cif.g08.bks.cpg/sg2_215_cif.got.tgz:428146.got - 2010.06.03 11:33:40.
