data_PCOD9027883
_publ_section_title
;
Structure prediction by ZEFSAII (Michael W. Deem and Ramdas Pophale) SiO2 
 PCOD9027883
Probable space group: P -1
;
_chemical_formula_sum "Si O2"
_cell_formula_units_Z 16
_cell_length_a 8.620360
_cell_length_b 7.095887
_cell_length_c 18.745062
_cell_angle_alpha 140.096766
_cell_angle_beta 129.627893
_cell_angle_gamma 54.733009
_cell_volume 557.439189
_symmetry_space_group_name_H-M "P -1"
_symmetry_group_IT_number 2
_symmetry_cell_setting 'triclinic'
loop_
_space_group_symop_operation_xyz
x,y,z
-x,-y,-z
loop_
_atom_site_type_symbol
_atom_site_label
_atom_site_fract_x
_atom_site_fract_y
_atom_site_fract_z
Si Si1 0.968810 0.804818 0.643878
Si Si2 0.137980 0.746574 0.131593
Si Si3 0.123715 0.217769 0.144018
Si Si4 0.506998 0.637853 0.961762
Si Si5 0.093413 0.782857 0.379864
Si Si6 0.316793 0.250163 0.719494
Si Si7 0.591291 0.139923 0.220068
Si Si8 0.474629 0.155183 0.460031
O O1 0.923004 0.102656 0.766952
O O2 0.934304 0.908104 0.581582
O O3 0.760665 0.675609 0.563372
O O4 0.216163 0.691313 0.686855
O O5 0.347159 0.555582 0.107898
O O6 0.138059 0.039262 0.169404
O O7 0.000000 0.500000 0.000000
O O8 0.036266 0.552721 0.236464
O O9 0.345292 0.249510 0.185102
O O10 0.000000 0.000000 0.000000
O O11 0.307238 0.586876 0.846168
O O12 0.500000 0.500000 0.000000
O O13 0.587816 0.934034 0.089333
O O14 0.911662 0.775577 0.379803
O O15 0.331629 0.675508 0.438129
O O16 0.363718 0.038466 0.743037
O O17 0.467345 0.096515 0.656810
O O18 0.500000 0.000000 0.500000
#
# Coordination Sequence:
#
# PCOD9027883 Si02
#       8
#     2   2   2   2   2   2   2   2
#     4  10  20  39  63  88 113 163 210 248 286 362
#     4  12  21  35  62  88 119 158 207 243 293 367
#     4  12  24  40  58  92 128 157 193 258 314 355
#     4  10  17  31  59  88 110 151 213 235 276 359
#     4  10  23  38  62  90 126 158 200 256 309 347
#     4  10  18  36  63  87 116 167 210 239 288 377
#     4  10  20  36  62  88 120 162 209 233 295 386
#     4  10  20  37  61  93 119 154 211 261 294 345
#
# _framework density 28.702680999999998
#
# number of rings (size 3 to 8) (size 9 to 14) (size 15 to 20)
#    0.000    1.500    5.000    1.875    1.750    0.000 
#    0.000    6.250    0.000    0.000    0.000    0.000 
#    0.000    0.000    0.000    0.000    0.000    0.000 
#
# Total GULP energy -89214.988735 kJ/mol
# GULP energy per Si atom -5575.936796 kJ/mol
# Density = 2.863735 g / cm^3
# Si number density = 28.702681 Si / 1000 Ang^3
#
#
#
# Elastic Constant Matrix: (Units=GPa)
#
#
# Indices 1 2 3 4 5 6 
#
# 1 203.5588 43.1997 69.1108 -18.7486 19.7616 -10.5636
# 2 43.1997 40.2900 10.3518 -9.3499 9.2306 0.3671
# 3 69.1108 10.3518 172.8277 -15.1710 -14.4163 -1.8840
# 4 -18.7486 -9.3499 -15.1710 26.6068 -8.1416 7.9318
# 5 19.7616 9.2306 -14.4163 -8.1416 68.0892 -8.8197
# 6 -10.5636 0.3671 -1.8840 7.9318 -8.8197 57.6654
#
#
#
# Elastic Compliance Matrix: (Units=1/GPa)
#
#
# Indices 1 2 3 4 5 6 
#
# 1 0.007553 -0.006916 -0.002681 0.000564 -0.001623 0.001014
# 2 -0.006916 0.034240 0.001255 0.008183 -0.001758 -0.002838
# 3 -0.002681 0.001255 0.007307 0.003605 0.002538 -0.000368
# 4 0.000564 0.008183 0.003605 0.045853 0.004262 -0.005486
# 5 -0.001623 -0.001758 0.002538 0.004262 0.016671 0.001760
# 6 0.001014 -0.002838 -0.000368 -0.005486 0.001760 0.018557
#
#
# Mechanical properties :
#
#
# Convention : Reuss Voigt Hill
#
# Bulk Modulus (GPa) = 30.84734 73.55568 52.20151
# Shear Modulus (GPa) = 31.71204 50.07325 40.89264
#
# Velocity S-wave (km/s) = 3.32753 4.18131 3.77861
# Velocity P-wave (km/s) = 5.05310 6.99954 6.10440
#
# Compressibility (1/GPa) = 0.03241771
#
# Stress axis : x y z
#
# Youngs Moduli (GPa) = 132.40561 29.20542 136.85375
#
# Poissons Ratio (x) = 0.20197 0.36687
# Poissons Ratio (y) = 0.91567 -0.17179
# Poissons Ratio (z) = 0.35494 -0.03666
#
# Static dielectric constant tensor:
#      x y z
#    x 2.847890 -0.056890 0.294770 
#    y -0.056890 2.298160 -0.055920 
#    z 0.294770 -0.055920 2.319630 
# 
# From -- ./inp_files/587638.got.cif
#   From: 2010.05.17/outbox.cif.g08.bks.cpg/sg2_294_cif.got.tgz:587638.got - 2010.06.03 11:33:40.
