data_PCOD9027639
_publ_section_title
;
Structure prediction by ZEFSAII (Michael W. Deem and Ramdas Pophale) SiO2 
 PCOD9027639
Probable space group: P -1
;
_chemical_formula_sum "Si O2"
_cell_formula_units_Z 16
_cell_length_a 16.026846
_cell_length_b 7.590763
_cell_length_c 6.434132
_cell_angle_alpha 93.588352
_cell_angle_beta 75.249592
_cell_angle_gamma 64.187542
_cell_volume 667.766276
_symmetry_space_group_name_H-M "P -1"
_symmetry_group_IT_number 2
_symmetry_cell_setting 'triclinic'
loop_
_space_group_symop_operation_xyz
x,y,z
-x,-y,-z
loop_
_atom_site_type_symbol
_atom_site_label
_atom_site_fract_x
_atom_site_fract_y
_atom_site_fract_z
Si Si1 0.567864 0.787209 0.051125
Si Si2 0.870863 0.260934 0.955635
Si Si3 0.555650 0.339878 0.633424
Si Si4 0.236039 0.363431 0.356723
Si Si5 0.661322 0.909878 0.342820
Si Si6 0.156444 0.303786 0.013567
Si Si7 0.231731 0.753714 0.366040
Si Si8 0.916457 0.924396 0.240675
O O1 0.509440 0.664989 0.130882
O O2 0.598656 0.822269 0.262978
O O3 0.667379 0.687173 0.848737
O O4 0.500000 0.000000 0.000000
O O5 0.789026 0.246314 0.865539
O O6 0.972994 0.169948 0.756516
O O7 0.844364 0.489167 0.040570
O O8 0.893708 0.111682 0.119728
O O9 0.500000 0.500000 0.500000
O O10 0.655851 0.331601 0.649532
O O11 0.594825 0.128302 0.478368
O O12 0.276263 0.222916 0.516470
O O13 0.197291 0.593447 0.455496
O O14 0.158935 0.328701 0.262509
O O15 0.740365 0.888139 0.118833
O O16 0.086077 0.248204 0.917928
O O17 0.165727 0.970867 0.524123
#
# Coordination Sequence:
#
# PCOD9027639 Si02
#       8
#     2   2   2   2   2   2   2   2
#     4  11  24  41  64  90 127 178 229 276 327 394
#     4  10  24  42  67 101 131 171 217 278 335 406
#     4  12  26  41  65  96 132 179 224 280 334 394
#     4  10  23  42  66  94 130 183 220 275 332 398
#     4  11  22  43  65  91 136 177 225 272 335 395
#     4  10  22  41  68  98 133 175 219 270 336 405
#     4  11  24  43  64  96 135 170 220 279 333 395
#     4  11  22  42  70  97 134 171 219 272 340 401
#
# _framework density 23.960478999999999
#
# number of rings (size 3 to 8) (size 9 to 14) (size 15 to 20)
#    0.000    1.250    2.500    2.625    3.500    2.500 
#    0.000    0.000    0.000    8.250    0.000    0.000 
#    0.000    0.000    0.000    0.000    0.000    0.000 
#
# Total GULP energy -89378.594087 kJ/mol
# GULP energy per Si atom -5586.162130 kJ/mol
# Density = 2.390594 g / cm^3
# Si number density = 23.960479 Si / 1000 Ang^3
#
#
#
# Elastic Constant Matrix: (Units=GPa)
#
#
# Indices 1 2 3 4 5 6 
#
# 1 90.4913 12.5377 27.7886 4.3076 25.7733 -3.9113
# 2 12.5377 110.4117 45.4854 -2.4236 9.2447 7.6186
# 3 27.7886 45.4854 66.2788 9.9271 20.3518 9.7136
# 4 4.3076 -2.4236 9.9271 41.1328 3.9180 6.1821
# 5 25.7733 9.2447 20.3518 3.9180 30.3069 4.4542
# 6 -3.9113 7.6186 9.7136 6.1821 4.4542 35.4217
#
#
#
# Elastic Compliance Matrix: (Units=1/GPa)
#
#
# Indices 1 2 3 4 5 6 
#
# 1 0.015632 0.000542 -0.004027 -0.000180 -0.011345 0.004172
# 2 0.000542 0.013171 -0.010274 0.003111 0.002131 -0.000767
# 3 -0.004027 -0.010274 0.028711 -0.005462 -0.011470 -0.003713
# 4 -0.000180 0.003111 -0.005462 0.026402 0.000017 -0.003801
# 5 -0.011345 0.002131 -0.011470 0.000017 0.050415 -0.004908
# 6 0.004172 -0.000767 -0.003713 -0.003801 -0.004908 0.031156
#
#
# Mechanical properties :
#
#
# Convention : Reuss Voigt Hill
#
# Bulk Modulus (GPa) = 33.33752 48.75610 41.04681
# Shear Modulus (GPa) = 24.63018 33.46361 29.04690
#
# Velocity S-wave (km/s) = 3.20964 3.74119 3.48556
# Velocity P-wave (km/s) = 5.26113 6.24938 5.77643
#
# Compressibility (1/GPa) = 0.02999624
#
# Stress axis : x y z
#
# Youngs Moduli (GPa) = 63.96960 75.92621 34.82971
#
# Poissons Ratio (x) = -0.04115 0.14026
# Poissons Ratio (y) = -0.03467 0.35784
# Poissons Ratio (z) = 0.25760 0.78006
#
# Static dielectric constant tensor:
#      x y z
#    x 2.002690 0.043210 -0.005610 
#    y 0.043210 1.900220 0.009360 
#    z -0.005610 0.009360 1.943350 
# 
# From -- ./inp_files/105383.got.cif
#   From: 2010.05.17/outbox.cif.g08.bks.cpg/sg2_53_cif.got.tgz:105383.got - 2010.06.03 11:33:40.
