data_PCOD9027974
_publ_section_title
;
Structure prediction by ZEFSAII (Michael W. Deem and Ramdas Pophale) SiO2 
 PCOD9027974
Probable space group: P -1
;
_chemical_formula_sum "Si O2"
_cell_formula_units_Z 12
_cell_length_a 11.736109
_cell_length_b 17.241656
_cell_length_c 19.008986
_cell_angle_alpha 158.102810
_cell_angle_beta 158.313730
_cell_angle_gamma 33.011624
_cell_volume 522.240875
_symmetry_space_group_name_H-M "P -1"
_symmetry_group_IT_number 2
_symmetry_cell_setting 'triclinic'
loop_
_space_group_symop_operation_xyz
x,y,z
-x,-y,-z
loop_
_atom_site_type_symbol
_atom_site_label
_atom_site_fract_x
_atom_site_fract_y
_atom_site_fract_z
Si Si1 0.902799 0.509278 0.803137
Si Si2 0.997451 0.802106 0.280205
Si Si3 0.460485 0.772268 0.827045
Si Si4 0.357646 0.329129 0.829443
Si Si5 0.873409 0.590295 0.433144
Si Si6 0.402758 0.868386 0.437541
O O1 0.576129 0.589133 0.691791
O O2 0.988466 0.397484 0.830288
O O3 0.010945 0.355952 0.677700
O O4 0.147422 0.727789 0.123404
O O5 0.301526 0.825427 0.424511
O O6 0.709675 0.796677 0.056227
O O7 0.000000 0.000000 0.500000
O O8 0.131187 0.674023 0.592061
O O9 0.500000 0.000000 0.000000
O O10 0.380888 0.110108 0.623181
O O11 0.500000 0.500000 0.000000
O O12 0.598253 0.398669 0.089878
O O13 0.720136 0.791769 0.536524
O O14 0.000000 0.500000 0.500000
#
# Coordination Sequence:
#
# PCOD9027974 Si02
#       6
#     2   2   2   2   2   2
#     4  10  22  44  70  93 132 176 221 266 323 403
#     4  11  21  43  72  94 124 176 229 258 315 409
#     4  11  25  42  66 100 137 169 211 282 342 370
#     4  11  25  41  68  96 125 174 228 259 316 397
#     4  11  25  45  64  96 141 168 211 275 337 384
#     4  10  22  41  70  91 127 173 222 257 319 394
#
# _framework density 22.977902
#
# number of rings (size 3 to 8) (size 9 to 14) (size 15 to 20)
#    0.000    1.333    1.667    5.000    7.000    2.000 
#    3.000    1.667    0.000    0.000    0.000    0.000 
#    0.000    0.000    0.000    0.000    0.000    0.000 
#
# Total GULP energy -67042.165623 kJ/mol
# GULP energy per Si atom -5586.847135 kJ/mol
# Density = 2.292560 g / cm^3
# Si number density = 22.977902 Si / 1000 Ang^3
#
#
#
# Elastic Constant Matrix: (Units=GPa)
#
#
# Indices 1 2 3 4 5 6 
#
# 1 92.3682 51.2642 17.8084 -11.6438 23.4143 -27.2409
# 2 51.2642 167.5740 58.8477 9.2570 16.1298 -30.5263
# 3 17.8084 58.8477 76.9032 14.3703 10.2428 -15.0058
# 4 -11.6438 9.2570 14.3703 52.1092 -3.4009 -0.1969
# 5 23.4143 16.1298 10.2428 -3.4009 51.0292 -2.9090
# 6 -27.2409 -30.5263 -15.0058 -0.1969 -2.9090 61.5448
#
#
#
# Elastic Compliance Matrix: (Units=1/GPa)
#
#
# Indices 1 2 3 4 5 6 
#
# 1 0.016381 -0.003783 0.000143 0.003935 -0.005793 0.005148
# 2 -0.003783 0.009564 -0.005952 -0.000901 -0.000061 0.001612
# 3 0.000143 -0.005952 0.018925 -0.004266 -0.002176 0.001609
# 4 0.003935 -0.000901 -0.004266 0.021459 0.000786 0.000360
# 5 -0.005793 -0.000061 -0.002176 0.000786 0.022646 -0.002052
# 6 0.005148 0.001612 0.001609 0.000360 -0.002052 0.019623
#
#
# Mechanical properties :
#
#
# Convention : Reuss Voigt Hill
#
# Bulk Modulus (GPa) = 38.93145 65.85401 52.39273
# Shear Modulus (GPa) = 36.67145 46.86497 41.76821
#
# Velocity S-wave (km/s) = 3.99926 4.52106 4.26814
# Velocity P-wave (km/s) = 6.18912 7.48166 6.86587
#
# Compressibility (1/GPa) = 0.02568618
#
# Stress axis : x y z
#
# Youngs Moduli (GPa) = 61.04569 104.55528 52.83887
#
# Poissons Ratio (x) = 0.39557 -0.00753
# Poissons Ratio (y) = 0.23096 0.31447
# Poissons Ratio (z) = -0.00870 0.62227
#
# Static dielectric constant tensor:
#      x y z
#    x 1.941590 0.090280 -0.010590 
#    y 0.090280 1.766700 -0.235930 
#    z -0.010590 -0.235930 1.711380 
# 
# From -- ./inp_files/149836.got.cif
#   From: 2010.05.17/outbox.cif.g08.bks.cpg/sg2_75_cif.got.tgz:149836.got - 2010.06.03 11:33:40.
