data_PCOD9027249
_publ_section_title
;
Structure prediction by ZEFSAII (Michael W. Deem and Ramdas Pophale) SiO2 
 PCOD9027249
Probable space group: P -1
;
_chemical_formula_sum "Si O2"
_cell_formula_units_Z 16
_cell_length_a 12.048107
_cell_length_b 8.241259
_cell_length_c 11.430799
_cell_angle_alpha 119.868442
_cell_angle_beta 82.939312
_cell_angle_gamma 59.737828
_cell_volume 736.605073
_symmetry_space_group_name_H-M "P -1"
_symmetry_group_IT_number 2
_symmetry_cell_setting 'triclinic'
loop_
_space_group_symop_operation_xyz
x,y,z
-x,-y,-z
loop_
_atom_site_type_symbol
_atom_site_label
_atom_site_fract_x
_atom_site_fract_y
_atom_site_fract_z
Si Si1 0.943200 0.855001 0.675697
Si Si2 0.393023 0.775810 0.055706
Si Si3 0.594961 0.825080 0.172464
Si Si4 0.074189 0.363465 0.619833
Si Si5 0.841185 0.094029 0.232675
Si Si6 0.647987 0.064956 0.429716
Si Si7 0.888241 0.667076 0.969677
Si Si8 0.384212 0.518762 0.769869
O O1 0.938011 0.803632 0.522007
O O2 0.039819 0.584093 0.626439
O O3 0.023471 0.957544 0.737907
O O4 0.774734 0.043546 0.811553
O O5 0.466228 0.888825 0.128795
O O6 0.500000 0.500000 0.000000
O O7 0.392796 0.714393 0.898555
O O8 0.649457 0.592595 0.163297
O O9 0.554870 0.028944 0.344942
O O10 0.729487 0.758506 0.055983
O O11 0.950552 0.509117 0.788220
O O12 0.232463 0.182102 0.598753
O O13 0.741397 0.095869 0.342193
O O14 0.738229 0.349974 0.267467
O O15 0.888924 0.891156 0.055289
O O16 0.540494 0.293397 0.611601
O O17 0.000000 0.500000 0.000000
#
# Coordination Sequence:
#
# PCOD9027249 Si02
#       8
#     2   2   2   2   2   2   2   2
#     4  11  26  43  67 100 130 173 223 268 325 382
#     4  10  23  40  63  95 128 165 217 268 321 381
#     4  10  22  41  67  93 127 174 215 260 332 388
#     4  11  23  44  66  96 136 170 216 271 322 393
#     4  11  25  41  67  97 132 171 220 274 323 385
#     4  11  23  42  65  97 130 172 214 267 334 385
#     4  11  23  43  66  96 129 169 217 264 329 386
#     4  11  23  41  66  97 129 170 222 270 319 391
#
# _framework density 21.721274999999999
#
# number of rings (size 3 to 8) (size 9 to 14) (size 15 to 20)
#    0.000    1.250    2.500    3.750    3.500    4.500 
#    0.000    5.625    0.000    0.000    0.000    0.000 
#    0.000    0.000    0.000    0.000    0.000    0.000 
#
# Total GULP energy -89441.112546 kJ/mol
# GULP energy per Si atom -5590.069534 kJ/mol
# Density = 2.167184 g / cm^3
# Si number density = 21.721275 Si / 1000 Ang^3
#
#
#
# Elastic Constant Matrix: (Units=GPa)
#
#
# Indices 1 2 3 4 5 6 
#
# 1 152.5635 4.4123 73.7171 -1.6732 31.1867 -11.1139
# 2 4.4123 22.6902 20.5904 4.7914 10.7149 -7.6820
# 3 73.7171 20.5904 183.5011 -6.9381 11.3906 -12.0546
# 4 -1.6732 4.7914 -6.9381 27.6251 -8.8713 0.7573
# 5 31.1867 10.7149 11.3906 -8.8713 24.7581 -3.2288
# 6 -11.1139 -7.6820 -12.0546 0.7573 -3.2288 17.5387
#
#
#
# Elastic Compliance Matrix: (Units=1/GPa)
#
#
# Indices 1 2 3 4 5 6 
#
# 1 0.017407 0.028137 -0.007821 -0.017413 -0.035146 0.012261
# 2 0.028137 0.129977 -0.018983 -0.058287 -0.097819 0.046222
# 3 -0.007821 -0.018983 0.009826 0.010827 0.016922 -0.003869
# 4 -0.017413 -0.058287 0.010827 0.069186 0.064326 -0.020268
# 5 -0.035146 -0.097819 0.016922 0.064326 0.138242 -0.030814
# 6 0.012261 0.046222 -0.003869 -0.020268 -0.030814 0.077575
#
#
# Mechanical properties :
#
#
# Convention : Reuss Voigt Hill
#
# Bulk Modulus (GPa) = 6.25489 61.79939 34.02714
# Shear Modulus (GPa) = 10.14531 31.32004 20.73267
#
# Velocity S-wave (km/s) = 2.16352 3.80136 3.09283
# Velocity P-wave (km/s) = 3.02108 6.91231 5.33418
#
# Compressibility (1/GPa) = 0.15987499
#
# Stress axis : x y z
#
# Youngs Moduli (GPa) = 57.44930 7.69369 101.76621
#
# Poissons Ratio (x) = -0.21648 0.79594
# Poissons Ratio (y) = -1.61647 1.93187
# Poissons Ratio (z) = 0.44933 0.14605
#
# Static dielectric constant tensor:
#      x y z
#    x 1.784660 0.003930 0.041340 
#    y 0.003930 1.849390 0.006560 
#    z 0.041340 0.006560 1.795080 
# 
# From -- ./inp_files/420025.got.cif
#   From: 2010.05.17/outbox.cif.g08.bks.cpg/sg2_211_cif.got.tgz:420025.got - 2010.06.03 11:33:40.
