data_PCOD9027401
_publ_section_title
;
Structure prediction by ZEFSAII (Michael W. Deem and Ramdas Pophale) SiO2 
 PCOD9027401
Probable space group: P -1
;
_chemical_formula_sum "Si O2"
_cell_formula_units_Z 16
_cell_length_a 13.274996
_cell_length_b 14.501218
_cell_length_c 5.315240
_cell_angle_alpha 95.171744
_cell_angle_beta 104.565458
_cell_angle_gamma 44.029873
_cell_volume 682.022964
_symmetry_space_group_name_H-M "P -1"
_symmetry_group_IT_number 2
_symmetry_cell_setting 'triclinic'
loop_
_space_group_symop_operation_xyz
x,y,z
-x,-y,-z
loop_
_atom_site_type_symbol
_atom_site_label
_atom_site_fract_x
_atom_site_fract_y
_atom_site_fract_z
Si Si1 0.391967 0.983991 0.865998
Si Si2 0.431925 0.290054 0.899494
Si Si3 0.799955 0.900069 0.712464
Si Si4 0.029872 0.633122 0.048299
Si Si5 0.908365 0.034684 0.697416
Si Si6 0.329489 0.531607 0.190009
Si Si7 0.600955 0.313706 0.683345
Si Si8 0.865984 0.604532 0.252378
O O1 0.314082 0.052807 0.568388
O O2 0.489979 0.825940 0.874724
O O3 0.500000 0.000000 0.000000
O O4 0.281613 0.041195 0.051595
O O5 0.560123 0.246917 0.789566
O O6 0.296606 0.313573 0.713323
O O7 0.360833 0.432887 0.979652
O O8 0.869129 0.952502 0.681487
O O9 0.935511 0.740240 0.792957
O O10 0.161005 0.619803 0.207588
O O11 0.904326 0.678820 0.176591
O O12 0.114998 0.484830 0.977898
O O13 0.753400 0.190903 0.607274
O O14 0.000000 0.000000 0.500000
O O15 0.000000 0.000000 0.000000
O O16 0.455770 0.430340 0.453600
O O17 0.355961 0.618588 0.129965
O O18 0.000000 0.500000 0.500000
#
# Coordination Sequence:
#
# PCOD9027401 Si02
#       8
#     2   2   2   2   2   2   2   2
#     4  12  27  46  73 107 144 196 246 304 370 434
#     4  11  23  42  70  99 143 184 239 301 360 437
#     4  12  26  48  71 105 148 189 246 305 362 445
#     4  10  23  42  66 100 141 182 243 295 357 435
#     4  12  27  48  75 108 147 197 244 307 374 442
#     4  10  23  43  68 104 136 191 236 300 369 429
#     4  11  23  44  71 101 144 181 245 298 366 446
#     4  10  22  41  67  98 136 184 235 294 358 419
#
# _framework density 23.459620000000001
#
# number of rings (size 3 to 8) (size 9 to 14) (size 15 to 20)
#    0.000    1.000    1.250    4.500    5.250    0.000 
#    9.000    0.000    0.000    0.000    0.000    0.000 
#    0.000    0.000    0.000    0.000    0.000    0.000 
#
# Total GULP energy -89434.583041 kJ/mol
# GULP energy per Si atom -5589.661440 kJ/mol
# Density = 2.340623 g / cm^3
# Si number density = 23.459620 Si / 1000 Ang^3
#
#
#
# Elastic Constant Matrix: (Units=GPa)
#
#
# Indices 1 2 3 4 5 6 
#
# 1 172.2097 46.5257 47.2394 -10.1495 10.3965 -10.8432
# 2 46.5257 79.3965 17.0419 -22.5557 -8.2005 -2.4958
# 3 47.2394 17.0419 97.6869 -23.0782 13.9707 3.9798
# 4 -10.1495 -22.5557 -23.0782 36.9373 -7.0027 -11.2113
# 5 10.3965 -8.2005 13.9707 -7.0027 35.8387 -8.3499
# 6 -10.8432 -2.4958 3.9798 -11.2113 -8.3499 24.2205
#
#
#
# Elastic Compliance Matrix: (Units=1/GPa)
#
#
# Indices 1 2 3 4 5 6 
#
# 1 0.008221 -0.005161 -0.003518 -0.003126 -0.002473 0.001427
# 2 -0.005161 0.022909 0.000663 0.019720 0.013534 0.013735
# 3 -0.003518 0.000663 0.014034 0.007069 -0.003309 -0.001682
# 4 -0.003126 0.019720 0.007069 0.056820 0.021497 0.033183
# 5 -0.002473 0.013534 -0.003309 0.021497 0.043188 0.025671
# 6 0.001427 0.013735 -0.001682 0.033183 0.025671 0.067828
#
#
# Mechanical properties :
#
#
# Convention : Reuss Voigt Hill
#
# Bulk Modulus (GPa) = 34.32736 63.43412 48.88074
# Shear Modulus (GPa) = 20.94295 35.29837 28.12066
#
# Velocity S-wave (km/s) = 2.99109 3.88318 3.46596
# Velocity P-wave (km/s) = 5.15685 6.87051 6.07441
#
# Compressibility (1/GPa) = 0.02913128
#
# Stress axis : x y z
#
# Youngs Moduli (GPa) = 121.63577 43.65110 71.25402
#
# Poissons Ratio (x) = 0.22529 0.25070
# Poissons Ratio (y) = 0.62778 -0.04723
# Poissons Ratio (z) = 0.42796 -0.02894
#
# Static dielectric constant tensor:
#      x y z
#    x 1.916050 -0.026010 0.009400 
#    y -0.026010 1.891580 -0.036910 
#    z 0.009400 -0.036910 1.709150 
# 
# From -- ./inp_files/77910.got.cif
#   From: 2010.05.17/outbox.cif.g08.bks.cpg/sg2_39_cif.got.tgz:77910.got - 2010.06.03 11:33:40.
