data_PCOD9027522
_publ_section_title
;
Structure prediction by ZEFSAII (Michael W. Deem and Ramdas Pophale) SiO2 
 PCOD9027522
Probable space group: P -1
;
_chemical_formula_sum "Si O2"
_cell_formula_units_Z 16
_cell_length_a 12.921686
_cell_length_b 11.892895
_cell_length_c 9.610837
_cell_angle_alpha 29.609571
_cell_angle_beta 92.205590
_cell_angle_gamma 104.415755
_cell_volume 656.077895
_symmetry_space_group_name_H-M "P -1"
_symmetry_group_IT_number 2
_symmetry_cell_setting 'triclinic'
loop_
_space_group_symop_operation_xyz
x,y,z
-x,-y,-z
loop_
_atom_site_type_symbol
_atom_site_label
_atom_site_fract_x
_atom_site_fract_y
_atom_site_fract_z
Si Si1 0.566275 0.796281 0.340813
Si Si2 0.775086 0.984488 0.814173
Si Si3 0.187857 0.747003 0.198368
Si Si4 0.158297 0.254976 0.188064
Si Si5 0.068860 0.775714 0.881043
Si Si6 0.342776 0.495619 0.496571
Si Si7 0.537230 0.794731 0.651146
Si Si8 0.253744 0.765788 0.705248
O O1 0.459641 0.724138 0.309024
O O2 0.617256 0.587777 0.553494
O O3 0.515819 0.799840 0.482872
O O4 0.682350 0.048263 0.053074
O O5 0.829168 0.894813 0.785450
O O6 0.844403 0.156329 0.763618
O O7 0.729854 0.152637 0.543039
O O8 0.680186 0.732454 0.150425
O O9 0.221637 0.513666 0.467217
O O10 0.104942 0.739249 0.077279
O O11 0.066262 0.348711 0.021181
O O12 0.107755 0.065039 0.519567
O O13 0.267291 0.506028 0.976907
O O14 0.137203 0.678619 0.883742
O O15 0.500000 0.000000 0.500000
O O16 0.672360 0.968232 0.499512
O O17 0.500000 0.500000 0.000000
#
# Coordination Sequence:
#
# PCOD9027522 Si02
#       8
#     2   2   2   2   2   2   2   2
#     4  10  23  42  62  98 132 182 233 271 350 418
#     4  10  23  40  63  98 132 180 228 283 356 414
#     4  11  22  40  67  98 132 182 227 290 343 418
#     4  10  23  44  70  96 137 183 226 300 351 421
#     4  10  23  43  68 102 131 179 241 287 355 418
#     4  10  22  41  68  90 139 179 223 282 346 417
#     4  12  29  42  69 107 144 184 236 294 354 428
#     4  11  23  44  70  93 141 179 236 283 358 418
#
# _framework density 24.387346999999998
#
# number of rings (size 3 to 8) (size 9 to 14) (size 15 to 20)
#    0.000    1.500    1.250    2.250    8.750    2.500 
#    0.000    2.500    0.000    0.000    0.000    0.000 
#    0.000    0.000    0.000    0.000    0.000    0.000 
#
# Total GULP energy -89110.035110 kJ/mol
# GULP energy per Si atom -5569.377194 kJ/mol
# Density = 2.433184 g / cm^3
# Si number density = 24.387347 Si / 1000 Ang^3
#
#
#
# Elastic Constant Matrix: (Units=GPa)
#
#
# Indices 1 2 3 4 5 6 
#
# 1 62.8239 26.4790 -3.2527 0.0835 12.3162 -7.9681
# 2 26.4790 122.8368 25.6692 -5.9680 15.9264 -17.3024
# 3 -3.2527 25.6692 68.0532 -21.9308 3.7396 -2.8653
# 4 0.0835 -5.9680 -21.9308 33.6964 1.5025 1.3880
# 5 12.3162 15.9264 3.7396 1.5025 20.6162 3.2264
# 6 -7.9681 -17.3024 -2.8653 1.3880 3.2264 37.1870
#
#
#
# Elastic Compliance Matrix: (Units=1/GPa)
#
#
# Indices 1 2 3 4 5 6 
#
# 1 0.020032 -0.002933 0.003504 0.002039 -0.011125 0.004087
# 2 -0.002933 0.011145 -0.003908 -0.000456 -0.006878 0.004870
# 3 0.003504 -0.003908 0.020736 0.012951 -0.003839 0.000380
# 4 0.002039 -0.000456 0.012951 0.038276 -0.006054 0.000319
# 5 -0.011125 -0.006878 -0.003839 -0.006054 0.063347 -0.011150
# 6 0.004087 0.004870 0.000380 0.000319 -0.011150 0.031017
#
#
# Mechanical properties :
#
#
# Convention : Reuss Voigt Hill
#
# Bulk Modulus (GPa) = 22.10458 39.05610 30.58034
# Shear Modulus (GPa) = 24.23552 31.95449 28.09500
#
# Velocity S-wave (km/s) = 3.15584 3.62372 3.39784
# Velocity P-wave (km/s) = 4.72892 5.79294 5.28776
#
# Compressibility (1/GPa) = 0.04523949
#
# Stress axis : x y z
#
# Youngs Moduli (GPa) = 49.92044 89.72317 48.22423
#
# Poissons Ratio (x) = 0.26319 -0.16900
# Poissons Ratio (y) = 0.14643 0.18847
# Poissons Ratio (z) = -0.17494 0.35066
#
# Static dielectric constant tensor:
#      x y z
#    x 2.421390 0.087870 0.076300 
#    y 0.087870 1.967580 -0.058840 
#    z 0.076300 -0.058840 2.009660 
# 
# From -- ./inp_files/306099.got.cif
#   From: 2010.05.17/outbox.cif.g08.bks.cpg/sg2_154_cif.got.tgz:306099.got - 2010.06.03 11:33:40.
