data_PCOD9027055
_publ_section_title
;
Structure prediction by ZEFSAII (Michael W. Deem and Ramdas Pophale) SiO2 
 PCOD9027055
Probable space group: P -1
;
_chemical_formula_sum "Si O2"
_cell_formula_units_Z 16
_cell_length_a 24.037177
_cell_length_b 8.034280
_cell_length_c 6.100983
_cell_angle_alpha 89.961322
_cell_angle_beta 85.901886
_cell_angle_gamma 145.748009
_cell_volume 657.695705
_symmetry_space_group_name_H-M "P -1"
_symmetry_group_IT_number 2
_symmetry_cell_setting 'triclinic'
loop_
_space_group_symop_operation_xyz
x,y,z
-x,-y,-z
loop_
_atom_site_type_symbol
_atom_site_label
_atom_site_fract_x
_atom_site_fract_y
_atom_site_fract_z
Si Si1 0.331075 0.883307 0.958089
Si Si2 0.490976 0.122618 0.186545
Si Si3 0.205509 0.065512 0.359149
Si Si4 0.349175 0.631245 0.608462
Si Si5 0.246236 0.893291 0.646925
Si Si6 0.148499 0.432375 0.349228
Si Si7 0.950412 0.124257 0.410099
Si Si8 0.114677 0.837216 0.932367
O O1 0.329373 0.718108 0.800039
O O2 0.326525 0.031182 0.798890
O O3 0.430168 0.116406 0.080152
O O4 0.232887 0.635020 0.140309
O O5 0.421662 0.892688 0.407558
O O6 0.598092 0.392255 0.276313
O O7 0.500000 0.000000 0.000000
O O8 0.262580 0.348062 0.478677
O O9 0.263113 0.042330 0.420148
O O10 0.090534 0.809087 0.465633
O O11 0.192193 0.052289 0.107473
O O12 0.198258 0.607082 0.564647
O O13 0.166244 0.813351 0.787299
O O14 0.065455 0.369597 0.332091
O O15 0.088492 0.115047 0.414464
O O16 0.898478 0.019229 0.188755
O O17 0.000000 0.500000 0.000000
#
# Coordination Sequence:
#
# PCOD9027055 Si02
#       8
#     2   2   2   2   2   2   2   2
#     4  11  21  39  66  92 124 165 204 257 317 372
#     4   9  20  39  67  95 124 158 201 260 318 374
#     4  11  23  40  61  89 128 168 209 258 308 369
#     4  10  22  41  66  96 124 159 209 258 314 378
#     4  11  23  37  58  89 124 164 209 255 308 370
#     4  11  23  40  61  91 128 162 209 265 314 364
#     4  10  23  39  61  90 122 164 214 263 310 370
#     4  11  23  41  62  85 122 173 216 257 313 367
#
# _framework density 24.327359000000001
#
# number of rings (size 3 to 8) (size 9 to 14) (size 15 to 20)
#    0.000    1.500    0.000    5.250    0.000   10.000 
#    0.000    5.625    0.000   12.750    0.000    0.000 
#    0.000    0.000    0.000    0.000    0.000    0.000 
#
# Total GULP energy -89240.877408 kJ/mol
# GULP energy per Si atom -5577.554838 kJ/mol
# Density = 2.427199 g / cm^3
# Si number density = 24.327359 Si / 1000 Ang^3
#
#
#
# Elastic Constant Matrix: (Units=GPa)
#
#
# Indices 1 2 3 4 5 6 
#
# 1 133.3739 12.8452 55.5999 -9.1736 29.2397 15.8933
# 2 12.8452 34.1737 25.9059 8.2469 -8.4243 5.7995
# 3 55.5999 25.9059 135.1295 14.9066 11.9157 19.0416
# 4 -9.1736 8.2469 14.9066 21.3909 5.3118 1.3449
# 5 29.2397 -8.4243 11.9157 5.3118 64.1490 3.3052
# 6 15.8933 5.7995 19.0416 1.3449 3.3052 26.6547
#
#
#
# Elastic Compliance Matrix: (Units=1/GPa)
#
#
# Indices 1 2 3 4 5 6 
#
# 1 0.012494 -0.005358 -0.004499 0.012339 -0.006435 -0.002894
# 2 -0.005358 0.041984 -0.004338 -0.017842 0.010406 -0.003231
# 3 -0.004499 -0.004338 0.011555 -0.008098 0.000224 -0.004247
# 4 0.012339 -0.017842 -0.008098 0.067536 -0.012076 0.000400
# 5 -0.006435 0.010406 0.000224 -0.012076 0.020876 -0.000566
# 6 -0.002894 -0.003231 -0.004247 0.000400 -0.000566 0.043030
#
#
# Mechanical properties :
#
#
# Convention : Reuss Voigt Hill
#
# Bulk Modulus (GPa) = 26.56649 54.59768 40.58209
# Shear Modulus (GPa) = 20.97194 36.32734 28.64964
#
# Velocity S-wave (km/s) = 2.93929 3.86848 3.43544
# Velocity P-wave (km/s) = 4.73955 6.51499 5.69686
#
# Compressibility (1/GPa) = 0.03764140
#
# Stress axis : x y z
#
# Youngs Moduli (GPa) = 80.03958 23.81861 86.54000
#
# Poissons Ratio (x) = 0.12763 0.38937
# Poissons Ratio (y) = 0.42888 0.37543
# Poissons Ratio (z) = 0.36012 0.10333
#
# Static dielectric constant tensor:
#      x y z
#    x 2.013510 0.005880 0.048820 
#    y 0.005880 2.013520 -0.028300 
#    z 0.048820 -0.028300 2.056440 
# 
# From -- ./inp_files/122562.got.cif
#   From: 2010.05.17/outbox.cif.g08.bks.cpg/sg2_62_cif.got.tgz:122562.got - 2010.06.03 11:33:40.
