data_PCOD9027919
_publ_section_title
;
Structure prediction by ZEFSAII (Michael W. Deem and Ramdas Pophale) SiO2 
 PCOD9027919
Probable space group: P -1
;
_chemical_formula_sum "Si O2"
_cell_formula_units_Z 14
_cell_length_a 13.908364
_cell_length_b 8.156938
_cell_length_c 10.048462
_cell_angle_alpha 46.769348
_cell_angle_beta 111.889657
_cell_angle_gamma 133.061389
_cell_volume 597.147973
_symmetry_space_group_name_H-M "P -1"
_symmetry_group_IT_number 2
_symmetry_cell_setting 'triclinic'
loop_
_space_group_symop_operation_xyz
x,y,z
-x,-y,-z
loop_
_atom_site_type_symbol
_atom_site_label
_atom_site_fract_x
_atom_site_fract_y
_atom_site_fract_z
Si Si1 0.587211 0.184729 0.101464
Si Si2 0.132909 0.297586 0.028710
Si Si3 0.389132 0.188857 0.827441
Si Si4 0.506982 0.775491 0.701676
Si Si5 0.813160 0.115872 0.714657
Si Si6 0.930046 0.328132 0.365171
Si Si7 0.916571 0.156222 0.174375
O O1 0.587394 0.311151 0.172242
O O2 0.589071 0.915289 0.243235
O O3 0.728153 0.456310 0.959176
O O4 0.455139 0.097757 0.011272
O O5 0.007110 0.106301 0.169562
O O6 0.150517 0.076904 0.098572
O O7 0.115100 0.486413 0.816525
O O8 0.464112 0.518975 0.722877
O O9 0.232816 0.020032 0.857365
O O10 0.500000 0.000000 0.500000
O O11 0.656450 0.940279 0.739984
O O12 0.852151 0.168655 0.548722
O O13 0.912177 0.432162 0.655476
O O14 0.907215 0.124589 0.346165
O O15 0.000000 0.500000 0.000000
#
# Coordination Sequence:
#
# PCOD9027919 Si02
#       7
#     2   2   2   2   2   2   2
#     4  11  24  44  71 103 139 182 241 291 343 434
#     4  11  22  43  71 101 135 185 233 287 359 417
#     4  11  24  45  72 103 139 185 239 291 353 424
#     4  12  28  45  70 103 146 188 238 289 362 420
#     4  11  25  44  67 103 139 187 234 292 354 426
#     4  10  23  43  67  98 145 175 236 292 345 429
#     4  10  22  41  70 101 136 180 233 293 356 414
#
# _framework density 23.444775
#
# number of rings (size 3 to 8) (size 9 to 14) (size 15 to 20)
#    0.000    1.143    4.286    1.714    4.000    4.571 
#    0.000    0.000    0.000    0.000    0.000    0.000 
#    0.000    0.000    0.000    0.000    0.000    0.000 
#
# Total GULP energy -78223.368639 kJ/mol
# GULP energy per Si atom -5587.383474 kJ/mol
# Density = 2.339141 g / cm^3
# Si number density = 23.444775 Si / 1000 Ang^3
#
#
#
# Elastic Constant Matrix: (Units=GPa)
#
#
# Indices 1 2 3 4 5 6 
#
# 1 145.8565 62.4517 34.5971 -9.4133 8.7311 14.9641
# 2 62.4517 129.9333 7.5093 -9.1009 -3.4753 20.6291
# 3 34.5971 7.5093 56.1798 4.4362 -2.4193 -3.1893
# 4 -9.4133 -9.1009 4.4362 23.1481 -4.5406 4.0855
# 5 8.7311 -3.4753 -2.4193 -4.5406 29.2723 -4.8562
# 6 14.9641 20.6291 -3.1893 4.0855 -4.8562 47.9862
#
#
#
# Elastic Compliance Matrix: (Units=1/GPa)
#
#
# Indices 1 2 3 4 5 6 
#
# 1 0.011163 -0.004364 -0.006938 0.003809 -0.004299 -0.002825
# 2 -0.004364 0.010530 0.000960 0.003244 0.002618 -0.003113
# 3 -0.006938 0.000960 0.022885 -0.006848 0.003714 0.004231
# 4 0.003809 0.003244 -0.006848 0.049554 0.005254 -0.006725
# 5 -0.004299 0.002618 0.003714 0.005254 0.037509 0.003811
# 6 -0.002825 -0.003113 0.004231 -0.006725 0.003811 0.024298
#
#
# Mechanical properties :
#
#
# Convention : Reuss Voigt Hill
#
# Bulk Modulus (GPa) = 41.85091 60.12066 50.98578
# Shear Modulus (GPa) = 27.08724 35.24208 31.16466
#
# Velocity S-wave (km/s) = 3.40275 3.88131 3.64988
# Velocity P-wave (km/s) = 5.77303 6.76648 6.28940
#
# Compressibility (1/GPa) = 0.02389434
#
# Stress axis : x y z
#
# Youngs Moduli (GPa) = 89.57884 94.96678 43.69694
#
# Poissons Ratio (x) = 0.41446 0.30315
# Poissons Ratio (y) = 0.39095 -0.04195
# Poissons Ratio (z) = 0.62146 -0.09116
#
# Static dielectric constant tensor:
#      x y z
#    x 1.599700 0.432130 0.177470 
#    y 0.432130 1.268940 -0.269640 
#    z 0.177470 -0.269640 1.773200 
# 
# From -- ./inp_files/418948.got.cif
#   From: 2010.05.17/outbox.cif.g08.bks.cpg/sg2_210_cif.got.tgz:418948.got - 2010.06.03 11:33:40.
