data_PCOD9027260
_publ_section_title
;
Structure prediction by ZEFSAII (Michael W. Deem and Ramdas Pophale) SiO2 
 PCOD9027260
Probable space group: P -1
;
_chemical_formula_sum "Si O2"
_cell_formula_units_Z 14
_cell_length_a 9.352218
_cell_length_b 16.684945
_cell_length_c 10.219677
_cell_angle_alpha 52.755258
_cell_angle_beta 108.853439
_cell_angle_gamma 64.611306
_cell_volume 672.311097
_symmetry_space_group_name_H-M "P -1"
_symmetry_group_IT_number 2
_symmetry_cell_setting 'triclinic'
loop_
_space_group_symop_operation_xyz
x,y,z
-x,-y,-z
loop_
_atom_site_type_symbol
_atom_site_label
_atom_site_fract_x
_atom_site_fract_y
_atom_site_fract_z
Si Si1 0.714198 0.847959 0.316742
Si Si2 0.689580 0.684399 0.877324
Si Si3 0.888711 0.536772 0.572532
Si Si4 0.055016 0.059383 0.352033
Si Si5 0.278355 0.140581 0.407444
Si Si6 0.689719 0.457367 0.195884
Si Si7 0.467764 0.609248 0.279141
O O1 0.774960 0.697864 0.452182
O O2 0.597960 0.933772 0.339908
O O3 0.000619 0.748142 0.493348
O O4 0.500000 0.000000 0.000000
O O5 0.809821 0.693746 0.794984
O O6 0.365525 0.872764 0.587220
O O7 0.720012 0.548826 0.042338
O O8 0.849073 0.642155 0.091367
O O9 0.650132 0.591795 0.420620
O O10 0.000000 0.500000 0.500000
O O11 0.059574 0.172104 0.298209
O O12 0.000000 0.000000 0.500000
O O13 0.835130 0.184250 0.047584
O O14 0.500000 0.000000 0.500000
O O15 0.576433 0.529577 0.240058
O O16 0.500000 0.500000 0.000000
O O17 0.500000 0.500000 0.500000
#
# Coordination Sequence:
#
# PCOD9027260 Si02
#       7
#     2   2   2   2   2   2   2
#     4  11  26  40  69  98 131 179 225 274 341 406
#     4  10  22  41  67  93 132 177 232 273 337 399
#     4  11  22  43  66  95 137 177 220 275 341 403
#     4  11  21  39  70  98 128 180 229 264 342 406
#     4  10  24  41  68 100 131 170 229 285 327 405
#     4  11  24  42  64  95 138 179 224 280 338 405
#     4  12  25  41  67 103 137 179 223 287 342 396
#
# _framework density 20.823695000000001
#
# number of rings (size 3 to 8) (size 9 to 14) (size 15 to 20)
#    0.000    1.143    4.286    1.714    6.000    5.714 
#    0.000    0.000    0.000    6.000    0.000    0.000 
#    0.000    0.000    0.000    0.000    0.000    0.000 
#
# Total GULP energy -77968.086149 kJ/mol
# GULP energy per Si atom -5569.149011 kJ/mol
# Density = 2.077630 g / cm^3
# Si number density = 20.823695 Si / 1000 Ang^3
#
#
#
# Elastic Constant Matrix: (Units=GPa)
#
#
# Indices 1 2 3 4 5 6 
#
# 1 167.2222 30.1730 74.1253 14.7479 6.6295 26.2129
# 2 30.1730 91.2125 35.3646 16.9042 15.7504 -2.7772
# 3 74.1253 35.3646 188.3970 15.9528 25.8812 0.5211
# 4 14.7479 16.9042 15.9528 37.1102 5.0854 3.5432
# 5 6.6295 15.7504 25.8812 5.0854 45.0743 9.3545
# 6 26.2129 -2.7772 0.5211 3.5432 9.3545 30.5464
#
#
#
# Elastic Compliance Matrix: (Units=1/GPa)
#
#
# Indices 1 2 3 4 5 6 
#
# 1 0.009411 -0.002477 -0.003648 -0.000649 0.003570 -0.009256
# 2 -0.002477 0.013911 -0.000581 -0.004973 -0.004728 0.005425
# 3 -0.003648 -0.000581 0.007555 -0.001359 -0.004367 0.004443
# 4 -0.000649 -0.004973 -0.001359 0.030391 -0.000118 -0.003361
# 5 0.003570 -0.004728 -0.004367 -0.000118 0.028341 -0.012085
# 6 -0.009256 0.005425 0.004443 -0.003361 -0.012085 0.045188
#
#
# Mechanical properties :
#
#
# Convention : Reuss Voigt Hill
#
# Bulk Modulus (GPa) = 57.25587 80.68419 68.97003
# Shear Modulus (GPa) = 32.46103 43.02409 37.74256
#
# Velocity S-wave (km/s) = 3.95251 4.55038 4.26194
# Velocity P-wave (km/s) = 6.95593 8.15098 7.57705
#
# Compressibility (1/GPa) = 0.01746546
#
# Stress axis : x y z
#
# Youngs Moduli (GPa) = 106.26371 71.88437 132.36364
#
# Poissons Ratio (x) = 0.17804 0.48280
# Poissons Ratio (y) = 0.26319 0.07694
# Poissons Ratio (z) = 0.38760 0.04178
#
# Static dielectric constant tensor:
#      x y z
#    x 1.892010 0.005650 -0.112040 
#    y 0.005650 1.784400 -0.094880 
#    z -0.112040 -0.094880 1.766630 
# 
# From -- ./inp_files/216748.got.cif
#   From: 2010.05.17/outbox.cif.g08.bks.cpg/sg2_109_cif.got.tgz:216748.got - 2010.06.03 11:33:40.
