data_PCOD9027335
_publ_section_title
;
Structure prediction by ZEFSAII (Michael W. Deem and Ramdas Pophale) SiO2 
 PCOD9027335
Probable space group: P -1
;
_chemical_formula_sum "Si O2"
_cell_formula_units_Z 16
_cell_length_a 9.231249
_cell_length_b 15.411697
_cell_length_c 8.937917
_cell_angle_alpha 106.929831
_cell_angle_beta 113.487931
_cell_angle_gamma 38.587609
_cell_volume 726.931298
_symmetry_space_group_name_H-M "P -1"
_symmetry_group_IT_number 2
_symmetry_cell_setting 'triclinic'
loop_
_space_group_symop_operation_xyz
x,y,z
-x,-y,-z
loop_
_atom_site_type_symbol
_atom_site_label
_atom_site_fract_x
_atom_site_fract_y
_atom_site_fract_z
Si Si1 0.677053 0.452123 0.825654
Si Si2 0.737037 0.270362 0.355995
Si Si3 0.894313 0.744745 0.646262
Si Si4 0.015054 0.993943 0.825032
Si Si5 0.014907 0.164132 0.708994
Si Si6 0.680982 0.545370 0.189395
Si Si7 0.478069 0.000268 0.168408
Si Si8 0.487074 0.176301 0.697102
O O1 0.525101 0.571010 0.696379
O O2 0.926502 0.301486 0.794912
O O3 0.519692 0.433727 0.807733
O O4 0.699734 0.506765 0.005325
O O5 0.819100 0.218809 0.533270
O O6 0.927133 0.259908 0.359028
O O7 0.770762 0.162975 0.224713
O O8 0.692859 0.796562 0.475290
O O9 0.065514 0.589257 0.695517
O O10 0.758700 0.851771 0.782648
O O11 0.027894 0.088828 0.812904
O O12 0.762512 0.062327 0.694958
O O13 0.000000 0.000000 0.000000
O O14 0.282392 0.054416 0.696937
O O15 0.603522 0.682491 0.242522
O O16 0.495343 0.890055 0.177710
O O17 0.500000 0.000000 0.000000
#
# Coordination Sequence:
#
# PCOD9027335 Si02
#       8
#     2   2   2   2   2   2   2   2
#     4  10  22  41  67  96 131 169 215 268 328 377
#     4  11  23  42  67  96 133 172 214 267 325 388
#     4  11  23  43  68  95 130 176 215 260 332 391
#     4  12  25  41  68  99 130 169 222 269 316 384
#     4  12  24  43  64 101 132 166 218 271 323 379
#     4  10  22  41  69  96 126 172 221 264 317 393
#     4  12  25  42  67  95 133 171 215 269 326 387
#     4  12  22  44  67  96 130 171 219 261 327 389
#
# _framework density 22.010334
#
# number of rings (size 3 to 8) (size 9 to 14) (size 15 to 20)
#    0.000    0.750    3.750    4.500    3.500    0.000 
#    0.000    3.750    0.000    0.000    0.000    0.000 
#    0.000    0.000    0.000    0.000    0.000    0.000 
#
# Total GULP energy -89572.351393 kJ/mol
# GULP energy per Si atom -5598.271962 kJ/mol
# Density = 2.196024 g / cm^3
# Si number density = 22.010334 Si / 1000 Ang^3
#
#
#
# Elastic Constant Matrix: (Units=GPa)
#
#
# Indices 1 2 3 4 5 6 
#
# 1 47.1014 33.4313 5.9974 -10.0219 -6.3067 6.7608
# 2 33.4313 122.2407 12.7460 1.6562 -6.4636 31.2407
# 3 5.9974 12.7460 73.2770 3.9127 -5.8198 21.2699
# 4 -10.0219 1.6562 3.9127 35.4040 -0.3124 2.2084
# 5 -6.3067 -6.4636 -5.8198 -0.3124 26.5760 -6.8570
# 6 6.7608 31.2407 21.2699 2.2084 -6.8570 37.9390
#
#
#
# Elastic Compliance Matrix: (Units=1/GPa)
#
#
# Indices 1 2 3 4 5 6 
#
# 1 0.029740 -0.008621 -0.001949 0.008876 0.005508 0.003371
# 2 -0.008621 0.012904 0.001387 -0.002588 -0.001197 -0.009933
# 3 -0.001949 0.001387 0.016588 -0.001829 0.000953 -0.009816
# 4 0.008876 -0.002588 -0.001829 0.031092 0.001449 0.000027
# 5 0.005508 -0.001197 0.000953 0.001449 0.040605 0.006724
# 6 0.003371 -0.009933 -0.009816 0.000027 0.006724 0.040654
#
#
# Mechanical properties :
#
#
# Convention : Reuss Voigt Hill
#
# Bulk Modulus (GPa) = 24.47028 38.55207 31.51118
# Shear Modulus (GPa) = 24.56164 32.68008 28.62086
#
# Velocity S-wave (km/s) = 3.34415 3.85744 3.60993
# Velocity P-wave (km/s) = 5.10421 6.11500 5.63233
#
# Compressibility (1/GPa) = 0.04086590
#
# Stress axis : x y z
#
# Youngs Moduli (GPa) = 33.62480 77.49603 60.28566
#
# Poissons Ratio (x) = 0.66807 0.11753
# Poissons Ratio (y) = 0.28987 -0.08364
# Poissons Ratio (z) = 0.06555 -0.10752
#
# Static dielectric constant tensor:
#      x y z
#    x 1.797510 -0.022470 0.019090 
#    y -0.022470 1.786740 -0.027130 
#    z 0.019090 -0.027130 1.807090 
# 
# From -- ./inp_files/208474.got.cif
#   From: 2010.05.17/outbox.cif.g08.bks.cpg/sg2_105_cif.got.tgz:208474.got - 2010.06.03 11:33:40.
