data_PCOD9027104
_publ_section_title
;
Structure prediction by ZEFSAII (Michael W. Deem and Ramdas Pophale) SiO2 
 PCOD9027104
Probable space group: P -1
;
_chemical_formula_sum "Si O2"
_cell_formula_units_Z 14
_cell_length_a 9.695597
_cell_length_b 9.021001
_cell_length_c 8.708799
_cell_angle_alpha 83.130891
_cell_angle_beta 98.023985
_cell_angle_gamma 125.037321
_cell_volume 616.830695
_symmetry_space_group_name_H-M "P -1"
_symmetry_group_IT_number 2
_symmetry_cell_setting 'triclinic'
loop_
_space_group_symop_operation_xyz
x,y,z
-x,-y,-z
loop_
_atom_site_type_symbol
_atom_site_label
_atom_site_fract_x
_atom_site_fract_y
_atom_site_fract_z
Si Si1 0.651809 0.109425 0.126967
Si Si2 0.275634 0.306175 0.657417
Si Si3 0.352782 0.054176 0.544286
Si Si4 0.983111 0.320535 0.965983
Si Si5 0.519430 0.283216 0.269025
Si Si6 0.043319 0.685311 0.404660
Si Si7 0.689971 0.688862 0.993659
O O1 0.825612 0.170811 0.063836
O O2 0.648884 0.277979 0.174138
O O3 0.601726 0.976542 0.278116
O O4 0.500000 0.000000 0.000000
O O5 0.301870 0.194879 0.551715
O O6 0.414257 0.521185 0.675321
O O7 0.266144 0.231502 0.837472
O O8 0.110506 0.297048 0.590463
O O9 0.490627 0.155033 0.421344
O O10 0.204635 0.860003 0.483246
O O11 0.941510 0.305353 0.779546
O O12 0.000000 0.500000 0.000000
O O13 0.154597 0.328034 0.018319
O O14 0.347645 0.211225 0.155099
O O15 0.000000 0.500000 0.500000
O O16 0.500000 0.500000 0.000000
#
# Coordination Sequence:
#
# PCOD9027104 Si02
#       7
#     2   2   2   2   2   2   2
#     4  12  26  45  67  99 139 183 229 280 342 412
#     4  10  22  41  66  97 134 175 224 279 342 409
#     4  12  25  42  66  99 134 179 229 284 342 401
#     4  11  23  42  71 100 133 182 229 276 340 407
#     4  11  23  44  69  99 136 179 228 287 338 398
#     4  11  24  43  66  98 138 175 223 286 341 404
#     4   9  20  41  68 100 134 173 225 282 338 407
#
# _framework density 22.696666
#
# number of rings (size 3 to 8) (size 9 to 14) (size 15 to 20)
#    0.000    1.143    0.000    7.286    0.000    5.714 
#    0.000    3.571    0.000    0.000    0.000    0.000 
#    0.000    0.000    0.000    0.000    0.000    0.000 
#
# Total GULP energy -78235.561091 kJ/mol
# GULP energy per Si atom -5588.254364 kJ/mol
# Density = 2.264501 g / cm^3
# Si number density = 22.696666 Si / 1000 Ang^3
#
#
#
# Elastic Constant Matrix: (Units=GPa)
#
#
# Indices 1 2 3 4 5 6 
#
# 1 166.7647 39.5265 73.0242 3.2731 -12.0140 1.4212
# 2 39.5265 110.6015 46.2115 0.6906 -7.3295 -3.6452
# 3 73.0242 46.2115 130.6944 -18.4603 10.8956 6.6084
# 4 3.2731 0.6906 -18.4603 42.9760 -3.3581 -4.4210
# 5 -12.0140 -7.3295 10.8956 -3.3581 44.1856 6.0477
# 6 1.4212 -3.6452 6.6084 -4.4210 6.0477 28.9147
#
#
#
# Elastic Compliance Matrix: (Units=1/GPa)
#
#
# Indices 1 2 3 4 5 6 
#
# 1 0.008794 -0.000690 -0.005318 -0.002719 0.003441 -0.000439
# 2 -0.000690 0.011208 -0.004071 -0.001523 0.002333 0.001656
# 3 -0.005318 -0.004071 0.013335 0.005678 -0.004782 -0.001431
# 4 -0.002719 -0.001523 0.005678 0.026167 -0.000788 0.002810
# 5 0.003441 0.002333 -0.004782 -0.000788 0.025658 -0.004269
# 6 -0.000439 0.001656 -0.001431 0.002810 -0.004269 0.036465
#
#
# Mechanical properties :
#
#
# Convention : Reuss Voigt Hill
#
# Bulk Modulus (GPa) = 75.87993 80.62056 78.25025
# Shear Modulus (GPa) = 34.20507 39.83516 37.02011
#
# Velocity S-wave (km/s) = 3.88629 4.19395 4.04305
# Velocity P-wave (km/s) = 7.32410 7.68442 7.50642
#
# Compressibility (1/GPa) = 0.01317872
#
# Stress axis : x y z
#
# Youngs Moduli (GPa) = 113.71514 89.22533 74.98888
#
# Poissons Ratio (x) = 0.06157 0.39881
# Poissons Ratio (y) = 0.07847 0.30525
# Poissons Ratio (z) = 0.60477 0.36320
#
# Static dielectric constant tensor:
#      x y z
#    x 1.861380 -0.006550 -0.010570 
#    y -0.006550 1.975690 -0.070970 
#    z -0.010570 -0.070970 1.900630 
# 
# From -- ./inp_files/158807.got.cif
#   From: 2010.05.17/outbox.cif.g08.bks.cpg/sg2_80_cif.got.tgz:158807.got - 2010.06.03 11:33:40.
