data_PCOD9027219
_publ_section_title
;
Structure prediction by ZEFSAII (Michael W. Deem and Ramdas Pophale) SiO2 
 PCOD9027219
Probable space group: P -1
;
_chemical_formula_sum "Si O2"
_cell_formula_units_Z 15
_cell_length_a 8.213567
_cell_length_b 13.105988
_cell_length_c 16.062756
_cell_angle_alpha 155.374498
_cell_angle_beta 113.699851
_cell_angle_gamma 59.872323
_cell_volume 616.038720
_symmetry_space_group_name_H-M "P -1"
_symmetry_group_IT_number 2
_symmetry_cell_setting 'triclinic'
loop_
_space_group_symop_operation_xyz
x,y,z
-x,-y,-z
loop_
_atom_site_type_symbol
_atom_site_label
_atom_site_fract_x
_atom_site_fract_y
_atom_site_fract_z
Si Si1 0.225179 0.154786 0.527817
Si Si2 0.020785 0.121466 0.181093
Si Si3 0.411113 0.465716 0.345720
Si Si4 0.762491 0.101087 0.251557
Si Si5 0.272931 0.405970 0.094125
Si Si6 0.000000 0.000000 0.500000
Si Si7 0.525953 0.576317 0.156228
Si Si8 0.716439 0.706199 0.544098
O O1 0.274531 0.390806 0.757271
O O2 0.246661 0.191067 0.461276
O O3 0.047460 0.119901 0.510766
O O4 0.383977 0.869374 0.364510
O O5 0.225740 0.130924 0.252024
O O6 0.941457 0.005642 0.156122
O O7 0.870488 0.415673 0.365236
O O8 0.000000 0.000000 0.000000
O O9 0.568158 0.227369 0.250108
O O10 0.251950 0.641217 0.506998
O O11 0.331938 0.379507 0.183843
O O12 0.517604 0.664505 0.484165
O O13 0.772071 0.854100 0.126040
O O14 0.109475 0.690004 0.259494
O O15 0.453860 0.402858 0.074644
O O16 0.500000 0.500000 0.000000
#
# Coordination Sequence:
#
# PCOD9027219 Si02
#       8
#     2   2   2   2   2   1   2   2
#     4  10  22  44  64  91 128 170 213 273 320 378
#     4  10  24  41  62 100 131 167 212 258 326 405
#     4  10  22  43  67  98 130 167 219 270 322 393
#     4  10  24  40  67 101 128 167 213 271 328 391
#     4  11  23  43  67  94 133 175 212 274 325 380
#     4  10  26  42  64  94 132 174 220 268 322 378
#     4  10  23  42  66  94 122 167 225 267 320 383
#     4  10  22  41  67  90 130 175 207 263 332 378
#
# _framework density 24.349119999999999
#
# number of rings (size 3 to 8) (size 9 to 14) (size 15 to 20)
#    0.000    1.867    1.333    0.400    5.600    6.400 
#    0.000    2.000    0.000    0.000    0.000    0.000 
#    0.000    0.000    0.000    0.000    0.000    0.000 
#
# Total GULP energy -83551.719129 kJ/mol
# GULP energy per Si atom -5570.114609 kJ/mol
# Density = 2.429370 g / cm^3
# Si number density = 24.349120 Si / 1000 Ang^3
#
#
#
# Elastic Constant Matrix: (Units=GPa)
#
#
# Indices 1 2 3 4 5 6 
#
# 1 41.8482 5.9295 19.2521 13.7636 2.8177 22.2264
# 2 5.9295 54.6724 -0.1701 10.4494 8.3741 20.6334
# 3 19.2521 -0.1701 93.4913 4.4867 -1.0547 -2.3962
# 4 13.7636 10.4494 4.4867 56.5200 2.3156 7.7770
# 5 2.8177 8.3741 -1.0547 2.3156 31.4148 2.4986
# 6 22.2264 20.6334 -2.3962 7.7770 2.4986 38.8557
#
#
#
# Elastic Compliance Matrix: (Units=1/GPa)
#
#
# Indices 1 2 3 4 5 6 
#
# 1 0.045479 0.008052 -0.009772 -0.007629 -0.003674 -0.029130
# 2 0.008052 0.025532 -0.001929 -0.003930 -0.005942 -0.017114
# 3 -0.009772 -0.001929 0.012871 0.000675 0.001201 0.007196
# 4 -0.007629 -0.003930 0.000675 0.019875 0.000090 0.002509
# 5 -0.003674 -0.005942 0.001201 0.000090 0.033528 0.003157
# 6 -0.029130 -0.017114 0.007196 0.002509 0.003157 0.051226
#
#
# Mechanical properties :
#
#
# Convention : Reuss Voigt Hill
#
# Bulk Modulus (GPa) = 13.05781 26.67055 19.86418
# Shear Modulus (GPa) = 22.59006 36.35813 29.47409
#
# Velocity S-wave (km/s) = 3.04921 3.86839 3.48297
# Velocity P-wave (km/s) = 4.21561 5.56145 4.93463
#
# Compressibility (1/GPa) = 0.07658255
#
# Stress axis : x y z
#
# Youngs Moduli (GPa) = 21.98818 39.16716 77.69636
#
# Poissons Ratio (x) = -0.31537 0.75929
# Poissons Ratio (y) = -0.17705 0.14985
# Poissons Ratio (z) = 0.21488 0.07554
#
# Static dielectric constant tensor:
#      x y z
#    x 2.077600 0.093510 -0.026440 
#    y 0.093510 2.277100 -0.154640 
#    z -0.026440 -0.154640 1.976460 
# 
# From -- ./inp_files/501227.got.cif
#   From: 2010.05.17/outbox.cif.g08.bks.cpg/sg2_251_cif.got.tgz:501227.got - 2010.06.03 11:33:40.
