data_PCOD9027302
_publ_section_title
;
Structure prediction by ZEFSAII (Michael W. Deem and Ramdas Pophale) SiO2 
 PCOD9027302
Probable space group: P -1
;
_chemical_formula_sum "Si O2"
_cell_formula_units_Z 16
_cell_length_a 5.097506
_cell_length_b 24.159390
_cell_length_c 22.450356
_cell_angle_alpha 162.058549
_cell_angle_beta 129.227504
_cell_angle_gamma 55.038793
_cell_volume 654.988462
_symmetry_space_group_name_H-M "P -1"
_symmetry_group_IT_number 2
_symmetry_cell_setting 'triclinic'
loop_
_space_group_symop_operation_xyz
x,y,z
-x,-y,-z
loop_
_atom_site_type_symbol
_atom_site_label
_atom_site_fract_x
_atom_site_fract_y
_atom_site_fract_z
Si Si1 0.353507 0.342877 0.650857
Si Si2 0.575135 0.025051 0.294616
Si Si3 0.592083 0.882503 0.948965
Si Si4 0.431595 0.191130 0.756952
Si Si5 0.787144 0.685362 0.022074
Si Si6 0.108154 0.307943 0.302177
Si Si7 0.329017 0.805936 0.642563
Si Si8 0.336905 0.189714 0.608522
O O1 0.393990 0.134064 0.429351
O O2 0.424764 0.352589 0.741419
O O3 0.969122 0.349304 0.579237
O O4 0.616490 0.479574 0.791690
O O5 0.506825 0.104309 0.301682
O O6 0.969828 0.095367 0.438200
O O7 0.552540 0.810503 0.079536
O O8 0.761681 0.721769 0.776828
O O9 0.239506 0.822828 0.870716
O O10 0.500000 0.000000 0.000000
O O11 0.804884 0.024467 0.168057
O O12 0.228179 0.243316 0.838859
O O13 0.316605 0.249179 0.734771
O O14 0.828728 0.278206 0.909535
O O15 0.426764 0.972701 0.528347
O O16 0.397816 0.266841 0.348930
O O17 0.000000 0.500000 0.500000
#
# Coordination Sequence:
#
# PCOD9027302 Si02
#       8
#     2   2   2   2   2   2   2   2
#     4  11  24  42  66  94 137 176 228 273 336 402
#     4  10  23  44  64  92 138 179 223 273 337 405
#     4  10  22  44  73  97 133 176 219 264 334 400
#     4  10  22  41  67  95 128 177 225 282 345 387
#     4  11  25  43  65  95 134 172 230 281 330 399
#     4  11  24  46  72 107 138 165 224 284 327 394
#     4  10  24  44  68  96 134 187 219 271 340 405
#     4   9  21  40  66  93 130 176 225 282 338 398
#
# _framework density 24.427909
#
# number of rings (size 3 to 8) (size 9 to 14) (size 15 to 20)
#    0.000    1.750    1.250    1.875   10.500    2.500 
#    4.500    0.000    0.000    0.000    0.000    0.000 
#    0.000    0.000    0.000    0.000    0.000    0.000 
#
# Total GULP energy -89471.243789 kJ/mol
# GULP energy per Si atom -5591.952737 kJ/mol
# Density = 2.437231 g / cm^3
# Si number density = 24.427909 Si / 1000 Ang^3
#
#
#
# Elastic Constant Matrix: (Units=GPa)
#
#
# Indices 1 2 3 4 5 6 
#
# 1 77.2863 10.5957 13.6552 -11.8134 -1.3137 -3.1711
# 2 10.5957 85.1231 28.6461 -0.7477 -2.7638 3.4948
# 3 13.6552 28.6461 70.1063 -0.4058 4.6549 -7.2381
# 4 -11.8134 -0.7477 -0.4058 31.1824 6.4891 -8.4875
# 5 -1.3137 -2.7638 4.6549 6.4891 50.9766 3.6746
# 6 -3.1711 3.4948 -7.2381 -8.4875 3.6746 26.3709
#
#
#
# Elastic Compliance Matrix: (Units=1/GPa)
#
#
# Indices 1 2 3 4 5 6 
#
# 1 0.014591 -0.001303 -0.001856 0.006589 -0.000625 0.003626
# 2 -0.001303 0.014218 -0.006165 -0.001873 0.001870 -0.004597
# 3 -0.001856 -0.006165 0.018001 0.001706 -0.002709 0.006461
# 4 0.006589 -0.001873 0.001706 0.040003 -0.006280 0.015259
# 5 -0.000625 0.001870 -0.002709 -0.006280 0.021184 -0.006040
# 6 0.003626 -0.004597 0.006461 0.015259 -0.006040 0.046492
#
#
# Mechanical properties :
#
#
# Convention : Reuss Voigt Hill
#
# Bulk Modulus (GPa) = 35.50853 37.58998 36.54925
# Shear Modulus (GPa) = 27.39366 33.68058 30.53712
#
# Velocity S-wave (km/s) = 3.35238 3.71721 3.53950
# Velocity P-wave (km/s) = 5.43619 5.81765 5.63015
#
# Compressibility (1/GPa) = 0.02816225
#
# Stress axis : x y z
#
# Youngs Moduli (GPa) = 68.53668 70.33521 55.55105
#
# Poissons Ratio (x) = 0.09165 0.10308
# Poissons Ratio (y) = 0.08931 0.34249
# Poissons Ratio (z) = 0.12717 0.43363
#
# Static dielectric constant tensor:
#      x y z
#    x 1.983060 -0.019380 -0.025580 
#    y -0.019380 1.942640 0.007960 
#    z -0.025580 0.007960 2.008080 
# 
# From -- ./inp_files/584458.got.cif
#   From: 2010.05.17/outbox.cif.g08.bks.cpg/sg2_293_cif.got.tgz:584458.got - 2010.06.03 11:33:40.
