data_PCOD9027236
_publ_section_title
;
Structure prediction by ZEFSAII (Michael W. Deem and Ramdas Pophale) SiO2 
 PCOD9027236
Probable space group: P -1
;
_chemical_formula_sum "Si O2"
_cell_formula_units_Z 14
_cell_length_a 14.958125
_cell_length_b 14.758168
_cell_length_c 9.313971
_cell_angle_alpha 38.802082
_cell_angle_beta 38.790226
_cell_angle_gamma 28.608681
_cell_volume 584.998688
_symmetry_space_group_name_H-M "P -1"
_symmetry_group_IT_number 2
_symmetry_cell_setting 'triclinic'
loop_
_space_group_symop_operation_xyz
x,y,z
-x,-y,-z
loop_
_atom_site_type_symbol
_atom_site_label
_atom_site_fract_x
_atom_site_fract_y
_atom_site_fract_z
Si Si1 0.216189 0.796535 0.033169
Si Si2 0.707247 0.402759 0.289674
Si Si3 0.734681 0.825396 0.669673
Si Si4 0.842700 0.493268 0.513288
Si Si5 0.260313 0.387803 0.807292
Si Si6 0.679707 0.179826 0.412940
Si Si7 0.454442 0.259979 0.162261
O O1 0.343182 0.702795 0.842909
O O2 0.332773 0.824373 0.957022
O O3 0.197239 0.648021 0.298683
O O4 0.000000 0.000000 0.000000
O O5 0.500000 0.500000 0.500000
O O6 0.823057 0.412234 0.253148
O O7 0.798470 0.196617 0.356027
O O8 0.648901 0.558055 0.046494
O O9 0.554276 0.887826 0.726177
O O10 0.930276 0.654602 0.543269
O O11 0.746091 0.984170 0.500931
O O12 0.734256 0.742888 0.923537
O O13 0.835448 0.581550 0.262147
O O14 0.681597 0.650123 0.636863
O O15 0.480612 0.275278 0.623274
#
# Coordination Sequence:
#
# PCOD9027236 Si02
#       7
#     2   2   2   2   2   2   2
#     4  12  23  40  67  99 128 164 219 277 323 372
#     4   9  19  37  68  93 122 171 218 255 313 388
#     4  11  25  41  65  99 136 168 212 268 327 384
#     4  12  22  42  69  97 129 173 221 263 316 389
#     4  10  22  41  67  92 131 175 216 259 322 387
#     4  11  20  41  65  93 131 168 212 269 323 374
#     4  11  23  42  67  95 129 176 215 261 324 387
#
# _framework density 23.931678999999999
#
# number of rings (size 3 to 8) (size 9 to 14) (size 15 to 20)
#    0.000    1.143    4.286    3.429    0.000    0.571 
#    0.000    0.714    9.429    0.000    0.000    0.000 
#    0.000    0.000    0.000    0.000    0.000    0.000 
#
# Total GULP energy -78168.488387 kJ/mol
# GULP energy per Si atom -5583.463456 kJ/mol
# Density = 2.387721 g / cm^3
# Si number density = 23.931679 Si / 1000 Ang^3
#
#
#
# Elastic Constant Matrix: (Units=GPa)
#
#
# Indices 1 2 3 4 5 6 
#
# 1 107.5120 37.5057 48.6087 -1.3557 -3.3231 20.8883
# 2 37.5057 55.4257 14.3930 1.6559 -6.6484 5.6734
# 3 48.6087 14.3930 103.2463 5.6327 3.4194 0.2721
# 4 -1.3557 1.6559 5.6327 26.5526 0.0383 -12.2621
# 5 -3.3231 -6.6484 3.4194 0.0383 33.1754 1.1747
# 6 20.8883 5.6734 0.2721 -12.2621 1.1747 34.6002
#
#
#
# Elastic Compliance Matrix: (Units=1/GPa)
#
#
# Indices 1 2 3 4 5 6 
#
# 1 0.017345 -0.008810 -0.006864 -0.001519 0.001019 -0.009545
# 2 -0.008810 0.024281 0.000735 -0.001879 0.003891 0.000533
# 3 -0.006864 0.000735 0.012956 -0.001554 -0.001996 0.003438
# 4 -0.001519 -0.001879 -0.001554 0.046177 -0.001046 0.017638
# 5 0.001019 0.003891 -0.001996 -0.001046 0.031326 -0.002672
# 6 -0.009545 0.000533 0.003438 0.017638 -0.002672 0.040891
#
#
# Mechanical properties :
#
#
# Convention : Reuss Voigt Hill
#
# Bulk Modulus (GPa) = 40.47698 51.91096 46.19397
# Shear Modulus (GPa) = 23.68681 29.91075 26.79878
#
# Velocity S-wave (km/s) = 3.14947 3.53914 3.34998
# Velocity P-wave (km/s) = 5.49325 6.19993 5.85726
#
# Compressibility (1/GPa) = 0.02470540
#
# Stress axis : x y z
#
# Youngs Moduli (GPa) = 57.65473 41.18436 77.18265
#
# Poissons Ratio (x) = 0.36283 0.52974
# Poissons Ratio (y) = 0.50793 -0.05674
# Poissons Ratio (z) = 0.39571 -0.03027
#
# Static dielectric constant tensor:
#      x y z
#    x 1.985690 -0.004140 -0.017430 
#    y -0.004140 1.990570 -0.025270 
#    z -0.017430 -0.025270 1.884610 
# 
# From -- ./inp_files/198996.got.cif
#   From: 2010.05.17/outbox.cif.g08.bks.cpg/sg2_100_cif.got.tgz:198996.got - 2010.06.03 11:33:40.
