data_PCOD9027083
_publ_section_title
;
Structure prediction by ZEFSAII (Michael W. Deem and Ramdas Pophale) SiO2 
 PCOD9027083
Probable space group: P -1
;
_chemical_formula_sum "Si O2"
_cell_formula_units_Z 16
_cell_length_a 8.496822
_cell_length_b 5.149625
_cell_length_c 18.161251
_cell_angle_alpha 64.684002
_cell_angle_beta 107.368413
_cell_angle_gamma 114.384020
_cell_volume 647.041331
_symmetry_space_group_name_H-M "P -1"
_symmetry_group_IT_number 2
_symmetry_cell_setting 'triclinic'
loop_
_space_group_symop_operation_xyz
x,y,z
-x,-y,-z
loop_
_atom_site_type_symbol
_atom_site_label
_atom_site_fract_x
_atom_site_fract_y
_atom_site_fract_z
Si Si1 0.148706 0.319546 0.698074
Si Si2 0.147368 0.282659 0.023623
Si Si3 0.458459 0.073869 0.069192
Si Si4 0.911729 0.074417 0.404414
Si Si5 0.162472 0.786911 0.859687
Si Si6 0.198905 0.447082 0.172951
Si Si7 0.554052 0.631499 0.667653
Si Si8 0.496404 0.216870 0.582951
O O1 0.055799 0.574656 0.653618
O O2 0.355864 0.482985 0.688216
O O3 0.063284 0.101425 0.643567
O O4 0.149705 0.113899 0.794929
O O5 0.151116 0.254946 0.114560
O O6 0.336848 0.282358 0.023754
O O7 0.139791 0.611155 0.956713
O O8 0.000000 0.000000 0.000000
O O9 0.329743 0.770941 0.126874
O O10 0.635363 0.179087 0.130227
O O11 0.500000 0.000000 0.000000
O O12 0.705531 0.944499 0.407293
O O13 0.000000 0.000000 0.500000
O O14 0.990166 0.560848 0.822925
O O15 0.304048 0.301405 0.257650
O O16 0.588976 0.382444 0.649774
O O17 0.566992 0.956059 0.594713
O O18 0.500000 0.500000 0.500000
#
# Coordination Sequence:
#
# PCOD9027083 Si02
#       8
#     2   2   2   2   2   2   2   2
#     4  10  23  41  65  98 133 181 227 284 353 419
#     4  12  26  45  70  99 139 186 242 297 354 424
#     4  12  25  45  69  96 136 185 234 287 363 410
#     4  10  22  41  66  96 135 175 226 283 345 426
#     4  12  25  44  67 102 133 183 236 291 353 422
#     4  12  26  44  68 100 138 181 239 298 346 428
#     4  10  23  42  66  98 137 179 231 290 349 422
#     4  10  22  41  68  97 134 181 227 282 354 424
#
# _framework density 24.727943
#
# number of rings (size 3 to 8) (size 9 to 14) (size 15 to 20)
#    0.000    1.000    3.750    2.250    1.750    5.000 
#    0.000    0.000    0.000    0.000    0.000    0.000 
#    0.000    0.000    0.000    0.000    0.000    0.000 
#
# Total GULP energy -89360.488112 kJ/mol
# GULP energy per Si atom -5585.030507 kJ/mol
# Density = 2.467166 g / cm^3
# Si number density = 24.727943 Si / 1000 Ang^3
#
#
#
# Elastic Constant Matrix: (Units=GPa)
#
#
# Indices 1 2 3 4 5 6 
#
# 1 86.8867 52.0665 38.4513 6.2927 19.0473 10.2417
# 2 52.0665 126.4254 70.5582 -1.7505 18.1186 5.8141
# 3 38.4513 70.5582 178.1945 -11.9213 27.8399 -0.4479
# 4 6.2927 -1.7505 -11.9213 53.0361 9.3513 -0.1855
# 5 19.0473 18.1186 27.8399 9.3513 35.8422 -4.8909
# 6 10.2417 5.8141 -0.4479 -0.1855 -4.8909 40.0970
#
#
#
# Elastic Compliance Matrix: (Units=1/GPa)
#
#
# Indices 1 2 3 4 5 6 
#
# 1 0.017082 -0.005658 -0.000608 -0.001309 -0.005988 -0.004286
# 2 -0.005658 0.012333 -0.003536 0.000396 -0.000647 -0.000460
# 3 -0.000608 -0.003536 0.008072 0.002620 -0.004817 0.000183
# 4 -0.001309 0.000396 0.002620 0.020852 -0.007042 -0.000456
# 5 -0.005988 -0.000647 -0.004817 -0.007042 0.037828 0.006151
# 6 -0.004286 -0.000460 0.000183 -0.000456 0.006151 0.026851
#
#
# Mechanical properties :
#
#
# Convention : Reuss Voigt Hill
#
# Bulk Modulus (GPa) = 55.92486 79.29540 67.61013
# Shear Modulus (GPa) = 33.65123 41.15711 37.40417
#
# Velocity S-wave (km/s) = 3.69298 4.08413 3.89347
# Velocity P-wave (km/s) = 6.39135 7.37407 6.90022
#
# Compressibility (1/GPa) = 0.01788113
#
# Stress axis : x y z
#
# Youngs Moduli (GPa) = 58.54159 81.08429 123.89166
#
# Poissons Ratio (x) = 0.45880 0.07537
# Poissons Ratio (y) = 0.33124 0.43808
# Poissons Ratio (z) = 0.03561 0.28671
#
# Static dielectric constant tensor:
#      x y z
#    x 2.142380 0.033690 -0.119990 
#    y 0.033690 2.054200 -0.108630 
#    z -0.119990 -0.108630 2.180510 
# 
# From -- ./inp_files/585503.got.cif
#   From: 2010.05.17/outbox.cif.g08.bks.cpg/sg2_293_cif.got.tgz:585503.got - 2010.06.03 11:33:40.
