data_PCOD9027967
_publ_section_title
;
Structure prediction by ZEFSAII (Michael W. Deem and Ramdas Pophale) SiO2 
 PCOD9027967
Probable space group: P -1
;
_chemical_formula_sum "Si O2"
_cell_formula_units_Z 16
_cell_length_a 11.514879
_cell_length_b 11.417572
_cell_length_c 9.192995
_cell_angle_alpha 124.799457
_cell_angle_beta 127.722064
_cell_angle_gamma 91.196289
_cell_volume 645.160368
_symmetry_space_group_name_H-M "P -1"
_symmetry_group_IT_number 2
_symmetry_cell_setting 'triclinic'
loop_
_space_group_symop_operation_xyz
x,y,z
-x,-y,-z
loop_
_atom_site_type_symbol
_atom_site_label
_atom_site_fract_x
_atom_site_fract_y
_atom_site_fract_z
Si Si1 0.566736 0.399532 0.390287
Si Si2 0.959438 0.727176 0.498498
Si Si3 0.908952 0.902396 0.210886
Si Si4 0.513107 0.951375 0.811837
Si Si5 0.636186 0.689026 0.082088
Si Si6 0.247442 0.959808 0.418871
Si Si7 0.176946 0.783127 0.959464
Si Si8 0.956932 0.478040 0.781890
O O1 0.500000 0.500000 0.500000
O O2 0.473950 0.210175 0.266376
O O3 0.775717 0.468207 0.616967
O O4 0.554698 0.423394 0.220352
O O5 0.755654 0.641313 0.227546
O O6 0.054618 0.684761 0.417789
O O7 0.063660 0.937524 0.742473
O O8 0.996360 0.687607 0.657769
O O9 0.728344 0.751444 0.036032
O O10 0.035078 0.853139 0.206876
O O11 0.000000 0.000000 0.500000
O O12 0.343691 0.892280 0.538226
O O13 0.669745 0.130201 0.982680
O O14 0.500000 0.000000 0.000000
O O15 0.666040 0.847707 0.312417
O O16 0.255548 0.949311 0.244838
O O17 0.126899 0.635624 0.933725
O O18 0.000000 0.500000 0.000000
#
# Coordination Sequence:
#
# PCOD9027967 Si02
#       8
#     2   2   2   2   2   2   2   2
#     4  12  27  46  74 114 151 198 255 314 383 448
#     4  10  22  43  68 104 143 200 241 315 375 448
#     4   8  19  35  70 100 143 184 256 297 372 434
#     4  12  25  47  80 106 149 203 259 315 378 444
#     4  10  22  41  71 106 148 193 256 306 375 447
#     4  10  22  41  70 110 144 189 257 319 363 438
#     4  12  27  43  74 114 145 194 270 306 371 471
#     4  12  28  48  78 104 156 203 246 314 394 453
#
# _framework density 24.800035000000001
#
# number of rings (size 3 to 8) (size 9 to 14) (size 15 to 20)
#    0.000    1.500    1.250    3.750   15.750    2.000 
#    4.500    0.625    0.000    0.000    0.000    0.000 
#    0.000    0.000    0.000    0.000    0.000    0.000 
#
# Total GULP energy -89137.576375 kJ/mol
# GULP energy per Si atom -5571.098523 kJ/mol
# Density = 2.474359 g / cm^3
# Si number density = 24.800035 Si / 1000 Ang^3
#
#
#
# Elastic Constant Matrix: (Units=GPa)
#
#
# Indices 1 2 3 4 5 6 
#
# 1 88.6409 61.9190 42.6616 -26.4588 -6.0656 -1.6649
# 2 61.9190 108.6446 42.4675 -17.0232 -3.5674 -1.3869
# 3 42.6616 42.4675 138.4154 -37.6058 -31.6738 -16.5897
# 4 -26.4588 -17.0232 -37.6058 49.2031 14.2353 4.8058
# 5 -6.0656 -3.5674 -31.6738 14.2353 35.4811 -2.0768
# 6 -1.6649 -1.3869 -16.5897 4.8058 -2.0768 55.9171
#
#
#
# Elastic Compliance Matrix: (Units=1/GPa)
#
#
# Indices 1 2 3 4 5 6 
#
# 1 0.021518 -0.010409 -0.002125 0.007060 -0.002152 -0.000935
# 2 -0.010409 0.015839 -0.002563 -0.001458 -0.001926 -0.000624
# 3 -0.002125 -0.002563 0.012311 0.004506 0.008764 0.003464
# 4 0.007060 -0.001458 0.004506 0.029110 -0.006669 -0.001239
# 5 -0.002152 -0.001926 0.008764 -0.006669 0.038384 0.004487
# 6 -0.000935 -0.000624 0.003464 -0.001239 0.004487 0.019141
#
#
# Mechanical properties :
#
#
# Convention : Reuss Voigt Hill
#
# Bulk Modulus (GPa) = 51.35323 69.97743 60.66533
# Shear Modulus (GPa) = 28.90371 40.69714 34.80042
#
# Velocity S-wave (km/s) = 3.41760 4.05533 3.75005
# Velocity P-wave (km/s) = 6.02704 7.08559 6.57764
#
# Compressibility (1/GPa) = 0.01947297
#
# Stress axis : x y z
#
# Youngs Moduli (GPa) = 46.47288 63.13521 81.23054
#
# Poissons Ratio (x) = 0.65720 0.17260
# Poissons Ratio (y) = 0.48376 0.20820
# Poissons Ratio (z) = 0.09875 0.16182
#
# Static dielectric constant tensor:
#      x y z
#    x 2.161150 -0.033860 0.071750 
#    y -0.033860 1.798640 -0.258580 
#    z 0.071750 -0.258580 1.559270 
# 
# From -- ./inp_files/263213.got.cif
#   From: 2010.05.17/outbox.cif.g08.bks.cpg/sg2_132_cif.got.tgz:263213.got - 2010.06.03 11:33:40.
