data_PCOD9027535
_publ_section_title
;
Structure prediction by ZEFSAII (Michael W. Deem and Ramdas Pophale) SiO2 
 PCOD9027535
Probable space group: P -1
;
_chemical_formula_sum "Si O2"
_cell_formula_units_Z 14
_cell_length_a 11.898046
_cell_length_b 11.026306
_cell_length_c 5.028790
_cell_angle_alpha 85.049564
_cell_angle_beta 49.305911
_cell_angle_gamma 91.471657
_cell_volume 495.404538
_symmetry_space_group_name_H-M "P -1"
_symmetry_group_IT_number 2
_symmetry_cell_setting 'triclinic'
loop_
_space_group_symop_operation_xyz
x,y,z
-x,-y,-z
loop_
_atom_site_type_symbol
_atom_site_label
_atom_site_fract_x
_atom_site_fract_y
_atom_site_fract_z
Si Si1 0.493801 0.812453 0.011014
Si Si2 0.109188 0.405616 0.721011
Si Si3 0.373798 0.559129 0.525717
Si Si4 0.032361 0.826894 0.746013
Si Si5 0.801244 0.927075 0.697755
Si Si6 0.670115 0.105296 0.267753
Si Si7 0.863048 0.323999 0.791507
O O1 0.444008 0.677516 0.231218
O O2 0.417616 0.901503 0.320177
O O3 0.670486 0.844759 0.765732
O O4 0.434618 0.834352 0.801307
O O5 0.274637 0.466158 0.501876
O O6 0.030676 0.384519 0.561215
O O7 0.081988 0.267663 0.899585
O O8 0.000000 0.500000 0.000000
O O9 0.500000 0.500000 0.500000
O O10 0.257479 0.594286 0.925685
O O11 0.929968 0.859387 0.644265
O O12 0.147052 0.734456 0.471524
O O13 0.120170 0.962062 0.626554
O O14 0.723600 0.990839 0.054302
O O15 0.817587 0.201527 0.060760
#
# Coordination Sequence:
#
# PCOD9027535 Si02
#       7
#     2   2   2   2   2   2   2
#     4  11  23  46  66 104 141 185 227 287 354 413
#     4  10  22  41  68  92 132 184 223 289 337 419
#     4  10  22  42  69 100 137 177 239 287 345 408
#     4  10  22  44  64 100 132 177 238 278 352 407
#     4  10  22  41  69  97 138 177 229 294 334 422
#     4  10  23  42  72  98 140 184 228 281 355 414
#     4   9  22  41  66  93 130 185 219 286 338 415
#
# _framework density 28.259732
#
# number of rings (size 3 to 8) (size 9 to 14) (size 15 to 20)
#    0.000    2.000    0.000    1.714   12.000    2.286 
#   15.429    5.000    0.000    0.000    0.000    0.000 
#    0.000    0.000    0.000    0.000    0.000    0.000 
#
# Total GULP energy -78423.957053 kJ/mol
# GULP energy per Si atom -5601.711218 kJ/mol
# Density = 2.819541 g / cm^3
# Si number density = 28.259732 Si / 1000 Ang^3
#
#
#
# Elastic Constant Matrix: (Units=GPa)
#
#
# Indices 1 2 3 4 5 6 
#
# 1 137.0935 72.6402 51.1008 -32.7608 -31.9322 23.4352
# 2 72.6402 130.1155 66.5243 -44.6983 -18.4108 5.8065
# 3 51.1008 66.5243 134.2309 -25.1521 -4.5295 8.0146
# 4 -32.7608 -44.6983 -25.1521 67.4329 5.7332 1.5870
# 5 -31.9322 -18.4108 -4.5295 5.7332 63.6435 -11.6248
# 6 23.4352 5.8065 8.0146 1.5870 -11.6248 63.4255
#
#
#
# Elastic Compliance Matrix: (Units=1/GPa)
#
#
# Indices 1 2 3 4 5 6 
#
# 1 0.012336 -0.004611 -0.001701 0.002042 0.003958 -0.003247
# 2 -0.004611 0.014608 -0.004443 0.005653 0.001273 0.001020
# 3 -0.001701 -0.004443 0.010322 0.000221 -0.001525 -0.000554
# 4 0.002042 0.005653 0.000221 0.019640 0.000600 -0.001682
# 5 0.003958 0.001273 -0.001525 0.000600 0.018259 0.001945
# 6 -0.003247 0.001020 -0.000554 -0.001682 0.001945 0.017342
#
#
# Mechanical properties :
#
#
# Convention : Reuss Voigt Hill
#
# Bulk Modulus (GPa) = 63.46373 86.88560 75.17467
# Shear Modulus (GPa) = 41.92167 52.97870 47.45018
#
# Velocity S-wave (km/s) = 3.85573 4.33449 4.10210
# Velocity P-wave (km/s) = 6.50601 7.47412 7.00681
#
# Compressibility (1/GPa) = 0.01575703
#
# Stress axis : x y z
#
# Youngs Moduli (GPa) = 81.06075 68.45642 96.87621
#
# Poissons Ratio (x) = 0.31564 0.16480
# Poissons Ratio (y) = 0.37376 0.43041
# Poissons Ratio (z) = 0.13790 0.30414
#
# Static dielectric constant tensor:
#      x y z
#    x 2.292260 -0.012470 0.031710 
#    y -0.012470 2.225700 -0.043370 
#    z 0.031710 -0.043370 2.224300 
# 
# From -- ./inp_files/69532.got.cif
#   From: 2010.05.17/outbox.cif.g08.bks.cpg/sg2_35_cif.got.tgz:69532.got - 2010.06.03 11:33:40.
