data_PCOD9027882
_publ_section_title
;
Structure prediction by ZEFSAII (Michael W. Deem and Ramdas Pophale) SiO2 
 PCOD9027882
Probable space group: P -1
;
_chemical_formula_sum "Si O2"
_cell_formula_units_Z 16
_cell_length_a 5.788461
_cell_length_b 11.304116
_cell_length_c 16.926042
_cell_angle_alpha 130.876369
_cell_angle_beta 122.514068
_cell_angle_gamma 87.552256
_cell_volume 617.670974
_symmetry_space_group_name_H-M "P -1"
_symmetry_group_IT_number 2
_symmetry_cell_setting 'triclinic'
loop_
_space_group_symop_operation_xyz
x,y,z
-x,-y,-z
loop_
_atom_site_type_symbol
_atom_site_label
_atom_site_fract_x
_atom_site_fract_y
_atom_site_fract_z
Si Si1 0.658005 0.697607 0.081961
Si Si2 0.833167 0.816397 0.336556
Si Si3 0.200512 0.973426 0.238426
Si Si4 0.667545 0.094786 0.226249
Si Si5 0.442807 0.518046 0.242441
Si Si6 0.362537 0.739732 0.455078
Si Si7 0.975020 0.423367 0.338053
Si Si8 0.171345 0.775448 0.931545
O O1 0.757824 0.824210 0.234465
O O2 0.500000 0.500000 0.000000
O O3 0.417037 0.717506 0.987807
O O4 0.977675 0.763880 0.120618
O O5 0.516231 0.655513 0.244738
O O6 0.074575 0.738324 0.355771
O O7 0.000000 0.000000 0.500000
O O8 0.445696 0.032763 0.237002
O O9 0.416828 0.059826 0.391844
O O10 0.941906 0.043867 0.230654
O O11 0.860993 0.308348 0.345553
O O12 0.380029 0.989670 0.065462
O O13 0.502128 0.650140 0.384738
O O14 0.700661 0.458398 0.272982
O O15 0.120111 0.336926 0.113647
O O16 0.273067 0.616225 0.463691
O O17 0.973979 0.293722 0.211359
#
# Coordination Sequence:
#
# PCOD9027882 Si02
#       8
#     2   2   2   2   2   2   2   2
#     4  11  24  45  69 102 142 184 241 293 361 420
#     4  11  25  42  71 102 138 190 236 292 361 426
#     4  11  28  46  70 106 145 185 238 297 348 428
#     4  11  27  45  71 105 143 187 238 293 358 419
#     4  10  22  41  69  99 136 186 237 293 349 427
#     4  10  24  45  68 101 144 180 242 290 354 429
#     4  10  23  44  71 101 137 188 234 292 358 422
#     4  10  24  42  66 102 139 181 235 296 347 428
#
# _framework density 25.903758
#
# number of rings (size 3 to 8) (size 9 to 14) (size 15 to 20)
#    0.000    1.500    0.000    3.375   15.750    5.000 
#    0.000    0.000    0.000    0.000    0.000    0.000 
#    0.000    0.000    0.000    0.000    0.000    0.000 
#
# Total GULP energy -89237.063414 kJ/mol
# GULP energy per Si atom -5577.316463 kJ/mol
# Density = 2.584480 g / cm^3
# Si number density = 25.903758 Si / 1000 Ang^3
#
#
#
# Elastic Constant Matrix: (Units=GPa)
#
#
# Indices 1 2 3 4 5 6 
#
# 1 108.9546 43.2822 21.3988 0.7295 6.0992 37.2725
# 2 43.2822 98.4196 -6.0061 22.7812 5.0071 31.6133
# 3 21.3988 -6.0061 64.4860 5.9975 -6.3567 7.6687
# 4 0.7295 22.7812 5.9975 33.6518 11.0847 2.3843
# 5 6.0992 5.0071 -6.3567 11.0847 40.6639 1.8500
# 6 37.2725 31.6133 7.6687 2.3843 1.8500 35.4591
#
#
#
# Elastic Compliance Matrix: (Units=1/GPa)
#
#
# Indices 1 2 3 4 5 6 
#
# 1 0.016471 -0.004958 -0.005452 0.006076 -0.003826 -0.011922
# 2 -0.004958 0.020592 0.007060 -0.015481 0.004162 -0.013850
# 3 -0.005452 0.007060 0.020022 -0.009877 0.005977 -0.004542
# 4 0.006076 -0.015481 -0.009877 0.045709 -0.013335 0.007173
# 5 -0.003826 0.004162 0.005977 -0.013335 0.029296 -0.001613
# 6 -0.011922 -0.013850 -0.004542 0.007173 -0.001613 0.053666
#
#
# Mechanical properties :
#
#
# Convention : Reuss Voigt Hill
#
# Bulk Modulus (GPa) = 19.84691 43.24555 31.54623
# Shear Modulus (GPa) = 23.89481 36.16731 30.03106
#
# Velocity S-wave (km/s) = 3.04047 3.74065 3.40859
# Velocity P-wave (km/s) = 4.47263 5.94875 5.26270
#
# Compressibility (1/GPa) = 0.05038568
#
# Stress axis : x y z
#
# Youngs Moduli (GPa) = 60.71440 48.56145 49.94537
#
# Poissons Ratio (x) = 0.24078 0.27229
# Poissons Ratio (y) = 0.30104 -0.35264
# Poissons Ratio (z) = 0.33100 -0.34286
#
# Static dielectric constant tensor:
#      x y z
#    x 2.115410 0.037450 -0.053330 
#    y 0.037450 2.094290 0.078620 
#    z -0.053330 0.078620 2.064190 
# 
# From -- ./inp_files/128729.got.cif
#   From: 2010.05.17/outbox.cif.g08.bks.cpg/sg2_65_cif.got.tgz:128729.got - 2010.06.03 11:33:40.
