data_PCOD9027737
_publ_section_title
;
Structure prediction by ZEFSAII (Michael W. Deem and Ramdas Pophale) SiO2 
 PCOD9027737
Probable space group: P -1
;
_chemical_formula_sum "Si O2"
_cell_formula_units_Z 16
_cell_length_a 5.094832
_cell_length_b 25.537309
_cell_length_c 16.104477
_cell_angle_alpha 17.931361
_cell_angle_beta 80.261184
_cell_angle_gamma 81.025071
_cell_volume 635.722890
_symmetry_space_group_name_H-M "P -1"
_symmetry_group_IT_number 2
_symmetry_cell_setting 'triclinic'
loop_
_space_group_symop_operation_xyz
x,y,z
-x,-y,-z
loop_
_atom_site_type_symbol
_atom_site_label
_atom_site_fract_x
_atom_site_fract_y
_atom_site_fract_z
Si Si1 0.953317 0.713549 0.465823
Si Si2 0.351805 0.558551 0.220795
Si Si3 0.595847 0.727745 0.800382
Si Si4 0.432277 0.680739 0.293621
Si Si5 0.160353 0.879121 0.493302
Si Si6 0.231898 0.593230 0.794107
Si Si7 0.338283 0.973523 0.964082
Si Si8 0.024868 0.268473 0.887357
O O1 0.144370 0.632085 0.645822
O O2 0.797889 0.573570 0.632848
O O3 0.765640 0.842376 0.332258
O O4 0.101351 0.841537 0.201108
O O5 0.538207 0.446798 0.438737
O O6 0.517496 0.685925 0.961531
O O7 0.137519 0.655033 0.142775
O O8 0.403674 0.868136 0.561040
O O9 0.902055 0.781854 0.692196
O O10 0.550540 0.553778 0.009719
O O11 0.155571 0.693664 0.240747
O O12 0.681499 0.651692 0.263014
O O13 0.490230 0.869380 0.044002
O O14 0.258036 0.773212 0.567576
O O15 0.065014 0.068241 0.196757
O O16 0.000000 0.500000 0.000000
O O17 0.500000 0.000000 0.000000
#
# Coordination Sequence:
#
# PCOD9027737 Si02
#       8
#     2   2   2   2   2   2   2   2
#     4  11  24  44  69 105 146 184 233 290 355 427
#     4  12  26  47  73 103 144 190 242 292 349 421
#     4  11  25  45  73 104 141 187 238 296 357 416
#     4  12  26  47  72 105 144 184 239 290 361 424
#     4  11  25  47  70 105 143 187 238 293 355 424
#     4  10  22  41  69 103 139 179 227 292 358 417
#     4  11  24  43  70 106 139 184 227 290 358 421
#     4  12  29  47  73 103 144 195 238 295 347 418
#
# _framework density 25.168202000000001
#
# number of rings (size 3 to 8) (size 9 to 14) (size 15 to 20)
#    0.000    0.750    1.250    5.625    3.500    7.000 
#    0.000    0.000    0.000    0.000    0.000    0.000 
#    0.000    0.000    0.000    0.000    0.000    0.000 
#
# Total GULP energy -89741.519664 kJ/mol
# GULP energy per Si atom -5608.844979 kJ/mol
# Density = 2.511092 g / cm^3
# Si number density = 25.168202 Si / 1000 Ang^3
#
#
#
# Elastic Constant Matrix: (Units=GPa)
#
#
# Indices 1 2 3 4 5 6 
#
# 1 100.7238 23.3154 12.1317 9.6062 9.4194 -10.4729
# 2 23.3154 112.5403 33.6235 1.3025 5.3075 -17.7899
# 3 12.1317 33.6235 109.3360 -9.0575 27.5568 -10.9658
# 4 9.6062 1.3025 -9.0575 34.2777 -14.3437 0.4636
# 5 9.4194 5.3075 27.5568 -14.3437 53.4990 0.0427
# 6 -10.4729 -17.7899 -10.9658 0.4636 0.0427 41.9537
#
#
#
# Elastic Compliance Matrix: (Units=1/GPa)
#
#
# Indices 1 2 3 4 5 6 
#
# 1 0.011260 -0.001781 -0.000120 -0.004368 -0.002917 0.002076
# 2 -0.001781 0.010630 -0.002942 -0.000455 0.000650 0.003298
# 3 -0.000120 -0.002942 0.011696 0.000925 -0.005465 0.001775
# 4 -0.004368 -0.000455 0.000925 0.034715 0.009646 -0.001435
# 5 -0.002917 0.000650 -0.005465 0.009646 0.024544 -0.002013
# 6 0.002076 0.003298 0.001775 -0.001435 -0.002013 0.026234
#
#
# Mechanical properties :
#
#
# Convention : Reuss Voigt Hill
#
# Bulk Modulus (GPa) = 41.84116 51.19349 46.51732
# Shear Modulus (GPa) = 36.56793 42.84805 39.70799
#
# Velocity S-wave (km/s) = 3.81588 4.13057 3.97634
# Velocity P-wave (km/s) = 6.00627 6.56761 6.29321
#
# Compressibility (1/GPa) = 0.02389991
#
# Stress axis : x y z
#
# Youngs Moduli (GPa) = 88.80997 94.07731 85.49782
#
# Poissons Ratio (x) = 0.16751 0.01029
# Poissons Ratio (y) = 0.15814 0.25153
# Poissons Ratio (z) = 0.01069 0.27677
#
# Static dielectric constant tensor:
#      x y z
#    x 2.006360 -0.035900 -0.017400 
#    y -0.035900 2.013810 -0.049730 
#    z -0.017400 -0.049730 1.983880 
# 
# From -- ./inp_files/485897.got.cif
#   From: 2010.05.17/outbox.cif.g08.bks.cpg/sg2_243_cif.got.tgz:485897.got - 2010.06.03 11:33:40.
