data_PCOD9027135
_publ_section_title
;
Structure prediction by ZEFSAII (Michael W. Deem and Ramdas Pophale) SiO2 
 PCOD9027135
Probable space group: P -1
;
_chemical_formula_sum "Si O2"
_cell_formula_units_Z 16
_cell_length_a 15.531082
_cell_length_b 13.947398
_cell_length_c 6.325512
_cell_angle_alpha 72.333504
_cell_angle_beta 135.965369
_cell_angle_gamma 131.479777
_cell_volume 673.168162
_symmetry_space_group_name_H-M "P -1"
_symmetry_group_IT_number 2
_symmetry_cell_setting 'triclinic'
loop_
_space_group_symop_operation_xyz
x,y,z
-x,-y,-z
loop_
_atom_site_type_symbol
_atom_site_label
_atom_site_fract_x
_atom_site_fract_y
_atom_site_fract_z
Si Si1 0.660540 0.168222 0.339036
Si Si2 0.047779 0.697308 0.557155
Si Si3 0.666482 0.909673 0.196608
Si Si4 0.007793 0.142181 0.885906
Si Si5 0.356510 0.284898 0.428845
Si Si6 0.816253 0.090100 0.967796
Si Si7 0.162909 0.544484 0.375560
Si Si8 0.596343 0.492767 0.363300
O O1 0.784989 0.242217 0.310689
O O2 0.704181 0.094746 0.606091
O O3 0.709624 0.294398 0.476859
O O4 0.467748 0.076610 0.005097
O O5 0.958030 0.726911 0.224863
O O6 0.917959 0.541099 0.493941
O O7 0.104613 0.788510 0.806553
O O8 0.594906 0.770385 0.271051
O O9 0.841998 0.023058 0.545851
O O10 0.711769 0.949382 0.004214
O O11 0.962853 0.122257 0.065880
O O12 0.166913 0.162266 0.103295
O O13 0.474717 0.359931 0.386065
O O14 0.346796 0.385896 0.465065
O O15 0.258263 0.501700 0.467574
O O16 0.000000 0.500000 0.000000
O O17 0.500000 0.500000 0.000000
#
# Coordination Sequence:
#
# PCOD9027135 Si02
#       8
#     2   2   2   2   2   2   2   2
#     4  11  24  41  66  99 140 179 223 282 343 407
#     4  10  22  41  66  98 136 176 220 280 343 405
#     4  11  25  41  65  99 132 182 231 278 335 400
#     4  10  23  42  67  94 136 179 228 277 335 403
#     4  11  25  45  71  98 138 180 227 280 339 405
#     4  10  22  42  65  96 134 180 223 281 334 401
#     4  12  24  42  73 104 134 177 227 282 346 408
#     4  11  26  47  72 101 141 179 225 283 348 412
#
# _framework density 23.768204999999998
#
# number of rings (size 3 to 8) (size 9 to 14) (size 15 to 20)
#    0.000    1.250    1.250    3.375    3.500   10.000 
#    0.000    0.000    0.000    0.000    0.000    0.000 
#    0.000    0.000    0.000    0.000    0.000    0.000 
#
# Total GULP energy -89503.239331 kJ/mol
# GULP energy per Si atom -5593.952458 kJ/mol
# Density = 2.371411 g / cm^3
# Si number density = 23.768205 Si / 1000 Ang^3
#
#
#
# Elastic Constant Matrix: (Units=GPa)
#
#
# Indices 1 2 3 4 5 6 
#
# 1 127.8510 42.2999 45.1671 -21.1108 11.8407 25.1232
# 2 42.2999 131.2430 31.9037 -38.5315 2.4711 30.0017
# 3 45.1671 31.9037 84.4616 1.5208 18.0185 19.1115
# 4 -21.1108 -38.5315 1.5208 31.2119 -2.8971 -15.6283
# 5 11.8407 2.4711 18.0185 -2.8971 38.0922 1.3218
# 6 25.1232 30.0017 19.1115 -15.6283 1.3218 41.2219
#
#
#
# Elastic Compliance Matrix: (Units=1/GPa)
#
#
# Indices 1 2 3 4 5 6 
#
# 1 0.011401 0.000417 -0.006037 0.007757 -0.000073 -0.001510
# 2 0.000417 0.014724 -0.006661 0.018647 0.003516 -0.000925
# 3 -0.006037 -0.006661 0.021698 -0.018301 -0.009063 -0.008180
# 4 0.007757 0.018647 -0.018301 0.070401 0.009815 0.016562
# 5 -0.000073 0.003516 -0.009063 0.009815 0.030927 0.004417
# 6 -0.001510 -0.000925 -0.008180 0.016562 0.004417 0.035783
#
#
# Mechanical properties :
#
#
# Convention : Reuss Voigt Hill
#
# Bulk Modulus (GPa) = 42.99070 64.69968 53.84519
# Shear Modulus (GPa) = 23.01514 37.05086 30.03300
#
# Velocity S-wave (km/s) = 3.11515 3.95250 3.55854
# Velocity P-wave (km/s) = 5.57366 6.93613 6.29188
#
# Compressibility (1/GPa) = 0.02326084
#
# Stress axis : x y z
#
# Youngs Moduli (GPa) = 87.71518 67.91551 46.08740
#
# Poissons Ratio (x) = -0.02831 0.27821
# Poissons Ratio (y) = -0.03656 0.30700
# Poissons Ratio (z) = 0.52950 0.45240
#
# Static dielectric constant tensor:
#      x y z
#    x 1.884450 -0.029950 0.002260 
#    y -0.029950 1.986720 0.015820 
#    z 0.002260 0.015820 1.926390 
# 
# From -- ./inp_files/98010.got.cif
#   From: 2010.05.17/outbox.cif.g08.bks.cpg/sg2_50_cif.got.tgz:98010.got - 2010.06.03 11:33:40.
