data_PCOD9027747
_publ_section_title
;
Structure prediction by ZEFSAII (Michael W. Deem and Ramdas Pophale) SiO2 
 PCOD9027747
Probable space group: P -1
;
_chemical_formula_sum "Si O2"
_cell_formula_units_Z 14
_cell_length_a 5.558853
_cell_length_b 5.331704
_cell_length_c 23.311772
_cell_angle_alpha 51.347510
_cell_angle_beta 88.297353
_cell_angle_gamma 87.111580
_cell_volume 538.884574
_symmetry_space_group_name_H-M "P -1"
_symmetry_group_IT_number 2
_symmetry_cell_setting 'triclinic'
loop_
_space_group_symop_operation_xyz
x,y,z
-x,-y,-z
loop_
_atom_site_type_symbol
_atom_site_label
_atom_site_fract_x
_atom_site_fract_y
_atom_site_fract_z
Si Si1 0.380991 0.668852 0.115438
Si Si2 0.011404 0.955746 0.156320
Si Si3 0.288484 0.762980 0.981283
Si Si4 0.994291 0.678384 0.584557
Si Si5 0.498501 0.391158 0.450187
Si Si6 0.772496 0.396196 0.289333
Si Si7 0.359128 0.966326 0.758480
O O1 0.272752 0.852048 0.145620
O O2 0.462411 0.302610 0.177359
O O3 0.604211 0.882496 0.067062
O O4 0.211508 0.686405 0.057842
O O5 0.894824 0.603267 0.209190
O O6 0.900860 0.195191 0.074679
O O7 0.905129 0.060578 0.204366
O O8 0.500000 0.500000 0.000000
O O9 0.751819 0.506628 0.593940
O O10 0.244183 0.507107 0.588646
O O11 0.039195 0.720409 0.646310
O O12 0.000000 0.000000 0.500000
O O13 0.500000 0.500000 0.500000
O O14 0.500000 0.000000 0.500000
O O15 0.646078 0.122760 0.295268
O O16 0.588999 0.666446 0.279307
#
# Coordination Sequence:
#
# PCOD9027747 Si02
#       7
#     2   2   2   2   2   2   2
#     4  11  22  39  66  90 132 177 219 287 342 403
#     4  10  23  41  62  93 134 174 230 273 353 408
#     4  11  21  39  61  96 128 169 227 282 339 415
#     4  10  23  45  74 107 146 187 242 300 362 428
#     4  10  22  41  69 104 142 181 226 292 358 423
#     4  10  23  43  66  96 136 179 229 285 346 423
#     4  10  22  45  61  95 139 171 234 279 339 428
#
# _framework density 25.979588
#
# number of rings (size 3 to 8) (size 9 to 14) (size 15 to 20)
#    0.857    0.857    2.857    0.857    0.000    7.429 
#    0.000    1.429    0.000    0.000    0.000    0.000 
#    0.000    0.000    0.000    0.000    0.000    0.000 
#
# Total GULP energy -78118.110370 kJ/mol
# GULP energy per Si atom -5579.865026 kJ/mol
# Density = 2.592046 g / cm^3
# Si number density = 25.979588 Si / 1000 Ang^3
#
#
#
# Elastic Constant Matrix: (Units=GPa)
#
#
# Indices 1 2 3 4 5 6 
#
# 1 111.6487 31.7582 16.4369 10.0957 7.3374 -9.6435
# 2 31.7582 182.8684 50.1680 13.0944 22.0208 -2.8851
# 3 16.4369 50.1680 119.3061 -5.5812 30.4480 -3.9660
# 4 10.0957 13.0944 -5.5812 53.5703 -1.1390 5.2553
# 5 7.3374 22.0208 30.4480 -1.1390 31.0311 8.3121
# 6 -9.6435 -2.8851 -3.9660 5.2553 8.3121 34.9068
#
#
#
# Elastic Compliance Matrix: (Units=1/GPa)
#
#
# Indices 1 2 3 4 5 6 
#
# 1 0.009962 -0.001185 -0.000282 -0.002004 -0.002237 0.003457
# 2 -0.001185 0.006703 -0.001978 -0.001775 -0.002854 0.000949
# 3 -0.000282 -0.001978 0.012414 0.001212 -0.011675 0.003766
# 4 -0.002004 -0.001775 0.001212 0.020063 0.002393 -0.004153
# 5 -0.002237 -0.002854 -0.011675 0.002393 0.050206 -0.014496
# 6 0.003457 0.000949 0.003766 -0.004153 -0.014496 0.034186
#
#
# Mechanical properties :
#
#
# Convention : Reuss Voigt Hill
#
# Bulk Modulus (GPa) = 45.06983 67.83881 56.45432
# Shear Modulus (GPa) = 33.82476 44.93233 39.37854
#
# Velocity S-wave (km/s) = 3.61220 4.16327 3.89749
# Velocity P-wave (km/s) = 5.89773 7.01993 6.48316
#
# Compressibility (1/GPa) = 0.02218779
#
# Stress axis : x y z
#
# Youngs Moduli (GPa) = 100.38040 149.19238 80.55533
#
# Poissons Ratio (x) = 0.17684 0.02271
# Poissons Ratio (y) = 0.11898 0.15935
# Poissons Ratio (z) = 0.02830 0.29513
#
# Static dielectric constant tensor:
#      x y z
#    x 2.193790 0.039560 0.017070 
#    y 0.039560 2.071690 0.028440 
#    z 0.017070 0.028440 2.123680 
# 
# From -- ./inp_files/128875.got.cif
#   From: 2010.05.17/outbox.cif.g08.bks.cpg/sg2_65_cif.got.tgz:128875.got - 2010.06.03 11:33:40.
