data_PCOD9027668
_publ_section_title
;
Structure prediction by ZEFSAII (Michael W. Deem and Ramdas Pophale) SiO2 
 PCOD9027668
Probable space group: P -1
;
_chemical_formula_sum "Si O2"
_cell_formula_units_Z 16
_cell_length_a 16.153884
_cell_length_b 20.988568
_cell_length_c 14.238395
_cell_angle_alpha 23.086118
_cell_angle_beta 139.866768
_cell_angle_gamma 154.681145
_cell_volume 742.089609
_symmetry_space_group_name_H-M "P -1"
_symmetry_group_IT_number 2
_symmetry_cell_setting 'triclinic'
loop_
_space_group_symop_operation_xyz
x,y,z
-x,-y,-z
loop_
_atom_site_type_symbol
_atom_site_label
_atom_site_fract_x
_atom_site_fract_y
_atom_site_fract_z
Si Si1 0.812318 0.242909 0.409990
Si Si2 0.939127 0.564464 0.442026
Si Si3 0.000126 0.314189 0.286595
Si Si4 0.460449 0.798402 0.299610
Si Si5 0.395465 0.585215 0.350432
Si Si6 0.421642 0.673935 0.927619
Si Si7 0.195570 0.113190 0.459490
Si Si8 0.300917 0.116730 0.932060
O O1 0.770113 0.389142 0.147384
O O2 0.949752 0.374597 0.445996
O O3 0.908526 0.240165 0.411564
O O4 0.589988 0.930746 0.658684
O O5 0.690535 0.333017 0.562808
O O6 0.000000 0.500000 0.500000
O O7 0.064696 0.847807 0.127230
O O8 0.239334 0.500962 0.253293
O O9 0.889363 0.064517 0.466003
O O10 0.000000 0.500000 0.000000
O O11 0.333100 0.573667 0.415826
O O12 0.668915 0.898520 0.360901
O O13 0.500000 0.000000 0.000000
O O14 0.354227 0.354789 0.635691
O O15 0.623841 0.875313 0.115864
O O16 0.350438 0.425891 0.164642
O O17 0.546304 0.784537 0.984367
O O18 0.000000 0.000000 0.500000
#
# Coordination Sequence:
#
# PCOD9027668 Si02
#       8
#     2   2   2   2   2   2   2   2
#     4  10  23  43  72 100 140 195 235 295 365 441
#     4  11  25  45  70 102 140 189 241 296 356 431
#     4  12  25  43  69 102 143 187 238 294 361 428
#     4  12  26  44  70 103 139 185 243 297 356 429
#     4  11  22  41  69  99 131 181 235 285 354 421
#     4  10  22  44  68 100 147 183 242 293 368 426
#     4  12  27  43  71 104 146 184 238 304 356 425
#     4  10  22  41  68  99 136 183 232 291 359 422
#
# _framework density 21.560739999999999
#
# number of rings (size 3 to 8) (size 9 to 14) (size 15 to 20)
#    0.000    1.000    2.500    3.750    3.500    6.000 
#    0.000    0.000    0.000    0.000    0.000    0.000 
#    0.000    0.000    0.000    0.000    0.000    0.000 
#
# Total GULP energy -89124.352896 kJ/mol
# GULP energy per Si atom -5570.272056 kJ/mol
# Density = 2.151167 g / cm^3
# Si number density = 21.560740 Si / 1000 Ang^3
#
#
#
# Elastic Constant Matrix: (Units=GPa)
#
#
# Indices 1 2 3 4 5 6 
#
# 1 162.8982 38.1440 34.5908 -4.4649 -7.8671 -0.4837
# 2 38.1440 52.9267 2.4455 8.1061 -6.4485 5.1741
# 3 34.5908 2.4455 135.6035 7.9545 -16.1180 -0.7567
# 4 -4.4649 8.1061 7.9545 24.6696 3.7489 7.7347
# 5 -7.8671 -6.4485 -16.1180 3.7489 34.4402 -0.7808
# 6 -0.4837 5.1741 -0.7567 7.7347 -0.7808 50.7959
#
#
#
# Elastic Compliance Matrix: (Units=1/GPa)
#
#
# Indices 1 2 3 4 5 6 
#
# 1 0.008290 -0.006691 -0.002381 0.004612 -0.000975 0.000008
# 2 -0.006691 0.026104 0.002574 -0.011216 0.005765 -0.000888
# 3 -0.002381 0.002574 0.008782 -0.005023 0.004610 0.000682
# 4 0.004612 -0.011216 -0.005023 0.050132 -0.009005 -0.006660
# 5 -0.000975 0.005765 0.004610 -0.009005 0.033061 0.001352
# 6 0.000008 -0.000888 0.000682 -0.006660 0.001352 0.020822
#
#
# Mechanical properties :
#
#
# Convention : Reuss Voigt Hill
#
# Bulk Modulus (GPa) = 33.13241 55.75435 44.44338
# Shear Modulus (GPa) = 29.36918 40.39768 34.88343
#
# Velocity S-wave (km/s) = 3.69475 4.33329 4.02669
# Velocity P-wave (km/s) = 5.79672 7.13805 6.50207
#
# Compressibility (1/GPa) = 0.03018192
#
# Stress axis : x y z
#
# Youngs Moduli (GPa) = 120.62216 38.30812 113.87371
#
# Poissons Ratio (x) = 0.25631 0.27108
# Poissons Ratio (y) = 0.80706 -0.29313
# Poissons Ratio (z) = 0.28714 -0.09861
#
# Static dielectric constant tensor:
#      x y z
#    x 1.048610 0.094070 -0.381800 
#    y 0.094070 1.824290 -0.010140 
#    z -0.381800 -0.010140 1.615130 
# 
# From -- ./inp_files/456921.got.cif
#   From: 2010.05.17/outbox.cif.g08.bks.cpg/sg2_229_cif.got.tgz:456921.got - 2010.06.03 11:33:40.
