data_PCOD9027547
_publ_section_title
;
Structure prediction by ZEFSAII (Michael W. Deem and Ramdas Pophale) SiO2 
 PCOD9027547
Probable space group: P -1
;
_chemical_formula_sum "Si O2"
_cell_formula_units_Z 16
_cell_length_a 7.924829
_cell_length_b 12.187644
_cell_length_c 12.755583
_cell_angle_alpha 51.926840
_cell_angle_beta 104.124471
_cell_angle_gamma 135.841994
_cell_volume 629.887089
_symmetry_space_group_name_H-M "P -1"
_symmetry_group_IT_number 2
_symmetry_cell_setting 'triclinic'
loop_
_space_group_symop_operation_xyz
x,y,z
-x,-y,-z
loop_
_atom_site_type_symbol
_atom_site_label
_atom_site_fract_x
_atom_site_fract_y
_atom_site_fract_z
Si Si1 0.223541 0.215879 0.542629
Si Si2 0.826758 0.342913 0.973124
Si Si3 0.298800 0.232065 0.223930
Si Si4 0.761500 0.295867 0.315604
Si Si5 0.610400 0.662411 0.277894
Si Si6 0.395562 0.306795 0.962188
Si Si7 0.474664 0.068740 0.847013
Si Si8 0.460911 0.877812 0.398288
O O1 0.346760 0.413902 0.377530
O O2 0.240969 0.287291 0.622436
O O3 0.414943 0.199954 0.557207
O O4 0.940167 0.980768 0.626443
O O5 0.554802 0.260048 0.994160
O O6 0.968665 0.475858 0.811407
O O7 0.802068 0.163270 0.090574
O O8 0.000000 0.500000 0.000000
O O9 0.544708 0.281517 0.260672
O O10 0.391917 0.444423 0.134316
O O11 0.243964 0.195946 0.112092
O O12 0.744699 0.251594 0.462106
O O13 0.677230 0.111528 0.342391
O O14 0.747611 0.737338 0.141466
O O15 0.541070 0.780329 0.220474
O O16 0.635630 0.137024 0.724101
O O17 0.500000 0.000000 0.000000
#
# Coordination Sequence:
#
# PCOD9027547 Si02
#       8
#     2   2   2   2   2   2   2   2
#     4  10  23  45  66  93 132 179 216 268 336 393
#     4  12  22  42  71  97 132 175 219 274 329 393
#     4  11  24  39  67 101 134 167 225 277 324 394
#     4  11  23  40  65 105 132 166 219 279 329 388
#     4  10  23  42  66  90 133 176 220 266 332 401
#     4  11  23  40  66 100 132 170 223 273 333 390
#     4  11  22  42  69  96 131 174 223 270 330 392
#     4  10  22  41  68  93 137 166 218 269 329 389
#
# _framework density 25.401378999999999
#
# number of rings (size 3 to 8) (size 9 to 14) (size 15 to 20)
#    0.000    1.250    3.750    1.500    1.750    4.500 
#    0.000    4.375    0.000    0.000    0.000    0.000 
#    0.000    0.000    0.000    0.000    0.000    0.000 
#
# Total GULP energy -89431.789783 kJ/mol
# GULP energy per Si atom -5589.486861 kJ/mol
# Density = 2.534356 g / cm^3
# Si number density = 25.401379 Si / 1000 Ang^3
#
#
#
# Elastic Constant Matrix: (Units=GPa)
#
#
# Indices 1 2 3 4 5 6 
#
# 1 55.4950 19.0268 27.3229 -11.8880 7.5515 -22.1774
# 2 19.0268 53.6836 28.2422 0.7637 2.3178 -27.7538
# 3 27.3229 28.2422 172.2781 14.9120 -3.0624 -22.8468
# 4 -11.8880 0.7637 14.9120 82.2306 -11.9343 5.1686
# 5 7.5515 2.3178 -3.0624 -11.9343 30.9923 -3.8138
# 6 -22.1774 -27.7538 -22.8468 5.1686 -3.8138 30.0015
#
#
#
# Elastic Compliance Matrix: (Units=1/GPa)
#
#
# Indices 1 2 3 4 5 6 
#
# 1 0.027246 0.001365 -0.002361 0.002650 -0.003655 0.018684
# 2 0.001365 0.036561 -0.001521 -0.001975 0.000211 0.034040
# 3 -0.002361 -0.001521 0.006920 -0.001585 0.001073 0.002526
# 4 0.002650 -0.001975 -0.001585 0.013647 0.004245 -0.002887
# 5 -0.003655 0.000211 0.001073 0.004245 0.035133 0.002046
# 6 0.018684 0.034040 0.002526 -0.002887 0.002046 0.081314
#
#
# Mechanical properties :
#
#
# Convention : Reuss Voigt Hill
#
# Bulk Modulus (GPa) = 15.22258 47.84894 31.53576
# Shear Modulus (GPa) = 21.95357 42.43588 32.19473
#
# Velocity S-wave (km/s) = 2.94303 4.09175 3.56397
# Velocity P-wave (km/s) = 4.18980 6.41882 5.42013
#
# Compressibility (1/GPa) = 0.06569187
#
# Stress axis : x y z
#
# Youngs Moduli (GPa) = 36.70297 27.35134 144.51351
#
# Poissons Ratio (x) = -0.03734 0.34126
# Poissons Ratio (y) = -0.05011 0.21983
# Poissons Ratio (z) = 0.08667 0.04161
#
# Static dielectric constant tensor:
#      x y z
#    x 1.950930 0.019250 0.017720 
#    y 0.019250 2.140150 0.036100 
#    z 0.017720 0.036100 2.093110 
# 
# From -- ./inp_files/392363.got.cif
#   From: 2010.05.17/outbox.cif.g08.bks.cpg/sg2_197_cif.got.tgz:392363.got - 2010.06.03 11:33:40.
