data_PCOD9027233
_publ_section_title
;
Structure prediction by ZEFSAII (Michael W. Deem and Ramdas Pophale) SiO2 
 PCOD9027233
Probable space group: P -1
;
_chemical_formula_sum "Si O2"
_cell_formula_units_Z 16
_cell_length_a 8.775459
_cell_length_b 15.368243
_cell_length_c 15.286114
_cell_angle_alpha 26.986176
_cell_angle_beta 89.750961
_cell_angle_gamma 72.615594
_cell_volume 710.969459
_symmetry_space_group_name_H-M "P -1"
_symmetry_group_IT_number 2
_symmetry_cell_setting 'triclinic'
loop_
_space_group_symop_operation_xyz
x,y,z
-x,-y,-z
loop_
_atom_site_type_symbol
_atom_site_label
_atom_site_fract_x
_atom_site_fract_y
_atom_site_fract_z
Si Si1 0.527375 0.454626 0.144340
Si Si2 0.152534 0.593028 0.364442
Si Si3 0.167744 0.096318 0.321210
Si Si4 0.090895 0.849557 0.874612
Si Si5 0.987496 0.482084 0.726023
Si Si6 0.199145 0.958509 0.938448
Si Si7 0.105149 0.568120 0.817385
Si Si8 0.386636 0.253042 0.829104
O O1 0.693908 0.472988 0.156589
O O2 0.618649 0.170130 0.419256
O O3 0.500000 0.500000 0.000000
O O4 0.315782 0.652330 0.014655
O O5 0.293548 0.459667 0.567411
O O6 0.159292 0.420659 0.445006
O O7 0.191905 0.762057 0.165685
O O8 0.926178 0.792652 0.224110
O O9 0.057672 0.040697 0.304740
O O10 0.035223 0.223068 0.295422
O O11 0.167748 0.306127 0.088951
O O12 0.084356 0.025732 0.786825
O O13 0.038736 0.701604 0.062522
O O14 0.978569 0.639055 0.665228
O O15 0.208927 0.326344 0.825196
O O16 0.432950 0.805808 0.062831
O O17 0.500000 0.000000 0.000000
#
# Coordination Sequence:
#
# PCOD9027233 Si02
#       8
#     2   2   2   2   2   2   2   2
#     4  12  24  43  69 100 133 175 224 268 332 398
#     4  10  22  43  64  92 131 171 212 272 329 385
#     4  10  23  46  67  97 139 171 214 281 327 392
#     4  10  23  44  64  98 132 168 223 270 326 393
#     4  10  22  43  63  94 134 167 219 272 320 393
#     4  10  22  41  67  92 127 171 218 267 325 390
#     4  10  22  44  69  97 133 175 220 270 334 387
#     4  12  23  40  63  95 131 168 217 267 328 389
#
# _framework density 22.504484000000001
#
# number of rings (size 3 to 8) (size 9 to 14) (size 15 to 20)
#    0.000    1.500    2.500    1.875    0.000    2.500 
#    9.000    0.000    0.000    0.000    0.000    0.000 
#    0.000    0.000    0.000    0.000    0.000    0.000 
#
# Total GULP energy -89436.331767 kJ/mol
# GULP energy per Si atom -5589.770735 kJ/mol
# Density = 2.245326 g / cm^3
# Si number density = 22.504484 Si / 1000 Ang^3
#
#
#
# Elastic Constant Matrix: (Units=GPa)
#
#
# Indices 1 2 3 4 5 6 
#
# 1 65.5712 26.1316 6.8336 12.2319 1.8608 2.9564
# 2 26.1316 125.8740 21.5656 18.0974 -1.0347 14.4915
# 3 6.8336 21.5656 77.5372 12.5945 3.5184 -0.9425
# 4 12.2319 18.0974 12.5945 25.9328 -1.4557 4.7525
# 5 1.8608 -1.0347 3.5184 -1.4557 25.4785 3.4467
# 6 2.9564 14.4915 -0.9425 4.7525 3.4467 47.6798
#
#
#
# Elastic Compliance Matrix: (Units=1/GPa)
#
#
# Indices 1 2 3 4 5 6 
#
# 1 0.017628 -0.002846 0.000430 -0.006754 -0.001929 0.000593
# 2 -0.002846 0.009730 -0.001875 -0.004027 0.000968 -0.002486
# 3 0.000430 -0.001875 0.014568 -0.006427 -0.002712 0.001668
# 4 -0.006754 -0.004027 -0.006427 0.048600 0.004488 -0.003653
# 5 -0.001929 0.000968 -0.002712 0.004488 0.040548 -0.003607
# 6 0.000593 -0.002486 0.001668 -0.003653 -0.003607 0.022350
#
#
# Mechanical properties :
#
#
# Convention : Reuss Voigt Hill
#
# Bulk Modulus (GPa) = 29.99211 42.00488 35.99850
# Shear Modulus (GPa) = 28.88148 34.11499 31.49824
#
# Velocity S-wave (km/s) = 3.58630 3.89771 3.74524
# Velocity P-wave (km/s) = 5.52311 6.24194 5.89350
#
# Compressibility (1/GPa) = 0.03334210
#
# Stress axis : x y z
#
# Youngs Moduli (GPa) = 56.72781 102.77701 68.64331
#
# Poissons Ratio (x) = 0.29254 -0.02951
# Poissons Ratio (y) = 0.16147 0.12874
# Poissons Ratio (z) = -0.02438 0.19275
#
# Static dielectric constant tensor:
#      x y z
#    x 1.848080 0.057690 -0.026260 
#    y 0.057690 1.833920 0.025780 
#    z -0.026260 0.025780 1.864730 
# 
# From -- ./inp_files/46812.got.cif
#   From: 2010.05.17/outbox.cif.g08.bks.cpg/sg2_24_cif.got.tgz:46812.got - 2010.06.03 11:33:40.
