data_PCOD9027964
_publ_section_title
;
Structure prediction by ZEFSAII (Michael W. Deem and Ramdas Pophale) SiO2 
 PCOD9027964
Probable space group: P -1
;
_chemical_formula_sum "Si O2"
_cell_formula_units_Z 16
_cell_length_a 13.582623
_cell_length_b 19.677258
_cell_length_c 9.092708
_cell_angle_alpha 50.624854
_cell_angle_beta 147.826447
_cell_angle_gamma 148.400966
_cell_volume 644.596503
_symmetry_space_group_name_H-M "P -1"
_symmetry_group_IT_number 2
_symmetry_cell_setting 'triclinic'
loop_
_space_group_symop_operation_xyz
x,y,z
-x,-y,-z
loop_
_atom_site_type_symbol
_atom_site_label
_atom_site_fract_x
_atom_site_fract_y
_atom_site_fract_z
Si Si1 0.660678 0.152912 0.424067
Si Si2 0.675198 0.368155 0.100668
Si Si3 0.262340 0.339811 0.443286
Si Si4 0.839437 0.745007 0.894494
Si Si5 0.190641 0.071452 0.498356
Si Si6 0.665814 0.135100 0.117712
Si Si7 0.285752 0.060847 0.338401
Si Si8 0.670422 0.372584 0.426546
O O1 0.662280 0.258709 0.252302
O O2 0.616539 0.101603 0.274036
O O3 0.424071 0.055225 0.388628
O O4 0.957077 0.228686 0.768438
O O5 0.641468 0.391826 0.193020
O O6 0.999390 0.510783 0.270543
O O7 0.437451 0.320594 0.756817
O O8 0.500000 0.500000 0.500000
O O9 0.130401 0.280653 0.195433
O O10 0.998268 0.263119 0.321755
O O11 0.895255 0.868590 0.768342
O O12 0.515269 0.630057 0.703567
O O13 0.169765 0.992576 0.447760
O O14 0.509775 0.169814 0.827218
O O15 0.000000 0.000000 0.500000
O O16 0.500000 0.000000 0.000000
O O17 0.527257 0.223295 0.453907
O O18 0.000000 0.000000 0.000000
#
# Coordination Sequence:
#
# PCOD9027964 Si02
#       8
#     2   2   2   2   2   2   2   2
#     4  11  25  47  78 107 144 196 251 309 374 445
#     4  10  23  46  74 102 150 189 253 296 381 434
#     4  12  29  44  72 111 155 197 251 315 378 448
#     4  11  25  45  73 109 144 186 258 297 371 442
#     4  11  24  46  75 104 152 195 239 305 379 441
#     4  12  28  50  76 108 149 198 252 310 385 457
#     4  10  22  41  70 108 144 191 251 303 367 441
#     4   9  22  41  72 102 141 194 243 308 357 439
#
# _framework density 24.821731
#
# number of rings (size 3 to 8) (size 9 to 14) (size 15 to 20)
#    0.000    1.250    0.000    3.750   10.500    7.000 
#    0.000    5.625    0.000    0.000    0.000    0.000 
#    0.000    0.000    0.000    0.000    0.000    0.000 
#
# Total GULP energy -89484.502757 kJ/mol
# GULP energy per Si atom -5592.781422 kJ/mol
# Density = 2.476524 g / cm^3
# Si number density = 24.821731 Si / 1000 Ang^3
#
#
#
# Elastic Constant Matrix: (Units=GPa)
#
#
# Indices 1 2 3 4 5 6 
#
# 1 192.2514 33.4976 57.8752 2.1736 -6.1423 36.6451
# 2 33.4976 91.5782 39.8983 -2.3555 6.9305 17.5710
# 3 57.8752 39.8983 194.0957 -23.6915 -1.2161 18.8943
# 4 2.1736 -2.3555 -23.6915 38.2746 6.5079 5.5109
# 5 -6.1423 6.9305 -1.2161 6.5079 47.1811 5.5434
# 6 36.6451 17.5710 18.8943 5.5109 5.5434 40.3508
#
#
#
# Elastic Compliance Matrix: (Units=1/GPa)
#
#
# Indices 1 2 3 4 5 6 
#
# 1 0.006877 -0.001045 -0.001421 -0.000877 0.001749 -0.005246
# 2 -0.001045 0.012993 -0.001962 0.000460 -0.001734 -0.003615
# 3 -0.001421 -0.001962 0.006657 0.004326 -0.000141 -0.001543
# 4 -0.000877 0.000460 0.004326 0.030231 -0.003646 -0.005058
# 5 0.001749 -0.001734 -0.000141 -0.003646 0.022573 -0.003371
# 6 -0.005246 -0.003615 -0.001543 -0.005058 -0.003371 0.032997
#
#
# Mechanical properties :
#
#
# Convention : Reuss Voigt Hill
#
# Bulk Modulus (GPa) = 56.59122 82.27419 69.43270
# Shear Modulus (GPa) = 39.34684 48.27158 43.80921
#
# Velocity S-wave (km/s) = 3.98575 4.41469 4.20569
# Velocity P-wave (km/s) = 6.63552 7.69441 7.18450
#
# Compressibility (1/GPa) = 0.01767059
#
# Stress axis : x y z
#
# Youngs Moduli (GPa) = 145.41015 76.96256 150.22465
#
# Poissons Ratio (x) = 0.08041 0.21351
# Poissons Ratio (y) = 0.15192 0.29478
# Poissons Ratio (z) = 0.20667 0.15102
#
# Static dielectric constant tensor:
#      x y z
#    x 2.069080 -0.073590 0.006630 
#    y -0.073590 2.110680 -0.040320 
#    z 0.006630 -0.040320 1.929390 
# 
# From -- ./inp_files/320288.got.cif
#   From: 2010.05.17/outbox.cif.g08.bks.cpg/sg2_161_cif.got.tgz:320288.got - 2010.06.03 11:33:40.
