data_PCOD9027046
_publ_section_title
;
Structure prediction by ZEFSAII (Michael W. Deem and Ramdas Pophale) SiO2 
 PCOD9027046
Probable space group: P -1
;
_chemical_formula_sum "Si O2"
_cell_formula_units_Z 15
_cell_length_a 12.069680
_cell_length_b 9.432956
_cell_length_c 10.222572
_cell_angle_alpha 94.703248
_cell_angle_beta 89.213702
_cell_angle_gamma 35.548536
_cell_volume 667.856040
_symmetry_space_group_name_H-M "P -1"
_symmetry_group_IT_number 2
_symmetry_cell_setting 'triclinic'
loop_
_space_group_symop_operation_xyz
x,y,z
-x,-y,-z
loop_
_atom_site_type_symbol
_atom_site_label
_atom_site_fract_x
_atom_site_fract_y
_atom_site_fract_z
Si Si1 0.073275 0.905876 0.703250
Si Si2 0.226791 0.314813 0.227624
Si Si3 0.501946 0.595365 0.288121
Si Si4 0.168461 0.019504 0.474699
Si Si5 0.929064 0.819440 0.127181
Si Si6 0.364733 0.897375 0.061184
Si Si7 0.501086 0.269297 0.233044
Si Si8 0.000000 0.500000 0.500000
O O1 0.268982 0.628665 0.728460
O O2 0.925688 0.947638 0.652860
O O3 0.133414 0.939916 0.580749
O O4 0.002268 0.095692 0.824535
O O5 0.358419 0.062056 0.132102
O O6 0.359923 0.297541 0.288741
O O7 0.114217 0.353930 0.347477
O O8 0.083353 0.541103 0.144509
O O9 0.459512 0.471664 0.296229
O O10 0.393697 0.793850 0.419567
O O11 0.425287 0.727968 0.160555
O O12 0.064592 0.273265 0.531307
O O13 0.729085 0.000548 0.225335
O O14 0.845093 0.907543 0.988075
O O15 0.510454 0.725766 0.924739
#
# Coordination Sequence:
#
# PCOD9027046 Si02
#       8
#     2   2   2   2   2   2   2   1
#     4  10  22  41  68  88 129 167 216 252 328 375
#     4  12  21  46  62  92 130 178 204 264 320 370
#     4  11  21  43  64  98 126 164 210 271 308 373
#     4  11  23  44  63  93 125 172 210 266 313 379
#     4   9  21  40  67  94 125 169 208 263 315 383
#     4  10  22  41  66  95 135 160 215 262 311 379
#     4   9  23  38  67  92 126 169 208 255 318 384
#     4  12  26  42  68  92 134 160 220 274 298 378
#
# _framework density 22.459931999999998
#
# number of rings (size 3 to 8) (size 9 to 14) (size 15 to 20)
#    0.800    0.800    2.667    2.400    1.867    0.000 
#    4.800    2.667    0.000    0.000    0.000    0.000 
#    0.000    0.000    0.000    0.000    0.000    0.000 
#
# Total GULP energy -83533.524162 kJ/mol
# GULP energy per Si atom -5568.901611 kJ/mol
# Density = 2.240881 g / cm^3
# Si number density = 22.459932 Si / 1000 Ang^3
#
#
#
# Elastic Constant Matrix: (Units=GPa)
#
#
# Indices 1 2 3 4 5 6 
#
# 1 32.9369 26.5385 11.0037 -16.5142 10.1396 1.0539
# 2 26.5385 87.1080 13.2143 -5.4922 8.3897 5.5443
# 3 11.0037 13.2143 41.1492 -11.8822 -1.7766 -3.5054
# 4 -16.5142 -5.4922 -11.8822 40.0258 -5.2593 2.5964
# 5 10.1396 8.3897 -1.7766 -5.2593 22.2622 0.3325
# 6 1.0539 5.5443 -3.5054 2.5964 0.3325 13.4077
#
#
#
# Elastic Compliance Matrix: (Units=1/GPa)
#
#
# Indices 1 2 3 4 5 6 
#
# 1 0.058280 -0.013593 -0.007116 0.017996 -0.017681 -0.003867
# 2 -0.013593 0.016341 -0.003344 -0.004134 -0.001125 -0.005735
# 3 -0.007116 -0.003344 0.030106 0.006075 0.008213 0.008433
# 4 0.017996 -0.004134 0.006075 0.034219 0.002002 -0.004793
# 5 -0.017681 -0.001125 0.008213 0.002002 0.054491 0.002263
# 6 -0.003867 -0.005735 0.008433 -0.004793 0.002263 0.080336
#
#
# Mechanical properties :
#
#
# Convention : Reuss Voigt Hill
#
# Bulk Modulus (GPa) = 17.66096 29.18967 23.42531
# Shear Modulus (GPa) = 14.67347 22.50165 18.58756
#
# Velocity S-wave (km/s) = 2.55878 3.16865 2.87990
# Velocity P-wave (km/s) = 4.07556 5.13923 4.63799
#
# Compressibility (1/GPa) = 0.05662206
#
# Stress axis : x y z
#
# Youngs Moduli (GPa) = 17.15849 61.19531 33.21648
#
# Poissons Ratio (x) = 0.83180 0.23637
# Poissons Ratio (y) = 0.23323 0.11107
# Poissons Ratio (z) = 0.12210 0.20463
#
# Static dielectric constant tensor:
#      x y z
#    x 1.880640 -0.051530 -0.003590 
#    y -0.051530 1.809120 0.005080 
#    z -0.003590 0.005080 1.863370 
# 
# From -- ./inp_files/415224.got.cif
#   From: 2010.05.17/outbox.cif.g08.bks.cpg/sg2_208_cif.got.tgz:415224.got - 2010.06.03 11:33:40.
