data_PCOD9027633
_publ_section_title
;
Structure prediction by ZEFSAII (Michael W. Deem and Ramdas Pophale) SiO2 
 PCOD9027633
Probable space group: P -1
;
_chemical_formula_sum "Si O2"
_cell_formula_units_Z 14
_cell_length_a 17.030700
_cell_length_b 5.873353
_cell_length_c 5.812116
_cell_angle_alpha 71.972538
_cell_angle_beta 96.878617
_cell_angle_gamma 83.092967
_cell_volume 541.176111
_symmetry_space_group_name_H-M "P -1"
_symmetry_group_IT_number 2
_symmetry_cell_setting 'triclinic'
loop_
_space_group_symop_operation_xyz
x,y,z
-x,-y,-z
loop_
_atom_site_type_symbol
_atom_site_label
_atom_site_fract_x
_atom_site_fract_y
_atom_site_fract_z
Si Si1 0.719680 0.287595 0.592332
Si Si2 0.144688 0.961160 0.576675
Si Si3 0.188845 0.542274 0.062663
Si Si4 0.272890 0.213340 0.816227
Si Si5 0.556509 0.208547 0.470228
Si Si6 0.959898 0.581779 0.710776
Si Si7 0.564544 0.178612 0.980562
O O1 0.735123 0.355427 0.837952
O O2 0.703267 0.545709 0.371331
O O3 0.653113 0.127307 0.551876
O O4 0.804279 0.145987 0.587516
O O5 0.203608 0.111559 0.685771
O O6 0.065016 0.129606 0.414292
O O7 0.139336 0.734054 0.810009
O O8 0.127311 0.496312 0.252801
O O9 0.228978 0.308558 0.007719
O O10 0.351494 0.010079 0.927770
O O11 0.554100 0.314314 0.178550
O O12 0.500000 0.000000 0.500000
O O13 0.549632 0.327247 0.688661
O O14 0.000000 0.500000 0.500000
O O15 0.000000 0.500000 0.000000
O O16 0.500000 0.000000 0.000000
#
# Coordination Sequence:
#
# PCOD9027633 Si02
#       7
#     2   2   2   2   2   2   2
#     4  11  24  42  75 109 138 197 261 299 367 444
#     4  11  25  47  77 102 152 198 243 316 362 447
#     4  11  27  45  77 114 140 201 260 296 380 448
#     4  11  23  44  73 106 146 193 260 308 359 446
#     4  10  22  42  67 100 145 190 238 300 373 424
#     4  12  29  51  75 112 156 190 241 309 382 459
#     4  10  22  41  68  97 143 195 235 303 376 418
#
# _framework density 25.869579999999999
#
# number of rings (size 3 to 8) (size 9 to 14) (size 15 to 20)
#    0.000    1.143    2.857    1.714   12.000    1.143 
#    0.000    5.714    0.000    0.000    0.000    0.000 
#    0.000    0.000    0.000    0.000    0.000    0.000 
#
# Total GULP energy -78144.192793 kJ/mol
# GULP energy per Si atom -5581.728057 kJ/mol
# Density = 2.581070 g / cm^3
# Si number density = 25.869580 Si / 1000 Ang^3
#
#
#
# Elastic Constant Matrix: (Units=GPa)
#
#
# Indices 1 2 3 4 5 6 
#
# 1 131.5142 53.8128 50.8780 -4.4137 2.8682 0.0310
# 2 53.8128 95.2901 70.4824 11.3010 4.5181 -22.3467
# 3 50.8780 70.4824 225.8189 1.6363 5.0776 -38.6844
# 4 -4.4137 11.3010 1.6363 73.3391 -0.1581 4.2202
# 5 2.8682 4.5181 5.0776 -0.1581 44.8214 5.4675
# 6 0.0310 -22.3467 -38.6844 4.2202 5.4675 43.2715
#
#
#
# Elastic Compliance Matrix: (Units=1/GPa)
#
#
# Indices 1 2 3 4 5 6 
#
# 1 0.010833 -0.006598 -0.001234 0.001974 0.000704 -0.004800
# 2 -0.006598 0.018753 -0.002984 -0.003664 -0.002075 0.007641
# 3 -0.001234 -0.002984 0.006391 -0.000005 -0.000867 0.004283
# 4 0.001974 -0.003664 -0.000005 0.014516 0.000710 -0.003404
# 5 0.000704 -0.002075 -0.000867 0.000710 0.023166 -0.004843
# 6 -0.004800 0.007641 0.004283 -0.003404 -0.004843 0.031832
#
#
# Mechanical properties :
#
#
# Convention : Reuss Voigt Hill
#
# Bulk Modulus (GPa) = 69.71437 89.21882 79.46660
# Shear Modulus (GPa) = 37.90607 50.78307 44.34457
#
# Velocity S-wave (km/s) = 3.83204 4.43543 4.14473
# Velocity P-wave (km/s) = 6.82542 7.79702 7.32734
#
# Compressibility (1/GPa) = 0.01434424
#
# Stress axis : x y z
#
# Youngs Moduli (GPa) = 92.31204 53.32593 156.46993
#
# Poissons Ratio (x) = 0.35185 0.19302
# Poissons Ratio (y) = 0.60909 0.46696
# Poissons Ratio (z) = 0.11388 0.15914
#
# Static dielectric constant tensor:
#      x y z
#    x 2.066750 -0.004610 -0.067250 
#    y -0.004610 2.096300 -0.044830 
#    z -0.067250 -0.044830 2.110820 
# 
# From -- ./inp_files/7410.got.cif
#   From: 2010.05.17/outbox.cif.g08.bks.cpg/sg2_4_cif.got.tgz:7410.got - 2010.06.03 11:33:40.
