data_PCOD9027304
_publ_section_title
;
Structure prediction by ZEFSAII (Michael W. Deem and Ramdas Pophale) SiO2 
 PCOD9027304
Probable space group: P -1
;
_chemical_formula_sum "Si O2"
_cell_formula_units_Z 16
_cell_length_a 11.997728
_cell_length_b 13.902327
_cell_length_c 11.765166
_cell_angle_alpha 29.518478
_cell_angle_beta 101.031572
_cell_angle_gamma 118.741198
_cell_volume 721.181857
_symmetry_space_group_name_H-M "P -1"
_symmetry_group_IT_number 2
_symmetry_cell_setting 'triclinic'
loop_
_space_group_symop_operation_xyz
x,y,z
-x,-y,-z
loop_
_atom_site_type_symbol
_atom_site_label
_atom_site_fract_x
_atom_site_fract_y
_atom_site_fract_z
Si Si1 0.718702 0.776750 0.736650
Si Si2 0.974352 0.335213 0.271100
Si Si3 0.481784 0.434448 0.697004
Si Si4 0.526311 0.316620 0.347635
Si Si5 0.203676 0.626154 0.618195
Si Si6 0.248638 0.413200 0.289614
Si Si7 0.027752 0.957045 0.870815
Si Si8 0.851525 0.086420 0.833575
O O1 0.622960 0.847007 0.589333
O O2 0.720398 0.613741 0.806359
O O3 0.884187 0.037356 0.527780
O O4 0.629630 0.591051 0.017753
O O5 0.866757 0.322238 0.350753
O O6 0.137994 0.471569 0.211018
O O7 0.000000 0.500000 0.000000
O O8 0.500000 0.500000 0.500000
O O9 0.509231 0.644025 0.573766
O O10 0.601099 0.408453 0.791111
O O11 0.312387 0.182804 0.942731
O O12 0.624995 0.233872 0.466645
O O13 0.113653 0.323860 0.908115
O O14 0.166358 0.707343 0.414064
O O15 0.148969 0.132728 0.617666
O O16 0.103056 0.915721 0.027989
O O17 0.968645 0.095654 0.769420
#
# Coordination Sequence:
#
# PCOD9027304 Si02
#       8
#     2   2   2   2   2   2   2   2
#     4  10  22  42  67  92 132 178 220 262 334 385
#     4  12  24  38  60  98 133 167 218 276 325 382
#     4  11  22  43  68  94 133 174 219 263 330 392
#     4  10  22  41  67  95 129 175 215 272 325 394
#     4  12  23  39  66  99 130 165 225 270 323 393
#     4  11  22  41  69  96 133 178 216 271 328 389
#     4  11  22  42  66  92 136 173 218 264 323 396
#     4  11  23  41  67  93 130 180 214 265 326 392
#
# _framework density 22.185805999999999
#
# number of rings (size 3 to 8) (size 9 to 14) (size 15 to 20)
#    0.000    1.000    3.750    3.750    0.000    1.500 
#    2.250    0.625    0.000    0.000    0.000    0.000 
#    0.000    0.000    0.000    0.000    0.000    0.000 
#
# Total GULP energy -89443.931691 kJ/mol
# GULP energy per Si atom -5590.245731 kJ/mol
# Density = 2.213531 g / cm^3
# Si number density = 22.185806 Si / 1000 Ang^3
#
#
#
# Elastic Constant Matrix: (Units=GPa)
#
#
# Indices 1 2 3 4 5 6 
#
# 1 129.4041 36.4040 3.5595 21.9134 -4.9898 35.0304
# 2 36.4040 88.4382 3.9802 20.1444 -6.4758 17.0018
# 3 3.5595 3.9802 48.8722 22.0557 -3.2291 -0.4147
# 4 21.9134 20.1444 22.0557 34.7327 2.7500 -7.6589
# 5 -4.9898 -6.4758 -3.2291 2.7500 30.5404 2.1959
# 6 35.0304 17.0018 -0.4147 -7.6589 2.1959 43.5281
#
#
#
# Elastic Compliance Matrix: (Units=1/GPa)
#
#
# Indices 1 2 3 4 5 6 
#
# 1 0.015107 0.001536 0.007915 -0.019599 0.006579 -0.016463
# 2 0.001536 0.017426 0.007386 -0.018915 0.007269 -0.011667
# 3 0.007915 0.007386 0.036532 -0.036881 0.011190 -0.015960
# 4 -0.019599 -0.018915 -0.036881 0.085863 -0.021649 0.039010
# 5 0.006579 0.007269 0.011190 -0.021649 0.039487 -0.013829
# 6 -0.016463 -0.011667 -0.015960 0.039010 -0.013829 0.048189
#
#
# Mechanical properties :
#
#
# Convention : Reuss Voigt Hill
#
# Bulk Modulus (GPa) = 9.73334 39.40020 24.56677
# Shear Modulus (GPa) = 20.56124 36.61163 28.58643
#
# Velocity S-wave (km/s) = 3.04760 4.06671 3.59346
# Velocity P-wave (km/s) = 4.09641 6.31257 5.32114
#
# Compressibility (1/GPa) = 0.10273962
#
# Stress axis : x y z
#
# Youngs Moduli (GPa) = 66.19386 57.38471 27.37358
#
# Poissons Ratio (x) = -0.08816 -0.21665
# Poissons Ratio (y) = -0.10169 -0.20219
# Poissons Ratio (z) = -0.52391 -0.42387
#
# Static dielectric constant tensor:
#      x y z
#    x 1.844910 0.024700 0.030460 
#    y 0.024700 1.830020 0.008790 
#    z 0.030460 0.008790 1.815000 
# 
# From -- ./inp_files/273516.got.cif
#   From: 2010.05.17/outbox.cif.g08.bks.cpg/sg2_137_cif.got.tgz:273516.got - 2010.06.03 11:33:40.
