data_PCOD9027545
_publ_section_title
;
Structure prediction by ZEFSAII (Michael W. Deem and Ramdas Pophale) SiO2 
 PCOD9027545
Probable space group: P -1
;
_chemical_formula_sum "Si O2"
_cell_formula_units_Z 14
_cell_length_a 14.568576
_cell_length_b 9.521097
_cell_length_c 12.327288
_cell_angle_alpha 54.968817
_cell_angle_beta 49.872812
_cell_angle_gamma 26.099699
_cell_volume 575.121457
_symmetry_space_group_name_H-M "P -1"
_symmetry_group_IT_number 2
_symmetry_cell_setting 'triclinic'
loop_
_space_group_symop_operation_xyz
x,y,z
-x,-y,-z
loop_
_atom_site_type_symbol
_atom_site_label
_atom_site_fract_x
_atom_site_fract_y
_atom_site_fract_z
Si Si1 0.713216 0.711103 0.313290
Si Si2 0.850168 0.903596 0.449363
Si Si3 0.687628 0.228246 0.890642
Si Si4 0.415262 0.273865 0.995790
Si Si5 0.071584 0.462118 0.285347
Si Si6 0.794213 0.343613 0.227183
Si Si7 0.651479 0.599380 0.631793
O O1 0.730913 0.577139 0.251531
O O2 0.643686 0.665057 0.483946
O O3 0.949350 0.512498 0.257306
O O4 0.532169 0.080610 0.298364
O O5 0.781710 0.853177 0.618391
O O6 0.875320 0.768692 0.378057
O O7 0.105955 0.634562 0.407850
O O8 0.743979 0.217657 0.374037
O O9 0.627283 0.108644 0.960161
O O10 0.645365 0.405055 0.742839
O O11 0.500000 0.500000 0.000000
O O12 0.937815 0.960557 0.857077
O O13 0.317024 0.507279 0.871008
O O14 0.217593 0.449584 0.146879
O O15 0.500000 0.000000 0.000000
#
# Coordination Sequence:
#
# PCOD9027545 Si02
#       7
#     2   2   2   2   2   2   2
#     4  10  22  41  71  94 131 175 224 280 336 395
#     4   9  21  43  69  96 127 175 225 281 331 391
#     4  11  26  45  70  97 138 181 225 273 333 411
#     4  12  28  43  65 105 141 175 220 281 341 398
#     4  10  22  41  68  93 134 173 224 273 335 399
#     4  11  26  45  70 100 136 180 225 280 338 396
#     4   9  21  42  68  97 128 173 229 275 334 398
#
# _framework density 24.342686
#
# number of rings (size 3 to 8) (size 9 to 14) (size 15 to 20)
#    0.000    1.714    0.000    2.571    8.000    8.571 
#    0.000    1.429    0.000    0.000    0.000    0.000 
#    0.000    0.000    0.000    0.000    0.000    0.000 
#
# Total GULP energy -78388.067737 kJ/mol
# GULP energy per Si atom -5599.147696 kJ/mol
# Density = 2.428728 g / cm^3
# Si number density = 24.342686 Si / 1000 Ang^3
#
#
#
# Elastic Constant Matrix: (Units=GPa)
#
#
# Indices 1 2 3 4 5 6 
#
# 1 75.0870 -5.1327 22.0901 -1.2537 -15.7423 5.6397
# 2 -5.1327 51.1742 10.7478 -1.8934 -9.0767 -9.6972
# 3 22.0901 10.7478 71.6998 -4.4121 -7.6663 -11.1244
# 4 -1.2537 -1.8934 -4.4121 39.4572 3.7596 -4.1361
# 5 -15.7423 -9.0767 -7.6663 3.7596 31.7709 -5.7353
# 6 5.6397 -9.6972 -11.1244 -4.1361 -5.7353 35.6865
#
#
#
# Elastic Compliance Matrix: (Units=1/GPa)
#
#
# Indices 1 2 3 4 5 6 
#
# 1 0.016948 0.003785 -0.005328 -0.000853 0.007908 -0.002139
# 2 0.003785 0.023318 -0.002656 0.000763 0.008968 0.006440
# 3 -0.005328 -0.002656 0.017214 0.002104 0.001587 0.005985
# 4 -0.000853 0.000763 0.002104 0.026178 -0.002129 0.003690
# 5 0.007908 0.008968 0.001587 -0.002129 0.040011 0.007865
# 6 -0.002139 0.006440 0.005985 0.003690 0.007865 0.033667
#
#
# Mechanical properties :
#
#
# Convention : Reuss Voigt Hill
#
# Bulk Modulus (GPa) = 20.37415 28.15237 24.26326
# Shear Modulus (GPa) = 27.45801 32.73331 30.09566
#
# Velocity S-wave (km/s) = 3.36218 3.67098 3.51997
# Velocity P-wave (km/s) = 4.84358 5.43675 5.14871
#
# Compressibility (1/GPa) = 0.04908181
#
# Stress axis : x y z
#
# Youngs Moduli (GPa) = 59.00269 42.88565 58.09096
#
# Poissons Ratio (x) = -0.16231 0.30949
# Poissons Ratio (y) = -0.22331 0.15431
# Poissons Ratio (z) = 0.31435 0.11392
#
# Static dielectric constant tensor:
#      x y z
#    x 2.795360 -0.665470 -0.624350 
#    y -0.665470 2.437860 0.489980 
#    z -0.624350 0.489980 2.523730 
# 
# From -- ./inp_files/446920.got.cif
#   From: 2010.05.17/outbox.cif.g08.bks.cpg/sg2_224_cif.got.tgz:446920.got - 2010.06.03 11:33:40.
