data_PCOD9027669
_publ_section_title
;
Structure prediction by ZEFSAII (Michael W. Deem and Ramdas Pophale) SiO2 
 PCOD9027669
Probable space group: P -1
;
_chemical_formula_sum "Si O2"
_cell_formula_units_Z 16
_cell_length_a 13.440962
_cell_length_b 10.365626
_cell_length_c 11.624524
_cell_angle_alpha 43.683989
_cell_angle_beta 78.080776
_cell_angle_gamma 111.946665
_cell_volume 692.939528
_symmetry_space_group_name_H-M "P -1"
_symmetry_group_IT_number 2
_symmetry_cell_setting 'triclinic'
loop_
_space_group_symop_operation_xyz
x,y,z
-x,-y,-z
loop_
_atom_site_type_symbol
_atom_site_label
_atom_site_fract_x
_atom_site_fract_y
_atom_site_fract_z
Si Si1 0.737288 0.188089 0.097266
Si Si2 0.422095 0.953338 0.294796
Si Si3 0.321311 0.215219 0.778502
Si Si4 0.054361 0.831785 0.588986
Si Si5 0.492037 0.766816 0.117741
Si Si6 0.049711 0.086669 0.227045
Si Si7 0.197619 0.373646 0.598703
Si Si8 0.229948 0.718356 0.706403
O O1 0.741079 0.170751 0.243368
O O2 0.557116 0.985495 0.235966
O O3 0.778194 0.058390 0.106071
O O4 0.863097 0.525702 0.813098
O O5 0.262127 0.657486 0.455779
O O6 0.383261 0.930271 0.450743
O O7 0.498572 0.227291 0.025473
O O8 0.500000 0.500000 0.500000
O O9 0.363410 0.153597 0.919806
O O10 0.222238 0.264781 0.768628
O O11 0.063331 0.964514 0.618975
O O12 0.119520 0.717963 0.672922
O O13 0.124158 0.037719 0.328423
O O14 0.326996 0.482979 0.402599
O O15 0.500000 0.000000 0.000000
O O16 0.961670 0.860378 0.287726
O O17 0.157353 0.407641 0.942429
#
# Coordination Sequence:
#
# PCOD9027669 Si02
#       8
#     2   2   2   2   2   2   2   2
#     4  11  19  38  67  86 115 159 205 249 295 351
#     4  11  22  37  58  90 125 156 187 247 315 356
#     4  10  17  31  58  90 112 143 199 253 292 338
#     4  10  22  40  66  88 114 162 214 244 285 355
#     4   9  17  32  53  85 115 148 196 243 289 350
#     4  10  21  40  63  87 116 161 208 251 284 350
#     4  10  19  35  60  87 116 151 204 253 295 345
#     4  11  24  41  58  89 129 162 194 240 307 369
#
# _framework density 23.090038
#
# number of rings (size 3 to 8) (size 9 to 14) (size 15 to 20)
#    0.000    1.750    3.750    4.125    1.750    0.500 
#    2.250    0.625    0.000   11.250    0.000    0.000 
#    0.000    0.000    0.000    0.000    0.000    0.000 
#
# Total GULP energy -89186.127147 kJ/mol
# GULP energy per Si atom -5574.132947 kJ/mol
# Density = 2.303748 g / cm^3
# Si number density = 23.090038 Si / 1000 Ang^3
#
#
#
# Elastic Constant Matrix: (Units=GPa)
#
#
# Indices 1 2 3 4 5 6 
#
# 1 31.9642 12.5889 35.0347 18.6148 22.1107 17.5823
# 2 12.5889 33.2265 18.6294 -2.4333 8.1231 16.0798
# 3 35.0347 18.6294 77.9063 30.1555 26.5115 7.7339
# 4 18.6148 -2.4333 30.1555 34.7346 8.1069 3.6634
# 5 22.1107 8.1231 26.5115 8.1069 27.9658 9.8609
# 6 17.5823 16.0798 7.7339 3.6634 9.8609 23.2530
#
#
#
# Elastic Compliance Matrix: (Units=1/GPa)
#
#
# Indices 1 2 3 4 5 6 
#
# 1 0.248403 0.021586 -0.053884 -0.049567 -0.087946 -0.139726
# 2 0.021586 0.070975 -0.034080 0.027546 0.008507 -0.062014
# 3 -0.053884 -0.034080 0.051264 -0.021655 -0.009038 0.054504
# 4 -0.049567 0.027546 -0.021655 0.068620 0.031276 0.001560
# 5 -0.087946 0.008507 -0.009038 0.031276 0.095976 0.017994
# 6 -0.139726 -0.062014 0.054504 0.001560 0.017994 0.165535
#
#
# Mechanical properties :
#
#
# Convention : Reuss Voigt Hill
#
# Bulk Modulus (GPa) = 4.20371 30.62255 17.41313
# Shear Modulus (GPa) = 5.47750 22.31363 13.89557
#
# Velocity S-wave (km/s) = 1.54188 3.11203 2.45582
# Velocity P-wave (km/s) = 2.23481 5.11898 3.94958
#
# Compressibility (1/GPa) = 0.23788532
#
# Stress axis : x y z
#
# Youngs Moduli (GPa) = 4.02572 14.08952 19.50681
#
# Poissons Ratio (x) = -0.30414 1.05111
# Poissons Ratio (y) = -0.08690 0.66480
# Poissons Ratio (z) = 0.21692 0.48017
#
# Static dielectric constant tensor:
#      x y z
#    x 1.935550 -0.000480 0.016470 
#    y -0.000480 1.897890 0.001340 
#    z 0.016470 0.001340 1.948440 
# 
# From -- ./inp_files/256798.got.cif
#   From: 2010.05.17/outbox.cif.g08.bks.cpg/sg2_129_cif.got.tgz:256798.got - 2010.06.03 11:33:40.
