data_PCOD9027851
_publ_section_title
;
Structure prediction by ZEFSAII (Michael W. Deem and Ramdas Pophale) SiO2 
 PCOD9027851
Probable space group: P -1
;
_chemical_formula_sum "Si O2"
_cell_formula_units_Z 14
_cell_length_a 11.587055
_cell_length_b 9.097276
_cell_length_c 9.364085
_cell_angle_alpha 123.393690
_cell_angle_beta 128.083010
_cell_angle_gamma 69.320704
_cell_volume 648.536913
_symmetry_space_group_name_H-M "P -1"
_symmetry_group_IT_number 2
_symmetry_cell_setting 'triclinic'
loop_
_space_group_symop_operation_xyz
x,y,z
-x,-y,-z
loop_
_atom_site_type_symbol
_atom_site_label
_atom_site_fract_x
_atom_site_fract_y
_atom_site_fract_z
Si Si1 0.876512 0.581173 0.589903
Si Si2 0.618826 0.119352 0.228288
Si Si3 0.937119 0.751605 0.454025
Si Si4 0.431045 0.480158 0.590923
Si Si5 0.942361 0.173498 0.967978
Si Si6 0.608370 0.141687 0.584157
Si Si7 0.101072 0.100866 0.778003
O O1 0.837057 0.683894 0.468289
O O2 0.733000 0.591749 0.581322
O O3 0.922579 0.378655 0.492647
O O4 0.021052 0.668724 0.812214
O O5 0.587422 0.320232 0.261935
O O6 0.616580 0.115611 0.400868
O O7 0.765196 0.031143 0.225969
O O8 0.500000 0.000000 0.000000
O O9 0.888737 0.747792 0.251981
O O10 0.969881 0.958219 0.601627
O O11 0.500000 0.500000 0.500000
O O12 0.533180 0.332429 0.662664
O O13 0.774836 0.149156 0.777009
O O14 0.059766 0.196765 0.943091
O O15 0.000000 0.000000 0.000000
O O16 0.500000 0.000000 0.500000
#
# Coordination Sequence:
#
# PCOD9027851 Si02
#       7
#     2   2   2   2   2   2   2
#     4  11  23  43  70 102 137 181 236 290 349 407
#     4  11  26  46  71  99 140 187 233 284 358 419
#     4  10  22  41  69  97 135 179 224 300 336 400
#     4  10  24  45  69  98 142 182 227 287 351 422
#     4  12  26  42  72 104 137 184 236 284 346 413
#     4  11  26  47  72 102 141 184 231 289 351 422
#     4  11  23  42  68  99 141 174 239 280 345 408
#
# _framework density 21.587050999999999
#
# number of rings (size 3 to 8) (size 9 to 14) (size 15 to 20)
#    0.000    1.143    2.857    2.571   10.000    1.714 
#    0.000    0.714    0.000    0.000    0.000    0.000 
#    0.000    0.000    0.000    0.000    0.000    0.000 
#
# Total GULP energy -77962.283707 kJ/mol
# GULP energy per Si atom -5568.734551 kJ/mol
# Density = 2.153792 g / cm^3
# Si number density = 21.587051 Si / 1000 Ang^3
#
#
#
# Elastic Constant Matrix: (Units=GPa)
#
#
# Indices 1 2 3 4 5 6 
#
# 1 139.0071 50.1991 45.8089 -8.2968 8.7463 -1.5018
# 2 50.1991 148.5341 48.7071 -5.8929 11.5663 4.1541
# 3 45.8089 48.7071 111.7840 -6.7709 13.5682 0.8258
# 4 -8.2968 -5.8929 -6.7709 15.7258 1.7905 0.1606
# 5 8.7463 11.5663 13.5682 1.7905 30.0252 -1.9430
# 6 -1.5018 4.1541 0.8258 0.1606 -1.9430 34.1094
#
#
#
# Elastic Compliance Matrix: (Units=1/GPa)
#
#
# Indices 1 2 3 4 5 6 
#
# 1 0.009002 -0.002052 -0.002518 0.002984 -0.000830 0.000646
# 2 -0.002052 0.008477 -0.002572 0.001187 -0.001652 -0.001160
# 3 -0.002518 -0.002572 0.011756 0.003205 -0.003800 -0.000314
# 4 0.002984 0.001187 0.003205 0.067779 -0.006869 -0.000801
# 5 -0.000830 -0.001652 -0.003800 -0.006869 0.036463 0.002366
# 6 0.000646 -0.001160 -0.000314 -0.000801 0.002366 0.029633
#
#
# Mechanical properties :
#
#
# Convention : Reuss Voigt Hill
#
# Bulk Modulus (GPa) = 66.88304 76.52837 71.70570
# Shear Modulus (GPa) = 27.41541 32.94607 30.18074
#
# Velocity S-wave (km/s) = 3.56756 3.91089 3.74317
# Velocity P-wave (km/s) = 6.92966 7.47807 7.20908
#
# Compressibility (1/GPa) = 0.01495147
#
# Stress axis : x y z
#
# Youngs Moduli (GPa) = 111.08674 117.96048 85.06124
#
# Poissons Ratio (x) = 0.24200 0.21421
# Poissons Ratio (y) = 0.22790 0.21879
# Poissons Ratio (z) = 0.27975 0.30342
#
# Static dielectric constant tensor:
#      x y z
#    x 1.883950 -0.002870 -0.012070 
#    y -0.002870 1.813470 -0.018260 
#    z -0.012070 -0.018260 1.886000 
# 
# From -- ./inp_files/245712.got.cif
#   From: 2010.05.17/outbox.cif.g08.bks.cpg/sg2_123_cif.got.tgz:245712.got - 2010.06.03 11:33:40.
