data_PCOD9027094
_publ_section_title
;
Structure prediction by ZEFSAII (Michael W. Deem and Ramdas Pophale) SiO2 
 PCOD9027094
Probable space group: P -1
;
_chemical_formula_sum "Si O2"
_cell_formula_units_Z 16
_cell_length_a 13.695580
_cell_length_b 9.139019
_cell_length_c 14.260642
_cell_angle_alpha 80.232446
_cell_angle_beta 147.001291
_cell_angle_gamma 77.095314
_cell_volume 701.364740
_symmetry_space_group_name_H-M "P -1"
_symmetry_group_IT_number 2
_symmetry_cell_setting 'triclinic'
loop_
_space_group_symop_operation_xyz
x,y,z
-x,-y,-z
loop_
_atom_site_type_symbol
_atom_site_label
_atom_site_fract_x
_atom_site_fract_y
_atom_site_fract_z
Si Si1 0.141914 0.341393 0.048818
Si Si2 0.293523 0.957641 0.453303
Si Si3 0.906973 0.687826 0.172056
Si Si4 0.602648 0.375820 0.193845
Si Si5 0.397296 0.977943 0.731425
Si Si6 0.907463 0.716780 0.384208
Si Si7 0.076912 0.803747 0.037135
Si Si8 0.423390 0.540435 0.629091
O O1 0.422070 0.164823 0.323720
O O2 0.989757 0.275696 0.927385
O O3 0.110370 0.429771 0.910097
O O4 0.000000 0.500000 0.000000
O O5 0.234021 0.055544 0.497649
O O6 0.312714 0.767266 0.496038
O O7 0.105906 0.114012 0.206866
O O8 0.824953 0.744263 0.208181
O O9 0.190988 0.565895 0.424322
O O10 0.651681 0.909434 0.907735
O O11 0.575740 0.211843 0.194753
O O12 0.493845 0.503309 0.189990
O O13 0.883324 0.274973 0.438811
O O14 0.500000 0.500000 0.000000
O O15 0.285819 0.132560 0.708961
O O16 0.000000 0.500000 0.500000
O O17 0.350905 0.626792 0.238471
O O18 0.000000 0.000000 0.000000
#
# Coordination Sequence:
#
# PCOD9027094 Si02
#       8
#     2   2   2   2   2   2   2   2
#     4  11  23  43  69  91 129 176 215 274 325 380
#     4  10  23  44  68  98 129 168 227 270 325 388
#     4  10  23  42  64  95 130 173 215 269 329 380
#     4  10  22  41  66  97 127 176 219 265 329 386
#     4  10  22  43  69  96 131 172 219 270 324 396
#     4  11  23  41  64 100 136 172 211 269 335 393
#     4  12  26  42  67 100 129 175 222 267 334 390
#     4  10  23  45  65  97 136 172 214 277 327 387
#
# _framework density 22.812666
#
# number of rings (size 3 to 8) (size 9 to 14) (size 15 to 20)
#    0.000    1.500    1.250    2.625    3.500    2.000 
#   15.750    0.000    0.000    0.000    0.000    0.000 
#    0.000    0.000    0.000    0.000    0.000    0.000 
#
# Total GULP energy -89083.381943 kJ/mol
# GULP energy per Si atom -5567.711371 kJ/mol
# Density = 2.276074 g / cm^3
# Si number density = 22.812666 Si / 1000 Ang^3
#
#
#
# Elastic Constant Matrix: (Units=GPa)
#
#
# Indices 1 2 3 4 5 6 
#
# 1 84.5271 35.7986 41.8748 1.7416 9.3882 -29.7263
# 2 35.7986 91.3389 29.0050 3.8109 5.3154 -22.8101
# 3 41.8748 29.0050 105.4137 14.1760 4.7088 -21.4982
# 4 1.7416 3.8109 14.1760 23.6378 -8.9787 -3.1136
# 5 9.3882 5.3154 4.7088 -8.9787 56.7062 2.4028
# 6 -29.7263 -22.8101 -21.4982 -3.1136 2.4028 38.9889
#
#
#
# Elastic Compliance Matrix: (Units=1/GPa)
#
#
# Indices 1 2 3 4 5 6 
#
# 1 0.019718 -0.003456 -0.004927 0.002478 -0.002590 0.010653
# 2 -0.003456 0.014027 -0.001332 -0.000948 -0.000986 0.004822
# 3 -0.004927 -0.001332 0.013387 -0.007711 -0.001490 0.002322
# 4 0.002478 -0.000948 -0.007711 0.050101 0.008227 0.000577
# 5 -0.002590 -0.000986 -0.001490 0.008227 0.019749 -0.003934
# 6 0.010653 0.004822 0.002322 0.000577 -0.003934 0.038160
#
#
# Mechanical properties :
#
#
# Convention : Reuss Voigt Hill
#
# Bulk Modulus (GPa) = 36.09765 54.95962 45.52864
# Shear Modulus (GPa) = 27.20265 35.50666 31.35466
#
# Velocity S-wave (km/s) = 3.45691 3.94946 3.71137
# Velocity P-wave (km/s) = 5.63840 6.70385 6.19408
#
# Compressibility (1/GPa) = 0.02770264
#
# Stress axis : x y z
#
# Youngs Moduli (GPa) = 50.71538 71.29208 74.69820
#
# Poissons Ratio (x) = 0.24638 0.36804
# Poissons Ratio (y) = 0.17527 0.09948
# Poissons Ratio (z) = 0.24987 0.09494
#
# Static dielectric constant tensor:
#      x y z
#    x 2.004610 0.052100 0.074780 
#    y 0.052100 1.999760 0.061260 
#    z 0.074780 0.061260 1.819090 
# 
# From -- ./inp_files/283189.got.cif
#   From: 2010.05.17/outbox.cif.g08.bks.cpg/sg2_142_cif.got.tgz:283189.got - 2010.06.03 11:33:40.
