data_PCOD9027397
_publ_section_title
;
Structure prediction by ZEFSAII (Michael W. Deem and Ramdas Pophale) SiO2 
 PCOD9027397
Probable space group: P -1
;
_chemical_formula_sum "Si O2"
_cell_formula_units_Z 14
_cell_length_a 7.355664
_cell_length_b 20.870600
_cell_length_c 5.199939
_cell_angle_alpha 84.350655
_cell_angle_beta 74.253353
_cell_angle_gamma 45.600250
_cell_volume 544.072373
_symmetry_space_group_name_H-M "P -1"
_symmetry_group_IT_number 2
_symmetry_cell_setting 'triclinic'
loop_
_space_group_symop_operation_xyz
x,y,z
-x,-y,-z
loop_
_atom_site_type_symbol
_atom_site_label
_atom_site_fract_x
_atom_site_fract_y
_atom_site_fract_z
Si Si1 0.372372 0.776172 0.303111
Si Si2 0.066717 0.053473 0.336353
Si Si3 0.895939 0.578416 0.699328
Si Si4 0.592486 0.592529 0.208997
Si Si5 0.179544 0.089866 0.780697
Si Si6 0.981118 0.310003 0.546819
Si Si7 0.755957 0.797108 0.006956
O O1 0.214766 0.841055 0.584108
O O2 0.555906 0.670895 0.333420
O O3 0.520788 0.801262 0.109185
O O4 0.127052 0.815056 0.197990
O O5 0.170359 0.034573 0.015322
O O6 0.245868 0.046988 0.487291
O O7 0.000000 0.000000 0.500000
O O8 0.000000 0.500000 0.500000
O O9 0.146106 0.514118 0.828570
O O10 0.895522 0.651045 0.583602
O O11 0.626582 0.614695 0.904142
O O12 0.334991 0.615509 0.379489
O O13 0.308105 0.118943 0.871512
O O14 0.042581 0.280475 0.830209
O O15 0.117429 0.230067 0.314932
#
# Coordination Sequence:
#
# PCOD9027397 Si02
#       7
#     2   2   2   2   2   2   2
#     4  10  23  40  71  94 137 177 227 276 340 405
#     4  10  22  43  71 100 137 177 219 276 342 405
#     4  11  26  41  67  93 140 178 238 287 345 407
#     4  11  23  46  61 100 129 186 225 287 343 400
#     4  10  22  41  67  98 134 178 217 279 332 412
#     4  12  26  43  69  97 140 180 236 288 340 407
#     4  12  24  43  69 104 133 181 235 279 339 411
#
# _framework density 25.731871000000002
#
# number of rings (size 3 to 8) (size 9 to 14) (size 15 to 20)
#    0.857    0.286    2.857    3.429    6.000    1.714 
#    0.000    1.429    0.000    0.000    0.000    0.000 
#    0.000    0.000    0.000    0.000    0.000    0.000 
#
# Total GULP energy -78161.427940 kJ/mol
# GULP energy per Si atom -5582.959139 kJ/mol
# Density = 2.567330 g / cm^3
# Si number density = 25.731871 Si / 1000 Ang^3
#
#
#
# Elastic Constant Matrix: (Units=GPa)
#
#
# Indices 1 2 3 4 5 6 
#
# 1 84.4957 0.8279 14.6626 1.0359 -2.0780 14.5010
# 2 0.8279 71.1061 -7.8082 -0.9553 17.3446 11.1999
# 3 14.6626 -7.8082 99.2433 7.4880 4.2863 7.9594
# 4 1.0359 -0.9553 7.4880 46.5148 0.4447 -7.8227
# 5 -2.0780 17.3446 4.2863 0.4447 20.7462 1.9373
# 6 14.5010 11.1999 7.9594 -7.8227 1.9373 39.1250
#
#
#
# Elastic Compliance Matrix: (Units=1/GPa)
#
#
# Indices 1 2 3 4 5 6 
#
# 1 0.012987 -0.000125 -0.001579 -0.000855 0.002192 -0.004736
# 2 -0.000125 0.019100 0.002700 -0.000783 -0.016023 -0.005334
# 3 -0.001579 0.002700 0.011083 -0.002096 -0.004414 -0.002643
# 4 -0.000855 -0.000783 -0.002096 0.022767 -0.000001 0.005520
# 5 0.002192 -0.016023 -0.004414 -0.000001 0.062582 0.001573
# 6 -0.004736 -0.005334 -0.002643 0.005520 0.001573 0.030405
#
#
# Mechanical properties :
#
#
# Convention : Reuss Voigt Hill
#
# Bulk Modulus (GPa) = 22.14241 30.02329 26.08285
# Shear Modulus (GPa) = 29.07237 37.75474 33.41355
#
# Velocity S-wave (km/s) = 3.36493 3.83461 3.60742
# Velocity P-wave (km/s) = 4.87039 5.59452 5.24497
#
# Compressibility (1/GPa) = 0.04516220
#
# Stress axis : x y z
#
# Youngs Moduli (GPa) = 76.99813 52.35737 90.23109
#
# Poissons Ratio (x) = 0.00653 0.14247
# Poissons Ratio (y) = 0.00961 -0.24363
# Poissons Ratio (z) = 0.12157 -0.14137
#
# Static dielectric constant tensor:
#      x y z
#    x 2.183980 -0.134300 0.049380 
#    y -0.134300 2.191470 0.017540 
#    z 0.049380 0.017540 2.085490 
# 
# From -- ./inp_files/47338.got.cif
#   From: 2010.05.17/outbox.cif.g08.bks.cpg/sg2_24_cif.got.tgz:47338.got - 2010.06.03 11:33:40.
