data_PCOD9027294
_publ_section_title
;
Structure prediction by ZEFSAII (Michael W. Deem and Ramdas Pophale) SiO2 
 PCOD9027294
Probable space group: P -1
;
_chemical_formula_sum "Si O2"
_cell_formula_units_Z 14
_cell_length_a 5.486378
_cell_length_b 16.163906
_cell_length_c 11.865600
_cell_angle_alpha 136.477026
_cell_angle_beta 111.173179
_cell_angle_gamma 55.984333
_cell_volume 598.812558
_symmetry_space_group_name_H-M "P -1"
_symmetry_group_IT_number 2
_symmetry_cell_setting 'triclinic'
loop_
_space_group_symop_operation_xyz
x,y,z
-x,-y,-z
loop_
_atom_site_type_symbol
_atom_site_label
_atom_site_fract_x
_atom_site_fract_y
_atom_site_fract_z
Si Si1 0.054156 0.144592 0.878469
Si Si2 0.711767 0.797770 0.237637
Si Si3 0.915432 0.955521 0.558817
Si Si4 0.526483 0.589760 0.994603
Si Si5 0.423544 0.458743 0.624853
Si Si6 0.828354 0.914968 0.919635
Si Si7 0.022028 0.660633 0.558254
O O1 0.278364 0.167619 0.859271
O O2 0.102734 0.991117 0.716288
O O3 0.025620 0.174586 0.034131
O O4 0.755450 0.262093 0.894004
O O5 0.408914 0.929360 0.349977
O O6 0.925616 0.815599 0.384045
O O7 0.766603 0.644303 0.099594
O O8 0.000000 0.000000 0.500000
O O9 0.502614 0.527014 0.810299
O O10 0.500000 0.500000 0.000000
O O11 0.214139 0.568059 0.604462
O O12 0.730998 0.364828 0.519696
O O13 0.227592 0.385419 0.558384
O O14 0.858913 0.816143 0.724870
O O15 0.500000 0.000000 0.000000
O O16 0.000000 0.000000 0.000000
#
# Coordination Sequence:
#
# PCOD9027294 Si02
#       7
#     2   2   2   2   2   2   2
#     4  10  22  41  67  94 137 177 228 292 358 425
#     4   9  19  36  66  89 131 175 222 277 343 424
#     4   8  16  36  60  93 121 177 219 271 341 417
#     4  11  24  41  66 104 134 182 234 287 356 423
#     4  10  22  42  74  96 140 184 233 291 348 419
#     4  12  27  45  72 108 140 179 240 300 362 425
#     4  10  22  45  69 102 133 186 235 289 355 410
#
# _framework density 23.379604
#
# number of rings (size 3 to 8) (size 9 to 14) (size 15 to 20)
#    0.000    2.000    1.429    0.857    6.000    1.714 
#    2.571   11.429    0.000    0.000    0.000    0.000 
#    0.000    0.000    0.000    0.000    0.000    0.000 
#
# Total GULP energy -77988.409061 kJ/mol
# GULP energy per Si atom -5570.600647 kJ/mol
# Density = 2.332639 g / cm^3
# Si number density = 23.379604 Si / 1000 Ang^3
#
#
#
# Elastic Constant Matrix: (Units=GPa)
#
#
# Indices 1 2 3 4 5 6 
#
# 1 109.0424 17.3977 73.5274 24.4964 -5.9694 12.6777
# 2 17.3977 58.7800 20.9435 7.8626 9.8510 14.4277
# 3 73.5274 20.9435 186.7597 13.5392 23.1331 13.7269
# 4 24.4964 7.8626 13.5392 27.3256 9.4369 -1.8966
# 5 -5.9694 9.8510 23.1331 9.4369 51.2810 5.7538
# 6 12.6777 14.4277 13.7269 -1.8966 5.7538 22.0730
#
#
#
# Elastic Compliance Matrix: (Units=1/GPa)
#
#
# Indices 1 2 3 4 5 6 
#
# 1 0.019918 0.000214 -0.006912 -0.018799 0.010150 -0.011543
# 2 0.000214 0.021787 -0.000887 -0.006676 -0.000945 -0.014140
# 3 -0.006912 -0.000887 0.008457 0.004176 -0.005334 0.001040
# 4 -0.018799 -0.006676 0.004176 0.060492 -0.016394 0.022036
# 5 0.010150 -0.000945 -0.005334 -0.016394 0.027460 -0.010462
# 6 -0.011543 -0.014140 0.001040 0.022036 -0.010462 0.065150
#
#
# Mechanical properties :
#
#
# Convention : Reuss Voigt Hill
#
# Bulk Modulus (GPa) = 28.57759 64.25769 46.41764
# Shear Modulus (GPa) = 21.72988 36.31683 29.02336
#
# Velocity S-wave (km/s) = 3.05198 3.94554 3.52717
# Velocity P-wave (km/s) = 4.96681 6.94986 6.04027
#
# Compressibility (1/GPa) = 0.03499245
#
# Stress axis : x y z
#
# Youngs Moduli (GPa) = 50.20552 45.89814 118.24935
#
# Poissons Ratio (x) = -0.00983 0.81731
# Poissons Ratio (y) = -0.01075 0.10492
# Poissons Ratio (z) = 0.34701 0.04072
#
# Static dielectric constant tensor:
#      x y z
#    x 0.718770 -0.225780 -0.243880 
#    y -0.225780 1.924880 -0.044290 
#    z -0.243880 -0.044290 1.838870 
# 
# From -- ./inp_files/369194.got.cif
#   From: 2010.05.17/outbox.cif.g08.bks.cpg/sg2_185_cif.got.tgz:369194.got - 2010.06.03 11:33:40.
