data_PCOD9027223
_publ_section_title
;
Structure prediction by ZEFSAII (Michael W. Deem and Ramdas Pophale) SiO2 
 PCOD9027223
Probable space group: P -1
;
_chemical_formula_sum "Si O2"
_cell_formula_units_Z 14
_cell_length_a 10.712561
_cell_length_b 10.868175
_cell_length_c 4.986523
_cell_angle_alpha 96.697276
_cell_angle_beta 82.936006
_cell_angle_gamma 65.491692
_cell_volume 515.130100
_symmetry_space_group_name_H-M "P -1"
_symmetry_group_IT_number 2
_symmetry_cell_setting 'triclinic'
loop_
_space_group_symop_operation_xyz
x,y,z
-x,-y,-z
loop_
_atom_site_type_symbol
_atom_site_label
_atom_site_fract_x
_atom_site_fract_y
_atom_site_fract_z
Si Si1 0.457082 0.262188 0.362205
Si Si2 0.395379 0.685285 0.175944
Si Si3 0.210642 0.311920 0.103709
Si Si4 0.193080 0.589625 0.022664
Si Si5 0.327782 0.033986 0.701829
Si Si6 0.043136 0.741797 0.616281
Si Si7 0.184714 0.983333 0.232400
O O1 0.508116 0.330523 0.599905
O O2 0.296314 0.319890 0.343485
O O3 0.530616 0.280740 0.081558
O O4 0.522881 0.098155 0.362147
O O5 0.341026 0.571992 0.099528
O O6 0.248897 0.826446 0.273699
O O7 0.182183 0.447341 0.977570
O O8 0.073169 0.298764 0.229278
O O9 0.308805 0.176575 0.873523
O O10 0.077643 0.682105 0.294473
O O11 0.171833 0.667393 0.765515
O O12 0.261126 0.046976 0.430835
O O13 0.765135 0.010670 0.080712
O O14 0.975926 0.907137 0.685527
#
# Coordination Sequence:
#
# PCOD9027223 Si02
#       7
#     2   2   2   2   2   2   2
#     4  10  22  41  67  91 122 155 201 258 301 362
#     4  10  23  42  62  94 122 158 204 245 308 362
#     4  11  24  41  65  92 124 161 200 252 310 357
#     4  12  26  41  62  88 128 166 202 248 292 368
#     4   9  19  37  61  92 119 152 198 251 307 356
#     4  11  24  42  61  90 122 163 209 248 297 353
#     4   9  19  38  63  86 120 157 200 253 296 351
#
# _framework density 27.177598
#
# number of rings (size 3 to 8) (size 9 to 14) (size 15 to 20)
#    0.000    1.714    0.000    3.857    0.000    9.143 
#    0.000    8.571    0.000    0.000    0.000    0.000 
#    0.000    0.000    0.000    0.000    0.000    0.000 
#
# Total GULP energy -78579.323448 kJ/mol
# GULP energy per Si atom -5612.808818 kJ/mol
# Density = 2.711574 g / cm^3
# Si number density = 27.177598 Si / 1000 Ang^3
#
#
#
# Elastic Constant Matrix: (Units=GPa)
#
#
# Indices 1 2 3 4 5 6 
#
# 1 92.7467 -2.2215 18.2571 1.4906 15.2860 7.8045
# 2 -2.2215 115.0845 1.6802 6.7858 12.2624 -2.1836
# 3 18.2571 1.6802 109.9683 -5.2128 5.2320 -7.5745
# 4 1.4906 6.7858 -5.2128 42.9250 -7.3171 7.3508
# 5 15.2860 12.2624 5.2320 -7.3171 38.4029 0.2467
# 6 7.8045 -2.1836 -7.5745 7.3508 0.2467 36.3157
#
#
#
# Elastic Compliance Matrix: (Units=1/GPa)
#
#
# Indices 1 2 3 4 5 6 
#
# 1 0.012296 0.000829 -0.002058 -0.001206 -0.005091 -0.002743
# 2 0.000829 0.009253 -0.000154 -0.002284 -0.003704 0.000834
# 3 -0.002058 -0.000154 0.009648 0.000825 -0.000304 0.002280
# 4 -0.001206 -0.002284 0.000825 0.025672 0.006020 -0.004943
# 5 -0.005091 -0.003704 -0.000304 0.006020 0.030441 -0.000617
# 6 -0.002743 0.000834 0.002280 -0.004943 -0.000617 0.029656
#
#
# Mechanical properties :
#
#
# Convention : Reuss Voigt Hill
#
# Bulk Modulus (GPa) = 35.17197 39.24789 37.20993
# Shear Modulus (GPa) = 38.69670 43.53430 41.11550
#
# Velocity S-wave (km/s) = 3.77748 4.00665 3.89375
# Velocity P-wave (km/s) = 5.65645 5.98973 5.82548
#
# Compressibility (1/GPa) = 0.02843173
#
# Stress axis : x y z
#
# Youngs Moduli (GPa) = 81.32522 108.07660 103.64636
#
# Poissons Ratio (x) = -0.08959 0.21331
# Poissons Ratio (y) = -0.06741 0.01592
# Poissons Ratio (z) = 0.16737 0.01660
#
# Static dielectric constant tensor:
#      x y z
#    x 2.116620 -0.009120 -0.035930 
#    y -0.009120 2.154940 0.032760 
#    z -0.035930 0.032760 2.030220 
# 
# From -- ./inp_files/67632.got.cif
#   From: 2010.05.17/outbox.cif.g08.bks.cpg/sg2_34_cif.got.tgz:67632.got - 2010.06.03 11:33:40.
