data_PCOD9027437
_publ_section_title
;
Structure prediction by ZEFSAII (Michael W. Deem and Ramdas Pophale) SiO2 
 PCOD9027437
Probable space group: P -1
;
_chemical_formula_sum "Si O2"
_cell_formula_units_Z 14
_cell_length_a 5.245275
_cell_length_b 10.231860
_cell_length_c 14.092636
_cell_angle_alpha 99.783284
_cell_angle_beta 68.892834
_cell_angle_gamma 76.843681
_cell_volume 660.132272
_symmetry_space_group_name_H-M "P -1"
_symmetry_group_IT_number 2
_symmetry_cell_setting 'triclinic'
loop_
_space_group_symop_operation_xyz
x,y,z
-x,-y,-z
loop_
_atom_site_type_symbol
_atom_site_label
_atom_site_fract_x
_atom_site_fract_y
_atom_site_fract_z
Si Si1 0.183360 0.748595 0.705725
Si Si2 0.742700 0.732540 0.072336
Si Si3 0.144289 0.341403 0.433683
Si Si4 0.626935 0.471611 0.085215
Si Si5 0.353358 0.249287 0.123976
Si Si6 0.260782 0.060873 0.460585
Si Si7 0.635858 0.019877 0.219184
O O1 0.527554 0.681124 0.646813
O O2 0.146832 0.912132 0.748620
O O3 0.046620 0.704883 0.625252
O O4 0.987565 0.713277 0.808453
O O5 0.620914 0.626332 0.136030
O O6 0.760219 0.864675 0.144365
O O7 0.578950 0.784508 0.000501
O O8 0.052653 0.632225 0.985265
O O9 0.166858 0.229125 0.499812
O O10 0.000000 0.500000 0.500000
O O11 0.446594 0.385651 0.150667
O O12 0.500000 0.500000 0.000000
O O13 0.508933 0.123544 0.159519
O O14 0.399965 0.026019 0.332566
O O15 0.500000 0.000000 0.500000
O O16 0.000000 0.000000 0.500000
#
# Coordination Sequence:
#
# PCOD9027437 Si02
#       7
#     2   2   2   2   2   2   2
#     4  11  22  41  69 105 139 177 223 297 346 406
#     4  10  22  41  68 100 143 186 229 281 350 411
#     4  11  24  47  73 102 139 178 242 293 353 422
#     4   9  21  42  59  95 148 183 224 284 339 411
#     4  11  21  40  69 102 143 177 233 287 343 413
#     4  11  24  47  69  96 138 180 226 297 355 405
#     4  11  24  42  70 102 134 183 239 283 346 424
#
# _framework density 21.207871999999998
#
# number of rings (size 3 to 8) (size 9 to 14) (size 15 to 20)
#    0.000    1.429    2.857    3.429    0.000    4.571 
#    2.571    4.286    0.000    0.000    0.000    0.000 
#    0.000    0.000    0.000    0.000    0.000    0.000 
#
# Total GULP energy -78107.041780 kJ/mol
# GULP energy per Si atom -5579.074413 kJ/mol
# Density = 2.115960 g / cm^3
# Si number density = 21.207872 Si / 1000 Ang^3
#
#
#
# Elastic Constant Matrix: (Units=GPa)
#
#
# Indices 1 2 3 4 5 6 
#
# 1 121.0117 73.0634 33.3842 -0.9277 8.4452 27.7802
# 2 73.0634 211.9729 78.2639 10.9916 -1.3568 22.9038
# 3 33.3842 78.2639 64.2425 -0.3931 11.9659 12.3306
# 4 -0.9277 10.9916 -0.3931 43.0029 13.2802 -0.3503
# 5 8.4452 -1.3568 11.9659 13.2802 36.5208 -14.7685
# 6 27.7802 22.9038 12.3306 -0.3503 -14.7685 44.4094
#
#
#
# Elastic Compliance Matrix: (Units=1/GPa)
#
#
# Indices 1 2 3 4 5 6 
#
# 1 0.013435 -0.004843 0.002660 0.004492 -0.009779 -0.009862
# 2 -0.004843 0.011679 -0.014560 -0.006420 0.010471 0.004481
# 3 0.002660 -0.014560 0.038625 0.011089 -0.022855 -0.012393
# 4 0.004492 -0.006420 0.011089 0.031151 -0.019851 -0.008934
# 5 -0.009779 0.010471 -0.022855 -0.019851 0.054917 0.025170
# 6 -0.009862 0.004481 -0.012393 -0.008934 0.025170 0.038117
#
#
# Mechanical properties :
#
#
# Convention : Reuss Voigt Hill
#
# Bulk Modulus (GPa) = 33.05494 85.18334 59.11914
# Shear Modulus (GPa) = 21.59888 38.95434 30.27661
#
# Velocity S-wave (km/s) = 3.19476 4.29042 3.78247
# Velocity P-wave (km/s) = 5.40635 8.04964 6.85658
#
# Compressibility (1/GPa) = 0.03025266
#
# Stress axis : x y z
#
# Youngs Moduli (GPa) = 74.43496 85.62708 25.88965
#
# Poissons Ratio (x) = 0.41468 -0.06887
# Poissons Ratio (y) = 0.36048 0.37696
# Poissons Ratio (z) = -0.19802 1.24677
#
# Static dielectric constant tensor:
#      x y z
#    x 1.833840 0.007470 0.025530 
#    y 0.007470 1.783480 -0.031080 
#    z 0.025530 -0.031080 1.774210 
# 
# From -- ./inp_files/480620.got.cif
#   From: 2010.05.17/outbox.cif.g08.bks.cpg/sg2_241_cif.got.tgz:480620.got - 2010.06.03 11:33:40.
