data_PCOD9027710
_publ_section_title
;
Structure prediction by ZEFSAII (Michael W. Deem and Ramdas Pophale) SiO2 
 PCOD9027710
Probable space group: P -1
;
_chemical_formula_sum "Si O2"
_cell_formula_units_Z 13
_cell_length_a 12.479144
_cell_length_b 7.564407
_cell_length_c 8.634686
_cell_angle_alpha 121.921785
_cell_angle_beta 56.715137
_cell_angle_gamma 129.829153
_cell_volume 502.928230
_symmetry_space_group_name_H-M "P -1"
_symmetry_group_IT_number 2
_symmetry_cell_setting 'triclinic'
loop_
_space_group_symop_operation_xyz
x,y,z
-x,-y,-z
loop_
_atom_site_type_symbol
_atom_site_label
_atom_site_fract_x
_atom_site_fract_y
_atom_site_fract_z
Si Si1 0.500000 0.000000 0.000000
Si Si2 0.077869 0.190640 0.388736
Si Si3 0.636027 0.609222 0.163650
Si Si4 0.960175 0.780815 0.074759
Si Si5 0.143296 0.575283 0.723637
Si Si6 0.639962 0.813885 0.924409
Si Si7 0.509600 0.161382 0.420076
O O1 0.329522 0.930977 0.036768
O O2 0.455333 0.019766 0.236661
O O3 0.083309 0.434088 0.544390
O O4 0.247701 0.253990 0.269550
O O5 0.000000 0.000000 0.500000
O O6 0.006744 0.045639 0.221528
O O7 0.801825 0.668400 0.069636
O O8 0.523638 0.322007 0.093790
O O9 0.580492 0.703374 0.394417
O O10 0.617520 0.732650 0.080513
O O11 0.934491 0.622768 0.174397
O O12 0.093373 0.772345 0.877940
O O13 0.315101 0.661227 0.643369
O O14 0.500000 0.000000 0.500000
#
# Coordination Sequence:
#
# PCOD9027710 Si02
#       7
#     1   2   2   2   2   2   2
#     4  12  26  40  76 106 140 190 248 298 364 442
#     4  10  22  41  69 101 142 193 244 294 366 446
#     4  11  25  46  72 105 150 186 247 311 370 435
#     4  10  23  43  71 104 142 197 245 303 373 437
#     4  10  22  46  71 102 152 192 246 307 367 446
#     4  11  24  46  70 105 146 194 243 306 372 444
#     4  12  25  47  73 112 147 192 249 310 371 440
#
# _framework density 25.848617999999998
#
# number of rings (size 3 to 8) (size 9 to 14) (size 15 to 20)
#    0.000    1.231    3.077    1.846    4.308    4.308 
#    0.000    0.769    0.000    0.000    0.000    0.000 
#    0.000    0.000    0.000    0.000    0.000    0.000 
#
# Total GULP energy -72548.024108 kJ/mol
# GULP energy per Si atom -5580.617239 kJ/mol
# Density = 2.578979 g / cm^3
# Si number density = 25.848618 Si / 1000 Ang^3
#
#
#
# Elastic Constant Matrix: (Units=GPa)
#
#
# Indices 1 2 3 4 5 6 
#
# 1 128.9179 20.7718 30.9428 -2.3787 9.9283 -5.5952
# 2 20.7718 73.3745 45.5547 7.8010 11.8191 12.2373
# 3 30.9428 45.5547 166.3340 5.0675 4.1430 -2.2059
# 4 -2.3787 7.8010 5.0675 31.7706 12.5138 6.0410
# 5 9.9283 11.8191 4.1430 12.5138 30.5777 -13.9029
# 6 -5.5952 12.2373 -2.2059 6.0410 -13.9029 48.5579
#
#
#
# Elastic Compliance Matrix: (Units=1/GPa)
#
#
# Indices 1 2 3 4 5 6 
#
# 1 0.008555 -0.001505 -0.001175 0.002296 -0.002885 0.000200
# 2 -0.001505 0.020512 -0.005230 0.002069 -0.011763 -0.009206
# 3 -0.001175 -0.005230 0.007672 -0.001875 0.003372 0.002730
# 4 0.002296 0.002069 -0.001875 0.043801 -0.025120 -0.012983
# 5 -0.002885 -0.011763 0.003372 -0.025120 0.058286 0.022598
# 6 0.000200 -0.009206 0.002730 -0.012983 0.022598 0.031147
#
#
# Mechanical properties :
#
#
# Convention : Reuss Voigt Hill
#
# Bulk Modulus (GPa) = 47.80218 62.57390 55.18804
# Shear Modulus (GPa) = 25.93837 40.27171 33.10504
#
# Velocity S-wave (km/s) = 3.17120 3.95141 3.58261
# Velocity P-wave (km/s) = 5.65172 6.71406 6.20566
#
# Compressibility (1/GPa) = 0.02091955
#
# Stress axis : x y z
#
# Youngs Moduli (GPa) = 116.89668 48.75200 130.34146
#
# Poissons Ratio (x) = 0.07338 0.15310
# Poissons Ratio (y) = 0.17595 0.68166
# Poissons Ratio (z) = 0.13731 0.25496
#
# Static dielectric constant tensor:
#      x y z
#    x 2.131170 -0.164740 -0.092240 
#    y -0.164740 2.332870 0.216880 
#    z -0.092240 0.216880 2.132760 
# 
# From -- ./inp_files/152805.got.cif
#   From: 2010.05.17/outbox.cif.g08.bks.cpg/sg2_77_cif.got.tgz:152805.got - 2010.06.03 11:33:40.
