data_PCOD9027391
_publ_section_title
;
Structure prediction by ZEFSAII (Michael W. Deem and Ramdas Pophale) SiO2 
 PCOD9027391
Probable space group: P -1
;
_chemical_formula_sum "Si O2"
_cell_formula_units_Z 14
_cell_length_a 15.149820
_cell_length_b 15.834798
_cell_length_c 8.595911
_cell_angle_alpha 63.465611
_cell_angle_beta 127.476580
_cell_angle_gamma 157.444737
_cell_volume 581.062217
_symmetry_space_group_name_H-M "P -1"
_symmetry_group_IT_number 2
_symmetry_cell_setting 'triclinic'
loop_
_space_group_symop_operation_xyz
x,y,z
-x,-y,-z
loop_
_atom_site_type_symbol
_atom_site_label
_atom_site_fract_x
_atom_site_fract_y
_atom_site_fract_z
Si Si1 0.251741 0.384867 0.730239
Si Si2 0.576285 0.291193 0.273220
Si Si3 0.058808 0.216698 0.020121
Si Si4 0.976913 0.004822 0.653361
Si Si5 0.645742 0.178000 0.641973
Si Si6 0.695587 0.974822 0.353791
Si Si7 0.779466 0.462186 0.009053
O O1 0.470224 0.638713 0.772345
O O2 0.266884 0.288646 0.769027
O O3 0.130532 0.275370 0.865436
O O4 0.026326 0.253248 0.473466
O O5 0.728021 0.340051 0.513476
O O6 0.755912 0.434700 0.192051
O O7 0.269821 0.013191 0.135986
O O8 0.225532 0.429158 0.112589
O O9 0.080380 0.132270 0.194888
O O10 0.000000 0.000000 0.500000
O O11 0.739475 0.899302 0.517823
O O12 0.427571 0.044421 0.645779
O O13 0.919215 0.344005 0.872918
O O14 0.500000 0.000000 0.500000
O O15 0.481181 0.796131 0.130759
#
# Coordination Sequence:
#
# PCOD9027391 Si02
#       7
#     2   2   2   2   2   2   2
#     4   9  22  41  63  94 132 166 218 260 317 385
#     4  11  21  42  67  96 128 168 220 266 314 386
#     4  11  21  42  68  95 130 175 215 263 318 385
#     4  10  22  41  67  98 132 167 216 267 325 380
#     4  12  22  44  69  93 129 173 217 267 319 385
#     4  10  23  44  60  97 136 163 216 265 324 379
#     4  11  24  40  66  99 131 170 216 262 327 380
#
# _framework density 24.093803999999999
#
# number of rings (size 3 to 8) (size 9 to 14) (size 15 to 20)
#    0.857    0.571    2.857    3.000    0.000    2.286 
#    0.000    2.857    0.000    0.000    0.000    0.000 
#    0.000    0.000    0.000    0.000    0.000    0.000 
#
# Total GULP energy -78084.620759 kJ/mol
# GULP energy per Si atom -5577.472911 kJ/mol
# Density = 2.403897 g / cm^3
# Si number density = 24.093804 Si / 1000 Ang^3
#
#
#
# Elastic Constant Matrix: (Units=GPa)
#
#
# Indices 1 2 3 4 5 6 
#
# 1 86.9623 5.4724 9.2493 3.2830 -6.2332 -12.6913
# 2 5.4724 49.4962 -3.7436 1.6517 -14.8270 -19.7315
# 3 9.2493 -3.7436 54.0562 14.8325 5.0857 -12.0798
# 4 3.2830 1.6517 14.8325 35.6293 -4.6291 4.3614
# 5 -6.2332 -14.8270 5.0857 -4.6291 37.6884 13.2359
# 6 -12.6913 -19.7315 -12.0798 4.3614 13.2359 33.3478
#
#
#
# Elastic Compliance Matrix: (Units=1/GPa)
#
#
# Indices 1 2 3 4 5 6 
#
# 1 0.012323 0.000744 -0.000617 -0.001444 0.000520 0.004889
# 2 0.000744 0.030189 0.008430 -0.007233 0.002552 0.021132
# 3 -0.000617 0.008430 0.029648 -0.016718 -0.010514 0.021852
# 4 -0.001444 -0.007233 -0.016718 0.039461 0.011217 -0.020498
# 5 0.000520 0.002552 -0.010514 0.011217 0.036803 -0.018175
# 6 0.004889 0.021132 0.021852 -0.020498 -0.018175 0.062162
#
#
# Mechanical properties :
#
#
# Convention : Reuss Voigt Hill
#
# Bulk Modulus (GPa) = 11.20141 23.60786 17.40464
# Shear Modulus (GPa) = 22.39831 33.30222 27.85026
#
# Velocity S-wave (km/s) = 3.05229 3.72181 3.40356
# Velocity P-wave (km/s) = 4.13293 5.31872 4.76287
#
# Compressibility (1/GPa) = 0.08927448
#
# Stress axis : x y z
#
# Youngs Moduli (GPa) = 81.14685 33.12442 33.72868
#
# Poissons Ratio (x) = -0.02463 0.02082
# Poissons Ratio (y) = -0.06034 -0.28435
# Poissons Ratio (z) = 0.05009 -0.27925
#
# Static dielectric constant tensor:
#      x y z
#    x 1.945620 -0.000150 0.039440 
#    y -0.000150 1.936590 0.046080 
#    z 0.039440 0.046080 1.968010 
# 
# From -- ./inp_files/336484.got.cif
#   From: 2010.05.17/outbox.cif.g08.bks.cpg/sg2_169_cif.got.tgz:336484.got - 2010.06.03 11:33:40.
