data_PCOD9027050
_publ_section_title
;
Structure prediction by ZEFSAII (Michael W. Deem and Ramdas Pophale) SiO2 
 PCOD9027050
Probable space group: P -1
;
_chemical_formula_sum "Si O2"
_cell_formula_units_Z 14
_cell_length_a 6.471186
_cell_length_b 21.400139
_cell_length_c 13.571447
_cell_angle_alpha 158.973896
_cell_angle_beta 93.064615
_cell_angle_gamma 79.815218
_cell_volume 629.695985
_symmetry_space_group_name_H-M "P -1"
_symmetry_group_IT_number 2
_symmetry_cell_setting 'triclinic'
loop_
_space_group_symop_operation_xyz
x,y,z
-x,-y,-z
loop_
_atom_site_type_symbol
_atom_site_label
_atom_site_fract_x
_atom_site_fract_y
_atom_site_fract_z
Si Si1 0.329512 0.302991 0.430162
Si Si2 0.198400 0.974487 0.889982
Si Si3 0.476109 0.448907 0.312158
Si Si4 0.345862 0.123276 0.761214
Si Si5 0.126598 0.495975 0.221208
Si Si6 0.255288 0.460234 0.956738
Si Si7 0.688642 0.172416 0.528251
O O1 0.352105 0.481177 0.639206
O O2 0.126551 0.376455 0.609398
O O3 0.570456 0.176851 0.288895
O O4 0.250837 0.163727 0.156478
O O5 0.167085 0.901963 0.674849
O O6 0.000000 0.000000 0.000000
O O7 0.500000 0.500000 0.500000
O O8 0.241516 0.554105 0.404427
O O9 0.481907 0.237640 0.988946
O O10 0.500000 0.000000 0.500000
O O11 0.267450 0.992206 0.636111
O O12 0.150149 0.286642 0.942724
O O13 0.275980 0.481723 0.107832
O O14 0.421936 0.258998 0.631559
O O15 0.288460 0.632324 0.154203
O O16 0.000000 0.500000 0.000000
#
# Coordination Sequence:
#
# PCOD9027050 Si02
#       7
#     2   2   2   2   2   2   2
#     4  11  22  42  65  96 130 184 220 284 351 396
#     4  11  24  40  68  98 135 173 239 288 335 414
#     4  10  22  41  66  95 135 182 234 277 339 417
#     4  10  22  44  68  97 142 177 225 290 341 410
#     4  10  23  43  68  97 142 173 226 290 345 404
#     4  11  23  40  69  98 133 176 233 279 349 416
#     4  11  22  43  64  96 132 178 222 291 341 405
#
# _framework density 22.232948
#
# number of rings (size 3 to 8) (size 9 to 14) (size 15 to 20)
#    0.857    0.571    1.429    4.286    0.000    4.000 
#    5.143    1.429    0.000    0.000    0.000    0.000 
#    0.000    0.000    0.000    0.000    0.000    0.000 
#
# Total GULP energy -78021.085117 kJ/mol
# GULP energy per Si atom -5572.934651 kJ/mol
# Density = 2.218235 g / cm^3
# Si number density = 22.232948 Si / 1000 Ang^3
#
#
#
# Elastic Constant Matrix: (Units=GPa)
#
#
# Indices 1 2 3 4 5 6 
#
# 1 75.6819 38.3905 26.3216 2.8270 -20.9249 17.2540
# 2 38.3905 86.4405 36.4617 -9.3631 4.4783 19.9783
# 3 26.3216 36.4617 98.3480 3.1566 -7.2789 13.3052
# 4 2.8270 -9.3631 3.1566 44.7793 15.6408 5.8426
# 5 -20.9249 4.4783 -7.2789 15.6408 46.1872 3.8954
# 6 17.2540 19.9783 13.3052 5.8426 3.8954 40.4656
#
#
#
# Elastic Compliance Matrix: (Units=1/GPa)
#
#
# Indices 1 2 3 4 5 6 
#
# 1 0.025107 -0.011652 -0.000244 -0.008893 0.015909 -0.005120
# 2 -0.011652 0.021777 -0.005536 0.010212 -0.011354 -0.004345
# 3 -0.000244 -0.005536 0.012827 -0.003144 0.003620 -0.001275
# 4 -0.008893 0.010212 -0.003144 0.031188 -0.015806 -0.003198
# 5 0.015909 -0.011354 0.003620 -0.015806 0.036184 -0.003569
# 6 -0.005120 -0.004345 -0.001275 -0.003198 -0.003569 0.030265
#
#
# Mechanical properties :
#
#
# Convention : Reuss Voigt Hill
#
# Bulk Modulus (GPa) = 40.24530 51.42423 45.83476
# Shear Modulus (GPa) = 24.93861 36.90620 30.92240
#
# Velocity S-wave (km/s) = 3.35281 4.07870 3.73344
# Velocity P-wave (km/s) = 5.75581 6.73506 6.26460
#
# Compressibility (1/GPa) = 0.02484762
#
# Stress axis : x y z
#
# Youngs Moduli (GPa) = 39.83030 45.92003 77.96121
#
# Poissons Ratio (x) = 0.53504 0.01904
# Poissons Ratio (y) = 0.46409 0.43156
# Poissons Ratio (z) = 0.00973 0.25419
#
# Static dielectric constant tensor:
#      x y z
#    x 1.932770 -0.000240 0.002790 
#    y -0.000240 1.889890 -0.037190 
#    z 0.002790 -0.037190 1.887050 
# 
# From -- ./inp_files/486011.got.cif
#   From: 2010.05.17/outbox.cif.g08.bks.cpg/sg2_244_cif.got.tgz:486011.got - 2010.06.03 11:33:40.
