data_PCOD9027721
_publ_section_title
;
Structure prediction by ZEFSAII (Michael W. Deem and Ramdas Pophale) SiO2 
 PCOD9027721
Probable space group: P -1
;
_chemical_formula_sum "Si O2"
_cell_formula_units_Z 14
_cell_length_a 17.236497
_cell_length_b 11.847801
_cell_length_c 9.514165
_cell_angle_alpha 48.298503
_cell_angle_beta 150.513864
_cell_angle_gamma 144.394580
_cell_volume 550.625487
_symmetry_space_group_name_H-M "P -1"
_symmetry_group_IT_number 2
_symmetry_cell_setting 'triclinic'
loop_
_space_group_symop_operation_xyz
x,y,z
-x,-y,-z
loop_
_atom_site_type_symbol
_atom_site_label
_atom_site_fract_x
_atom_site_fract_y
_atom_site_fract_z
Si Si1 0.019169 0.557518 0.748594
Si Si2 0.157171 0.232508 0.030335
Si Si3 0.427476 0.751230 0.819986
Si Si4 0.466044 0.341307 0.186044
Si Si5 0.295551 0.208304 0.547134
Si Si6 0.218122 0.836300 0.598726
Si Si7 0.903787 0.657889 0.741184
O O1 0.192052 0.692437 0.794932
O O2 0.799478 0.436734 0.428070
O O3 0.029784 0.696299 0.768416
O O4 0.022055 0.403659 0.965674
O O5 0.281524 0.263745 0.062222
O O6 0.297753 0.313126 0.323697
O O7 0.002669 0.277342 0.729558
O O8 0.000000 0.000000 0.000000
O O9 0.555851 0.813512 0.827152
O O10 0.389719 0.891676 0.713147
O O11 0.518626 0.698406 0.128327
O O12 0.673046 0.459165 0.505914
O O13 0.500000 0.500000 0.000000
O O14 0.118788 0.182807 0.380574
O O15 0.259069 0.017501 0.592018
#
# Coordination Sequence:
#
# PCOD9027721 Si02
#       7
#     2   2   2   2   2   2   2
#     4  10  23  42  68 101 139 179 230 290 348 409
#     4  10  24  45  66  98 141 183 230 284 350 415
#     4  11  23  42  69 100 136 180 233 286 344 410
#     4  11  22  43  72 102 134 180 243 284 340 416
#     4  11  24  42  69  99 139 178 234 281 351 412
#     4  11  24  43  66  99 143 181 226 282 359 410
#     4  10  22  41  69 102 136 178 233 286 343 414
#
# _framework density 25.425630999999999
#
# number of rings (size 3 to 8) (size 9 to 14) (size 15 to 20)
#    0.000    1.429    1.429    3.429    2.000    2.286 
#    2.571    2.857    0.000    0.000    0.000    0.000 
#    0.000    0.000    0.000    0.000    0.000    0.000 
#
# Total GULP energy -78320.916754 kJ/mol
# GULP energy per Si atom -5594.351197 kJ/mol
# Density = 2.536776 g / cm^3
# Si number density = 25.425631 Si / 1000 Ang^3
#
#
#
# Elastic Constant Matrix: (Units=GPa)
#
#
# Indices 1 2 3 4 5 6 
#
# 1 154.4230 18.3149 40.6257 1.5689 7.5497 -17.4793
# 2 18.3149 37.2783 -2.5340 1.3656 -3.5344 -20.5266
# 3 40.6257 -2.5340 156.1414 4.3828 -28.6971 1.8315
# 4 1.5689 1.3656 4.3828 28.5852 -9.6362 4.5938
# 5 7.5497 -3.5344 -28.6971 -9.6362 51.7722 -4.5091
# 6 -17.4793 -20.5266 1.8315 4.5938 -4.5091 47.8941
#
#
#
# Elastic Compliance Matrix: (Units=1/GPa)
#
#
# Indices 1 2 3 4 5 6 
#
# 1 0.007895 -0.003605 -0.002639 -0.001052 -0.002946 0.001261
# 2 -0.003605 0.037968 0.002424 -0.002706 0.005319 0.015624
# 3 -0.002639 0.002424 0.008056 0.000489 0.005125 0.000203
# 4 -0.001052 -0.002706 0.000489 0.038171 0.006946 -0.004570
# 5 -0.002946 0.005319 0.005125 0.006946 0.024472 0.002646
# 6 0.001261 0.015624 0.000203 -0.004570 0.002646 0.028715
#
#
# Mechanical properties :
#
#
# Convention : Reuss Voigt Hill
#
# Bulk Modulus (GPa) = 21.60806 51.18400 36.39603
# Shear Modulus (GPa) = 29.70104 45.07937 37.39020
#
# Velocity S-wave (km/s) = 3.42153 4.21526 3.83896
# Velocity P-wave (km/s) = 4.91184 6.62312 5.83061
#
# Compressibility (1/GPa) = 0.04627904
#
# Stress axis : x y z
#
# Youngs Moduli (GPa) = 126.66042 26.33816 124.12643
#
# Poissons Ratio (x) = 0.09495 0.32763
# Poissons Ratio (y) = 0.45659 -0.30092
# Poissons Ratio (z) = 0.33432 -0.06385
#
# Static dielectric constant tensor:
#      x y z
#    x 2.041390 -0.093670 -0.008300 
#    y -0.093670 2.047900 0.005230 
#    z -0.008300 0.005230 2.026120 
# 
# From -- ./inp_files/190120.got.cif
#   From: 2010.05.17/outbox.cif.g08.bks.cpg/sg2_96_cif.got.tgz:190120.got - 2010.06.03 11:33:40.
