data_PCOD9027810
_publ_section_title
;
Structure prediction by ZEFSAII (Michael W. Deem and Ramdas Pophale) SiO2 
 PCOD9027810
Probable space group: P -1
;
_chemical_formula_sum "Si O2"
_cell_formula_units_Z 16
_cell_length_a 8.393148
_cell_length_b 23.024869
_cell_length_c 9.111201
_cell_angle_alpha 55.279381
_cell_angle_beta 112.812000
_cell_angle_gamma 147.112260
_cell_volume 769.481747
_symmetry_space_group_name_H-M "P -1"
_symmetry_group_IT_number 2
_symmetry_cell_setting 'triclinic'
loop_
_space_group_symop_operation_xyz
x,y,z
-x,-y,-z
loop_
_atom_site_type_symbol
_atom_site_label
_atom_site_fract_x
_atom_site_fract_y
_atom_site_fract_z
Si Si1 0.496046 0.160595 0.651086
Si Si2 0.823962 0.774746 0.946951
Si Si3 0.887168 0.021812 0.701062
Si Si4 0.758203 0.037585 0.921861
Si Si5 0.900642 0.387652 0.653454
Si Si6 0.398203 0.737983 0.976087
Si Si7 0.652773 0.001620 0.368953
Si Si8 0.807354 0.613613 0.029863
O O1 0.766688 0.300308 0.594765
O O2 0.525880 0.128165 0.557457
O O3 0.196218 0.105708 0.615445
O O4 0.418684 0.076738 0.872701
O O5 0.503614 0.704450 0.969023
O O6 0.019492 0.890009 0.744935
O O7 0.824190 0.698684 0.977687
O O8 0.025164 0.843236 0.070024
O O9 0.669588 0.882427 0.841616
O O10 0.956062 0.067606 0.824951
O O11 0.719884 0.021584 0.536113
O O12 0.516936 0.995435 0.791104
O O13 0.000000 0.500000 0.500000
O O14 0.165107 0.429998 0.759205
O O15 0.648154 0.301825 0.814778
O O16 0.090101 0.681447 0.932164
O O17 0.500000 0.500000 0.000000
#
# Coordination Sequence:
#
# PCOD9027810 Si02
#       8
#     2   2   2   2   2   2   2   2
#     4  11  20  37  64  90 130 172 210 262 327 393
#     4  11  21  41  70  97 131 178 222 264 334 403
#     4  12  21  38  61 102 139 165 211 272 332 394
#     4  11  20  36  62  95 133 179 209 260 334 397
#     4  10  22  43  65  93 125 175 230 268 317 392
#     4  10  22  41  69  95 131 170 226 263 335 389
#     4  11  23  34  60 102 139 165 210 269 334 390
#     4  10  24  45  67  93 131 174 222 281 327 384
#
# _framework density 20.793215
#
# number of rings (size 3 to 8) (size 9 to 14) (size 15 to 20)
#    0.750    0.500    3.750    5.625    0.000    1.500 
#    0.000    1.875    0.000    0.000    0.000    0.000 
#    0.000    0.000    0.000    0.000    0.000    0.000 
#
# Total GULP energy -89127.911426 kJ/mol
# GULP energy per Si atom -5570.494464 kJ/mol
# Density = 2.074589 g / cm^3
# Si number density = 20.793215 Si / 1000 Ang^3
#
#
#
# Elastic Constant Matrix: (Units=GPa)
#
#
# Indices 1 2 3 4 5 6 
#
# 1 108.2177 45.7425 16.0646 11.8682 16.8942 6.7489
# 2 45.7425 138.1898 36.3543 13.3254 18.9215 -6.6066
# 3 16.0646 36.3543 57.0954 21.4863 5.8280 -4.0207
# 4 11.8682 13.3254 21.4863 21.3035 -0.4340 5.3701
# 5 16.8942 18.9215 5.8280 -0.4340 23.7053 1.6311
# 6 6.7489 -6.6066 -4.0207 5.3701 1.6311 32.2576
#
#
#
# Elastic Compliance Matrix: (Units=1/GPa)
#
#
# Indices 1 2 3 4 5 6 
#
# 1 0.012066 -0.002936 0.001217 -0.005824 -0.006546 -0.001674
# 2 -0.002936 0.010374 -0.004775 -0.000783 -0.005203 0.002537
# 3 0.001217 -0.004775 0.034895 -0.035385 -0.006927 0.009358
# 4 -0.005824 -0.000783 -0.035385 0.091599 0.016489 -0.019435
# 5 -0.006546 -0.005203 -0.006927 0.016489 0.053421 -0.006006
# 6 -0.001674 0.002537 0.009358 -0.019435 -0.006006 0.036576
#
#
# Mechanical properties :
#
#
# Convention : Reuss Voigt Hill
#
# Bulk Modulus (GPa) = 22.55001 55.53619 39.04310
# Shear Modulus (GPa) = 18.74766 29.14273 23.94519
#
# Velocity S-wave (km/s) = 3.00596 3.74779 3.39719
# Velocity P-wave (km/s) = 4.78708 6.74497 5.84854
#
# Compressibility (1/GPa) = 0.04434588
#
# Stress axis : x y z
#
# Youngs Moduli (GPa) = 82.87643 96.39855 28.65767
#
# Poissons Ratio (x) = 0.28304 -0.03487
# Poissons Ratio (y) = 0.24334 0.13683
# Poissons Ratio (z) = -0.10083 0.46028
#
# Static dielectric constant tensor:
#      x y z
#    x 1.885910 -0.005520 0.022730 
#    y -0.005520 1.734260 0.034400 
#    z 0.022730 0.034400 1.743680 
# 
# From -- ./inp_files/226183.got.cif
#   From: 2010.05.17/outbox.cif.g08.bks.cpg/sg2_114_cif.got.tgz:226183.got - 2010.06.03 11:33:40.
