data_PCOD9027941
_publ_section_title
;
Structure prediction by ZEFSAII (Michael W. Deem and Ramdas Pophale) SiO2 
 PCOD9027941
Probable space group: P -1
;
_chemical_formula_sum "Si O2"
_cell_formula_units_Z 14
_cell_length_a 11.311057
_cell_length_b 8.308664
_cell_length_c 18.760306
_cell_angle_alpha 104.438296
_cell_angle_beta 41.482964
_cell_angle_gamma 135.610641
_cell_volume 642.761253
_symmetry_space_group_name_H-M "P -1"
_symmetry_group_IT_number 2
_symmetry_cell_setting 'triclinic'
loop_
_space_group_symop_operation_xyz
x,y,z
-x,-y,-z
loop_
_atom_site_type_symbol
_atom_site_label
_atom_site_fract_x
_atom_site_fract_y
_atom_site_fract_z
Si Si1 0.677408 0.327460 0.093792
Si Si2 0.352457 0.810486 0.348264
Si Si3 0.351825 0.202497 0.355077
Si Si4 0.732507 0.704544 0.351492
Si Si5 0.605417 0.248308 0.835146
Si Si6 0.735318 0.088194 0.350297
Si Si7 0.585831 0.871967 0.944654
O O1 0.510346 0.331816 0.220214
O O2 0.682388 0.399530 0.018644
O O3 0.455844 0.995159 0.158301
O O4 0.000000 0.500000 0.000000
O O5 0.422099 0.755012 0.238829
O O6 0.000000 0.500000 0.500000
O O7 0.360066 0.013699 0.350487
O O8 0.593853 0.972568 0.322050
O O9 0.569207 0.477021 0.337699
O O10 0.000000 0.000000 0.500000
O O11 0.500000 0.500000 0.500000
O O12 0.765045 0.923140 0.344958
O O13 0.086011 0.909044 0.218118
O O14 0.942598 0.565617 0.745748
O O15 0.392278 0.164690 0.985946
O O16 0.500000 0.000000 0.500000
O O17 0.500000 0.000000 0.000000
#
# Coordination Sequence:
#
# PCOD9027941 Si02
#       7
#     2   2   2   2   2   2   2
#     4  10  22  41  70 103 135 186 233 290 361 430
#     4  11  23  42  69 102 144 192 235 293 365 426
#     4  11  23  39  68 102 138 174 244 299 345 422
#     4  12  27  45  71 106 140 189 245 299 361 433
#     4  10  24  42  72  98 142 186 242 278 368 425
#     4  12  26  44  73 103 147 192 241 300 366 427
#     4  10  23  43  72 100 144 182 236 296 364 426
#
# _framework density 21.781027999999999
#
# number of rings (size 3 to 8) (size 9 to 14) (size 15 to 20)
#    0.000    1.143    1.429    4.286   14.000    0.571 
#    2.571    0.714    0.000    0.000    0.000    0.000 
#    0.000    0.000    0.000    0.000    0.000    0.000 
#
# Total GULP energy -78069.399154 kJ/mol
# GULP energy per Si atom -5576.385654 kJ/mol
# Density = 2.173145 g / cm^3
# Si number density = 21.781028 Si / 1000 Ang^3
#
#
#
# Elastic Constant Matrix: (Units=GPa)
#
#
# Indices 1 2 3 4 5 6 
#
# 1 100.4160 48.9706 59.1213 9.7823 -6.8230 27.5153
# 2 48.9706 138.0940 46.3491 -3.6325 5.3870 30.0493
# 3 59.1213 46.3491 142.4712 21.7867 2.8343 24.0483
# 4 9.7823 -3.6325 21.7867 44.8466 12.1007 11.9799
# 5 -6.8230 5.3870 2.8343 12.1007 39.3271 12.4153
# 6 27.5153 30.0493 24.0483 11.9799 12.4153 50.9790
#
#
#
# Elastic Compliance Matrix: (Units=1/GPa)
#
#
# Indices 1 2 3 4 5 6 
#
# 1 0.016461 -0.003289 -0.004643 -0.001662 0.005991 -0.005824
# 2 -0.003289 0.010006 -0.001820 0.003904 -0.001832 -0.003735
# 3 -0.004643 -0.001820 0.010202 -0.004022 0.000040 -0.000299
# 4 -0.001662 0.003904 -0.004022 0.028181 -0.007875 -0.004211
# 5 0.005991 -0.001832 0.000040 -0.007875 0.031675 -0.008036
# 6 -0.005824 -0.003735 -0.000299 -0.004211 -0.008036 0.028049
#
#
# Mechanical properties :
#
#
# Convention : Reuss Voigt Hill
#
# Bulk Modulus (GPa) = 58.25886 76.65148 67.45517
# Shear Modulus (GPa) = 33.37775 42.13321 37.75548
#
# Velocity S-wave (km/s) = 3.91886 4.40295 4.16794
# Velocity P-wave (km/s) = 6.87621 7.81769 7.36201
#
# Compressibility (1/GPa) = 0.01716477
#
# Stress axis : x y z
#
# Youngs Moduli (GPa) = 60.74954 99.94226 98.01615
#
# Poissons Ratio (x) = 0.32873 0.45506
# Poissons Ratio (y) = 0.19982 0.17842
# Poissons Ratio (z) = 0.28204 0.18193
#
# Static dielectric constant tensor:
#      x y z
#    x 1.897350 0.079100 0.148320 
#    y 0.079100 1.794990 0.050510 
#    z 0.148320 0.050510 1.951830 
# 
# From -- ./inp_files/566810.got.cif
#   From: 2010.05.17/outbox.cif.g08.bks.cpg/sg2_284_cif.got.tgz:566810.got - 2010.06.03 11:33:40.
