data_PCOD9027902
_publ_section_title
;
Structure prediction by ZEFSAII (Michael W. Deem and Ramdas Pophale) SiO2 
 PCOD9027902
Probable space group: P -1
;
_chemical_formula_sum "Si O2"
_cell_formula_units_Z 14
_cell_length_a 24.566653
_cell_length_b 5.344938
_cell_length_c 9.412652
_cell_angle_alpha 59.804287
_cell_angle_beta 36.916528
_cell_angle_gamma 79.896911
_cell_volume 577.235256
_symmetry_space_group_name_H-M "P -1"
_symmetry_group_IT_number 2
_symmetry_cell_setting 'triclinic'
loop_
_space_group_symop_operation_xyz
x,y,z
-x,-y,-z
loop_
_atom_site_type_symbol
_atom_site_label
_atom_site_fract_x
_atom_site_fract_y
_atom_site_fract_z
Si Si1 0.576793 0.553386 0.185699
Si Si2 0.254415 0.992610 0.491380
Si Si3 0.052282 0.770972 0.927575
Si Si4 0.499653 0.916453 0.771677
Si Si5 0.683096 0.561130 0.512699
Si Si6 0.296758 0.540162 0.799504
Si Si7 0.937485 0.617178 0.705244
O O1 0.509497 0.253215 0.312069
O O2 0.657678 0.524147 0.132213
O O3 0.528456 0.782789 0.282377
O O4 0.642241 0.774857 0.858548
O O5 0.252465 0.148375 0.601858
O O6 0.165507 0.996053 0.581003
O O7 0.254672 0.649955 0.573107
O O8 0.065413 0.588456 0.090428
O O9 0.000000 0.500000 0.000000
O O10 0.000000 0.000000 0.000000
O O11 0.616944 0.092347 0.521985
O O12 0.424295 0.674167 0.118799
O O13 0.684011 0.651563 0.319258
O O14 0.178590 0.463385 0.075326
O O15 0.000000 0.500000 0.500000
O O16 0.000000 0.000000 0.500000
#
# Coordination Sequence:
#
# PCOD9027902 Si02
#       7
#     2   2   2   2   2   2   2
#     4  10  24  41  69 104 145 178 237 280 358 440
#     4  10  22  44  64 100 135 182 228 288 351 429
#     4  12  26  47  79  99 138 191 253 303 360 427
#     4  10  23  45  67 107 141 185 233 287 350 450
#     4  10  22  41  70 100 139 172 232 285 352 432
#     4  12  25  45  75  98 146 190 230 300 370 407
#     4  12  31  51  70 110 150 187 250 308 363 425
#
# _framework density 24.253544999999999
#
# number of rings (size 3 to 8) (size 9 to 14) (size 15 to 20)
#    0.000    1.143    1.429    3.000    6.000    4.571 
#    0.000    4.286    0.000    0.000    0.000    0.000 
#    0.000    0.000    0.000    0.000    0.000    0.000 
#
# Total GULP energy -78148.317743 kJ/mol
# GULP energy per Si atom -5582.022696 kJ/mol
# Density = 2.419834 g / cm^3
# Si number density = 24.253545 Si / 1000 Ang^3
#
#
#
# Elastic Constant Matrix: (Units=GPa)
#
#
# Indices 1 2 3 4 5 6 
#
# 1 146.9802 90.5091 50.9648 19.6903 -25.7184 13.4834
# 2 90.5091 207.4462 68.1966 21.4223 -39.7539 26.1486
# 3 50.9648 68.1966 108.3774 12.7607 -33.3337 0.8474
# 4 19.6903 21.4223 12.7607 43.6587 -1.8016 3.3341
# 5 -25.7184 -39.7539 -33.3337 -1.8016 53.6868 -1.5210
# 6 13.4834 26.1486 0.8474 3.3341 -1.5210 49.3761
#
#
#
# Elastic Compliance Matrix: (Units=1/GPa)
#
#
# Indices 1 2 3 4 5 6 
#
# 1 0.010045 -0.003129 -0.002158 -0.002255 0.001055 -0.000864
# 2 -0.003129 0.008125 -0.002593 -0.001457 0.002767 -0.003220
# 3 -0.002158 -0.002593 0.013782 -0.001705 0.005603 0.002014
# 4 -0.002255 -0.001457 -0.001705 0.025063 -0.002387 -0.000349
# 5 0.001055 0.002767 0.005603 -0.002387 0.024553 -0.000932
# 6 -0.000864 -0.003220 0.002014 -0.000349 -0.000932 0.022154
#
#
# Mechanical properties :
#
#
# Convention : Reuss Voigt Hill
#
# Bulk Modulus (GPa) = 61.76338 98.01608 79.88973
# Shear Modulus (GPa) = 40.03842 46.21988 43.12915
#
# Velocity S-wave (km/s) = 4.06745 4.37016 4.22152
# Velocity P-wave (km/s) = 6.89781 8.12190 7.53476
#
# Compressibility (1/GPa) = 0.01619082
#
# Stress axis : x y z
#
# Youngs Moduli (GPa) = 99.55505 123.07654 72.55909
#
# Poissons Ratio (x) = 0.38514 0.15657
# Poissons Ratio (y) = 0.31154 0.18817
# Poissons Ratio (z) = 0.21482 0.31917
#
# Static dielectric constant tensor:
#      x y z
#    x 2.007970 -0.014160 0.058890 
#    y -0.014160 2.035820 0.017780 
#    z 0.058890 0.017780 2.139970 
# 
# From -- ./inp_files/350681.got.cif
#   From: 2010.05.17/outbox.cif.g08.bks.cpg/sg2_176_cif.got.tgz:350681.got - 2010.06.03 11:33:40.
