data_PCOD9027245
_publ_section_title
;
Structure prediction by ZEFSAII (Michael W. Deem and Ramdas Pophale) SiO2 
 PCOD9027245
Probable space group: P -1
;
_chemical_formula_sum "Si O2"
_cell_formula_units_Z 12
_cell_length_a 11.564105
_cell_length_b 23.468939
_cell_length_c 8.520793
_cell_angle_alpha 149.178214
_cell_angle_beta 52.342878
_cell_angle_gamma 149.959487
_cell_volume 507.923857
_symmetry_space_group_name_H-M "P -1"
_symmetry_group_IT_number 2
_symmetry_cell_setting 'triclinic'
loop_
_space_group_symop_operation_xyz
x,y,z
-x,-y,-z
loop_
_atom_site_type_symbol
_atom_site_label
_atom_site_fract_x
_atom_site_fract_y
_atom_site_fract_z
Si Si1 0.290037 0.159301 0.498465
Si Si2 0.571738 0.314429 0.329369
Si Si3 0.439706 0.468893 0.659640
Si Si4 0.143979 0.850638 0.490839
Si Si5 0.194913 0.007291 0.528160
Si Si6 0.215556 0.645963 0.028495
O O1 0.537449 0.292892 0.494178
O O2 0.207833 0.010440 0.336225
O O3 0.379453 0.321198 0.912245
O O4 0.016427 0.030376 0.339166
O O5 0.493217 0.386708 0.507644
O O6 0.826267 0.440769 0.310511
O O7 0.346095 0.077551 0.911660
O O8 0.500000 0.500000 0.500000
O O9 0.133827 0.308086 0.565045
O O10 0.251107 0.798546 0.322064
O O11 0.104857 0.844420 0.321295
O O12 0.505881 0.226721 0.835155
O O13 0.000000 0.500000 0.000000
#
# Coordination Sequence:
#
# PCOD9027245 Si02
#       6
#     2   2   2   2   2   2
#     4  11  24  41  66 107 134 167 225 285 330 381
#     4  11  23  41  69 100 130 175 226 272 330 387
#     4  12  24  40  69  99 135 174 225 277 329 397
#     4  11  23  43  69  95 133 178 224 265 337 401
#     4  10  22  41  67  92 141 168 220 268 337 384
#     4  11  24  47  68  97 135 183 222 268 330 410
#
# _framework density 23.625588
#
# number of rings (size 3 to 8) (size 9 to 14) (size 15 to 20)
#    0.000    1.000    1.667    7.000    7.000    0.000 
#    0.000    6.667    3.667    0.000    0.000    0.000 
#    0.000    0.000    0.000    0.000    0.000    0.000 
#
# Total GULP energy -67067.663871 kJ/mol
# GULP energy per Si atom -5588.971989 kJ/mol
# Density = 2.357182 g / cm^3
# Si number density = 23.625588 Si / 1000 Ang^3
#
#
#
# Elastic Constant Matrix: (Units=GPa)
#
#
# Indices 1 2 3 4 5 6 
#
# 1 97.5944 34.9691 24.7479 -5.7017 -22.1902 -26.6810
# 2 34.9691 210.9449 31.9972 -18.8874 8.1350 -30.6483
# 3 24.7479 31.9972 70.4613 -10.8179 -12.6824 -3.1253
# 4 -5.7017 -18.8874 -10.8179 31.6866 -3.8739 2.1163
# 5 -22.1902 8.1350 -12.6824 -3.8739 23.7262 2.2989
# 6 -26.6810 -30.6483 -3.1253 2.1163 2.2989 47.3148
#
#
#
# Elastic Compliance Matrix: (Units=1/GPa)
#
#
# Indices 1 2 3 4 5 6 
#
# 1 0.017013 -0.001843 -0.001602 0.002806 0.015426 0.007419
# 2 -0.001843 0.006258 -0.002788 0.001586 -0.005393 0.003021
# 3 -0.001602 -0.002788 0.018746 0.005904 0.010660 -0.002253
# 4 0.002806 0.001586 0.005904 0.036324 0.011086 0.000836
# 5 0.015426 -0.005393 0.010660 0.011086 0.065717 0.002221
# 6 0.007419 0.003021 -0.002253 0.000836 0.002221 0.026982
#
#
# Mechanical properties :
#
#
# Convention : Reuss Voigt Hill
#
# Bulk Modulus (GPa) = 33.83952 62.49212 48.16582
# Shear Modulus (GPa) = 25.85909 39.69794 32.77851
#
# Velocity S-wave (km/s) = 3.31197 4.10359 3.72884
# Velocity P-wave (km/s) = 5.38329 6.99721 6.24263
#
# Compressibility (1/GPa) = 0.02955125
#
# Stress axis : x y z
#
# Youngs Moduli (GPa) = 58.77943 159.79841 53.34480
#
# Poissons Ratio (x) = 0.29451 0.08545
# Poissons Ratio (y) = 0.10833 0.14871
# Poissons Ratio (z) = 0.09416 0.44548
#
# Static dielectric constant tensor:
#      x y z
#    x 1.940050 -0.048460 0.081000 
#    y -0.048460 1.957210 -0.016910 
#    z 0.081000 -0.016910 1.937620 
# 
# From -- ./inp_files/147370.got.cif
#   From: 2010.05.17/outbox.cif.g08.bks.cpg/sg2_74_cif.got.tgz:147370.got - 2010.06.03 11:33:40.
