data_PCOD9027251
_publ_section_title
;
Structure prediction by ZEFSAII (Michael W. Deem and Ramdas Pophale) SiO2 
 PCOD9027251
Probable space group: P -1
;
_chemical_formula_sum "Si O2"
_cell_formula_units_Z 12
_cell_length_a 5.462464
_cell_length_b 12.697018
_cell_length_c 17.998891
_cell_angle_alpha 150.650034
_cell_angle_beta 69.197565
_cell_angle_gamma 121.668692
_cell_volume 504.805238
_symmetry_space_group_name_H-M "P -1"
_symmetry_group_IT_number 2
_symmetry_cell_setting 'triclinic'
loop_
_space_group_symop_operation_xyz
x,y,z
-x,-y,-z
loop_
_atom_site_type_symbol
_atom_site_label
_atom_site_fract_x
_atom_site_fract_y
_atom_site_fract_z
Si Si1 0.178850 0.552464 0.407669
Si Si2 0.909045 0.806569 0.687860
Si Si3 0.074780 0.441052 0.839779
Si Si4 0.161080 0.812086 0.438357
Si Si5 0.763278 0.976647 0.671510
Si Si6 0.352020 0.340184 0.990871
O O1 0.935686 0.601837 0.508583
O O2 0.133003 0.576069 0.340625
O O3 0.485729 0.788423 0.539449
O O4 0.189852 0.321529 0.300625
O O5 0.720680 0.896442 0.712553
O O6 0.218295 0.052424 0.814862
O O7 0.026553 0.274053 0.669721
O O8 0.868574 0.255343 0.812477
O O9 0.406062 0.569425 0.914284
O O10 0.929292 0.610688 0.936795
O O11 0.037536 0.940529 0.588062
O O12 0.500000 0.000000 0.500000
O O13 0.500000 0.500000 0.000000
#
# Coordination Sequence:
#
# PCOD9027251 Si02
#       6
#     2   2   2   2   2   2
#     4  10  22  41  67  93 129 164 222 272 321 379
#     4  10  23  41  63  97 127 172 215 269 326 375
#     4  12  25  40  66  98 130 168 213 267 325 388
#     4  11  23  40  64  99 128 166 218 271 324 378
#     4  11  21  38  69  94 126 164 219 279 319 374
#     4  12  25  42  65  95 134 172 214 264 323 397
#
# _framework density 23.771543000000001
#
# number of rings (size 3 to 8) (size 9 to 14) (size 15 to 20)
#    0.000    1.000    3.333    3.500    4.667    0.000 
#    0.000    1.667    0.000    0.000    0.000    0.000 
#    0.000    0.000    0.000    0.000    0.000    0.000 
#
# Total GULP energy -67110.910161 kJ/mol
# GULP energy per Si atom -5592.575847 kJ/mol
# Density = 2.371744 g / cm^3
# Si number density = 23.771543 Si / 1000 Ang^3
#
#
#
# Elastic Constant Matrix: (Units=GPa)
#
#
# Indices 1 2 3 4 5 6 
#
# 1 118.5618 28.3689 33.2384 -4.0203 16.3222 -30.4279
# 2 28.3689 123.5347 28.6990 15.4648 1.7036 -44.1542
# 3 33.2384 28.6990 86.3582 7.2519 11.6943 -12.9534
# 4 -4.0203 15.4648 7.2519 28.6625 -4.3859 1.4396
# 5 16.3222 1.7036 11.6943 -4.3859 46.6701 -6.1736
# 6 -30.4279 -44.1542 -12.9534 1.4396 -6.1736 48.3186
#
#
#
# Elastic Compliance Matrix: (Units=1/GPa)
#
#
# Indices 1 2 3 4 5 6 
#
# 1 0.011220 0.000153 -0.003323 0.001703 -0.002144 0.005989
# 2 0.000153 0.014043 -0.002337 -0.007448 0.000993 0.012651
# 3 -0.003323 -0.002337 0.014163 -0.003166 -0.002689 -0.000681
# 4 0.001703 -0.007448 -0.003166 0.040827 0.003331 -0.007373
# 5 -0.002144 0.000993 -0.002689 0.003331 0.023355 0.001721
# 6 0.005989 0.012651 -0.000681 -0.007373 0.001721 0.036285
#
#
# Mechanical properties :
#
#
# Convention : Reuss Voigt Hill
#
# Bulk Modulus (GPa) = 35.19821 56.56304 45.88062
# Shear Modulus (GPa) = 31.17594 40.60681 35.89137
#
# Velocity S-wave (km/s) = 3.62537 4.13753 3.88989
# Velocity P-wave (km/s) = 5.68888 6.83167 6.28630
#
# Compressibility (1/GPa) = 0.02841054
#
# Stress axis : x y z
#
# Youngs Moduli (GPa) = 89.12947 71.20822 70.60481
#
# Poissons Ratio (x) = -0.01086 0.23464
# Poissons Ratio (y) = -0.01360 0.16501
# Poissons Ratio (z) = 0.29621 0.16642
#
# Static dielectric constant tensor:
#      x y z
#    x 1.976070 -0.025010 -0.085820 
#    y -0.025010 1.919450 0.013340 
#    z -0.085820 0.013340 1.932920 
# 
# From -- ./inp_files/63195.got.cif
#   From: 2010.05.17/outbox.cif.g08.bks.cpg/sg2_32_cif.got.tgz:63195.got - 2010.06.03 11:33:40.
