data_PCOD9027274
_publ_section_title
;
Structure prediction by ZEFSAII (Michael W. Deem and Ramdas Pophale) SiO2 
 PCOD9027274
Probable space group: P -1
;
_chemical_formula_sum "Si O2"
_cell_formula_units_Z 16
_cell_length_a 7.521026
_cell_length_b 21.112255
_cell_length_c 22.072389
_cell_angle_alpha 161.372464
_cell_angle_beta 33.169952
_cell_angle_gamma 138.374005
_cell_volume 591.175930
_symmetry_space_group_name_H-M "P -1"
_symmetry_group_IT_number 2
_symmetry_cell_setting 'triclinic'
loop_
_space_group_symop_operation_xyz
x,y,z
-x,-y,-z
loop_
_atom_site_type_symbol
_atom_site_label
_atom_site_fract_x
_atom_site_fract_y
_atom_site_fract_z
Si Si1 0.287664 0.217433 0.812219
Si Si2 0.229335 0.216820 0.011351
Si Si3 0.318273 0.345692 0.740954
Si Si4 0.885360 0.792330 0.830437
Si Si5 0.072728 0.566341 0.277974
Si Si6 0.161294 0.759836 0.599975
Si Si7 0.830071 0.946194 0.749315
Si Si8 0.031473 0.059648 0.620390
O O1 0.166032 0.178941 0.745689
O O2 0.694755 0.159340 0.647218
O O3 0.142688 0.442940 0.084294
O O4 0.128578 0.057017 0.751005
O O5 0.632973 0.148932 0.822825
O O6 0.145184 0.000000 0.832586
O O7 0.132620 0.302645 0.184349
O O8 0.042506 0.388135 0.172354
O O9 0.609218 0.365971 0.723313
O O10 0.491986 0.358241 0.638406
O O11 0.178306 0.143480 0.594506
O O12 0.000000 0.500000 0.000000
O O13 0.099140 0.678967 0.610107
O O14 0.505183 0.874193 0.989156
O O15 0.000000 0.000000 0.000000
O O16 0.801766 0.786844 0.558648
O O17 0.889158 0.799887 0.659000
#
# Coordination Sequence:
#
# PCOD9027274 Si02
#       8
#     2   2   2   2   2   2   2   2
#     4  11  23  41  63  96 136 181 218 270 337 389
#     4  11  21  39  69  98 132 174 223 273 326 394
#     4  11  22  38  61  97 135 167 217 271 323 389
#     4  10  23  44  70  95 127 178 226 272 329 391
#     4  11  23  40  66  99 136 170 221 268 334 395
#     4  10  22  41  67  94 129 182 215 266 337 384
#     4  11  21  45  68  95 130 177 220 271 329 397
#     4  11  22  39  63  94 136 178 222 267 327 401
#
# _framework density 27.064702
#
# number of rings (size 3 to 8) (size 9 to 14) (size 15 to 20)
#    0.000    1.250    6.250    0.375    1.750    1.500 
#    4.500    5.000    5.500    0.000    0.000    0.000 
#    0.000    0.000    0.000    0.000    0.000    0.000 
#
# Total GULP energy -89414.425558 kJ/mol
# GULP energy per Si atom -5588.401597 kJ/mol
# Density = 2.700310 g / cm^3
# Si number density = 27.064702 Si / 1000 Ang^3
#
#
#
# Elastic Constant Matrix: (Units=GPa)
#
#
# Indices 1 2 3 4 5 6 
#
# 1 32.2020 -11.5224 5.0245 -10.3874 -2.4925 -9.1083
# 2 -11.5224 94.3310 7.3701 1.1952 7.5916 -17.7349
# 3 5.0245 7.3701 134.6746 -12.8768 27.7532 -4.1596
# 4 -10.3874 1.1952 -12.8768 47.7427 -3.5376 14.0193
# 5 -2.4925 7.5916 27.7532 -3.5376 36.0115 -1.4908
# 6 -9.1083 -17.7349 -4.1596 14.0193 -1.4908 38.9329
#
#
#
# Elastic Compliance Matrix: (Units=1/GPa)
#
#
# Indices 1 2 3 4 5 6 
#
# 1 0.038319 0.006344 -0.001717 0.005044 0.003547 0.009990
# 2 0.006344 0.013052 -0.000491 -0.001516 -0.001758 0.007856
# 3 -0.001717 -0.000491 0.009080 0.001739 -0.006865 -0.000544
# 4 0.005044 -0.001516 0.001739 0.025097 0.001450 -0.008306
# 5 0.003547 -0.001758 -0.006865 0.001450 0.033821 0.000069
# 6 0.009990 0.007856 -0.000544 -0.008306 0.000069 0.034536
#
#
# Mechanical properties :
#
#
# Convention : Reuss Voigt Hill
#
# Bulk Modulus (GPa) = 14.55117 29.21688 21.88403
# Shear Modulus (GPa) = 29.66626 41.89311 35.77968
#
# Velocity S-wave (km/s) = 3.31437 3.93859 3.63988
# Velocity P-wave (km/s) = 4.47603 5.61266 5.07626
#
# Compressibility (1/GPa) = 0.06872298
#
# Stress axis : x y z
#
# Youngs Moduli (GPa) = 26.09652 76.61786 110.12691
#
# Poissons Ratio (x) = -0.48604 0.18908
# Poissons Ratio (y) = -0.16555 0.05408
# Poissons Ratio (z) = 0.04481 0.03762
#
# Static dielectric constant tensor:
#      x y z
#    x 2.329090 -0.076120 0.012470 
#    y -0.076120 2.295030 0.023770 
#    z 0.012470 0.023770 2.168750 
# 
# From -- ./inp_files/608782.got.cif
#   From: 2010.05.17/outbox.cif.g08.bks.cpg/sg2_305_cif.got.tgz:608782.got - 2010.06.03 11:33:40.
