data_PCOD9027180
_publ_section_title
;
Structure prediction by ZEFSAII (Michael W. Deem and Ramdas Pophale) SiO2 
 PCOD9027180
Probable space group: P -1
;
_chemical_formula_sum "Si O2"
_cell_formula_units_Z 12
_cell_length_a 15.174791
_cell_length_b 8.784598
_cell_length_c 5.568082
_cell_angle_alpha 85.253432
_cell_angle_beta 122.494453
_cell_angle_gamma 121.431560
_cell_volume 513.695040
_symmetry_space_group_name_H-M "P -1"
_symmetry_group_IT_number 2
_symmetry_cell_setting 'triclinic'
loop_
_space_group_symop_operation_xyz
x,y,z
-x,-y,-z
loop_
_atom_site_type_symbol
_atom_site_label
_atom_site_fract_x
_atom_site_fract_y
_atom_site_fract_z
Si Si1 0.096569 0.711861 0.537436
Si Si2 0.493376 0.675012 0.976386
Si Si3 0.111592 0.278110 0.050162
Si Si4 0.947482 0.072983 0.220263
Si Si5 0.636414 0.330312 0.712839
Si Si6 0.365448 0.936053 0.933326
O O1 0.126911 0.847103 0.790822
O O2 0.233939 0.771438 0.640821
O O3 0.000000 0.500000 0.500000
O O4 0.017666 0.755353 0.240366
O O5 0.420457 0.673493 0.628940
O O6 0.500000 0.500000 0.000000
O O7 0.435480 0.664587 0.155990
O O8 0.625970 0.874733 0.111043
O O9 0.226156 0.476926 0.110335
O O10 0.077397 0.252275 0.281768
O O11 0.125188 0.108863 0.031338
O O12 0.000000 0.000000 0.500000
O O13 0.637258 0.150414 0.800766
O O14 0.500000 0.000000 0.000000
#
# Coordination Sequence:
#
# PCOD9027180 Si02
#       6
#     2   2   2   2   2   2
#     4  11  22  42  68 103 136 182 243 288 361 427
#     4  11  26  45  72 105 139 194 247 295 355 435
#     4  10  22  41  67 101 136 186 230 303 357 424
#     4   9  22  39  62  97 141 177 228 291 357 424
#     4  11  24  45  73 100 146 188 240 299 367 419
#     4  10  24  47  68 101 148 190 238 298 361 432
#
# _framework density 23.360163
#
# number of rings (size 3 to 8) (size 9 to 14) (size 15 to 20)
#    0.000    1.667    1.667    1.000    7.000    3.333 
#   12.000    0.000    0.000    0.000    0.000    0.000 
#    0.000    0.000    0.000    0.000    0.000    0.000 
#
# Total GULP energy -66856.389441 kJ/mol
# GULP energy per Si atom -5571.365787 kJ/mol
# Density = 2.330699 g / cm^3
# Si number density = 23.360163 Si / 1000 Ang^3
#
#
#
# Elastic Constant Matrix: (Units=GPa)
#
#
# Indices 1 2 3 4 5 6 
#
# 1 80.6230 48.0689 25.1563 0.8877 -2.4731 11.6331
# 2 48.0689 206.3603 31.7506 -8.4691 14.7907 22.8326
# 3 25.1563 31.7506 80.5893 -7.0511 3.8775 11.5681
# 4 0.8877 -8.4691 -7.0511 40.5509 10.0247 10.5040
# 5 -2.4731 14.7907 3.8775 10.0247 25.5689 -0.0317
# 6 11.6331 22.8326 11.5681 10.5040 -0.0317 44.4618
#
#
#
# Elastic Compliance Matrix: (Units=1/GPa)
#
#
# Indices 1 2 3 4 5 6 
#
# 1 0.016077 -0.003563 -0.004046 -0.002973 0.005394 -0.000618
# 2 -0.003563 0.006646 -0.000466 0.003583 -0.005527 -0.003210
# 3 -0.004046 -0.000466 0.014989 0.004591 -0.004199 -0.003690
# 4 -0.002973 0.003583 0.004591 0.032805 -0.015931 -0.010018
# 5 0.005394 -0.005527 -0.004199 -0.015931 0.049720 0.006319
# 6 -0.000618 -0.003210 -0.003690 -0.010018 0.006319 0.027632
#
#
# Mechanical properties :
#
#
# Convention : Reuss Voigt Hill
#
# Bulk Modulus (GPa) = 46.37737 64.16937 55.27337
# Shear Modulus (GPa) = 29.20458 39.62279 34.41368
#
# Velocity S-wave (km/s) = 3.53963 4.12293 3.84236
# Velocity P-wave (km/s) = 6.04993 7.08476 6.58770
#
# Compressibility (1/GPa) = 0.02156224
#
# Stress axis : x y z
#
# Youngs Moduli (GPa) = 62.19910 150.47052 66.71769
#
# Poissons Ratio (x) = 0.53609 0.26993
# Poissons Ratio (y) = 0.22160 0.03109
# Poissons Ratio (z) = 0.25165 0.07013
#
# Static dielectric constant tensor:
#      x y z
#    x 2.102400 -0.040680 -0.078310 
#    y -0.040680 1.906980 0.022240 
#    z -0.078310 0.022240 2.019200 
# 
# From -- ./inp_files/25436.got.cif
#   From: 2010.05.17/outbox.cif.g08.bks.cpg/sg2_13_cif.got.tgz:25436.got - 2010.06.03 11:33:40.
