data_PCOD9027040
_publ_section_title
;
Structure prediction by ZEFSAII (Michael W. Deem and Ramdas Pophale) SiO2 
 PCOD9027040
Probable space group: P -1
;
_chemical_formula_sum "Si O2"
_cell_formula_units_Z 16
_cell_length_a 15.999664
_cell_length_b 18.914605
_cell_length_c 5.131986
_cell_angle_alpha 109.735577
_cell_angle_beta 74.676554
_cell_angle_gamma 155.228659
_cell_volume 608.973240
_symmetry_space_group_name_H-M "P -1"
_symmetry_group_IT_number 2
_symmetry_cell_setting 'triclinic'
loop_
_space_group_symop_operation_xyz
x,y,z
-x,-y,-z
loop_
_atom_site_type_symbol
_atom_site_label
_atom_site_fract_x
_atom_site_fract_y
_atom_site_fract_z
Si Si1 0.652150 0.851733 0.889760
Si Si2 0.562155 0.630449 0.515612
Si Si3 0.120651 0.880338 0.622131
Si Si4 0.755390 0.556578 0.873138
Si Si5 0.094104 0.703306 0.286765
Si Si6 0.074269 0.172808 0.659031
Si Si7 0.689164 0.181565 0.232523
Si Si8 0.323029 0.653505 0.521346
O O1 0.580183 0.710066 0.816294
O O2 0.515237 0.777069 0.681196
O O3 0.880948 0.020509 0.811369
O O4 0.672612 0.930458 0.191679
O O5 0.500000 0.500000 0.500000
O O6 0.408092 0.538949 0.313105
O O7 0.782152 0.786306 0.405451
O O8 0.129503 0.819482 0.333703
O O9 0.970098 0.726870 0.762604
O O10 0.018898 0.877350 0.602068
O O11 0.708556 0.432053 0.792320
O O12 0.790964 0.647851 0.170366
O O13 0.244785 0.806215 0.536112
O O14 0.872975 0.512368 0.338952
O O15 0.139802 0.692823 0.974694
O O16 0.662298 0.247141 0.415220
O O17 0.500000 0.000000 0.000000
#
# Coordination Sequence:
#
# PCOD9027040 Si02
#       8
#     2   2   2   2   2   2   2   2
#     4  10  24  44  62  97 133 171 232 274 341 409
#     4  11  21  42  63  95 132 172 223 281 342 407
#     4  10  22  41  66  95 130 178 221 283 338 409
#     4   9  21  42  64  94 130 170 226 277 336 414
#     4  11  26  46  73 103 144 183 233 283 348 413
#     4  11  22  41  68  90 129 179 221 282 343 404
#     4  12  26  47  73 107 141 184 228 290 348 414
#     4  10  23  46  68  98 137 178 228 283 341 414
#
# _framework density 26.273734999999999
#
# number of rings (size 3 to 8) (size 9 to 14) (size 15 to 20)
#    0.000    1.500    1.250    2.625    7.000    0.500 
#   11.250    0.000    0.000    0.000    0.000    0.000 
#    0.000    0.000    0.000    0.000    0.000    0.000 
#
# Total GULP energy -89546.372633 kJ/mol
# GULP energy per Si atom -5596.648290 kJ/mol
# Density = 2.621393 g / cm^3
# Si number density = 26.273735 Si / 1000 Ang^3
#
#
#
# Elastic Constant Matrix: (Units=GPa)
#
#
# Indices 1 2 3 4 5 6 
#
# 1 141.1588 27.3382 55.4938 17.1951 -20.3950 -7.6438
# 2 27.3382 101.6843 10.9320 18.6214 -4.1960 -0.0380
# 3 55.4938 10.9320 108.6990 12.6926 -1.2005 5.2424
# 4 17.1951 18.6214 12.6926 39.4305 2.4647 -9.2637
# 5 -20.3950 -4.1960 -1.2005 2.4647 47.4739 -3.4904
# 6 -7.6438 -0.0380 5.2424 -9.2637 -3.4904 34.1166
#
#
#
# Elastic Compliance Matrix: (Units=1/GPa)
#
#
# Indices 1 2 3 4 5 6 
#
# 1 0.010439 -0.001776 -0.005061 -0.001630 0.004514 0.003134
# 2 -0.001776 0.011214 0.000468 -0.005120 0.000373 -0.001810
# 3 -0.005061 0.000468 0.012228 -0.002758 -0.001972 -0.003963
# 4 -0.001630 -0.005120 -0.002758 0.031485 -0.002242 0.008373
# 5 0.004514 0.000373 -0.001972 -0.002242 0.023331 0.003093
# 6 0.003134 -0.001810 -0.003963 0.008373 0.003093 0.033210
#
#
# Mechanical properties :
#
#
# Convention : Reuss Voigt Hill
#
# Bulk Modulus (GPa) = 47.29995 59.89668 53.59831
# Shear Modulus (GPa) = 35.28769 41.38940 38.33854
#
# Velocity S-wave (km/s) = 3.66878 3.97333 3.82409
# Velocity P-wave (km/s) = 5.99903 6.62544 6.32000
#
# Compressibility (1/GPa) = 0.02114167
#
# Stress axis : x y z
#
# Youngs Moduli (GPa) = 95.79850 89.17425 81.77926
#
# Poissons Ratio (x) = 0.15840 0.41393
# Poissons Ratio (y) = 0.17017 -0.03830
# Poissons Ratio (z) = 0.48488 -0.04177
#
# Static dielectric constant tensor:
#      x y z
#    x 2.045120 0.036790 -0.055540 
#    y 0.036790 2.160120 -0.033500 
#    z -0.055540 -0.033500 2.050060 
# 
# From -- ./inp_files/99879.got.cif
#   From: 2010.05.17/outbox.cif.g08.bks.cpg/sg2_50_cif.got.tgz:99879.got - 2010.06.03 11:33:40.
