data_PCOD9027471
_publ_section_title
;
Structure prediction by ZEFSAII (Michael W. Deem and Ramdas Pophale) SiO2 
 PCOD9027471
Probable space group: P -1
;
_chemical_formula_sum "Si O2"
_cell_formula_units_Z 16
_cell_length_a 9.484149
_cell_length_b 12.373089
_cell_length_c 15.284292
_cell_angle_alpha 27.835641
_cell_angle_beta 94.603884
_cell_angle_gamma 107.469021
_cell_volume 726.540110
_symmetry_space_group_name_H-M "P -1"
_symmetry_group_IT_number 2
_symmetry_cell_setting 'triclinic'
loop_
_space_group_symop_operation_xyz
x,y,z
-x,-y,-z
loop_
_atom_site_type_symbol
_atom_site_label
_atom_site_fract_x
_atom_site_fract_y
_atom_site_fract_z
Si Si1 0.888083 0.280965 0.912273
Si Si2 0.049333 0.395520 0.492512
Si Si3 0.207938 0.991016 0.372937
Si Si4 0.215433 0.407272 0.192018
Si Si5 0.436584 0.287477 0.417845
Si Si6 0.235033 0.486990 0.800644
Si Si7 0.666997 0.737469 0.372177
Si Si8 0.585762 0.265574 0.195030
O O1 0.890053 0.390373 0.737340
O O2 0.890054 0.493776 0.830433
O O3 0.050484 0.255955 0.949003
O O4 0.732030 0.004276 0.127674
O O5 0.193535 0.341919 0.563506
O O6 0.000000 0.500000 0.500000
O O7 0.897268 0.133119 0.630404
O O8 0.133497 0.133002 0.328488
O O9 0.399971 0.199899 0.223230
O O10 0.212519 0.741132 0.595487
O O11 0.333511 0.375407 0.289566
O O12 0.319972 0.628313 0.966763
O O13 0.628672 0.499983 0.267994
O O14 0.366891 0.227342 0.554169
O O15 0.421541 0.011606 0.581490
O O16 0.314354 0.531036 0.868375
O O17 0.500000 0.500000 0.500000
#
# Coordination Sequence:
#
# PCOD9027471 Si02
#       8
#     2   2   2   2   2   2   2   2
#     4  11  27  47  71 110 139 182 238 294 362 418
#     4  11  28  50  73 103 144 187 240 297 345 413
#     4  10  22  41  69 106 148 183 227 287 353 419
#     4  12  22  39  71 106 143 183 228 283 362 420
#     4  11  22  45  67 101 143 186 229 291 345 422
#     4  10  22  41  68 102 149 181 226 283 353 422
#     4  12  29  51  73 100 137 191 242 297 354 411
#     4  11  21  38  67 105 147 184 229 274 353 431
#
# _framework density 22.022185
#
# number of rings (size 3 to 8) (size 9 to 14) (size 15 to 20)
#    0.000    1.000    5.000    1.125    7.000    4.500 
#    2.250    0.000    0.000    0.000    0.000    0.000 
#    0.000    0.000    0.000    0.000    0.000    0.000 
#
# Total GULP energy -89479.566409 kJ/mol
# GULP energy per Si atom -5592.472901 kJ/mol
# Density = 2.197206 g / cm^3
# Si number density = 22.022185 Si / 1000 Ang^3
#
#
#
# Elastic Constant Matrix: (Units=GPa)
#
#
# Indices 1 2 3 4 5 6 
#
# 1 97.2036 30.5826 15.8275 -4.3059 -3.5851 -9.1217
# 2 30.5826 93.8225 22.2047 -0.6546 -5.3882 -11.8437
# 3 15.8275 22.2047 78.9238 13.4302 -13.9285 4.2074
# 4 -4.3059 -0.6546 13.4302 34.4945 1.6208 -10.2962
# 5 -3.5851 -5.3882 -13.9285 1.6208 35.7756 7.8247
# 6 -9.1217 -11.8437 4.2074 -10.2962 7.8247 45.9598
#
#
#
# Elastic Compliance Matrix: (Units=1/GPa)
#
#
# Indices 1 2 3 4 5 6 
#
# 1 0.011996 -0.003029 -0.002411 0.003229 -0.000930 0.002703
# 2 -0.003029 0.013002 -0.003820 0.002526 -0.000778 0.003797
# 3 -0.002411 -0.003820 0.017599 -0.009555 0.007903 -0.006560
# 4 0.003229 0.002526 -0.009555 0.036990 -0.007248 0.011687
# 5 -0.000930 -0.000778 0.007903 -0.007248 0.032972 -0.008346
# 6 0.002703 0.003797 -0.006560 0.011687 -0.008346 0.027913
#
#
# Mechanical properties :
#
#
# Convention : Reuss Voigt Hill
#
# Bulk Modulus (GPa) = 41.53502 45.24218 43.38860
# Shear Modulus (GPa) = 29.93674 36.66831 33.30253
#
# Velocity S-wave (km/s) = 3.69099 4.08494 3.89295
# Velocity P-wave (km/s) = 6.08819 6.54504 6.32074
#
# Compressibility (1/GPa) = 0.02407607
#
# Stress axis : x y z
#
# Youngs Moduli (GPa) = 83.36314 76.90968 56.82119
#
# Poissons Ratio (x) = 0.23298 0.13700
# Poissons Ratio (y) = 0.25253 0.21706
# Poissons Ratio (z) = 0.20100 0.29380
#
# Static dielectric constant tensor:
#      x y z
#    x 1.821900 -0.001710 -0.030900 
#    y -0.001710 1.800260 -0.028590 
#    z -0.030900 -0.028590 1.870640 
# 
# From -- ./inp_files/499757.got.cif
#   From: 2010.05.17/outbox.cif.g08.bks.cpg/sg2_250_cif.got.tgz:499757.got - 2010.06.03 11:33:40.
