data_PCOD9027946
_publ_section_title
;
Structure prediction by ZEFSAII (Michael W. Deem and Ramdas Pophale) SiO2 
 PCOD9027946
Probable space group: P -1
;
_chemical_formula_sum "Si O2"
_cell_formula_units_Z 16
_cell_length_a 13.374900
_cell_length_b 9.761196
_cell_length_c 10.093687
_cell_angle_alpha 149.801809
_cell_angle_beta 82.836376
_cell_angle_gamma 98.548884
_cell_volume 655.451045
_symmetry_space_group_name_H-M "P -1"
_symmetry_group_IT_number 2
_symmetry_cell_setting 'triclinic'
loop_
_space_group_symop_operation_xyz
x,y,z
-x,-y,-z
loop_
_atom_site_type_symbol
_atom_site_label
_atom_site_fract_x
_atom_site_fract_y
_atom_site_fract_z
Si Si1 0.918932 0.144559 0.754976
Si Si2 0.261764 0.068361 0.911256
Si Si3 0.863952 0.641917 0.028596
Si Si4 0.243368 0.787055 0.943106
Si Si5 0.546684 0.963908 0.815253
Si Si6 0.253435 0.254714 0.620250
Si Si7 0.387777 0.612119 0.377471
Si Si8 0.417260 0.827126 0.281550
O O1 0.855762 0.236071 0.968923
O O2 0.036247 0.168548 0.787281
O O3 0.858159 0.856959 0.500794
O O4 0.899959 0.340287 0.796100
O O5 0.337250 0.311174 0.164513
O O6 0.219783 0.866563 0.865459
O O7 0.177058 0.234534 0.994508
O O8 0.317232 0.862007 0.632825
O O9 0.768934 0.636696 0.139660
O O10 0.332415 0.011769 0.161687
O O11 0.290170 0.500370 0.723211
O O12 0.485812 0.708346 0.533994
O O13 0.540796 0.199367 0.896835
O O14 0.500000 0.000000 0.000000
O O15 0.324008 0.011347 0.428447
O O16 0.393463 0.598246 0.203933
O O17 0.500000 0.000000 0.500000
#
# Coordination Sequence:
#
# PCOD9027946 Si02
#       8
#     2   2   2   2   2   2   2   2
#     4  10  22  44  69 103 137 184 242 300 372 429
#     4  12  26  46  71 105 146 192 244 303 365 436
#     4  10  23  42  73 102 137 184 242 305 363 441
#     4  11  26  41  67 100 143 186 238 293 364 437
#     4  11  23  44  67 102 142 193 238 292 361 437
#     4  11  21  42  71 100 140 181 241 299 367 431
#     4  11  26  45  72 105 144 189 249 304 363 427
#     4  10  22  41  70 104 138 187 244 303 354 427
#
# _framework density 24.410672000000002
#
# number of rings (size 3 to 8) (size 9 to 14) (size 15 to 20)
#    0.000    1.250    3.750    1.125    3.500    3.000 
#    0.000    5.000    0.000    0.000    0.000    0.000 
#    0.000    0.000    0.000    0.000    0.000    0.000 
#
# Total GULP energy -89228.112851 kJ/mol
# GULP energy per Si atom -5576.757053 kJ/mol
# Density = 2.435511 g / cm^3
# Si number density = 24.410672 Si / 1000 Ang^3
#
#
#
# Elastic Constant Matrix: (Units=GPa)
#
#
# Indices 1 2 3 4 5 6 
#
# 1 118.0097 53.9579 36.9662 4.4670 9.1789 -12.3793
# 2 53.9579 206.2047 44.5819 -15.8228 2.4156 -18.3087
# 3 36.9662 44.5819 97.1512 7.4451 13.1489 -0.6853
# 4 4.4670 -15.8228 7.4451 37.6388 6.2508 5.6335
# 5 9.1789 2.4156 13.1489 6.2508 36.5142 -7.6746
# 6 -12.3793 -18.3087 -0.6853 5.6335 -7.6746 28.8749
#
#
#
# Elastic Compliance Matrix: (Units=1/GPa)
#
#
# Indices 1 2 3 4 5 6 
#
# 1 0.010805 -0.002024 -0.002945 -0.002012 -0.000430 0.003557
# 2 -0.002024 0.006376 -0.002501 0.002802 0.001110 0.002864
# 3 -0.002945 -0.002501 0.013269 -0.002149 -0.004183 -0.003226
# 4 -0.002012 0.002802 -0.002149 0.030289 -0.005456 -0.006496
# 5 -0.000430 0.001110 -0.004183 -0.005456 0.031959 0.009979
# 6 0.003557 0.002864 -0.003226 -0.006496 0.009979 0.041816
#
#
# Mechanical properties :
#
#
# Convention : Reuss Voigt Hill
#
# Bulk Modulus (GPa) = 64.47056 76.93086 70.70071
# Shear Modulus (GPa) = 32.33669 39.66289 35.99979
#
# Velocity S-wave (km/s) = 3.64358 4.03528 3.84442
# Velocity P-wave (km/s) = 6.64598 7.30034 6.98083
#
# Compressibility (1/GPa) = 0.01551095
#
# Stress axis : x y z
#
# Youngs Moduli (GPa) = 92.55366 156.83496 75.36195
#
# Poissons Ratio (x) = 0.31744 0.22194
# Poissons Ratio (y) = 0.18733 0.18845
# Poissons Ratio (z) = 0.27256 0.39217
#
# Static dielectric constant tensor:
#      x y z
#    x 1.972800 0.056890 -0.039240 
#    y 0.056890 2.031390 -0.065880 
#    z -0.039240 -0.065880 2.059130 
# 
# From -- ./inp_files/299862.got.cif
#   From: 2010.05.17/outbox.cif.g08.bks.cpg/sg2_150_cif.got.tgz:299862.got - 2010.06.03 11:33:40.
