data_PCOD9027821
_publ_section_title
;
Structure prediction by ZEFSAII (Michael W. Deem and Ramdas Pophale) SiO2 
 PCOD9027821
Probable space group: P -1
;
_chemical_formula_sum "Si O2"
_cell_formula_units_Z 16
_cell_length_a 12.274032
_cell_length_b 8.388424
_cell_length_c 9.515019
_cell_angle_alpha 104.176605
_cell_angle_beta 95.234484
_cell_angle_gamma 130.657668
_cell_volume 677.370804
_symmetry_space_group_name_H-M "P -1"
_symmetry_group_IT_number 2
_symmetry_cell_setting 'triclinic'
loop_
_space_group_symop_operation_xyz
x,y,z
-x,-y,-z
loop_
_atom_site_type_symbol
_atom_site_label
_atom_site_fract_x
_atom_site_fract_y
_atom_site_fract_z
Si Si1 0.066517 0.839819 0.085777
Si Si2 0.759741 0.654633 0.885155
Si Si3 0.235647 0.045219 0.418574
Si Si4 0.746538 0.169112 0.075878
Si Si5 0.568498 0.260078 0.964150
Si Si6 0.240977 0.420653 0.449125
Si Si7 0.495642 0.074633 0.361440
Si Si8 0.920631 0.248637 0.392662
O O1 0.172741 0.095006 0.084125
O O2 0.087304 0.877834 0.263062
O O3 0.142912 0.753801 0.023330
O O4 0.900513 0.697626 0.974013
O O5 0.626737 0.485797 0.945675
O O6 0.714683 0.539057 0.702004
O O7 0.276319 0.279154 0.485126
O O8 0.366693 0.080286 0.362061
O O9 0.196081 0.930069 0.539702
O O10 0.835991 0.199218 0.228057
O O11 0.587326 0.901040 0.002021
O O12 0.694513 0.303083 0.085360
O O13 0.539663 0.098045 0.798223
O O14 0.341548 0.666643 0.585508
O O15 0.059889 0.265980 0.398591
O O16 0.500000 0.000000 0.500000
O O17 0.000000 0.500000 0.500000
#
# Coordination Sequence:
#
# PCOD9027821 Si02
#       8
#     2   2   2   2   2   2   2   2
#     4  10  22  44  67  95 128 167 218 261 318 393
#     4  10  22  41  69  96 126 170 213 266 322 386
#     4  11  25  43  67  96 129 175 217 266 325 385
#     4  11  24  44  63  92 133 169 213 267 320 384
#     4  11  24  41  65  95 131 169 215 267 322 383
#     4  11  23  43  67  95 134 170 217 268 326 386
#     4  12  22  42  66  96 130 169 216 267 321 386
#     4  12  26  43  65  99 132 172 216 272 324 382
#
# _framework density 23.620740000000001
#
# number of rings (size 3 to 8) (size 9 to 14) (size 15 to 20)
#    0.000    1.000    3.750    3.000    1.750    1.000 
#    0.000    0.000    0.000    0.000    0.000    0.000 
#    0.000    0.000    0.000    0.000    0.000    0.000 
#
# Total GULP energy -89563.948896 kJ/mol
# GULP energy per Si atom -5597.746806 kJ/mol
# Density = 2.356698 g / cm^3
# Si number density = 23.620740 Si / 1000 Ang^3
#
#
#
# Elastic Constant Matrix: (Units=GPa)
#
#
# Indices 1 2 3 4 5 6 
#
# 1 86.5161 0.4908 3.7380 7.4816 4.4285 3.9984
# 2 0.4908 83.6419 26.1513 -9.1387 2.8490 4.9746
# 3 3.7380 26.1513 81.1008 -9.6760 12.4658 -10.7550
# 4 7.4816 -9.1387 -9.6760 23.8554 9.1227 -2.8291
# 5 4.4285 2.8490 12.4658 9.1227 25.3905 -5.1725
# 6 3.9984 4.9746 -10.7550 -2.8291 -5.1725 23.8579
#
#
#
# Elastic Compliance Matrix: (Units=1/GPa)
#
#
# Indices 1 2 3 4 5 6 
#
# 1 0.012206 0.000119 -0.001547 -0.004660 -0.000403 -0.003408
# 2 0.000119 0.014113 -0.004525 0.003590 -0.001679 -0.004941
# 3 -0.001547 -0.004525 0.017825 0.010862 -0.010182 0.008319
# 4 -0.004660 0.003590 0.010862 0.059485 -0.024956 0.006572
# 5 -0.000403 -0.001679 -0.010182 -0.024956 0.054566 0.004699
# 6 -0.003408 -0.004941 0.008319 0.006572 0.004699 0.049064
#
#
# Mechanical properties :
#
#
# Convention : Reuss Voigt Hill
#
# Bulk Modulus (GPa) = 31.01936 34.66877 32.84407
# Shear Modulus (GPa) = 21.74759 29.34602 25.54680
#
# Velocity S-wave (km/s) = 3.03759 3.52857 3.29225
# Velocity P-wave (km/s) = 5.04613 5.59555 5.32793
#
# Compressibility (1/GPa) = 0.03223793
#
# Stress axis : x y z
#
# Youngs Moduli (GPa) = 81.92833 70.85589 56.10139
#
# Poissons Ratio (x) = -0.00845 0.08679
# Poissons Ratio (y) = -0.00978 0.25387
# Poissons Ratio (z) = 0.12675 0.32064
#
# Static dielectric constant tensor:
#      x y z
#    x 1.903380 0.018910 -0.000580 
#    y 0.018910 1.909970 0.014910 
#    z -0.000580 0.014910 1.886910 
# 
# From -- ./inp_files/208407.got.cif
#   From: 2010.05.17/outbox.cif.g08.bks.cpg/sg2_105_cif.got.tgz:208407.got - 2010.06.03 11:33:40.
