data_PCOD9027863
_publ_section_title
;
Structure prediction by ZEFSAII (Michael W. Deem and Ramdas Pophale) SiO2 
 PCOD9027863
Probable space group: P -1
;
_chemical_formula_sum "Si O2"
_cell_formula_units_Z 16
_cell_length_a 7.979500
_cell_length_b 22.588800
_cell_length_c 8.300338
_cell_angle_alpha 60.877475
_cell_angle_beta 69.462149
_cell_angle_gamma 32.680029
_cell_volume 700.191245
_symmetry_space_group_name_H-M "P -1"
_symmetry_group_IT_number 2
_symmetry_cell_setting 'triclinic'
loop_
_space_group_symop_operation_xyz
x,y,z
-x,-y,-z
loop_
_atom_site_type_symbol
_atom_site_label
_atom_site_fract_x
_atom_site_fract_y
_atom_site_fract_z
Si Si1 0.729206 0.479782 0.548339
Si Si2 0.303869 0.214228 0.835551
Si Si3 0.131033 0.977542 0.307414
Si Si4 0.292883 0.584668 0.806283
Si Si5 0.225794 0.458507 0.844686
Si Si6 0.715512 0.196990 0.926316
Si Si7 0.920087 0.900511 0.373297
Si Si8 0.805830 0.833947 0.767208
O O1 0.500000 0.500000 0.500000
O O2 0.502168 0.571580 0.648838
O O3 0.857913 0.500521 0.367801
O O4 0.017040 0.347236 0.692552
O O5 0.507164 0.123644 0.733939
O O6 0.502907 0.202566 0.906749
O O7 0.173593 0.192641 0.017035
O O8 0.073145 0.925056 0.310479
O O9 0.000000 0.000000 0.500000
O O10 0.930255 0.095589 0.124275
O O11 0.270135 0.520539 0.810635
O O12 0.956783 0.720745 0.780846
O O13 0.500000 0.500000 0.000000
O O14 0.506017 0.318675 0.919982
O O15 0.000000 0.500000 0.000000
O O16 0.925230 0.169476 0.754740
O O17 0.972644 0.840907 0.596889
O O18 0.553993 0.032142 0.306943
#
# Coordination Sequence:
#
# PCOD9027863 Si02
#       8
#     2   2   2   2   2   2   2   2
#     4  10  24  44  62  94 132 175 221 275 336 396
#     4  11  21  43  71  91 132 181 222 276 340 401
#     4  11  24  40  65  99 136 176 217 280 336 390
#     4  11  23  42  67  93 135 179 218 271 339 398
#     4  11  26  42  65 100 134 178 227 280 325 398
#     4  11  22  45  65  97 140 174 225 273 334 404
#     4  10  22  41  69  98 127 173 222 273 330 403
#     4  11  20  39  72  96 123 171 226 265 330 399
#
# _framework density 22.850898000000001
#
# number of rings (size 3 to 8) (size 9 to 14) (size 15 to 20)
#    0.000    1.250    3.750    2.250    1.750    2.500 
#    2.250    1.875    0.000    0.000    0.000    0.000 
#    0.000    0.000    0.000    0.000    0.000    0.000 
#
# Total GULP energy -89110.811773 kJ/mol
# GULP energy per Si atom -5569.425736 kJ/mol
# Density = 2.279889 g / cm^3
# Si number density = 22.850898 Si / 1000 Ang^3
#
#
#
# Elastic Constant Matrix: (Units=GPa)
#
#
# Indices 1 2 3 4 5 6 
#
# 1 30.6136 15.4640 20.4075 9.2924 -3.9688 2.9438
# 2 15.4640 201.4876 79.2576 25.1756 -9.5519 -4.1729
# 3 20.4075 79.2576 187.8464 36.6581 -29.3720 -21.5275
# 4 9.2924 25.1756 36.6581 55.0111 -1.0954 -1.5487
# 5 -3.9688 -9.5519 -29.3720 -1.0954 28.5260 -2.5979
# 6 2.9438 -4.1729 -21.5275 -1.5487 -2.5979 25.8801
#
#
#
# Elastic Compliance Matrix: (Units=1/GPa)
#
#
# Indices 1 2 3 4 5 6 
#
# 1 0.037599 -0.001103 -0.003817 -0.003522 0.000084 -0.007832
# 2 -0.001103 0.006099 -0.002529 -0.000969 -0.000856 -0.001139
# 3 -0.003817 -0.002529 0.010330 -0.004621 0.009932 0.009340
# 4 -0.003522 -0.000969 -0.004621 0.022119 -0.004976 -0.002775
# 5 0.000084 -0.000856 0.009932 -0.004976 0.045948 0.012429
# 6 -0.007832 -0.001139 0.009340 -0.002775 0.012429 0.048198
#
#
# Mechanical properties :
#
#
# Convention : Reuss Voigt Hill
#
# Bulk Modulus (GPa) = 25.55398 72.24509 48.89954
# Shear Modulus (GPa) = 25.22268 42.20466 33.71367
#
# Velocity S-wave (km/s) = 3.32594 4.30229 3.84523
# Velocity P-wave (km/s) = 5.09474 7.50760 6.41562
#
# Compressibility (1/GPa) = 0.03913284
#
# Stress axis : x y z
#
# Youngs Moduli (GPa) = 26.59612 163.95009 96.80243
#
# Poissons Ratio (x) = 0.18076 0.36947
# Poissons Ratio (y) = 0.02932 0.24481
# Poissons Ratio (z) = 0.10151 0.41462
#
# Static dielectric constant tensor:
#      x y z
#    x 1.844040 0.053560 -0.009630 
#    y 0.053560 1.926150 0.219780 
#    z -0.009630 0.219780 2.032780 
# 
# From -- ./inp_files/205847.got.cif
#   From: 2010.05.17/outbox.cif.g08.bks.cpg/sg2_103_cif.got.tgz:205847.got - 2010.06.03 11:33:40.
