data_PCOD9027175
_publ_section_title
;
Structure prediction by ZEFSAII (Michael W. Deem and Ramdas Pophale) SiO2 
 PCOD9027175
Probable space group: P -1
;
_chemical_formula_sum "Si O2"
_cell_formula_units_Z 14
_cell_length_a 4.971845
_cell_length_b 5.702439
_cell_length_c 23.498457
_cell_angle_alpha 125.906861
_cell_angle_beta 98.417632
_cell_angle_gamma 92.478650
_cell_volume 526.831407
_symmetry_space_group_name_H-M "P -1"
_symmetry_group_IT_number 2
_symmetry_cell_setting 'triclinic'
loop_
_space_group_symop_operation_xyz
x,y,z
-x,-y,-z
loop_
_atom_site_type_symbol
_atom_site_label
_atom_site_fract_x
_atom_site_fract_y
_atom_site_fract_z
Si Si1 0.157084 0.733455 0.173727
Si Si2 0.690466 0.108804 0.218620
Si Si3 0.677826 0.618062 0.967750
Si Si4 0.640310 0.714702 0.458562
Si Si5 0.240195 0.803863 0.892154
Si Si6 0.747476 0.835911 0.604845
Si Si7 0.727966 0.776866 0.349348
O O1 0.147009 0.594774 0.089740
O O2 0.015303 0.452717 0.164949
O O3 0.467767 0.886525 0.215450
O O4 0.976688 0.988236 0.212147
O O5 0.614564 0.087060 0.146377
O O6 0.694957 0.444947 0.281315
O O7 0.458501 0.680631 0.921807
O O8 0.500000 0.500000 0.000000
O O9 0.846664 0.924592 0.038100
O O10 0.762326 0.689860 0.521567
O O11 0.408100 0.429888 0.400566
O O12 0.832841 0.761429 0.416130
O O13 0.500000 0.000000 0.500000
O O14 0.550292 0.083637 0.635627
O O15 0.052918 0.001991 0.648770
#
# Coordination Sequence:
#
# PCOD9027175 Si02
#       7
#     2   2   2   2   2   2   2
#     4  12  25  47  66 100 129 175 222 281 328 403
#     4  12  28  44  68  96 139 177 228 267 333 405
#     4  11  23  47  71 101 129 169 225 282 342 397
#     4   9  21  40  70 100 134 170 219 276 324 376
#     4  11  25  43  71  98 133 174 218 281 346 395
#     4  10  22  41  67 101 131 172 225 268 322 386
#     4  11  24  43  64  96 135 180 216 269 325 389
#
# _framework density 26.573965000000001
#
# number of rings (size 3 to 8) (size 9 to 14) (size 15 to 20)
#    0.000    1.143    2.857    1.714    2.000   12.000 
#    0.000    0.000    0.000    0.000    0.000    0.000 
#    0.000    0.000    0.000    0.000    0.000    0.000 
#
# Total GULP energy -78468.757031 kJ/mol
# GULP energy per Si atom -5604.911217 kJ/mol
# Density = 2.651348 g / cm^3
# Si number density = 26.573965 Si / 1000 Ang^3
#
#
#
# Elastic Constant Matrix: (Units=GPa)
#
#
# Indices 1 2 3 4 5 6 
#
# 1 114.4118 14.6805 32.9860 14.6221 -16.1654 2.6419
# 2 14.6805 70.2094 22.3525 11.5979 -7.6367 29.4742
# 3 32.9860 22.3525 140.8971 31.8955 -23.1358 3.2325
# 4 14.6221 11.5979 31.8955 55.4782 -0.4148 8.3029
# 5 -16.1654 -7.6367 -23.1358 -0.4148 35.7646 14.0707
# 6 2.6419 29.4742 3.2325 8.3029 14.0707 34.1702
#
#
#
# Elastic Compliance Matrix: (Units=1/GPa)
#
#
# Indices 1 2 3 4 5 6 
#
# 1 0.009981 -0.000098 -0.001170 -0.001597 0.004521 -0.002050
# 2 -0.000098 0.031630 -0.000710 -0.000742 0.020138 -0.035321
# 3 -0.001170 -0.000710 0.009602 -0.004786 0.006084 -0.001548
# 4 -0.001597 -0.000742 -0.004786 0.021788 -0.002529 -0.003037
# 5 0.004521 0.020138 0.006084 -0.002529 0.053899 -0.039875
# 6 -0.002050 -0.035321 -0.001548 -0.003037 -0.039875 0.077195
#
#
# Mechanical properties :
#
#
# Convention : Reuss Voigt Hill
#
# Bulk Modulus (GPa) = 21.16128 51.72850 36.44489
# Shear Modulus (GPa) = 22.34100 42.11588 32.22844
#
# Velocity S-wave (km/s) = 2.90265 3.98534 3.48628
# Velocity P-wave (km/s) = 4.38341 6.37851 5.47264
#
# Compressibility (1/GPa) = 0.04725611
#
# Stress axis : x y z
#
# Youngs Moduli (GPa) = 100.19511 31.61522 104.14386
#
# Poissons Ratio (x) = 0.00311 0.12186
# Poissons Ratio (y) = 0.00984 0.07395
# Poissons Ratio (z) = 0.11724 0.02245
#
# Static dielectric constant tensor:
#      x y z
#    x 2.045600 -0.011490 0.052460 
#    y -0.011490 2.053300 -0.024610 
#    z 0.052460 -0.024610 2.104670 
# 
# From -- ./inp_files/125621.got.cif
#   From: 2010.05.17/outbox.cif.g08.bks.cpg/sg2_63_cif.got.tgz:125621.got - 2010.06.03 11:33:40.
