data_PCOD9027577
_publ_section_title
;
Structure prediction by ZEFSAII (Michael W. Deem and Ramdas Pophale) SiO2 
 PCOD9027577
Probable space group: P -1
;
_chemical_formula_sum "Si O2"
_cell_formula_units_Z 16
_cell_length_a 9.842187
_cell_length_b 5.333617
_cell_length_c 19.488057
_cell_angle_alpha 84.169592
_cell_angle_beta 130.794476
_cell_angle_gamma 109.892600
_cell_volume 717.721876
_symmetry_space_group_name_H-M "P -1"
_symmetry_group_IT_number 2
_symmetry_cell_setting 'triclinic'
loop_
_space_group_symop_operation_xyz
x,y,z
-x,-y,-z
loop_
_atom_site_type_symbol
_atom_site_label
_atom_site_fract_x
_atom_site_fract_y
_atom_site_fract_z
Si Si1 0.633950 0.364834 0.964863
Si Si2 0.834066 0.227209 0.428466
Si Si3 0.815350 0.415515 0.165952
Si Si4 0.784051 0.977632 0.943280
Si Si5 0.922464 0.945527 0.743887
Si Si6 0.036405 0.008846 0.396797
Si Si7 0.346524 0.401167 0.776637
Si Si8 0.584827 0.788198 0.746071
O O1 0.696774 0.680803 0.957141
O O2 0.422922 0.244188 0.863537
O O3 0.761283 0.211157 0.976337
O O4 0.663776 0.354345 0.055607
O O5 0.615226 0.200236 0.347424
O O6 0.000000 0.500000 0.500000
O O7 0.838534 0.024581 0.497223
O O8 0.922471 0.183410 0.386793
O O9 0.696543 0.372139 0.198710
O O10 0.945350 0.236131 0.203218
O O11 0.955213 0.737379 0.206306
O O12 0.684455 0.983579 0.836967
O O13 0.000000 0.000000 0.000000
O O14 0.742018 0.833164 0.738196
O O15 0.858126 0.914616 0.643233
O O16 0.852965 0.746830 0.322749
O O17 0.508313 0.501192 0.768855
#
# Coordination Sequence:
#
# PCOD9027577 Si02
#       8
#     2   2   2   2   2   2   2   2
#     4  11  22  37  63  95 127 173 230 271 315 386
#     4  11  22  42  73  95 129 166 224 271 333 393
#     4  11  23  44  65  97 135 180 218 273 332 387
#     4  11  23  39  62  93 139 176 213 268 330 391
#     4  11  26  43  68  95 138 173 216 272 331 395
#     4  10  23  43  68  96 127 175 213 274 337 389
#     4  10  22  41  68  95 133 173 226 272 328 392
#     4  11  23  42  67  99 130 174 222 271 326 395
#
# _framework density 22.292759
#
# number of rings (size 3 to 8) (size 9 to 14) (size 15 to 20)
#    0.000    1.250    1.250    4.500    1.750    7.500 
#    0.000    6.875    0.000    0.000    0.000    0.000 
#    0.000    0.000    0.000    0.000    0.000    0.000 
#
# Total GULP energy -89300.394987 kJ/mol
# GULP energy per Si atom -5581.274687 kJ/mol
# Density = 2.224202 g / cm^3
# Si number density = 22.292759 Si / 1000 Ang^3
#
#
#
# Elastic Constant Matrix: (Units=GPa)
#
#
# Indices 1 2 3 4 5 6 
#
# 1 150.9612 51.2605 29.7155 14.2759 -12.1614 3.3944
# 2 51.2605 87.9636 26.8222 -3.4257 1.0198 -20.3521
# 3 29.7155 26.8222 126.2980 -2.6780 -3.4291 -12.7203
# 4 14.2759 -3.4257 -2.6780 23.9662 -3.9203 -0.7714
# 5 -12.1614 1.0198 -3.4291 -3.9203 49.2319 -1.9191
# 6 3.3944 -20.3521 -12.7203 -0.7714 -1.9191 34.3141
#
#
#
# Elastic Compliance Matrix: (Units=1/GPa)
#
#
# Indices 1 2 3 4 5 6 
#
# 1 0.010367 -0.007238 -0.001610 -0.007290 0.001785 -0.005980
# 2 -0.007238 0.018876 -0.001019 0.007068 -0.001234 0.011624
# 3 -0.001610 -0.001019 0.008862 0.001981 0.000512 0.002914
# 4 -0.007290 0.007068 0.001981 0.047892 0.002271 0.006852
# 5 0.001785 -0.001234 0.000512 0.002271 0.021015 0.000508
# 6 -0.005980 0.011624 0.002914 0.006852 0.000508 0.037891
#
#
# Mechanical properties :
#
#
# Convention : Reuss Voigt Hill
#
# Bulk Modulus (GPa) = 54.43429 64.53547 59.48488
# Shear Modulus (GPa) = 29.28083 38.66408 33.97246
#
# Velocity S-wave (km/s) = 3.62811 4.16910 3.90798
# Velocity P-wave (km/s) = 6.48243 7.22407 6.86327
#
# Compressibility (1/GPa) = 0.01837077
#
# Stress axis : x y z
#
# Youngs Moduli (GPa) = 96.46321 52.97740 112.83723
#
# Poissons Ratio (x) = 0.38346 0.18169
# Poissons Ratio (y) = 0.69822 0.11494
# Poissons Ratio (z) = 0.15533 0.05396
#
# Static dielectric constant tensor:
#      x y z
#    x 1.799640 0.037050 0.004200 
#    y 0.037050 2.142290 0.179860 
#    z 0.004200 0.179860 2.045060 
# 
# From -- ./inp_files/89856.got.cif
#   From: 2010.05.17/outbox.cif.g08.bks.cpg/sg2_45_cif.got.tgz:89856.got - 2010.06.03 11:33:40.
