data_PCOD9027419
_publ_section_title
;
Structure prediction by ZEFSAII (Michael W. Deem and Ramdas Pophale) SiO2 
 PCOD9027419
Probable space group: P -1
;
_chemical_formula_sum "Si O2"
_cell_formula_units_Z 14
_cell_length_a 8.593914
_cell_length_b 16.609867
_cell_length_c 11.272938
_cell_angle_alpha 23.677913
_cell_angle_beta 108.290592
_cell_angle_gamma 108.899209
_cell_volume 610.758143
_symmetry_space_group_name_H-M "P -1"
_symmetry_group_IT_number 2
_symmetry_cell_setting 'triclinic'
loop_
_space_group_symop_operation_xyz
x,y,z
-x,-y,-z
loop_
_atom_site_type_symbol
_atom_site_label
_atom_site_fract_x
_atom_site_fract_y
_atom_site_fract_z
Si Si1 0.851649 0.073639 0.171460
Si Si2 0.213858 0.300100 0.924274
Si Si3 0.693163 0.472912 0.575883
Si Si4 0.680427 0.741634 0.727609
Si Si5 0.609878 0.049864 0.573054
Si Si6 0.922119 0.814878 0.312229
Si Si7 0.146612 0.616193 0.808968
O O1 0.817635 0.918195 0.481461
O O2 0.839072 0.926275 0.251979
O O3 0.727498 0.245796 0.923568
O O4 0.029019 0.201188 0.030355
O O5 0.235337 0.494050 0.585703
O O6 0.294207 0.313565 0.054621
O O7 0.321176 0.142477 0.094344
O O8 0.500000 0.500000 0.500000
O O9 0.798729 0.644742 0.447923
O O10 0.505690 0.822862 0.547706
O O11 0.714205 0.536513 0.950206
O O12 0.770949 0.181856 0.386645
O O13 0.500000 0.000000 0.500000
O O14 0.069695 0.692638 0.565560
O O15 0.000000 0.000000 0.000000
O O16 0.000000 0.500000 0.000000
#
# Coordination Sequence:
#
# PCOD9027419 Si02
#       7
#     2   2   2   2   2   2   2
#     4  12  24  46  73 102 141 183 236 282 353 413
#     4  11  22  45  70 101 135 183 229 283 343 414
#     4  12  28  48  71 104 141 185 234 289 350 413
#     4  11  24  40  69 106 138 178 226 292 346 405
#     4  10  22  41  67  99 143 173 218 287 349 400
#     4  12  26  46  74 101 140 185 235 289 339 418
#     4  12  23  44  68 102 136 180 236 279 338 415
#
# _framework density 22.922329999999999
#
# number of rings (size 3 to 8) (size 9 to 14) (size 15 to 20)
#    0.000    0.571    4.286    3.000    2.000    6.286 
#    2.571    0.000    0.000    0.000    0.000    0.000 
#    0.000    0.000    0.000    0.000    0.000    0.000 
#
# Total GULP energy -78191.689359 kJ/mol
# GULP energy per Si atom -5585.120669 kJ/mol
# Density = 2.287016 g / cm^3
# Si number density = 22.922330 Si / 1000 Ang^3
#
#
#
# Elastic Constant Matrix: (Units=GPa)
#
#
# Indices 1 2 3 4 5 6 
#
# 1 72.6604 -8.7401 1.0397 -5.3461 7.5104 11.7731
# 2 -8.7401 49.1217 -1.1662 -4.5353 -9.9705 9.2506
# 3 1.0397 -1.1662 105.8455 -1.1926 -1.6730 3.8888
# 4 -5.3461 -4.5353 -1.1926 26.4358 -5.9176 1.0763
# 5 7.5104 -9.9705 -1.6730 -5.9176 58.6398 -6.4339
# 6 11.7731 9.2506 3.8888 1.0763 -6.4339 35.0570
#
#
#
# Elastic Compliance Matrix: (Units=1/GPa)
#
#
# Indices 1 2 3 4 5 6 
#
# 1 0.015819 0.004117 0.000158 0.003813 -0.001688 -0.006843
# 2 0.004117 0.023700 0.000608 0.005966 0.003323 -0.007277
# 3 0.000158 0.000608 0.009511 0.000680 0.000287 -0.001236
# 4 0.003813 0.005966 0.000680 0.040750 0.004285 -0.003395
# 5 -0.001688 0.003323 0.000287 0.004285 0.018598 0.002939
# 6 -0.006843 -0.007277 -0.001236 -0.003395 0.002939 0.033524
#
#
# Mechanical properties :
#
#
# Convention : Reuss Voigt Hill
#
# Bulk Modulus (GPa) = 17.00838 23.32160 20.16499
# Shear Modulus (GPa) = 32.95193 39.79280 36.37237
#
# Velocity S-wave (km/s) = 3.79561 4.17103 3.98774
# Velocity P-wave (km/s) = 5.16188 5.77867 5.47896
#
# Compressibility (1/GPa) = 0.05879455
#
# Stress axis : x y z
#
# Youngs Moduli (GPa) = 63.21359 42.19345 105.14679
#
# Poissons Ratio (x) = -0.17370 -0.01658
# Poissons Ratio (y) = -0.26023 -0.06391
# Poissons Ratio (z) = -0.00997 -0.02565
#
# Static dielectric constant tensor:
#      x y z
#    x 1.915590 -0.046830 0.027230 
#    y -0.046830 1.894920 -0.028370 
#    z 0.027230 -0.028370 1.836200 
# 
# From -- ./inp_files/237590.got.cif
#   From: 2010.05.17/outbox.cif.g08.bks.cpg/sg2_119_cif.got.tgz:237590.got - 2010.06.03 11:33:40.
