data_PCOD9027881
_publ_section_title
;
Structure prediction by ZEFSAII (Michael W. Deem and Ramdas Pophale) SiO2 
 PCOD9027881
Probable space group: P -1
;
_chemical_formula_sum "Si O2"
_cell_formula_units_Z 14
_cell_length_a 8.345201
_cell_length_b 9.043616
_cell_length_c 8.773081
_cell_angle_alpha 118.555266
_cell_angle_beta 109.095286
_cell_angle_gamma 92.918209
_cell_volume 532.156057
_symmetry_space_group_name_H-M "P -1"
_symmetry_group_IT_number 2
_symmetry_cell_setting 'triclinic'
loop_
_space_group_symop_operation_xyz
x,y,z
-x,-y,-z
loop_
_atom_site_type_symbol
_atom_site_label
_atom_site_fract_x
_atom_site_fract_y
_atom_site_fract_z
Si Si1 0.878028 0.196215 0.865500
Si Si2 0.667740 0.825616 0.498012
Si Si3 0.832224 0.542239 0.549283
Si Si4 0.152602 0.096664 0.708094
Si Si5 0.493841 0.712741 0.835702
Si Si6 0.738263 0.052208 0.035003
Si Si7 0.691313 0.437322 0.777520
O O1 0.799215 0.359071 0.894585
O O2 0.055964 0.213049 0.836762
O O3 0.735419 0.025502 0.670215
O O4 0.894160 0.144419 0.019759
O O5 0.797045 0.720762 0.563657
O O6 0.695493 0.819788 0.320416
O O7 0.467773 0.721599 0.411776
O O8 0.660329 0.401369 0.367269
O O9 0.816806 0.515925 0.713169
O O10 0.000000 0.500000 0.500000
O O11 0.208111 0.968665 0.784297
O O12 0.000000 0.000000 0.500000
O O13 0.639257 0.856503 0.861692
O O14 0.592591 0.580071 0.873800
O O15 0.400802 0.831389 0.966192
#
# Coordination Sequence:
#
# PCOD9027881 Si02
#       7
#     2   2   2   2   2   2   2
#     4  11  23  40  69 102 138 181 225 283 345 402
#     4  10  22  41  69  99 136 184 230 279 335 410
#     4  11  23  42  70 102 141 178 230 288 336 400
#     4  10  24  43  70 103 133 178 235 284 335 405
#     4  10  25  43  69  98 139 184 228 276 344 398
#     4  11  24  45  71  97 142 182 229 278 343 413
#     4  11  23  42  68 102 138 178 235 274 339 410
#
# _framework density 26.308073
#
# number of rings (size 3 to 8) (size 9 to 14) (size 15 to 20)
#    0.000    1.429    0.000    5.143   12.000    0.571 
#    5.143    0.714    0.000    0.000    0.000    0.000 
#    0.000    0.000    0.000    0.000    0.000    0.000 
#
# Total GULP energy -78447.604659 kJ/mol
# GULP energy per Si atom -5603.400333 kJ/mol
# Density = 2.624819 g / cm^3
# Si number density = 26.308073 Si / 1000 Ang^3
#
#
#
# Elastic Constant Matrix: (Units=GPa)
#
#
# Indices 1 2 3 4 5 6 
#
# 1 124.0070 71.4303 36.7005 -19.2075 -3.4452 4.0301
# 2 71.4303 197.1851 54.2514 -15.5344 -17.9580 -18.3569
# 3 36.7005 54.2514 76.3755 -14.0800 6.0102 3.3924
# 4 -19.2075 -15.5344 -14.0800 56.7656 12.1652 -5.1946
# 5 -3.4452 -17.9580 6.0102 12.1652 50.1409 2.3984
# 6 4.0301 -18.3569 3.3924 -5.1946 2.3984 61.7966
#
#
#
# Elastic Compliance Matrix: (Units=1/GPa)
#
#
# Indices 1 2 3 4 5 6 
#
# 1 0.011090 -0.003361 -0.002418 0.002242 -0.000630 -0.001376
# 2 -0.003361 0.008046 -0.004564 -0.000505 0.003192 0.002694
# 3 -0.002418 -0.004564 0.018577 0.003403 -0.004770 -0.001747
# 4 0.002242 -0.000505 0.003403 0.020380 -0.005448 0.001442
# 5 -0.000630 0.003192 -0.004770 -0.005448 0.022942 -0.000097
# 6 -0.001376 0.002694 -0.001747 0.001442 -0.000097 0.017293
#
#
# Mechanical properties :
#
#
# Convention : Reuss Voigt Hill
#
# Bulk Modulus (GPa) = 58.72725 80.25910 69.49317
# Shear Modulus (GPa) = 40.09916 49.41967 44.75941
#
# Velocity S-wave (km/s) = 3.90835 4.33887 4.12923
# Velocity P-wave (km/s) = 6.53746 7.46154 7.01473
#
# Compressibility (1/GPa) = 0.01702787
#
# Stress axis : x y z
#
# Youngs Moduli (GPa) = 90.17046 124.27978 53.82894
#
# Poissons Ratio (x) = 0.41772 0.13014
# Poissons Ratio (y) = 0.30307 0.24569
# Poissons Ratio (z) = 0.21799 0.56725
#
# Static dielectric constant tensor:
#      x y z
#    x 2.052050 0.039100 -0.000120 
#    y 0.039100 1.997980 0.014320 
#    z -0.000120 0.014320 2.108490 
# 
# From -- ./inp_files/160245.got.cif
#   From: 2010.05.17/outbox.cif.g08.bks.cpg/sg2_81_cif.got.tgz:160245.got - 2010.06.03 11:33:40.
