data_PCOD9027250
_publ_section_title
;
Structure prediction by ZEFSAII (Michael W. Deem and Ramdas Pophale) SiO2 
 PCOD9027250
Probable space group: P -1
;
_chemical_formula_sum "Si O2"
_cell_formula_units_Z 16
_cell_length_a 19.790034
_cell_length_b 7.650208
_cell_length_c 6.383588
_cell_angle_alpha 115.843154
_cell_angle_beta 128.854670
_cell_angle_gamma 64.625742
_cell_volume 660.566580
_symmetry_space_group_name_H-M "P -1"
_symmetry_group_IT_number 2
_symmetry_cell_setting 'triclinic'
loop_
_space_group_symop_operation_xyz
x,y,z
-x,-y,-z
loop_
_atom_site_type_symbol
_atom_site_label
_atom_site_fract_x
_atom_site_fract_y
_atom_site_fract_z
Si Si1 0.043134 0.737930 0.903145
Si Si2 0.126737 0.005150 0.912410
Si Si3 0.416926 0.988503 0.692927
Si Si4 0.356996 0.435202 0.700323
Si Si5 0.124190 0.308483 0.692346
Si Si6 0.521250 0.358630 0.667003
Si Si7 0.245463 0.022828 0.526640
Si Si8 0.168043 0.709748 0.470827
O O1 0.058995 0.931799 0.905426
O O2 0.108777 0.539811 0.831962
O O3 0.945390 0.713995 0.638357
O O4 0.072440 0.701089 0.184117
O O5 0.160089 0.808270 0.733572
O O6 0.102205 0.182394 0.785272
O O7 0.204567 0.055685 0.232632
O O8 0.364068 0.214044 0.683925
O O9 0.346643 0.901436 0.645516
O O10 0.444182 0.863473 0.471597
O O11 0.500000 0.000000 0.000000
O O12 0.428354 0.391636 0.627145
O O13 0.252770 0.529028 0.518643
O O14 0.402550 0.571717 0.013666
O O15 0.220498 0.210749 0.732081
O O16 0.500000 0.500000 0.500000
O O17 0.192498 0.874190 0.451805
#
# Coordination Sequence:
#
# PCOD9027250 Si02
#       8
#     2   2   2   2   2   2   2   2
#     4  10  23  41  65  96 133 166 218 264 322 386
#     4  10  22  41  67  93 128 176 212 262 329 380
#     4  12  25  43  67  97 127 172 218 269 330 389
#     4  11  25  41  69  94 128 172 217 266 332 388
#     4  10  23  42  65  97 129 171 214 269 317 393
#     4  11  23  45  65  93 129 166 216 273 324 389
#     4  10  24  43  64  92 132 162 217 269 318 385
#     4  10  23  42  65  95 127 170 212 264 320 390
#
# _framework density 24.221627999999999
#
# number of rings (size 3 to 8) (size 9 to 14) (size 15 to 20)
#    0.000    1.500    1.250    2.250    5.250    7.500 
#    2.250    2.500    0.000    0.000    0.000    0.000 
#    0.000    0.000    0.000    0.000    0.000    0.000 
#
# Total GULP energy -89393.747062 kJ/mol
# GULP energy per Si atom -5587.109191 kJ/mol
# Density = 2.416650 g / cm^3
# Si number density = 24.221628 Si / 1000 Ang^3
#
#
#
# Elastic Constant Matrix: (Units=GPa)
#
#
# Indices 1 2 3 4 5 6 
#
# 1 82.4319 -1.3091 31.7935 -8.9695 -14.0766 -15.1327
# 2 -1.3091 121.5237 21.3424 -0.9837 -11.3908 -25.2755
# 3 31.7935 21.3424 91.4403 2.4221 -6.2929 -16.3081
# 4 -8.9695 -0.9837 2.4221 34.6921 -7.2090 0.5522
# 5 -14.0766 -11.3908 -6.2929 -7.2090 24.0472 3.4779
# 6 -15.1327 -25.2755 -16.3081 0.5522 3.4779 33.1745
#
#
#
# Elastic Compliance Matrix: (Units=1/GPa)
#
#
# Indices 1 2 3 4 5 6 
#
# 1 0.018652 0.003938 -0.005424 0.007822 0.012641 0.007387
# 2 0.003938 0.011029 -0.002054 0.002707 0.006581 0.008455
# 3 -0.005424 -0.002054 0.013782 -0.002850 -0.001826 0.002974
# 4 0.007822 0.002707 -0.002850 0.034222 0.015074 0.002080
# 5 0.012641 0.006581 -0.001826 0.015074 0.055593 0.003803
# 6 0.007387 0.008455 0.002974 0.002080 0.003803 0.040983
#
#
# Mechanical properties :
#
#
# Convention : Reuss Voigt Hill
#
# Bulk Modulus (GPa) = 27.48653 44.33883 35.91268
# Shear Modulus (GPa) = 25.84390 34.62069 30.23230
#
# Velocity S-wave (km/s) = 3.27000 3.78475 3.53675
# Velocity P-wave (km/s) = 5.06259 6.11918 5.61579
#
# Compressibility (1/GPa) = 0.03638146
#
# Stress axis : x y z
#
# Youngs Moduli (GPa) = 53.61497 90.66763 72.55938
#
# Poissons Ratio (x) = -0.35705 0.39357
# Poissons Ratio (y) = -0.21114 0.14907
# Poissons Ratio (z) = 0.29081 0.18627
#
# Static dielectric constant tensor:
#      x y z
#    x 3.723030 0.000070 -0.176790 
#    y 0.000070 1.980010 0.065020 
#    z -0.176790 0.065020 1.983310 
# 
# From -- ./inp_files/53994.got.cif
#   From: 2010.05.17/outbox.cif.g08.bks.cpg/sg2_27_cif.got.tgz:53994.got - 2010.06.03 11:33:40.
