data_PCOD9027486
_publ_section_title
;
Structure prediction by ZEFSAII (Michael W. Deem and Ramdas Pophale) SiO2 
 PCOD9027486
Probable space group: P -1
;
_chemical_formula_sum "Si O2"
_cell_formula_units_Z 16
_cell_length_a 16.805253
_cell_length_b 14.124041
_cell_length_c 22.410894
_cell_angle_alpha 23.258512
_cell_angle_beta 159.641830
_cell_angle_gamma 147.708750
_cell_volume 725.773861
_symmetry_space_group_name_H-M "P -1"
_symmetry_group_IT_number 2
_symmetry_cell_setting 'triclinic'
loop_
_space_group_symop_operation_xyz
x,y,z
-x,-y,-z
loop_
_atom_site_type_symbol
_atom_site_label
_atom_site_fract_x
_atom_site_fract_y
_atom_site_fract_z
Si Si1 0.026905 0.855187 0.974834
Si Si2 0.731226 0.068947 0.783734
Si Si3 0.979191 0.873519 0.735823
Si Si4 0.194281 0.924420 0.630748
Si Si5 0.611968 0.518899 0.726413
Si Si6 0.122210 0.739891 0.451283
Si Si7 0.554368 0.280508 0.709554
Si Si8 0.646418 0.627877 0.914801
O O1 0.832185 0.713470 0.948597
O O2 0.166807 0.746202 0.079005
O O3 0.923321 0.110419 0.728686
O O4 0.238519 0.861483 0.166603
O O5 0.628042 0.820660 0.844267
O O6 0.601182 0.270853 0.531462
O O7 0.000000 0.000000 0.000000
O O8 0.902375 0.991355 0.550446
O O9 0.790085 0.696107 0.723778
O O10 0.220940 0.695731 0.999703
O O11 0.963242 0.086195 0.652505
O O12 0.416962 0.059125 0.725094
O O13 0.000000 0.000000 0.500000
O O14 0.265770 0.639160 0.848571
O O15 0.486201 0.368884 0.676202
O O16 0.393060 0.656299 0.693901
O O17 0.000000 0.500000 0.500000
O O18 0.500000 0.500000 0.500000
#
# Coordination Sequence:
#
# PCOD9027486 Si02
#       8
#     2   2   2   2   2   2   2   2
#     4  11  23  44  72 100 140 188 243 286 354 426
#     4  10  22  41  68 105 135 187 235 293 349 423
#     4  11  25  44  73 103 139 191 238 296 359 426
#     4  12  28  47  69 104 144 185 239 300 362 426
#     4  11  22  43  73 103 137 183 245 290 352 428
#     4  12  26  45  70 109 148 188 237 294 363 426
#     4  12  21  41  74 100 131 190 238 288 350 426
#     4  11  26  45  70 104 145 185 240 297 360 423
#
# _framework density 22.045435000000001
#
# number of rings (size 3 to 8) (size 9 to 14) (size 15 to 20)
#    0.000    0.750    5.000    1.875    3.500    0.500 
#    4.500    0.625    0.000    0.000    0.000    0.000 
#    0.000    0.000    0.000    0.000    0.000    0.000 
#
# Total GULP energy -89173.769433 kJ/mol
# GULP energy per Si atom -5573.360590 kJ/mol
# Density = 2.199526 g / cm^3
# Si number density = 22.045435 Si / 1000 Ang^3
#
#
#
# Elastic Constant Matrix: (Units=GPa)
#
#
# Indices 1 2 3 4 5 6 
#
# 1 63.8093 40.6477 37.7449 -11.4290 3.5419 1.0043
# 2 40.6477 151.7122 65.5880 -15.0703 -6.2683 2.5235
# 3 37.7449 65.5880 205.6266 -16.9043 -5.0123 6.6540
# 4 -11.4290 -15.0703 -16.9043 40.4927 6.1056 6.5440
# 5 3.5419 -6.2683 -5.0123 6.1056 38.8007 -1.8662
# 6 1.0043 2.5235 6.6540 6.5440 -1.8662 30.6584
#
#
#
# Elastic Compliance Matrix: (Units=1/GPa)
#
#
# Indices 1 2 3 4 5 6 
#
# 1 0.020621 -0.004338 -0.002129 0.003999 -0.003532 -0.000925
# 2 -0.004338 0.008726 -0.001853 0.001094 0.001379 -0.000324
# 3 -0.002129 -0.001853 0.006012 0.001379 0.000390 -0.001353
# 4 0.003999 0.001094 0.001379 0.028660 -0.004853 -0.006933
# 5 -0.003532 0.001379 0.000390 -0.004853 0.027258 0.002613
# 6 -0.000925 -0.000324 -0.001353 -0.006933 0.002613 0.034607
#
#
# Mechanical properties :
#
#
# Convention : Reuss Voigt Hill
#
# Bulk Modulus (GPa) = 53.42159 78.78992 66.10575
# Shear Modulus (GPa) = 33.61067 40.46821 37.03944
#
# Velocity S-wave (km/s) = 3.90886 4.28912 4.10340
# Velocity P-wave (km/s) = 6.68262 7.76828 7.24581
#
# Compressibility (1/GPa) = 0.01871902
#
# Stress axis : x y z
#
# Youngs Moduli (GPa) = 48.49363 114.60355 166.34315
#
# Poissons Ratio (x) = 0.49713 0.35415
# Poissons Ratio (y) = 0.21036 0.30822
# Poissons Ratio (z) = 0.10324 0.21235
#
# Static dielectric constant tensor:
#      x y z
#    x 2.126540 -0.146620 0.039370 
#    y -0.146620 1.816990 0.036090 
#    z 0.039370 0.036090 2.004380 
# 
# From -- ./inp_files/613238.got.cif
#   From: 2010.05.17/outbox.cif.g08.bks.cpg/sg2_307_cif.got.tgz:613238.got - 2010.06.03 11:33:40.
