data_PCOD9027398
_publ_section_title
;
Structure prediction by ZEFSAII (Michael W. Deem and Ramdas Pophale) SiO2 
 PCOD9027398
Probable space group: P -1
;
_chemical_formula_sum "Si O2"
_cell_formula_units_Z 14
_cell_length_a 10.099978
_cell_length_b 8.694102
_cell_length_c 9.064688
_cell_angle_alpha 66.424491
_cell_angle_beta 120.725886
_cell_angle_gamma 118.803233
_cell_volume 586.952190
_symmetry_space_group_name_H-M "P -1"
_symmetry_group_IT_number 2
_symmetry_cell_setting 'triclinic'
loop_
_space_group_symop_operation_xyz
x,y,z
-x,-y,-z
loop_
_atom_site_type_symbol
_atom_site_label
_atom_site_fract_x
_atom_site_fract_y
_atom_site_fract_z
Si Si1 0.998252 0.742475 0.200183
Si Si2 0.142203 0.666270 0.745631
Si Si3 0.124931 0.306220 0.181803
Si Si4 0.919531 0.043227 0.583239
Si Si5 0.613212 0.055334 0.688390
Si Si6 0.450894 0.623256 0.307835
Si Si7 0.490127 0.177458 0.008287
O O1 0.948595 0.855142 0.255198
O O2 0.194436 0.843058 0.272460
O O3 0.943846 0.533460 0.286878
O O4 0.930444 0.743038 0.997872
O O5 0.158301 0.816085 0.574399
O O6 0.325091 0.701890 0.888676
O O7 0.028406 0.690697 0.806225
O O8 0.267908 0.496131 0.204860
O O9 0.185389 0.150249 0.338498
O O10 0.000000 0.000000 0.500000
O O11 0.556410 0.202555 0.681439
O O12 0.500000 0.000000 0.500000
O O13 0.598782 0.896176 0.858984
O O14 0.500000 0.500000 0.500000
O O15 0.557036 0.702269 0.189254
O O16 0.500000 0.000000 0.000000
#
# Coordination Sequence:
#
# PCOD9027398 Si02
#       7
#     2   2   2   2   2   2   2
#     4  12  22  43  72  96 137 178 232 284 331 414
#     4  11  21  42  70  99 133 175 233 281 328 413
#     4  11  22  42  66 103 133 177 226 283 350 398
#     4  10  25  40  63 102 136 170 218 289 350 396
#     4  11  25  44  68 101 137 186 230 277 343 413
#     4  11  24  43  68  96 143 184 224 284 350 407
#     4  10  22  41  67  98 134 181 228 273 342 416
#
# _framework density 23.852027
#
# number of rings (size 3 to 8) (size 9 to 14) (size 15 to 20)
#    0.000    1.143    2.857    3.857    6.000    0.000 
#    2.571    0.714    0.000    0.000    0.000    0.000 
#    0.000    0.000    0.000    0.000    0.000    0.000 
#
# Total GULP energy -78278.095510 kJ/mol
# GULP energy per Si atom -5591.292536 kJ/mol
# Density = 2.379774 g / cm^3
# Si number density = 23.852027 Si / 1000 Ang^3
#
#
#
# Elastic Constant Matrix: (Units=GPa)
#
#
# Indices 1 2 3 4 5 6 
#
# 1 55.8405 37.1140 36.0580 8.6114 -15.1356 15.7325
# 2 37.1140 151.6236 72.2863 4.1458 -15.0950 5.3813
# 3 36.0580 72.2863 189.8266 -13.4475 -29.9866 9.9254
# 4 8.6114 4.1458 -13.4475 65.5064 -5.3868 -2.5630
# 5 -15.1356 -15.0950 -29.9866 -5.3868 30.2852 8.8258
# 6 15.7325 5.3813 9.9254 -2.5630 8.8258 31.5315
#
#
#
# Elastic Compliance Matrix: (Units=1/GPa)
#
#
# Indices 1 2 3 4 5 6 
#
# 1 0.033398 -0.005193 -0.000451 -0.003404 0.019258 -0.021303
# 2 -0.005193 0.008993 -0.002880 -0.000528 -0.001762 0.002413
# 3 -0.000451 -0.002880 0.008062 0.002393 0.007863 -0.003827
# 4 -0.003404 -0.000528 0.002393 0.016537 0.002889 0.001571
# 5 0.019258 -0.001762 0.007863 0.002889 0.058176 -0.027832
# 6 -0.021303 0.002413 -0.003827 0.001571 -0.027832 0.051054
#
#
# Mechanical properties :
#
#
# Convention : Reuss Voigt Hill
#
# Bulk Modulus (GPa) = 29.93695 76.46747 53.20221
# Shear Modulus (GPa) = 24.46131 42.25345 33.35738
#
# Velocity S-wave (km/s) = 3.20589 4.21346 3.74373
# Velocity P-wave (km/s) = 5.12659 7.46992 6.40631
#
# Compressibility (1/GPa) = 0.03340353
#
# Stress axis : x y z
#
# Youngs Moduli (GPa) = 29.94168 111.19888 124.03671
#
# Poissons Ratio (x) = 0.57751 0.05600
# Poissons Ratio (y) = 0.15550 0.35722
# Poissons Ratio (z) = 0.01352 0.32024
#
# Static dielectric constant tensor:
#      x y z
#    x 1.978480 -0.040540 -0.032050 
#    y -0.040540 1.856710 -0.025720 
#    z -0.032050 -0.025720 1.991390 
# 
# From -- ./inp_files/242730.got.cif
#   From: 2010.05.17/outbox.cif.g08.bks.cpg/sg2_122_cif.got.tgz:242730.got - 2010.06.03 11:33:40.
