data_PCOD9027220
_publ_section_title
;
Structure prediction by ZEFSAII (Michael W. Deem and Ramdas Pophale) SiO2 
 PCOD9027220
Probable space group: P -1
;
_chemical_formula_sum "Si O2"
_cell_formula_units_Z 16
_cell_length_a 17.229824
_cell_length_b 14.632176
_cell_length_c 6.264158
_cell_angle_alpha 106.776429
_cell_angle_beta 69.494984
_cell_angle_gamma 148.828558
_cell_volume 765.433110
_symmetry_space_group_name_H-M "P -1"
_symmetry_group_IT_number 2
_symmetry_cell_setting 'triclinic'
loop_
_space_group_symop_operation_xyz
x,y,z
-x,-y,-z
loop_
_atom_site_type_symbol
_atom_site_label
_atom_site_fract_x
_atom_site_fract_y
_atom_site_fract_z
Si Si1 0.568451 0.959745 0.893578
Si Si2 0.391644 0.428459 0.748666
Si Si3 0.835744 0.128317 0.991474
Si Si4 0.715736 0.376152 0.811538
Si Si5 0.607852 0.311971 0.459580
Si Si6 0.838883 0.640854 0.147080
Si Si7 0.583766 0.731410 0.103887
Si Si8 0.011364 0.471502 0.220336
O O1 0.524611 0.876923 0.649424
O O2 0.739656 0.094599 0.882986
O O3 0.457672 0.795106 0.053933
O O4 0.500000 0.000000 0.000000
O O5 0.500000 0.500000 0.500000
O O6 0.232262 0.322838 0.759028
O O7 0.361135 0.309396 0.851380
O O8 0.492108 0.603787 0.900278
O O9 0.991076 0.220427 0.847019
O O10 0.895032 0.268455 0.188077
O O11 0.721036 0.936786 0.060587
O O12 0.705855 0.344439 0.550823
O O13 0.813284 0.393811 0.855073
O O14 0.806401 0.562703 0.892412
O O15 0.722777 0.466519 0.283294
O O16 0.534626 0.327896 0.670203
O O17 0.000000 0.500000 0.500000
O O18 0.000000 0.500000 0.000000
#
# Coordination Sequence:
#
# PCOD9027220 Si02
#       8
#     2   2   2   2   2   2   2   2
#     4  11  24  40  64  97 135 174 236 292 353 421
#     4  11  22  42  72  97 135 182 232 283 355 449
#     4  11  25  45  66 104 143 179 236 306 357 422
#     4  10  22  41  67  90 131 183 232 276 359 432
#     4  11  21  42  70  92 133 187 232 283 354 439
#     4  10  22  42  65  97 133 180 222 288 363 422
#     4  11  23  42  70 102 132 179 240 285 356 430
#     4  11  27  47  70 103 146 192 242 302 369 439
#
# _framework density 20.903196000000001
#
# number of rings (size 3 to 8) (size 9 to 14) (size 15 to 20)
#    0.000    1.250    3.750    1.500    7.000    3.000 
#    2.250    0.625    0.000    0.000    0.000    0.000 
#    0.000    0.000    0.000    0.000    0.000    0.000 
#
# Total GULP energy -89086.185053 kJ/mol
# GULP energy per Si atom -5567.886566 kJ/mol
# Density = 2.085562 g / cm^3
# Si number density = 20.903196 Si / 1000 Ang^3
#
#
#
# Elastic Constant Matrix: (Units=GPa)
#
#
# Indices 1 2 3 4 5 6 
#
# 1 177.6361 52.5741 47.5850 11.5349 6.1656 29.5791
# 2 52.5741 111.5185 35.1202 11.7789 -3.1155 8.0032
# 3 47.5850 35.1202 111.9731 23.1035 -5.5212 6.8805
# 4 11.5349 11.7789 23.1035 25.7467 4.9299 0.9627
# 5 6.1656 -3.1155 -5.5212 4.9299 34.1271 1.1119
# 6 29.5791 8.0032 6.8805 0.9627 1.1119 45.0357
#
#
#
# Elastic Compliance Matrix: (Units=1/GPa)
#
#
# Indices 1 2 3 4 5 6 
#
# 1 0.007828 -0.002732 -0.002394 0.000428 -0.001974 -0.004250
# 2 -0.002732 0.011109 -0.001705 -0.002640 0.001610 0.000097
# 3 -0.002394 -0.001705 0.012812 -0.010383 0.003848 0.000045
# 4 0.000428 -0.002640 -0.010383 0.050935 -0.009386 0.000917
# 5 -0.001974 0.001610 0.003848 -0.009386 0.031790 -0.000162
# 6 -0.004250 0.000097 0.000045 0.000917 -0.000162 0.024956
#
#
# Mechanical properties :
#
#
# Convention : Reuss Voigt Hill
#
# Bulk Modulus (GPa) = 55.28991 74.63180 64.96085
# Shear Modulus (GPa) = 31.42249 38.70513 35.06381
#
# Velocity S-wave (km/s) = 3.88137 4.30773 4.10010
# Velocity P-wave (km/s) = 6.82602 7.77966 7.31839
#
# Compressibility (1/GPa) = 0.01808648
#
# Stress axis : x y z
#
# Youngs Moduli (GPa) = 127.74938 90.01865 78.04996
#
# Poissons Ratio (x) = 0.24590 0.18688
# Poissons Ratio (y) = 0.34897 0.13309
# Poissons Ratio (z) = 0.30587 0.15350
#
# Static dielectric constant tensor:
#      x y z
#    x 1.850320 -0.013230 0.025240 
#    y -0.013230 1.740100 0.010630 
#    z 0.025240 0.010630 1.841590 
# 
# From -- ./inp_files/110945.got.cif
#   From: 2010.05.17/outbox.cif.g08.bks.cpg/sg2_56_cif.got.tgz:110945.got - 2010.06.03 11:33:40.
