data_PCOD9027110
_publ_section_title
;
Structure prediction by ZEFSAII (Michael W. Deem and Ramdas Pophale) SiO2 
 PCOD9027110
Probable space group: P -1
;
_chemical_formula_sum "Si O2"
_cell_formula_units_Z 16
_cell_length_a 8.915078
_cell_length_b 21.608096
_cell_length_c 12.652159
_cell_angle_alpha 27.861031
_cell_angle_beta 49.735112
_cell_angle_gamma 36.915687
_cell_volume 668.044779
_symmetry_space_group_name_H-M "P -1"
_symmetry_group_IT_number 2
_symmetry_cell_setting 'triclinic'
loop_
_space_group_symop_operation_xyz
x,y,z
-x,-y,-z
loop_
_atom_site_type_symbol
_atom_site_label
_atom_site_fract_x
_atom_site_fract_y
_atom_site_fract_z
Si Si1 0.091888 0.524721 0.074342
Si Si2 0.754936 0.222843 0.615400
Si Si3 0.938012 0.260979 0.067985
Si Si4 0.516802 0.932482 0.978053
Si Si5 0.374261 0.588718 0.310910
Si Si6 0.454097 0.745830 0.875340
Si Si7 0.880746 0.881855 0.583407
Si Si8 0.924484 0.751702 0.404139
O O1 0.292083 0.407433 0.068709
O O2 0.015664 0.416391 0.319010
O O3 0.198989 0.562291 0.069660
O O4 0.887994 0.717631 0.827823
O O5 0.641783 0.134923 0.841378
O O6 0.514687 0.427179 0.412277
O O7 0.901952 0.159226 0.533642
O O8 0.958650 0.192304 0.652749
O O9 0.038894 0.126039 0.321244
O O10 0.766689 0.251045 0.082519
O O11 0.190659 0.211096 0.973168
O O12 0.369452 0.092210 0.722098
O O13 0.500000 0.000000 0.000000
O O14 0.500000 0.500000 0.500000
O O15 0.076687 0.698878 0.303768
O O16 0.439129 0.706522 0.062669
O O17 0.373443 0.930393 0.612663
#
# Coordination Sequence:
#
# PCOD9027110 Si02
#       8
#     2   2   2   2   2   2   2   2
#     4  10  24  42  67 103 137 175 236 279 341 411
#     4  11  23  45  68  98 141 182 232 286 344 412
#     4  10  23  42  66 103 141 178 228 283 348 413
#     4  12  25  43  69 104 141 179 233 294 337 415
#     4  10  22  41  66  97 135 182 231 287 334 408
#     4  12  21  44  71  99 142 187 222 287 358 402
#     4  10  23  41  67 102 135 177 231 281 337 413
#     4  11  24  44  68 101 140 187 228 286 349 409
#
# _framework density 23.950491
#
# number of rings (size 3 to 8) (size 9 to 14) (size 15 to 20)
#    0.750    0.500    1.250    4.875    0.000    3.500 
#    0.000    5.000    0.000    0.000    0.000    0.000 
#    0.000    0.000    0.000    0.000    0.000    0.000 
#
# Total GULP energy -89479.408098 kJ/mol
# GULP energy per Si atom -5592.463006 kJ/mol
# Density = 2.389598 g / cm^3
# Si number density = 23.950491 Si / 1000 Ang^3
#
#
#
# Elastic Constant Matrix: (Units=GPa)
#
#
# Indices 1 2 3 4 5 6 
#
# 1 84.7928 6.8601 44.0018 2.7197 -13.1893 -3.1705
# 2 6.8601 82.4458 39.9091 14.4675 -6.3086 3.1959
# 3 44.0018 39.9091 161.5935 -9.6377 -0.9065 6.0583
# 4 2.7197 14.4675 -9.6377 42.8728 6.3449 9.0379
# 5 -13.1893 -6.3086 -0.9065 6.3449 29.9898 -5.2988
# 6 -3.1705 3.1959 6.0583 9.0379 -5.2988 19.5328
#
#
#
# Elastic Compliance Matrix: (Units=1/GPa)
#
#
# Indices 1 2 3 4 5 6 
#
# 1 0.017310 0.003484 -0.006384 -0.007764 0.011738 0.010996
# 2 0.003484 0.016750 -0.005857 -0.009713 0.008050 0.006320
# 3 -0.006384 -0.005857 0.010098 0.007453 -0.006814 -0.008507
# 4 -0.007764 -0.009713 0.007453 0.036213 -0.017021 -0.023356
# 5 0.011738 0.008050 -0.006814 -0.017021 0.047753 0.023532
# 6 0.010996 0.006320 -0.008507 -0.023356 0.023532 0.071776
#
#
# Mechanical properties :
#
#
# Convention : Reuss Voigt Hill
#
# Bulk Modulus (GPa) = 37.52868 56.70825 47.11847
# Shear Modulus (GPa) = 22.09505 34.34981 28.22243
#
# Velocity S-wave (km/s) = 3.04061 3.79119 3.43646
# Velocity P-wave (km/s) = 5.29437 6.54926 5.95497
#
# Compressibility (1/GPa) = 0.02664628
#
# Stress axis : x y z
#
# Youngs Moduli (GPa) = 57.76907 59.70237 99.02705
#
# Poissons Ratio (x) = -0.20801 0.63214
# Poissons Ratio (y) = -0.20127 0.57996
# Poissons Ratio (z) = 0.36877 0.34965
#
# Static dielectric constant tensor:
#      x y z
#    x 1.933730 -0.009500 0.008600 
#    y -0.009500 1.943050 -0.014040 
#    z 0.008600 -0.014040 1.931080 
# 
# From -- ./inp_files/405248.got.cif
#   From: 2010.05.17/outbox.cif.g08.bks.cpg/sg2_203_cif.got.tgz:405248.got - 2010.06.03 11:33:40.
