data_PCOD9027204
_publ_section_title
;
Structure prediction by ZEFSAII (Michael W. Deem and Ramdas Pophale) SiO2 
 PCOD9027204
Probable space group: P -1
;
_chemical_formula_sum "Si O2"
_cell_formula_units_Z 14
_cell_length_a 11.285816
_cell_length_b 5.300920
_cell_length_c 9.190744
_cell_angle_alpha 90.159581
_cell_angle_beta 94.843152
_cell_angle_gamma 83.749668
_cell_volume 544.606880
_symmetry_space_group_name_H-M "P -1"
_symmetry_group_IT_number 2
_symmetry_cell_setting 'triclinic'
loop_
_space_group_symop_operation_xyz
x,y,z
-x,-y,-z
loop_
_atom_site_type_symbol
_atom_site_label
_atom_site_fract_x
_atom_site_fract_y
_atom_site_fract_z
Si Si1 0.269899 0.777133 0.682261
Si Si2 0.168362 0.485383 0.902486
Si Si3 0.537152 0.911464 0.710083
Si Si4 0.879371 0.962430 0.576148
Si Si5 0.418817 0.268951 0.003305
Si Si6 0.592760 0.662313 0.431722
Si Si7 0.090004 0.556296 0.230623
O O1 0.197343 0.740355 0.820942
O O2 0.408803 0.807100 0.720754
O O3 0.213081 0.986602 0.567132
O O4 0.287491 0.506691 0.599357
O O5 0.054164 0.394062 0.810074
O O6 0.295211 0.311856 0.903582
O O7 0.138910 0.525195 0.069913
O O8 0.622567 0.765514 0.834036
O O9 0.600390 0.865214 0.561664
O O10 0.488035 0.208195 0.707879
O O11 0.862258 0.200997 0.686909
O O12 0.887851 0.698505 0.666992
O O13 0.000000 0.000000 0.500000
O O14 0.500000 0.500000 0.000000
O O15 0.500000 0.000000 0.000000
O O16 0.500000 0.500000 0.500000
#
# Coordination Sequence:
#
# PCOD9027204 Si02
#       7
#     2   2   2   2   2   2   2
#     4  11  23  43  75 105 145 196 242 310 376 446
#     4  11  26  50  77 108 157 200 253 311 380 447
#     4  10  22  41  67 105 146 188 250 296 377 439
#     4  12  27  49  78 110 146 191 257 311 380 442
#     4  12  27  45  72 108 147 198 246 299 373 455
#     4   9  21  39  66 101 143 186 239 303 360 440
#     4  11  29  52  75 115 150 201 253 317 373 450
#
# _framework density 25.706614999999999
#
# number of rings (size 3 to 8) (size 9 to 14) (size 15 to 20)
#    0.000    1.143    2.857    1.286    6.000    8.000 
#    2.571    0.000    0.000    0.000    0.000    0.000 
#    0.000    0.000    0.000    0.000    0.000    0.000 
#
# Total GULP energy -78206.569728 kJ/mol
# GULP energy per Si atom -5586.183552 kJ/mol
# Density = 2.564811 g / cm^3
# Si number density = 25.706615 Si / 1000 Ang^3
#
#
#
# Elastic Constant Matrix: (Units=GPa)
#
#
# Indices 1 2 3 4 5 6 
#
# 1 108.5628 21.9076 42.0358 -22.4179 -0.9262 -13.6710
# 2 21.9076 145.5914 49.5361 -27.3363 1.6972 -2.6348
# 3 42.0358 49.5361 148.3332 -42.1940 -1.2161 -6.4464
# 4 -22.4179 -27.3363 -42.1940 45.7592 -4.3219 -0.7270
# 5 -0.9262 1.6972 -1.2161 -4.3219 56.6845 -10.5430
# 6 -13.6710 -2.6348 -6.4464 -0.7270 -10.5430 31.9436
#
#
#
# Elastic Compliance Matrix: (Units=1/GPa)
#
#
# Indices 1 2 3 4 5 6 
#
# 1 0.011433 -0.000290 -0.001771 0.004008 0.001405 0.005067
# 2 -0.000290 0.008086 -0.001724 0.003104 0.000002 0.000266
# 3 -0.001771 -0.001724 0.010029 0.007482 0.001118 0.001663
# 4 0.004008 0.003104 0.007482 0.033002 0.003661 0.005441
# 5 0.001405 0.000002 0.001118 0.003661 0.019323 0.007288
# 6 0.005067 0.000266 0.001663 0.005441 0.007288 0.036360
#
#
# Mechanical properties :
#
#
# Convention : Reuss Voigt Hill
#
# Bulk Modulus (GPa) = 45.49967 69.93848 57.71907
# Shear Modulus (GPa) = 37.55711 46.14466 41.85089
#
# Velocity S-wave (km/s) = 3.82644 4.24140 4.03925
# Velocity P-wave (km/s) = 6.10411 7.15901 6.65250
#
# Compressibility (1/GPa) = 0.02197818
#
# Stress axis : x y z
#
# Youngs Moduli (GPa) = 87.46349 123.66756 99.71152
#
# Poissons Ratio (x) = 0.03584 0.17664
# Poissons Ratio (y) = 0.02535 0.17189
# Poissons Ratio (z) = 0.15494 0.21318
#
# Static dielectric constant tensor:
#      x y z
#    x 2.038910 0.051770 0.060490 
#    y 0.051770 2.230680 0.072270 
#    z 0.060490 0.072270 2.384290 
# 
# From -- ./inp_files/229589.got.cif
#   From: 2010.05.17/outbox.cif.g08.bks.cpg/sg2_115_cif.got.tgz:229589.got - 2010.06.03 11:33:40.
