data_PCOD9027447
_publ_section_title
;
Structure prediction by ZEFSAII (Michael W. Deem and Ramdas Pophale) SiO2 
 PCOD9027447
Probable space group: P -1
;
_chemical_formula_sum "Si O2"
_cell_formula_units_Z 16
_cell_length_a 5.014873
_cell_length_b 18.545772
_cell_length_c 7.634118
_cell_angle_alpha 84.800145
_cell_angle_beta 79.088859
_cell_angle_gamma 59.136409
_cell_volume 598.429594
_symmetry_space_group_name_H-M "P -1"
_symmetry_group_IT_number 2
_symmetry_cell_setting 'triclinic'
loop_
_space_group_symop_operation_xyz
x,y,z
-x,-y,-z
loop_
_atom_site_type_symbol
_atom_site_label
_atom_site_fract_x
_atom_site_fract_y
_atom_site_fract_z
Si Si1 0.449308 0.809576 0.507106
Si Si2 0.151890 0.336403 0.123046
Si Si3 0.739768 0.021359 0.379233
Si Si4 0.493582 0.572503 0.600444
Si Si5 0.869895 0.304989 0.641882
Si Si6 0.816834 0.452335 0.856600
Si Si7 0.859484 0.224346 0.159549
Si Si8 0.873343 0.142688 0.824551
O O1 0.441917 0.878669 0.625621
O O2 0.164049 0.802303 0.632635
O O3 0.384097 0.839697 0.304271
O O4 0.795535 0.729050 0.488136
O O5 0.835841 0.387390 0.263682
O O6 0.104894 0.257052 0.092100
O O7 0.500522 0.300886 0.159064
O O8 0.109618 0.401375 0.959543
O O9 0.500000 0.000000 0.500000
O O10 0.000000 0.000000 0.500000
O O11 0.887783 0.956193 0.216230
O O12 0.500000 0.500000 0.500000
O O13 0.433749 0.646299 0.458376
O O14 0.786363 0.522213 0.706879
O O15 0.823376 0.375947 0.768027
O O16 0.910412 0.221621 0.742320
O O17 0.500000 0.500000 0.000000
O O18 0.879767 0.157091 0.029009
#
# Coordination Sequence:
#
# PCOD9027447 Si02
#       8
#     2   2   2   2   2   2   2   2
#     4  11  24  41  69  99 137 179 224 283 334 405
#     4  11  22  44  63  95 134 174 225 279 335 395
#     4  10  22  41  68 101 137 177 221 278 336 399
#     4   9  19  36  65  92 130 171 225 276 339 399
#     4  11  18  39  67  87 131 176 227 266 345 396
#     4   9  19  36  63  91 132 170 221 280 334 392
#     4  12  26  41  72 102 134 177 232 277 331 410
#     4  11  24  41  69  99 136 182 227 274 345 406
#
# _framework density 26.736643000000001
#
# number of rings (size 3 to 8) (size 9 to 14) (size 15 to 20)
#    0.000    1.500    3.750    1.500    0.000    0.500 
#    0.000    6.250   11.000    4.500    0.000    0.000 
#    0.000    0.000    0.000    0.000    0.000    0.000 
#
# Total GULP energy -89306.377281 kJ/mol
# GULP energy per Si atom -5581.648580 kJ/mol
# Density = 2.667579 g / cm^3
# Si number density = 26.736643 Si / 1000 Ang^3
#
#
#
# Elastic Constant Matrix: (Units=GPa)
#
#
# Indices 1 2 3 4 5 6 
#
# 1 100.4883 31.1053 -2.7236 -0.1302 1.4570 8.1267
# 2 31.1053 116.1560 41.4321 52.7839 9.9131 8.5777
# 3 -2.7236 41.4321 98.1577 32.2955 11.7124 10.9500
# 4 -0.1302 52.7839 32.2955 52.7509 9.2616 15.7401
# 5 1.4570 9.9131 11.7124 9.2616 23.0397 -1.2510
# 6 8.1267 8.5777 10.9500 15.7401 -1.2510 32.9135
#
#
#
# Elastic Compliance Matrix: (Units=1/GPa)
#
#
# Indices 1 2 3 4 5 6 
#
# 1 0.012720 -0.007136 0.001527 0.008376 -0.002197 -0.005878
# 2 -0.007136 0.020583 -0.002930 -0.021507 0.002150 0.007739
# 3 0.001527 -0.002930 0.013521 -0.003866 -0.004287 -0.002426
# 4 0.008376 -0.021507 -0.003866 0.050665 -0.010754 -0.019815
# 5 -0.002197 0.002150 -0.004287 -0.010754 0.049577 0.008435
# 6 -0.005878 0.007739 -0.002426 -0.019815 0.008435 0.040421
#
#
# Mechanical properties :
#
#
# Convention : Reuss Voigt Hill
#
# Bulk Modulus (GPa) = 33.61812 50.49217 42.05514
# Shear Modulus (GPa) = 23.31221 38.07337 30.69279
#
# Velocity S-wave (km/s) = 2.95603 3.77771 3.39184
# Velocity P-wave (km/s) = 4.92463 6.16069 5.57701
#
# Compressibility (1/GPa) = 0.02974586
#
# Stress axis : x y z
#
# Youngs Moduli (GPa) = 78.61851 48.58356 73.95997
#
# Poissons Ratio (x) = 0.34667 -0.11292
# Poissons Ratio (y) = 0.56099 0.21670
# Poissons Ratio (z) = -0.12003 0.14235
#
# Static dielectric constant tensor:
#      x y z
#    x 2.005410 -0.031290 0.028120 
#    y -0.031290 2.069500 -0.077240 
#    z 0.028120 -0.077240 2.218960 
# 
# From -- ./inp_files/126268.got.cif
#   From: 2010.05.17/outbox.cif.g08.bks.cpg/sg2_64_cif.got.tgz:126268.got - 2010.06.03 11:33:40.
