data_PCOD9027998
_publ_section_title
;
Structure prediction by ZEFSAII (Michael W. Deem and Ramdas Pophale) SiO2 
 PCOD9027998
Probable space group: P -1
;
_chemical_formula_sum "Si O2"
_cell_formula_units_Z 14
_cell_length_a 6.948695
_cell_length_b 19.045188
_cell_length_c 9.351659
_cell_angle_alpha 153.630926
_cell_angle_beta 97.265554
_cell_angle_gamma 75.260165
_cell_volume 516.537336
_symmetry_space_group_name_H-M "P -1"
_symmetry_group_IT_number 2
_symmetry_cell_setting 'triclinic'
loop_
_space_group_symop_operation_xyz
x,y,z
-x,-y,-z
loop_
_atom_site_type_symbol
_atom_site_label
_atom_site_fract_x
_atom_site_fract_y
_atom_site_fract_z
Si Si1 0.914728 0.461071 0.755387
Si Si2 0.726308 0.512674 0.542265
Si Si3 0.451735 0.822271 0.733631
Si Si4 0.694804 0.457114 0.128485
Si Si5 0.181796 0.208607 0.509398
Si Si6 0.154066 0.904360 0.615775
Si Si7 0.624729 0.897387 0.187129
O O1 0.855091 0.422556 0.523111
O O2 0.133397 0.491588 0.844150
O O3 0.978348 0.295860 0.553099
O O4 0.773373 0.645869 0.123440
O O5 0.500000 0.500000 0.500000
O O6 0.794452 0.434412 0.253111
O O7 0.716730 0.704697 0.889787
O O8 0.495061 0.620463 0.392809
O O9 0.626388 0.836708 0.664804
O O10 0.242091 0.918257 0.807681
O O11 0.489213 0.885128 0.010229
O O12 0.697174 0.279495 0.753106
O O13 0.078216 0.101200 0.406723
O O14 0.207864 0.027367 0.730605
O O15 0.500000 0.000000 0.500000
#
# Coordination Sequence:
#
# PCOD9027998 Si02
#       7
#     2   2   2   2   2   2   2
#     4   9  19  38  61  97 133 159 214 286 305 390
#     4  11  23  37  66  93 128 178 214 263 330 386
#     4  10  22  41  70  95 131 177 217 274 316 389
#     4   9  20  38  63 100 123 167 222 259 332 384
#     4   9  21  38  68 103 125 167 225 267 331 379
#     4  11  22  42  69  95 139 171 212 276 324 389
#     4  11  26  44  60  97 136 173 225 264 328 396
#
# _framework density 27.103559000000001
#
# number of rings (size 3 to 8) (size 9 to 14) (size 15 to 20)
#    0.000    2.000    0.000    3.000    8.000    0.571 
#    0.000    2.857    3.143    0.000    0.000    0.000 
#    0.000    0.000    0.000    0.000    0.000    0.000 
#
# Total GULP energy -78171.925705 kJ/mol
# GULP energy per Si atom -5583.708979 kJ/mol
# Density = 2.704187 g / cm^3
# Si number density = 27.103559 Si / 1000 Ang^3
#
#
#
# Elastic Constant Matrix: (Units=GPa)
#
#
# Indices 1 2 3 4 5 6 
#
# 1 117.4251 18.8777 18.5391 11.8385 -9.2554 27.1850
# 2 18.8777 129.7451 25.8142 -4.4553 3.3993 10.2160
# 3 18.5391 25.8142 98.4657 -2.4636 5.1383 15.7010
# 4 11.8385 -4.4553 -2.4636 47.1830 20.2620 10.9473
# 5 -9.2554 3.3993 5.1383 20.2620 29.0695 3.9412
# 6 27.1850 10.2160 15.7010 10.9473 3.9412 50.7521
#
#
#
# Elastic Compliance Matrix: (Units=1/GPa)
#
#
# Indices 1 2 3 4 5 6 
#
# 1 0.011347 -0.001378 -0.001612 -0.005679 0.008661 -0.004749
# 2 -0.001378 0.008446 -0.001632 0.002397 -0.002705 -0.000764
# 3 -0.001612 -0.001632 0.011646 0.003379 -0.004356 -0.002802
# 4 -0.005679 0.002397 0.003379 0.035509 -0.026886 -0.004058
# 5 0.008661 -0.002705 -0.004356 -0.026886 0.057172 -0.001387
# 6 -0.004749 -0.000764 -0.002802 -0.004058 -0.001387 0.024251
#
#
# Mechanical properties :
#
#
# Convention : Reuss Voigt Hill
#
# Bulk Modulus (GPa) = 45.05519 52.45533 48.75526
# Shear Modulus (GPa) = 30.30076 44.22791 37.26433
#
# Velocity S-wave (km/s) = 3.34722 4.04395 3.71197
# Velocity P-wave (km/s) = 5.62121 6.41875 6.03317
#
# Compressibility (1/GPa) = 0.02219500
#
# Stress axis : x y z
#
# Youngs Moduli (GPa) = 88.13080 118.39985 85.86873
#
# Poissons Ratio (x) = 0.16318 0.13840
# Poissons Ratio (y) = 0.12146 0.14012
# Poissons Ratio (z) = 0.14204 0.19320
#
# Static dielectric constant tensor:
#      x y z
#    x 2.882300 0.871010 0.028070 
#    y 0.871010 3.205860 0.267650 
#    z 0.028070 0.267650 2.382040 
# 
# From -- ./inp_files/219028.got.cif
#   From: 2010.05.17/outbox.cif.g08.bks.cpg/sg2_110_cif.got.tgz:219028.got - 2010.06.03 11:33:40.
