data_PCOD9027144
_publ_section_title
;
Structure prediction by ZEFSAII (Michael W. Deem and Ramdas Pophale) SiO2 
 PCOD9027144
Probable space group: P -1
;
_chemical_formula_sum "Si O2"
_cell_formula_units_Z 14
_cell_length_a 9.186608
_cell_length_b 12.359229
_cell_length_c 8.097236
_cell_angle_alpha 111.560641
_cell_angle_beta 112.598317
_cell_angle_gamma 112.865885
_cell_volume 621.199482
_symmetry_space_group_name_H-M "P -1"
_symmetry_group_IT_number 2
_symmetry_cell_setting 'triclinic'
loop_
_space_group_symop_operation_xyz
x,y,z
-x,-y,-z
loop_
_atom_site_type_symbol
_atom_site_label
_atom_site_fract_x
_atom_site_fract_y
_atom_site_fract_z
Si Si1 0.221308 0.176568 0.906037
Si Si2 0.286678 0.947960 0.936846
Si Si3 0.887929 0.355997 0.978428
Si Si4 0.217480 0.930096 0.286348
Si Si5 0.473066 0.489324 0.781496
Si Si6 0.048973 0.388531 0.413262
Si Si7 0.538964 0.762257 0.277850
O O1 0.292767 0.193936 0.757941
O O2 0.990454 0.098272 0.790495
O O3 0.264200 0.071359 0.944767
O O4 0.355149 0.347023 0.120776
O O5 0.116937 0.782706 0.700738
O O6 0.267566 0.937928 0.120260
O O7 0.500000 0.000000 0.000000
O O8 0.824923 0.219998 0.758484
O O9 0.681328 0.316041 0.937786
O O10 0.000000 0.500000 0.000000
O O11 0.030891 0.379771 0.201458
O O12 0.388793 0.084054 0.528765
O O13 0.261414 0.445192 0.608714
O O14 0.481176 0.355194 0.670644
O O15 0.500000 0.500000 0.000000
O O16 0.000000 0.500000 0.500000
#
# Coordination Sequence:
#
# PCOD9027144 Si02
#       7
#     2   2   2   2   2   2   2
#     4  11  22  41  66  96 131 170 218 273 327 389
#     4  11  24  43  64  96 134 173 219 271 327 393
#     4  11  25  44  65  98 136 174 219 271 328 393
#     4  11  24  42  65  97 131 172 219 272 327 389
#     4  10  22  41  66  99 132 170 219 272 326 389
#     4  11  23  42  67  96 130 173 220 271 327 388
#     4  11  23  43  68  98 132 174 219 270 328 391
#
# _framework density 22.537043000000001
#
# number of rings (size 3 to 8) (size 9 to 14) (size 15 to 20)
#    0.000    1.143    0.000    7.286    0.000    6.857 
#    0.000    4.286    0.000    0.000    0.000    0.000 
#    0.000    0.000    0.000    0.000    0.000    0.000 
#
# Total GULP energy -78275.347463 kJ/mol
# GULP energy per Si atom -5591.096247 kJ/mol
# Density = 2.248575 g / cm^3
# Si number density = 22.537043 Si / 1000 Ang^3
#
#
#
# Elastic Constant Matrix: (Units=GPa)
#
#
# Indices 1 2 3 4 5 6 
#
# 1 108.7710 22.3596 38.9812 -3.0715 19.9542 1.5606
# 2 22.3596 161.0711 51.0436 32.3438 3.7180 -23.7313
# 3 38.9812 51.0436 126.2217 17.5996 21.8796 0.0182
# 4 -3.0715 32.3438 17.5996 36.3081 -15.3809 -1.6333
# 5 19.9542 3.7180 21.8796 -15.3809 46.5743 5.1297
# 6 1.5606 -23.7313 0.0182 -1.6333 5.1297 43.2665
#
#
#
# Elastic Compliance Matrix: (Units=1/GPa)
#
#
# Indices 1 2 3 4 5 6 
#
# 1 0.010956 -0.001103 -0.002809 0.002187 -0.002495 -0.000621
# 2 -0.001103 0.009521 -0.001796 -0.008693 -0.002896 0.005278
# 3 -0.002809 -0.001796 0.011589 -0.006965 -0.006353 -0.000398
# 4 0.002187 -0.008693 -0.006965 0.046668 0.019029 -0.005339
# 5 -0.002495 -0.002896 -0.006353 0.019029 0.032551 -0.004637
# 6 -0.000621 0.005278 -0.000398 -0.005339 -0.004637 0.026378
#
#
# Mechanical properties :
#
#
# Convention : Reuss Voigt Hill
#
# Bulk Modulus (GPa) = 48.43167 68.98142 58.70654
# Shear Modulus (GPa) = 32.05879 44.14174 38.10027
#
# Velocity S-wave (km/s) = 3.77569 4.43044 4.11610
# Velocity P-wave (km/s) = 6.36743 7.53964 6.97820
#
# Compressibility (1/GPa) = 0.02064765
#
# Stress axis : x y z
#
# Youngs Moduli (GPa) = 91.27616 105.03162 86.28875
#
# Poissons Ratio (x) = 0.11590 0.24242
# Poissons Ratio (y) = 0.10072 0.15498
# Poissons Ratio (z) = 0.25644 0.18865
#
# Static dielectric constant tensor:
#      x y z
#    x 1.863390 -0.016610 -0.044250 
#    y -0.016610 1.899030 0.035000 
#    z -0.044250 0.035000 1.860200 
# 
# From -- ./inp_files/158777.got.cif
#   From: 2010.05.17/outbox.cif.g08.bks.cpg/sg2_80_cif.got.tgz:158777.got - 2010.06.03 11:33:40.
