data_PCOD9027150
_publ_section_title
;
Structure prediction by ZEFSAII (Michael W. Deem and Ramdas Pophale) SiO2 
 PCOD9027150
Probable space group: P -1
;
_chemical_formula_sum "Si O2"
_cell_formula_units_Z 16
_cell_length_a 5.069229
_cell_length_b 18.395511
_cell_length_c 11.627556
_cell_angle_alpha 44.215111
_cell_angle_beta 68.858156
_cell_angle_gamma 57.249817
_cell_volume 635.255292
_symmetry_space_group_name_H-M "P -1"
_symmetry_group_IT_number 2
_symmetry_cell_setting 'triclinic'
loop_
_space_group_symop_operation_xyz
x,y,z
-x,-y,-z
loop_
_atom_site_type_symbol
_atom_site_label
_atom_site_fract_x
_atom_site_fract_y
_atom_site_fract_z
Si Si1 0.789696 0.998025 0.800972
Si Si2 0.562394 0.381666 0.342848
Si Si3 0.276910 0.234508 0.663930
Si Si4 0.064000 0.479999 0.146205
Si Si5 0.394190 0.279969 0.966421
Si Si6 0.269817 0.571128 0.349154
Si Si7 0.545698 0.045407 0.318029
Si Si8 0.131903 0.866749 0.097830
O O1 0.641971 0.980942 0.725214
O O2 0.088534 0.019604 0.696420
O O3 0.532215 0.102900 0.794859
O O4 0.946722 0.884662 0.984560
O O5 0.493414 0.272266 0.506347
O O6 0.873451 0.401546 0.296761
O O7 0.303183 0.477447 0.356191
O O8 0.426879 0.414677 0.198465
O O9 0.079019 0.343693 0.652680
O O10 0.975988 0.206218 0.715212
O O11 0.923542 0.607913 0.081314
O O12 0.000000 0.500000 0.000000
O O13 0.604786 0.348204 0.830474
O O14 0.508846 0.199180 0.924771
O O15 0.453709 0.183441 0.165209
O O16 0.500000 0.500000 0.500000
O O17 0.500000 0.000000 0.500000
O O18 0.000000 0.000000 0.000000
#
# Coordination Sequence:
#
# PCOD9027150 Si02
#       8
#     2   2   2   2   2   2   2   2
#     4  11  25  42  64  99 129 166 224 268 323 404
#     4  11  25  42  64  99 129 166 224 268 323 404
#     4  11  22  37  66  96 138 174 206 273 338 390
#     4  11  25  46  67  93 128 171 224 279 326 386
#     4   9  22  41  68  94 130 174 218 267 332 392
#     4  10  22  41  66  99 136 176 216 263 331 411
#     4  11  25  46  67  93 128 171 224 279 326 386
#     4  10  22  41  66  99 136 176 216 263 331 411
#
# _framework density 25.186727000000001
#
# number of rings (size 3 to 8) (size 9 to 14) (size 15 to 20)
#    0.000    1.500    0.000    4.500    0.000   14.000 
#    0.000    0.000    0.000    0.000    0.000    0.000 
#    0.000    0.000    0.000    0.000    0.000    0.000 
#
# Total GULP energy -89096.372383 kJ/mol
# GULP energy per Si atom -5568.523274 kJ/mol
# Density = 2.512940 g / cm^3
# Si number density = 25.186727 Si / 1000 Ang^3
#
#
#
# Elastic Constant Matrix: (Units=GPa)
#
#
# Indices 1 2 3 4 5 6 
#
# 1 109.9710 16.0370 45.9435 9.3560 20.2247 7.5549
# 2 16.0370 51.4578 18.4504 -4.1680 8.6040 2.1577
# 3 45.9435 18.4504 166.5708 -7.1682 -11.6282 6.8234
# 4 9.3560 -4.1680 -7.1682 28.8316 -1.5710 -2.0971
# 5 20.2247 8.6040 -11.6282 -1.5710 50.3367 -3.9994
# 6 7.5549 2.1577 6.8234 -2.0971 -3.9994 39.1014
#
#
#
# Elastic Compliance Matrix: (Units=1/GPa)
#
#
# Indices 1 2 3 4 5 6 
#
# 1 0.012812 -0.001946 -0.003892 -0.005931 -0.006108 -0.002632
# 2 -0.001946 0.021556 -0.001924 0.003042 -0.003304 -0.000653
# 3 -0.003892 -0.001924 0.007684 0.003106 0.003770 0.000069
# 4 -0.005931 0.003042 0.003106 0.038250 0.004004 0.002897
# 5 -0.006108 -0.003304 0.003770 0.004004 0.024150 0.003390
# 6 -0.002632 -0.000653 0.000069 0.002897 0.003390 0.026609
#
#
# Mechanical properties :
#
#
# Convention : Reuss Voigt Hill
#
# Bulk Modulus (GPa) = 37.69627 54.31793 46.00710
# Shear Modulus (GPa) = 32.16935 40.15851 36.16393
#
# Velocity S-wave (km/s) = 3.57772 3.99737 3.79335
# Velocity P-wave (km/s) = 5.66268 6.55119 6.12308
#
# Compressibility (1/GPa) = 0.02652782
#
# Stress axis : x y z
#
# Youngs Moduli (GPa) = 78.05275 46.39095 130.13946
#
# Poissons Ratio (x) = 0.09028 0.50651
# Poissons Ratio (y) = 0.15189 0.25038
# Poissons Ratio (z) = 0.30378 0.08925
#
# Static dielectric constant tensor:
#      x y z
#    x 2.165100 0.073980 -0.004090 
#    y 0.073980 2.017430 0.002410 
#    z -0.004090 0.002410 2.135980 
# 
# From -- ./inp_files/370009.got.cif
#   From: 2010.05.17/outbox.cif.g08.bks.cpg/sg2_186_cif.got.tgz:370009.got - 2010.06.03 11:33:40.
