data_PCOD9027631
_publ_section_title
;
Structure prediction by ZEFSAII (Michael W. Deem and Ramdas Pophale) SiO2 
 PCOD9027631
Probable space group: P -1
;
_chemical_formula_sum "Si O2"
_cell_formula_units_Z 15
_cell_length_a 12.512284
_cell_length_b 9.766243
_cell_length_c 8.817032
_cell_angle_alpha 73.754290
_cell_angle_beta 34.506039
_cell_angle_gamma 71.960088
_cell_volume 579.745156
_symmetry_space_group_name_H-M "P -1"
_symmetry_group_IT_number 2
_symmetry_cell_setting 'triclinic'
loop_
_space_group_symop_operation_xyz
x,y,z
-x,-y,-z
loop_
_atom_site_type_symbol
_atom_site_label
_atom_site_fract_x
_atom_site_fract_y
_atom_site_fract_z
Si Si1 0.635296 0.557202 0.444434
Si Si2 0.000000 0.500000 0.000000
Si Si3 0.718877 0.065605 0.454519
Si Si4 0.036434 0.680779 0.217128
Si Si5 0.350774 0.202296 0.211814
Si Si6 0.609440 0.368418 0.006031
Si Si7 0.675550 0.779582 0.110255
Si Si8 0.146284 0.004374 0.992647
O O1 0.500000 0.500000 0.500000
O O2 0.813000 0.449144 0.328573
O O3 0.503771 0.635120 0.702023
O O4 0.767907 0.656683 0.160363
O O5 0.051356 0.598242 0.066704
O O6 0.549491 0.195475 0.597763
O O7 0.667025 0.963835 0.682305
O O8 0.734587 0.976625 0.304988
O O9 0.934348 0.092411 0.213195
O O10 0.112064 0.838636 0.080566
O O11 0.818209 0.712381 0.515538
O O12 0.179276 0.608284 0.202890
O O13 0.558157 0.233761 0.011914
O O14 0.306595 0.251784 0.076553
O O15 0.500000 0.500000 0.000000
O O16 0.748179 0.928522 0.017233
#
# Coordination Sequence:
#
# PCOD9027631 Si02
#       8
#     2   1   2   2   2   2   2   2
#     4  12  26  45  70 102 136 185 242 280 344 419
#     4  12  26  46  76  96 142 186 232 298 340 410
#     4  10  22  41  68  97 139 179 227 288 344 410
#     4  11  25  46  74 101 142 184 234 292 344 416
#     4  11  25  43  66 106 144 181 230 284 356 415
#     4  12  25  44  69  98 139 183 232 288 343 409
#     4  12  25  42  72 102 142 186 228 286 347 417
#     4  10  23  42  71 104 133 181 237 283 345 413
#
# _framework density 25.873435000000001
#
# number of rings (size 3 to 8) (size 9 to 14) (size 15 to 20)
#    0.000    0.800    2.667    4.000    3.733    4.800 
#    0.000    0.000    0.000    0.000    0.000    0.000 
#    0.000    0.000    0.000    0.000    0.000    0.000 
#
# Total GULP energy -83718.835742 kJ/mol
# GULP energy per Si atom -5581.255716 kJ/mol
# Density = 2.581455 g / cm^3
# Si number density = 25.873435 Si / 1000 Ang^3
#
#
#
# Elastic Constant Matrix: (Units=GPa)
#
#
# Indices 1 2 3 4 5 6 
#
# 1 136.2464 39.6699 17.1372 -8.1180 -4.7200 16.3650
# 2 39.6699 107.0510 16.9593 -5.6687 3.9159 6.1124
# 3 17.1372 16.9593 61.6895 14.0381 -10.2379 14.5829
# 4 -8.1180 -5.6687 14.0381 34.9004 -1.4471 -1.5148
# 5 -4.7200 3.9159 -10.2379 -1.4471 54.2604 -0.3293
# 6 16.3650 6.1124 14.5829 -1.5148 -0.3293 34.0960
#
#
#
# Elastic Compliance Matrix: (Units=1/GPa)
#
#
# Indices 1 2 3 4 5 6 
#
# 1 0.008839 -0.002818 -0.001280 0.002011 0.000766 -0.003093
# 2 -0.002818 0.011041 -0.003273 0.002426 -0.001590 0.000865
# 3 -0.001280 -0.003273 0.022529 -0.010107 0.004052 -0.008844
# 4 0.002011 0.002426 -0.010107 0.033731 -0.000981 0.004412
# 5 0.000766 -0.001590 0.004052 -0.000981 0.019339 -0.001673
# 6 -0.003093 0.000865 -0.008844 0.004412 -0.001673 0.034621
#
#
# Mechanical properties :
#
#
# Convention : Reuss Voigt Hill
#
# Bulk Modulus (GPa) = 36.14380 50.27997 43.21188
# Shear Modulus (GPa) = 32.45396 40.06606 36.26001
#
# Velocity S-wave (km/s) = 3.54550 3.93942 3.74764
# Velocity P-wave (km/s) = 5.54622 6.33776 5.95516
#
# Compressibility (1/GPa) = 0.02766727
#
# Stress axis : x y z
#
# Youngs Moduli (GPa) = 113.13665 90.57005 44.38733
#
# Poissons Ratio (x) = 0.25518 0.05683
# Poissons Ratio (y) = 0.31877 0.14529
# Poissons Ratio (z) = 0.14484 0.29645
#
# Static dielectric constant tensor:
#      x y z
#    x 1.691520 0.286480 0.233590 
#    y 0.286480 1.749490 -0.268190 
#    z 0.233590 -0.268190 1.840440 
# 
# From -- ./inp_files/243275.got.cif
#   From: 2010.05.17/outbox.cif.g08.bks.cpg/sg2_122_cif.got.tgz:243275.got - 2010.06.03 11:33:40.
