data_PCOD9027949
_publ_section_title
;
Structure prediction by ZEFSAII (Michael W. Deem and Ramdas Pophale) SiO2 
 PCOD9027949
Probable space group: P -1
;
_chemical_formula_sum "Si O2"
_cell_formula_units_Z 16
_cell_length_a 6.331413
_cell_length_b 19.786100
_cell_length_c 5.377308
_cell_angle_alpha 94.102236
_cell_angle_beta 79.052773
_cell_angle_gamma 86.869625
_cell_volume 658.082387
_symmetry_space_group_name_H-M "P -1"
_symmetry_group_IT_number 2
_symmetry_cell_setting 'triclinic'
loop_
_space_group_symop_operation_xyz
x,y,z
-x,-y,-z
loop_
_atom_site_type_symbol
_atom_site_label
_atom_site_fract_x
_atom_site_fract_y
_atom_site_fract_z
Si Si1 0.349217 0.000498 0.282095
Si Si2 0.609952 0.260436 0.056012
Si Si3 0.263447 0.313705 0.554679
Si Si4 0.513207 0.601780 0.123258
Si Si5 0.032254 0.762306 0.647311
Si Si6 0.287903 0.187251 0.896526
Si Si7 0.003660 0.107291 0.593464
Si Si8 0.148035 0.495203 0.217745
O O1 0.190283 0.938715 0.304128
O O2 0.500000 0.000000 0.500000
O O3 0.168946 0.064078 0.360549
O O4 0.500000 0.000000 0.000000
O O5 0.453898 0.288448 0.321456
O O6 0.830333 0.246962 0.141331
O O7 0.599492 0.324425 0.893525
O O8 0.533763 0.193463 0.922066
O O9 0.330497 0.382663 0.678333
O O10 0.248948 0.254783 0.751568
O O11 0.034668 0.308486 0.468354
O O12 0.322597 0.552742 0.195059
O O13 0.685342 0.571933 0.871173
O O14 0.101083 0.821014 0.469053
O O15 0.814709 0.798900 0.810402
O O16 0.170337 0.127996 0.776947
O O17 0.000000 0.500000 0.500000
O O18 0.000000 0.500000 0.000000
#
# Coordination Sequence:
#
# PCOD9027949 Si02
#       8
#     2   2   2   2   2   2   2   2
#     4  11  28  48  76 108 140 198 253 299 369 420
#     4  10  22  41  70 105 142 183 233 290 374 437
#     4   9  21  41  63 100 141 180 230 289 357 438
#     4  10  25  46  72 102 149 184 244 307 353 443
#     4  10  22  41  70 105 142 183 233 290 374 437
#     4   9  21  41  63 100 141 180 230 289 357 438
#     4  10  25  46  72 102 149 184 244 307 353 443
#     4  11  28  48  76 108 140 198 253 299 369 420
#
# _framework density 24.313065999999999
#
# number of rings (size 3 to 8) (size 9 to 14) (size 15 to 20)
#    0.000    2.000    0.000    0.000    7.000   14.000 
#    0.000    0.000    0.000    0.000    0.000    0.000 
#    0.000    0.000    0.000    0.000    0.000    0.000 
#
# Total GULP energy -89222.686248 kJ/mol
# GULP energy per Si atom -5576.417890 kJ/mol
# Density = 2.425773 g / cm^3
# Si number density = 24.313066 Si / 1000 Ang^3
#
#
#
# Elastic Constant Matrix: (Units=GPa)
#
#
# Indices 1 2 3 4 5 6 
#
# 1 150.2621 74.2100 73.4718 7.6647 2.7058 36.0130
# 2 74.2100 80.0215 28.7289 17.0127 11.2546 30.7411
# 3 73.4718 28.7289 142.9966 6.4089 -20.8937 32.4934
# 4 7.6647 17.0127 6.4089 32.7059 3.4757 8.3437
# 5 2.7058 11.2546 -20.8937 3.4757 67.1954 9.9001
# 6 36.0130 30.7411 32.4934 8.3437 9.9001 46.9959
#
#
#
# Elastic Compliance Matrix: (Units=1/GPa)
#
#
# Indices 1 2 3 4 5 6 
#
# 1 0.015985 -0.013651 -0.005699 0.004537 -0.000348 -0.000112
# 2 -0.013651 0.029963 0.003350 -0.010518 -0.001518 -0.009268
# 3 -0.005699 0.003350 0.011362 -0.001472 0.004206 -0.006304
# 4 0.004537 -0.010518 -0.001472 0.035789 -0.000459 -0.001836
# 5 -0.000348 -0.001518 0.004206 -0.000459 0.017248 -0.005201
# 6 -0.000112 -0.009268 -0.006304 -0.001836 -0.005201 0.033207
#
#
# Mechanical properties :
#
#
# Convention : Reuss Voigt Hill
#
# Bulk Modulus (GPa) = 39.51182 80.67797 60.09489
# Shear Modulus (GPa) = 27.17516 42.50407 34.83962
#
# Velocity S-wave (km/s) = 3.34686 4.18568 3.78955
# Velocity P-wave (km/s) = 5.58765 7.52429 6.62709
#
# Compressibility (1/GPa) = 0.02530888
#
# Stress axis : x y z
#
# Youngs Moduli (GPa) = 62.55801 33.37394 88.01612
#
# Poissons Ratio (x) = 0.45558 0.50164
# Poissons Ratio (y) = 0.85397 -0.29481
# Poissons Ratio (z) = 0.35654 -0.11179
#
# Static dielectric constant tensor:
#      x y z
#    x 2.044020 -0.012680 0.016840 
#    y -0.012680 2.026510 -0.007760 
#    z 0.016840 -0.007760 1.968490 
# 
# From -- ./inp_files/10970.got.cif
#   From: 2010.05.17/outbox.cif.g08.bks.cpg/sg2_6_cif.got.tgz:10970.got - 2010.06.03 11:33:40.
