data_PCOD9027321
_publ_section_title
;
Structure prediction by ZEFSAII (Michael W. Deem and Ramdas Pophale) SiO2 
 PCOD9027321
Probable space group: P -1
;
_chemical_formula_sum "Si O2"
_cell_formula_units_Z 14
_cell_length_a 10.599539
_cell_length_b 9.817489
_cell_length_c 9.162004
_cell_angle_alpha 132.801429
_cell_angle_beta 59.861766
_cell_angle_gamma 122.878545
_cell_volume 573.580553
_symmetry_space_group_name_H-M "P -1"
_symmetry_group_IT_number 2
_symmetry_cell_setting 'triclinic'
loop_
_space_group_symop_operation_xyz
x,y,z
-x,-y,-z
loop_
_atom_site_type_symbol
_atom_site_label
_atom_site_fract_x
_atom_site_fract_y
_atom_site_fract_z
Si Si1 0.487363 0.925629 0.153061
Si Si2 0.766813 0.150414 0.978820
Si Si3 0.098451 0.162376 0.389448
Si Si4 0.599870 0.686707 0.488674
Si Si5 0.515103 0.332278 0.763609
Si Si6 0.853838 0.554224 0.685398
Si Si7 0.999774 0.513207 0.184468
O O1 0.503725 0.847430 0.246709
O O2 0.642422 0.968466 0.000434
O O3 0.468843 0.137570 0.324148
O O4 0.334262 0.803365 0.062183
O O5 0.835834 0.340449 0.178444
O O6 0.903029 0.061868 0.787551
O O7 0.235066 0.248577 0.487315
O O8 0.135063 0.253431 0.272747
O O9 0.981390 0.270276 0.602954
O O10 0.500000 0.500000 0.500000
O O11 0.599826 0.671329 0.303875
O O12 0.686623 0.399320 0.645089
O O13 0.500000 0.500000 0.000000
O O14 0.000000 0.500000 0.500000
O O15 0.880504 0.563109 0.849935
O O16 0.000000 0.500000 0.000000
#
# Coordination Sequence:
#
# PCOD9027321 Si02
#       7
#     2   2   2   2   2   2   2
#     4  10  23  40  65 102 137 166 230 283 340 397
#     4  10  22  41  67  95 135 177 218 283 341 404
#     4  10  22  42  63  95 128 176 226 270 339 402
#     4  11  22  40  69  95 134 179 217 282 345 398
#     4  12  25  40  70 105 134 171 232 289 332 401
#     4  10  23  43  65  94 135 181 223 268 340 413
#     4  11  24  41  68  93 133 179 226 273 341 408
#
# _framework density 24.408079000000001
#
# number of rings (size 3 to 8) (size 9 to 14) (size 15 to 20)
#    0.000    1.429    1.429    3.000   10.000    1.143 
#    0.000    1.429    0.000    0.000    0.000    0.000 
#    0.000    0.000    0.000    0.000    0.000    0.000 
#
# Total GULP energy -78127.723144 kJ/mol
# GULP energy per Si atom -5580.551653 kJ/mol
# Density = 2.435252 g / cm^3
# Si number density = 24.408079 Si / 1000 Ang^3
#
#
#
# Elastic Constant Matrix: (Units=GPa)
#
#
# Indices 1 2 3 4 5 6 
#
# 1 75.8265 19.3525 11.1408 -5.7307 3.5062 -30.2815
# 2 19.3525 129.8902 9.0985 -14.6617 -6.3028 -43.7462
# 3 11.1408 9.0985 83.8843 -0.9269 -4.5570 -16.0931
# 4 -5.7307 -14.6617 -0.9269 40.0325 -9.9850 8.0810
# 5 3.5062 -6.3028 -4.5570 -9.9850 36.6055 -7.5320
# 6 -30.2815 -43.7462 -16.0931 8.0810 -7.5320 50.4129
#
#
#
# Elastic Compliance Matrix: (Units=1/GPa)
#
#
# Indices 1 2 3 4 5 6 
#
# 1 0.017582 0.001583 -0.000138 0.001011 0.001300 0.011923
# 2 0.001583 0.012137 0.001136 0.003644 0.005562 0.012092
# 3 -0.000138 0.001136 0.013034 0.000357 0.003053 0.005462
# 4 0.001011 0.003644 0.000357 0.028459 0.008458 0.000585
# 5 0.001300 0.005562 0.003053 0.008458 0.032926 0.010145
# 6 0.011923 0.012092 0.005462 0.000585 0.010145 0.040657
#
#
# Mechanical properties :
#
#
# Convention : Reuss Voigt Hill
#
# Bulk Modulus (GPa) = 20.87036 40.97606 30.92321
# Shear Modulus (GPa) = 32.13267 42.07745 37.10506
#
# Velocity S-wave (km/s) = 3.63226 4.15651 3.90320
# Velocity P-wave (km/s) = 5.11471 6.31346 5.74544
#
# Compressibility (1/GPa) = 0.04791484
#
# Stress axis : x y z
#
# Youngs Moduli (GPa) = 56.87669 82.39078 76.72228
#
# Poissons Ratio (x) = -0.13041 0.01056
# Poissons Ratio (y) = -0.09002 -0.08713
# Poissons Ratio (z) = 0.00783 -0.09356
#
# Static dielectric constant tensor:
#      x y z
#    x 2.000670 0.033070 -0.062760 
#    y 0.033070 1.937270 -0.012520 
#    z -0.062760 -0.012520 2.082600 
# 
# From -- ./inp_files/241288.got.cif
#   From: 2010.05.17/outbox.cif.g08.bks.cpg/sg2_121_cif.got.tgz:241288.got - 2010.06.03 11:33:40.
