data_PCOD9027507
_publ_section_title
;
Structure prediction by ZEFSAII (Michael W. Deem and Ramdas Pophale) SiO2 
 PCOD9027507
Probable space group: P -1
;
_chemical_formula_sum "Si O2"
_cell_formula_units_Z 14
_cell_length_a 9.158029
_cell_length_b 9.333612
_cell_length_c 10.498141
_cell_angle_alpha 139.172926
_cell_angle_beta 85.389355
_cell_angle_gamma 80.397988
_cell_volume 547.937172
_symmetry_space_group_name_H-M "P -1"
_symmetry_group_IT_number 2
_symmetry_cell_setting 'triclinic'
loop_
_space_group_symop_operation_xyz
x,y,z
-x,-y,-z
loop_
_atom_site_type_symbol
_atom_site_label
_atom_site_fract_x
_atom_site_fract_y
_atom_site_fract_z
Si Si1 0.045437 0.343326 0.694489
Si Si2 0.804718 0.027192 0.741008
Si Si3 0.605846 0.794530 0.758558
Si Si4 0.503735 0.775861 0.268590
Si Si5 0.811025 0.770408 0.114201
Si Si6 0.325415 0.719727 0.616682
Si Si7 0.716800 0.421295 0.192546
O O1 0.096778 0.271906 0.787274
O O2 0.191838 0.404213 0.670907
O O3 0.050822 0.134900 0.460631
O O4 0.896583 0.576133 0.873132
O O5 0.663413 0.159889 0.742441
O O6 0.735179 0.886128 0.751416
O O7 0.828333 0.228341 0.959625
O O8 0.491987 0.760663 0.631714
O O9 0.673487 0.519760 0.611254
O O10 0.500000 0.000000 0.000000
O O11 0.644715 0.740265 0.135384
O O12 0.560643 0.556498 0.213812
O O13 0.500000 0.000000 0.500000
O O14 0.788927 0.032043 0.252169
O O15 0.301488 0.691750 0.750195
#
# Coordination Sequence:
#
# PCOD9027507 Si02
#       7
#     2   2   2   2   2   2   2
#     4  10  23  45  60  88 126 162 209 250 304 367
#     4  12  21  39  66  90 124 162 202 259 304 363
#     4  11  22  36  59  96 129 154 199 258 313 355
#     4  11  20  39  65  92 119 158 205 255 306 357
#     4  10  22  41  68  84 123 171 199 253 310 361
#     4  11  22  38  62  90 124 159 205 253 308 365
#     4  11  23  38  63  92 123 160 206 250 311 367
#
# _framework density 25.550374000000001
#
# number of rings (size 3 to 8) (size 9 to 14) (size 15 to 20)
#    0.000    1.143    7.143    0.429    2.000    0.571 
#    2.571    8.571    0.000    0.000    0.000    0.000 
#    0.000    0.000    0.000    0.000    0.000    0.000 
#
# Total GULP energy -78335.117884 kJ/mol
# GULP energy per Si atom -5595.365563 kJ/mol
# Density = 2.549222 g / cm^3
# Si number density = 25.550374 Si / 1000 Ang^3
#
#
#
# Elastic Constant Matrix: (Units=GPa)
#
#
# Indices 1 2 3 4 5 6 
#
# 1 48.4417 13.7752 19.2148 3.3314 -0.9778 1.9795
# 2 13.7752 135.7343 46.7356 22.1236 -14.2269 6.3151
# 3 19.2148 46.7356 215.6526 -3.6714 -19.6761 -12.5297
# 4 3.3314 22.1236 -3.6714 37.3054 -2.1274 -8.7498
# 5 -0.9778 -14.2269 -19.6761 -2.1274 43.1573 -0.2478
# 6 1.9795 6.3151 -12.5297 -8.7498 -0.2478 19.0793
#
#
#
# Elastic Compliance Matrix: (Units=1/GPa)
#
#
# Indices 1 2 3 4 5 6 
#
# 1 0.022138 -0.000917 -0.002184 -0.002812 -0.000962 -0.004730
# 2 -0.000917 0.010310 -0.002650 -0.008266 0.001712 -0.008826
# 3 -0.002184 -0.002650 0.006075 0.004129 0.002090 0.007014
# 4 -0.002812 -0.008266 0.004129 0.037848 0.001092 0.023110
# 5 -0.000962 0.001712 0.002090 0.001092 0.024730 0.001728
# 6 -0.004730 -0.008826 0.007014 0.023110 0.001728 0.071052
#
#
# Mechanical properties :
#
#
# Convention : Reuss Voigt Hill
#
# Bulk Modulus (GPa) = 37.00991 62.14223 49.57607
# Shear Modulus (GPa) = 25.95224 41.24860 33.60042
#
# Velocity S-wave (km/s) = 3.19051 4.02232 3.63032
# Velocity P-wave (km/s) = 5.29990 6.77837 6.08421
#
# Compressibility (1/GPa) = 0.02701979
#
# Stress axis : x y z
#
# Youngs Moduli (GPa) = 45.17159 96.99162 164.62233
#
# Poissons Ratio (x) = 0.08894 0.35958
# Poissons Ratio (y) = 0.04142 0.43626
# Poissons Ratio (z) = 0.09867 0.25703
#
# Static dielectric constant tensor:
#      x y z
#    x 2.029800 -0.001210 -0.076290 
#    y -0.001210 2.016220 0.026530 
#    z -0.076290 0.026530 2.058510 
# 
# From -- ./inp_files/418537.got.cif
#   From: 2010.05.17/outbox.cif.g08.bks.cpg/sg2_210_cif.got.tgz:418537.got - 2010.06.03 11:33:40.
