data_PCOD9027218
_publ_section_title
;
Structure prediction by ZEFSAII (Michael W. Deem and Ramdas Pophale) SiO2 
 PCOD9027218
Probable space group: P -1
;
_chemical_formula_sum "Si O2"
_cell_formula_units_Z 10
_cell_length_a 4.997281
_cell_length_b 12.347106
_cell_length_c 8.951774
_cell_angle_alpha 124.204122
_cell_angle_beta 55.003663
_cell_angle_gamma 116.244092
_cell_volume 368.316588
_symmetry_space_group_name_H-M "P -1"
_symmetry_group_IT_number 2
_symmetry_cell_setting 'triclinic'
loop_
_space_group_symop_operation_xyz
x,y,z
-x,-y,-z
loop_
_atom_site_type_symbol
_atom_site_label
_atom_site_fract_x
_atom_site_fract_y
_atom_site_fract_z
Si Si1 0.423869 0.903568 0.750113
Si Si2 0.862605 0.668622 0.187287
Si Si3 0.498733 0.593038 0.810353
Si Si4 0.045135 0.263556 0.460818
Si Si5 0.794248 0.848951 0.108035
O O1 0.749997 0.856613 0.668981
O O2 0.242580 0.792803 0.605873
O O3 0.436173 0.044624 0.775304
O O4 0.162648 0.902192 0.968658
O O5 0.539920 0.554539 0.225326
O O6 0.026961 0.691567 0.315599
O O7 0.802761 0.805823 0.242204
O O8 0.117544 0.615745 0.950984
O O9 0.699676 0.620350 0.614153
O O10 0.669654 0.712805 0.953087
#
# Coordination Sequence:
#
# PCOD9027218 Si02
#       5
#     2   2   2   2   2
#     4  10  24  42  68  93 131 166 211 260 322 370
#     4  11  23  40  67  92 126 170 214 258 316 376
#     4  10  23  43  62  94 128 168 211 263 313 377
#     4  11  24  44  65  97 127 167 209 266 314 375
#     4  10  22  41  67  90 129 170 209 263 315 377
#
# _framework density 27.150558
#
# number of rings (size 3 to 8) (size 9 to 14) (size 15 to 20)
#    0.000    1.600    2.000    1.200    5.600    4.000 
#    0.000    3.000    0.000    0.000    0.000    0.000 
#    0.000    0.000    0.000    0.000    0.000    0.000 
#
# Total GULP energy -56099.652284 kJ/mol
# GULP energy per Si atom -5609.965228 kJ/mol
# Density = 2.708876 g / cm^3
# Si number density = 27.150558 Si / 1000 Ang^3
#
#
#
# Elastic Constant Matrix: (Units=GPa)
#
#
# Indices 1 2 3 4 5 6 
#
# 1 41.7567 32.1783 9.9139 -3.9140 -1.5226 -3.6284
# 2 32.1783 164.3540 43.6407 -21.8822 12.5022 -16.2347
# 3 9.9139 43.6407 82.6607 -20.3356 2.4895 9.8876
# 4 -3.9140 -21.8822 -20.3356 54.5152 1.0157 12.0102
# 5 -1.5226 12.5022 2.4895 1.0157 39.4525 10.0623
# 6 -3.6284 -16.2347 9.8876 12.0102 10.0623 33.1021
#
#
#
# Elastic Compliance Matrix: (Units=1/GPa)
#
#
# Indices 1 2 3 4 5 6 
#
# 1 0.028568 -0.005770 -0.000551 -0.000462 0.003053 -0.000294
# 2 -0.005770 0.009623 -0.005056 0.000109 -0.004741 0.006999
# 3 -0.000551 -0.005056 0.017828 0.007030 0.003178 -0.011382
# 4 -0.000462 0.000109 0.007030 0.023392 0.001736 -0.011112
# 5 0.003053 -0.004741 0.003178 0.001736 0.029955 -0.012675
# 6 -0.000294 0.006999 -0.011382 -0.011112 -0.012675 0.044894
#
#
# Mechanical properties :
#
#
# Convention : Reuss Voigt Hill
#
# Bulk Modulus (GPa) = 30.06085 51.13747 40.59916
# Shear Modulus (GPa) = 26.58130 38.94986 32.76558
#
# Velocity S-wave (km/s) = 3.13235 3.79170 3.47769
# Velocity P-wave (km/s) = 4.91712 6.16807 5.57777
#
# Compressibility (1/GPa) = 0.03326586
#
# Stress axis : x y z
#
# Youngs Moduli (GPa) = 35.00457 103.91621 56.09063
#
# Poissons Ratio (x) = 0.59957 0.03088
# Poissons Ratio (y) = 0.20197 0.28361
# Poissons Ratio (z) = 0.01927 0.52542
#
# Static dielectric constant tensor:
#      x y z
#    x 2.118020 0.006190 -0.049730 
#    y 0.006190 2.110440 0.005730 
#    z -0.049730 0.005730 2.112930 
# 
# From -- ./inp_files/16058.got.cif
#   From: 2010.05.17/outbox.cif.g08.bks.cpg/sg2_9_cif.got.tgz:16058.got - 2010.06.03 11:33:40.
