data_PCOD9027743
_publ_section_title
;
Structure prediction by ZEFSAII (Michael W. Deem and Ramdas Pophale) SiO2 
 PCOD9027743
Probable space group: P -1
;
_chemical_formula_sum "Si O2"
_cell_formula_units_Z 14
_cell_length_a 7.912515
_cell_length_b 12.074047
_cell_length_c 8.565487
_cell_angle_alpha 84.066366
_cell_angle_beta 124.636562
_cell_angle_gamma 65.134760
_cell_volume 542.838331
_symmetry_space_group_name_H-M "P -1"
_symmetry_group_IT_number 2
_symmetry_cell_setting 'triclinic'
loop_
_space_group_symop_operation_xyz
x,y,z
-x,-y,-z
loop_
_atom_site_type_symbol
_atom_site_label
_atom_site_fract_x
_atom_site_fract_y
_atom_site_fract_z
Si Si1 0.373055 0.540287 0.181729
Si Si2 0.469010 0.118721 0.645419
Si Si3 0.064003 0.149201 0.185518
Si Si4 0.852389 0.008050 0.264955
Si Si5 0.127319 0.456019 0.900094
Si Si6 0.723312 0.821752 0.119264
Si Si7 0.364070 0.381064 0.501460
O O1 0.580252 0.567797 0.321405
O O2 0.388302 0.457401 0.356747
O O3 0.119394 0.695597 0.995724
O O4 0.377226 0.450207 0.056178
O O5 0.447935 0.917763 0.875287
O O6 0.362145 0.179498 0.749694
O O7 0.534566 0.218239 0.591220
O O8 0.248339 0.131604 0.425387
O O9 0.898416 0.096900 0.161556
O O10 0.275998 0.034914 0.195494
O O11 0.907869 0.869573 0.235750
O O12 0.000000 0.000000 0.500000
O O13 0.921377 0.573489 0.660896
O O14 0.000000 0.500000 0.000000
O O15 0.842529 0.678047 0.121121
#
# Coordination Sequence:
#
# PCOD9027743 Si02
#       7
#     2   2   2   2   2   2   2
#     4  10  22  43  71 105 138 190 240 299 365 432
#     4  11  24  45  73 112 142 192 247 304 369 438
#     4  11  24  45  77 106 149 189 243 308 371 434
#     4  11  25  47  72 108 147 193 240 309 368 439
#     4  10  23  43  67 100 143 188 238 297 354 434
#     4  11  26  45  72 107 149 192 245 302 372 432
#     4  10  22  41  69 104 139 187 243 293 364 434
#
# _framework density 25.790367
#
# number of rings (size 3 to 8) (size 9 to 14) (size 15 to 20)
#    0.000    1.429    2.857    0.857    0.000   14.286 
#    0.000    1.429    0.000    0.000    0.000    0.000 
#    0.000    0.000    0.000    0.000    0.000    0.000 
#
# Total GULP energy -78189.708227 kJ/mol
# GULP energy per Si atom -5584.979159 kJ/mol
# Density = 2.573167 g / cm^3
# Si number density = 25.790367 Si / 1000 Ang^3
#
#
#
# Elastic Constant Matrix: (Units=GPa)
#
#
# Indices 1 2 3 4 5 6 
#
# 1 82.5715 39.7015 26.0743 5.2235 -11.0117 24.5984
# 2 39.7015 189.6389 52.7130 26.4985 -10.1510 18.6517
# 3 26.0743 52.7130 154.2310 36.2095 15.1448 10.6723
# 4 5.2235 26.4985 36.2095 61.5345 12.4610 4.6374
# 5 -11.0117 -10.1510 15.1448 12.4610 30.5635 10.5945
# 6 24.5984 18.6517 10.6723 4.6374 10.5945 44.6303
#
#
#
# Elastic Compliance Matrix: (Units=1/GPa)
#
#
# Indices 1 2 3 4 5 6 
#
# 1 0.018941 -0.001138 -0.002971 -0.000992 0.012526 -0.012124
# 2 -0.001138 0.006901 -0.001850 -0.002550 0.004768 -0.002681
# 3 -0.002971 -0.001850 0.008756 -0.003154 -0.005406 0.001928
# 4 -0.000992 -0.002550 -0.003154 0.020933 -0.008981 0.002324
# 5 0.012526 0.004768 -0.005406 -0.008981 0.051724 -0.018949
# 6 -0.012124 -0.002681 0.001928 0.002324 -0.018949 0.034005
#
#
# Mechanical properties :
#
#
# Convention : Reuss Voigt Hill
#
# Bulk Modulus (GPa) = 44.09270 73.71322 58.90296
# Shear Modulus (GPa) = 31.10626 47.87585 39.49105
#
# Velocity S-wave (km/s) = 3.47669 4.31321 3.91734
# Velocity P-wave (km/s) = 5.76630 7.31087 6.58403
#
# Compressibility (1/GPa) = 0.02267949
#
# Stress axis : x y z
#
# Youngs Moduli (GPa) = 52.79529 144.90824 114.20119
#
# Poissons Ratio (x) = 0.16489 0.33933
# Poissons Ratio (y) = 0.06007 0.21130
# Poissons Ratio (z) = 0.15687 0.26811
#
# Static dielectric constant tensor:
#      x y z
#    x 2.130640 -0.015670 0.021070 
#    y -0.015670 2.138870 -0.041710 
#    z 0.021070 -0.041710 2.082580 
# 
# From -- ./inp_files/169946.got.cif
#   From: 2010.05.17/outbox.cif.g08.bks.cpg/sg2_85_cif.got.tgz:169946.got - 2010.06.03 11:33:40.
