data_PCOD9027084
_publ_section_title
;
Structure prediction by ZEFSAII (Michael W. Deem and Ramdas Pophale) SiO2 
 PCOD9027084
Probable space group: P -1
;
_chemical_formula_sum "Si O2"
_cell_formula_units_Z 16
_cell_length_a 9.084711
_cell_length_b 16.925878
_cell_length_c 12.397417
_cell_angle_alpha 24.605900
_cell_angle_beta 77.826847
_cell_angle_gamma 90.688793
_cell_volume 671.683895
_symmetry_space_group_name_H-M "P -1"
_symmetry_group_IT_number 2
_symmetry_cell_setting 'triclinic'
loop_
_space_group_symop_operation_xyz
x,y,z
-x,-y,-z
loop_
_atom_site_type_symbol
_atom_site_label
_atom_site_fract_x
_atom_site_fract_y
_atom_site_fract_z
Si Si1 0.406672 0.265955 0.025235
Si Si2 0.503808 0.933256 0.459021
Si Si3 0.818822 0.550038 0.650264
Si Si4 0.828557 0.873997 0.952915
Si Si5 0.869070 0.229176 0.916431
Si Si6 0.041624 0.633001 0.717237
Si Si7 0.269202 0.105292 0.818011
Si Si8 0.366628 0.595155 0.728950
O O1 0.611680 0.406937 0.842433
O O2 0.324493 0.345072 0.033303
O O3 0.323957 0.292362 0.896129
O O4 0.386082 0.027902 0.310508
O O5 0.417428 0.689465 0.725906
O O6 0.500000 0.000000 0.500000
O O7 0.701599 0.062421 0.224642
O O8 0.848336 0.793354 0.334517
O O9 0.894934 0.521952 0.785283
O O10 0.890797 0.462324 0.653528
O O11 0.967237 0.795347 0.047156
O O12 0.925394 0.121004 0.583675
O O13 0.744026 0.887060 0.062139
O O14 0.802136 0.130923 0.930210
O O15 0.215732 0.630700 0.660105
O O16 0.000000 0.500000 0.000000
O O17 0.462164 0.255906 0.554191
#
# Coordination Sequence:
#
# PCOD9027084 Si02
#       8
#     2   2   2   2   2   2   2   2
#     4  10  23  43  66 101 136 179 234 273 346 410
#     4  10  22  41  66  96 135 182 231 280 335 413
#     4  10  23  45  68 102 139 179 226 284 349 411
#     4  12  24  45  72 103 143 183 231 290 340 411
#     4  10  22  41  69 103 137 179 227 283 352 400
#     4  12  27  45  68 101 141 179 235 291 342 407
#     4  10  23  46  71 104 142 179 233 283 345 420
#     4  10  23  45  67 100 137 182 227 284 352 398
#
# _framework density 23.820729
#
# number of rings (size 3 to 8) (size 9 to 14) (size 15 to 20)
#    0.000    1.500    2.500    1.125    3.500    4.500 
#    2.250    1.875    0.000    0.000    0.000    0.000 
#    0.000    0.000    0.000    0.000    0.000    0.000 
#
# Total GULP energy -89365.956429 kJ/mol
# GULP energy per Si atom -5585.372277 kJ/mol
# Density = 2.376651 g / cm^3
# Si number density = 23.820729 Si / 1000 Ang^3
#
#
#
# Elastic Constant Matrix: (Units=GPa)
#
#
# Indices 1 2 3 4 5 6 
#
# 1 141.6185 59.4593 23.9847 -11.1139 5.2114 6.7349
# 2 59.4593 170.8189 28.3539 -13.4521 -7.2425 10.0633
# 3 23.9847 28.3539 60.6459 -7.3429 9.6563 -9.8659
# 4 -11.1139 -13.4521 -7.3429 30.3344 -2.2195 4.1254
# 5 5.2114 -7.2425 9.6563 -2.2195 22.9556 -6.8716
# 6 6.7349 10.0633 -9.8659 4.1254 -6.8716 46.1192
#
#
#
# Elastic Compliance Matrix: (Units=1/GPa)
#
#
# Indices 1 2 3 4 5 6 
#
# 1 0.008776 -0.002605 -0.001949 0.001639 -0.002322 -0.001623
# 2 -0.002605 0.007741 -0.003237 0.002213 0.004136 -0.001583
# 3 -0.001949 -0.003237 0.020928 0.001773 -0.007978 0.004121
# 4 0.001639 0.002213 0.001773 0.035565 0.002056 -0.003218
# 5 -0.002322 0.004136 -0.007978 0.002056 0.050465 0.005065
# 6 -0.001623 -0.001583 0.004121 -0.003218 0.005065 0.024189
#
#
# Mechanical properties :
#
#
# Convention : Reuss Voigt Hill
#
# Bulk Modulus (GPa) = 45.73700 66.29768 56.01734
# Shear Modulus (GPa) = 29.31951 37.30086 33.31019
#
# Velocity S-wave (km/s) = 3.51214 3.96144 3.74354
# Velocity P-wave (km/s) = 5.97403 6.98687 6.50021
#
# Compressibility (1/GPa) = 0.02186414
#
# Stress axis : x y z
#
# Youngs Moduli (GPa) = 113.94307 129.18026 47.78186
#
# Poissons Ratio (x) = 0.33654 0.09311
# Poissons Ratio (y) = 0.29684 0.15467
# Poissons Ratio (z) = 0.22204 0.41815
#
# Static dielectric constant tensor:
#      x y z
#    x 1.913050 -0.014040 -0.014790 
#    y -0.014040 1.932230 0.021250 
#    z -0.014790 0.021250 2.095520 
# 
# From -- ./inp_files/398127.got.cif
#   From: 2010.05.17/outbox.cif.g08.bks.cpg/sg2_200_cif.got.tgz:398127.got - 2010.06.03 11:33:40.
