data_PCOD9027739
_publ_section_title
;
Structure prediction by ZEFSAII (Michael W. Deem and Ramdas Pophale) SiO2 
 PCOD9027739
Probable space group: P -1
;
_chemical_formula_sum "Si O2"
_cell_formula_units_Z 16
_cell_length_a 19.559771
_cell_length_b 7.623498
_cell_length_c 19.795938
_cell_angle_alpha 57.978197
_cell_angle_beta 21.516206
_cell_angle_gamma 46.403840
_cell_volume 711.942633
_symmetry_space_group_name_H-M "P -1"
_symmetry_group_IT_number 2
_symmetry_cell_setting 'triclinic'
loop_
_space_group_symop_operation_xyz
x,y,z
-x,-y,-z
loop_
_atom_site_type_symbol
_atom_site_label
_atom_site_fract_x
_atom_site_fract_y
_atom_site_fract_z
Si Si1 0.454953 0.169217 0.939982
Si Si2 0.462584 0.630432 0.848682
Si Si3 0.009101 0.581102 0.757891
Si Si4 0.226484 0.256871 0.381002
Si Si5 0.540311 0.083206 0.332954
Si Si6 0.977501 0.403814 0.966258
Si Si7 0.019121 0.006478 0.696308
Si Si8 0.492979 0.648040 0.411593
O O1 0.556562 0.330481 0.819204
O O2 0.578275 0.966487 0.805367
O O3 0.175853 0.395899 0.128411
O O4 0.500000 0.000000 0.000000
O O5 0.653610 0.649968 0.703284
O O6 0.399815 0.782032 0.804316
O O7 0.223474 0.792575 0.080660
O O8 0.283693 0.321957 0.550348
O O9 0.977144 0.846068 0.717168
O O10 0.943758 0.574475 0.897437
O O11 0.000000 0.500000 0.500000
O O12 0.120470 0.143205 0.544211
O O13 0.499014 0.887595 0.375801
O O14 0.769271 0.893667 0.210290
O O15 0.732441 0.444782 0.188729
O O16 0.000000 0.500000 0.000000
O O17 0.242369 0.771250 0.582996
O O18 0.500000 0.500000 0.500000
#
# Coordination Sequence:
#
# PCOD9027739 Si02
#       8
#     2   2   2   2   2   2   2   2
#     4  12  29  49  76 112 151 198 253 308 371 444
#     4  12  26  50  78 108 155 194 247 312 368 448
#     4  12  25  45  73 108 151 194 253 308 370 445
#     4  12  28  48  77 110 145 198 252 304 384 437
#     4  11  23  43  68 108 147 189 247 303 371 445
#     4  10  22  41  69 103 148 191 247 301 367 445
#     4  12  23  45  74 104 147 194 243 307 369 437
#     4  11  21  39  68 102 141 194 243 292 370 440
#
# _framework density 22.473721000000001
#
# number of rings (size 3 to 8) (size 9 to 14) (size 15 to 20)
#    0.000    0.500    2.500    7.125    3.500    1.500 
#    0.000    1.875    0.000    0.000    0.000    0.000 
#    0.000    0.000    0.000    0.000    0.000    0.000 
#
# Total GULP energy -89519.346899 kJ/mol
# GULP energy per Si atom -5594.959181 kJ/mol
# Density = 2.242257 g / cm^3
# Si number density = 22.473721 Si / 1000 Ang^3
#
#
#
# Elastic Constant Matrix: (Units=GPa)
#
#
# Indices 1 2 3 4 5 6 
#
# 1 119.6776 41.3178 234.8718 2.8775 -0.6434 -42.4797
# 2 41.3178 127.5731 14.9885 -25.8226 -7.5515 -5.6236
# 3 234.8718 14.9885 908.7214 66.1644 25.1021 -125.5419
# 4 2.8775 -25.8226 66.1644 59.0918 1.0039 -10.8912
# 5 -0.6434 -7.5515 25.1021 1.0039 26.9547 -3.7766
# 6 -42.4797 -5.6236 -125.5419 -10.8912 -3.7766 62.8725
#
#
#
# Elastic Compliance Matrix: (Units=1/GPa)
#
#
# Indices 1 2 3 4 5 6 
#
# 1 0.022649 -0.005515 -0.005488 0.003424 0.004641 0.004723
# 2 -0.005515 0.010363 0.000901 0.003712 0.001759 -0.000252
# 3 -0.005488 0.000901 0.002984 -0.002311 -0.002320 0.001791
# 4 0.003424 0.003712 -0.002311 0.021265 0.002745 0.001880
# 5 0.004641 0.001759 -0.002320 0.002745 0.039977 0.001536
# 6 0.004723 -0.000252 0.001791 0.001880 0.001536 0.023068
#
#
# Mechanical properties :
#
#
# Convention : Reuss Voigt Hill
#
# Bulk Modulus (GPa) = 63.32181 193.14759 128.23470
# Shear Modulus (GPa) = 34.29937 87.43673 60.86805
#
# Velocity S-wave (km/s) = 3.91090 6.24425 5.20988
# Velocity P-wave (km/s) = 6.97356 11.75236 9.66303
#
# Compressibility (1/GPa) = 0.01579235
#
# Stress axis : x y z
#
# Youngs Moduli (GPa) = 44.15128 96.49320 335.14333
#
# Poissons Ratio (x) = 0.53215 1.83928
# Poissons Ratio (y) = 0.24349 -0.30189
# Poissons Ratio (z) = 0.24230 -0.08692
#
# Static dielectric constant tensor:
#      x y z
#    x 1.856430 0.055760 -0.007710 
#    y 0.055760 1.833900 0.036200 
#    z -0.007710 0.036200 1.882610 
# 
# From -- ./inp_files/601149.got.cif
#   From: 2010.05.17/outbox.cif.g08.bks.cpg/sg2_301_cif.got.tgz:601149.got - 2010.06.03 11:33:40.
