data_PCOD9027022
_publ_section_title
;
Structure prediction by ZEFSAII (Michael W. Deem and Ramdas Pophale) SiO2 
 PCOD9027022
Probable space group: P -1
;
_chemical_formula_sum "Si O2"
_cell_formula_units_Z 14
_cell_length_a 14.341137
_cell_length_b 7.756877
_cell_length_c 6.173796
_cell_angle_alpha 120.643685
_cell_angle_beta 80.469887
_cell_angle_gamma 100.989075
_cell_volume 578.140274
_symmetry_space_group_name_H-M "P -1"
_symmetry_group_IT_number 2
_symmetry_cell_setting 'triclinic'
loop_
_space_group_symop_operation_xyz
x,y,z
-x,-y,-z
loop_
_atom_site_type_symbol
_atom_site_label
_atom_site_fract_x
_atom_site_fract_y
_atom_site_fract_z
Si Si1 0.670237 0.786630 0.055073
Si Si2 0.683429 0.348831 0.644809
Si Si3 0.823691 0.805182 0.368394
Si Si4 0.973289 0.767165 0.925566
Si Si5 0.521151 0.784950 0.438999
Si Si6 0.686631 0.013516 0.784761
Si Si7 0.142093 0.534800 0.578661
O O1 0.748184 0.847811 0.245087
O O2 0.572230 0.703391 0.159232
O O3 0.703121 0.588994 0.814049
O O4 0.667025 0.976722 0.021885
O O5 0.583233 0.320881 0.536455
O O6 0.781234 0.306616 0.468933
O O7 0.672948 0.216580 0.786892
O O8 0.794290 0.961021 0.661794
O O9 0.803465 0.587436 0.347091
O O10 0.921346 0.788457 0.190992
O O11 0.909237 0.630961 0.680891
O O12 0.066055 0.650804 0.808873
O O13 0.000000 0.000000 0.000000
O O14 0.603987 0.837548 0.616064
O O15 0.500000 0.000000 0.500000
#
# Coordination Sequence:
#
# PCOD9027022 Si02
#       7
#     2   2   2   2   2   2   2
#     4  11  22  43  64  95 134 173 226 271 328 398
#     4  11  21  43  63  97 130 176 221 277 334 390
#     4  11  21  45  63  96 135 173 220 276 329 406
#     4  11  24  44  70 101 132 174 223 279 342 406
#     4   9  22  40  62  96 132 174 228 270 332 394
#     4  10  22  41  66  94 136 177 224 278 325 396
#     4  11  24  45  68 100 139 171 227 277 338 410
#
# _framework density 24.215577
#
# number of rings (size 3 to 8) (size 9 to 14) (size 15 to 20)
#    0.000    1.429    2.857    1.714    0.000    3.429 
#   15.429    0.000    0.000    0.000    0.000    0.000 
#    0.000    0.000    0.000    0.000    0.000    0.000 
#
# Total GULP energy -78018.079572 kJ/mol
# GULP energy per Si atom -5572.719969 kJ/mol
# Density = 2.416046 g / cm^3
# Si number density = 24.215577 Si / 1000 Ang^3
#
#
#
# Elastic Constant Matrix: (Units=GPa)
#
#
# Indices 1 2 3 4 5 6 
#
# 1 95.7387 28.0007 34.8368 -10.6172 -24.1403 -1.4583
# 2 28.0007 116.1324 16.1277 -9.6663 13.8922 -1.6288
# 3 34.8368 16.1277 58.5076 -0.2736 -10.6617 9.2102
# 4 -10.6172 -9.6663 -0.2736 38.6176 -8.8223 0.2596
# 5 -24.1403 13.8922 -10.6617 -8.8223 30.9746 -5.0297
# 6 -1.4583 -1.6288 9.2102 0.2596 -5.0297 37.3363
#
#
#
# Elastic Compliance Matrix: (Units=1/GPa)
#
#
# Indices 1 2 3 4 5 6 
#
# 1 0.020892 -0.005394 -0.008226 0.008682 0.019177 0.005133
# 2 -0.005394 0.011272 -0.001656 -0.001005 -0.010226 -0.000681
# 3 -0.008226 -0.001656 0.023537 -0.002287 0.000796 -0.006077
# 4 0.008682 -0.001005 -0.002287 0.031625 0.015889 0.002780
# 5 0.019177 -0.010226 0.000796 0.015889 0.057882 0.007794
# 6 0.005133 -0.000681 -0.006077 0.002780 0.007794 0.029484
#
#
# Mechanical properties :
#
#
# Convention : Reuss Voigt Hill
#
# Bulk Modulus (GPa) = 39.76372 47.58989 43.67680
# Shear Modulus (GPa) = 23.40528 34.14660 28.77594
#
# Velocity S-wave (km/s) = 3.11229 3.75922 3.45095
# Velocity P-wave (km/s) = 5.41955 6.20786 5.82705
#
# Compressibility (1/GPa) = 0.02514855
#
# Stress axis : x y z
#
# Youngs Moduli (GPa) = 47.86453 88.71846 42.48648
#
# Poissons Ratio (x) = 0.47858 0.34948
# Poissons Ratio (y) = 0.25820 0.07036
# Poissons Ratio (z) = 0.39371 0.14693
#
# Static dielectric constant tensor:
#      x y z
#    x 2.779910 0.168070 -0.934410 
#    y 0.168070 1.896460 -0.158620 
#    z -0.934410 -0.158620 3.208850 
# 
# From -- ./inp_files/91125.got.cif
#   From: 2010.05.17/outbox.cif.g08.bks.cpg/sg2_46_cif.got.tgz:91125.got - 2010.06.03 11:33:40.
