data_PCOD9027216
_publ_section_title
;
Structure prediction by ZEFSAII (Michael W. Deem and Ramdas Pophale) SiO2 
 PCOD9027216
Probable space group: P -1
;
_chemical_formula_sum "Si O2"
_cell_formula_units_Z 16
_cell_length_a 7.175767
_cell_length_b 10.646696
_cell_length_c 12.327286
_cell_angle_alpha 83.980587
_cell_angle_beta 122.318518
_cell_angle_gamma 105.055856
_cell_volume 767.902019
_symmetry_space_group_name_H-M "P -1"
_symmetry_group_IT_number 2
_symmetry_cell_setting 'triclinic'
loop_
_space_group_symop_operation_xyz
x,y,z
-x,-y,-z
loop_
_atom_site_type_symbol
_atom_site_label
_atom_site_fract_x
_atom_site_fract_y
_atom_site_fract_z
Si Si1 0.677819 0.756534 0.297563
Si Si2 0.061321 0.504680 0.172256
Si Si3 0.238048 0.709527 0.033908
Si Si4 0.119977 0.489988 0.652096
Si Si5 0.875201 0.054258 0.634771
Si Si6 0.047436 0.089005 0.111483
Si Si7 0.512960 0.798488 0.473451
Si Si8 0.579808 0.670075 0.732031
O O1 0.495514 0.761293 0.147135
O O2 0.780883 0.635984 0.312461
O O3 0.551897 0.738305 0.375842
O O4 0.891092 0.880164 0.357437
O O5 0.106650 0.638891 0.107195
O O6 0.262580 0.433322 0.212542
O O7 0.038593 0.517554 0.292135
O O8 0.830375 0.407613 0.063485
O O9 0.140200 0.827088 0.949644
O O10 0.338856 0.610719 0.716495
O O11 0.000000 0.500000 0.500000
O O12 0.723594 0.158594 0.596478
O O13 0.710514 0.931790 0.535617
O O14 0.942083 0.000393 0.774158
O O15 0.282928 0.200204 0.176754
O O16 0.000000 0.000000 0.000000
O O17 0.539169 0.709402 0.591898
#
# Coordination Sequence:
#
# PCOD9027216 Si02
#       8
#     2   2   2   2   2   2   2   2
#     4  12  24  37  65  97 123 166 214 262 317 374
#     4  10  23  45  62  90 136 164 212 257 317 385
#     4  10  23  43  64  91 126 176 206 262 318 367
#     4  12  26  38  65 100 125 167 213 261 323 382
#     4  10  23  41  62  93 124 173 212 260 318 370
#     4  10  22  41  67  90 123 168 215 261 314 375
#     4  10  22  42  65  88 135 166 212 262 314 384
#     4  10  22  43  64  94 127 170 206 262 327 367
#
# _framework density 20.835992999999998
#
# number of rings (size 3 to 8) (size 9 to 14) (size 15 to 20)
#    0.000    1.500    1.250    2.625    5.250    3.000 
#    0.000   11.250    0.000    0.000    0.000    0.000 
#    0.000    0.000    0.000    0.000    0.000    0.000 
#
# Total GULP energy -89448.893149 kJ/mol
# GULP energy per Si atom -5590.555822 kJ/mol
# Density = 2.078857 g / cm^3
# Si number density = 20.835993 Si / 1000 Ang^3
#
#
#
# Elastic Constant Matrix: (Units=GPa)
#
#
# Indices 1 2 3 4 5 6 
#
# 1 58.8721 2.2905 30.2009 4.6780 0.2685 9.2291
# 2 2.2905 29.1490 17.4131 -4.9111 4.7856 1.1672
# 3 30.2009 17.4131 118.8170 -6.9282 7.3905 -3.5482
# 4 4.6780 -4.9111 -6.9282 30.0739 -9.2200 2.6683
# 5 0.2685 4.7856 7.3905 -9.2200 35.9009 2.6083
# 6 9.2291 1.1672 -3.5482 2.6683 2.6083 23.4700
#
#
#
# Elastic Compliance Matrix: (Units=1/GPa)
#
#
# Indices 1 2 3 4 5 6 
#
# 1 0.021922 0.001738 -0.006355 -0.003554 0.000679 -0.009339
# 2 0.001738 0.038964 -0.005850 0.004264 -0.002639 -0.003697
# 3 -0.006355 -0.005850 0.011210 0.001813 -0.001336 0.004427
# 4 -0.003554 0.004264 0.001813 0.038066 0.009143 -0.003884
# 5 0.000679 -0.002639 -0.001336 0.009143 0.031176 -0.004842
# 6 -0.009339 -0.003697 0.004427 -0.003884 -0.004842 0.048113
#
#
# Mechanical properties :
#
#
# Convention : Reuss Voigt Hill
#
# Bulk Modulus (GPa) = 19.54586 34.07189 26.80887
# Shear Modulus (GPa) = 21.98398 28.35121 25.16760
#
# Velocity S-wave (km/s) = 3.25175 3.69275 3.47924
# Velocity P-wave (km/s) = 4.84765 5.87961 5.38839
#
# Compressibility (1/GPa) = 0.05116174
#
# Stress axis : x y z
#
# Youngs Moduli (GPa) = 45.61695 25.66463 89.20652
#
# Poissons Ratio (x) = -0.04459 0.56691
# Poissons Ratio (y) = -0.07926 0.52182
# Poissons Ratio (z) = 0.28989 0.15013
#
# Static dielectric constant tensor:
#      x y z
#    x 1.786620 -0.044570 0.095760 
#    y -0.044570 1.850430 -0.073130 
#    z 0.095760 -0.073130 1.845850 
# 
# From -- ./inp_files/364660.got.cif
#   From: 2010.05.17/outbox.cif.g08.bks.cpg/sg2_183_cif.got.tgz:364660.got - 2010.06.03 11:33:40.
