data_PCOD9027947
_publ_section_title
;
Structure prediction by ZEFSAII (Michael W. Deem and Ramdas Pophale) SiO2 
 PCOD9027947
Probable space group: P -1
;
_chemical_formula_sum "Si O2"
_cell_formula_units_Z 14
_cell_length_a 12.676084
_cell_length_b 17.835953
_cell_length_c 12.013712
_cell_angle_alpha 152.619732
_cell_angle_beta 36.445875
_cell_angle_gamma 151.176168
_cell_volume 597.936881
_symmetry_space_group_name_H-M "P -1"
_symmetry_group_IT_number 2
_symmetry_cell_setting 'triclinic'
loop_
_space_group_symop_operation_xyz
x,y,z
-x,-y,-z
loop_
_atom_site_type_symbol
_atom_site_label
_atom_site_fract_x
_atom_site_fract_y
_atom_site_fract_z
Si Si1 0.643805 0.076705 0.590468
Si Si2 0.943134 0.539117 0.978263
Si Si3 0.224240 0.217499 0.621057
Si Si4 0.649586 0.360790 0.328075
Si Si5 0.383913 0.131490 0.037783
Si Si6 0.797237 0.759174 0.845065
Si Si7 0.138110 0.155684 0.861529
O O1 0.801542 0.316138 0.755863
O O2 0.500000 0.000000 0.500000
O O3 0.782493 0.987496 0.374206
O O4 0.498597 0.028917 0.762317
O O5 0.166992 0.678652 0.899393
O O6 0.811388 0.634710 0.220884
O O7 0.000000 0.500000 0.000000
O O8 0.443487 0.241642 0.429722
O O9 0.228380 0.259726 0.803757
O O10 0.000000 0.000000 0.500000
O O11 0.525438 0.297442 0.230713
O O12 0.789414 0.593234 0.557794
O O13 0.378624 0.229629 0.056805
O O14 0.129290 0.978239 0.089022
O O15 0.768828 0.698042 0.917298
O O16 0.000000 0.000000 0.000000
#
# Coordination Sequence:
#
# PCOD9027947 Si02
#       7
#     2   2   2   2   2   2   2
#     4  12  25  45  74 109 140 186 241 298 357 425
#     4  12  27  45  72 110 140 181 250 296 353 432
#     4  12  28  48  71 103 150 197 234 293 363 429
#     4  12  26  43  74 105 145 186 241 296 359 423
#     4  11  22  41  73 106 140 185 241 294 357 414
#     4  10  22  41  70 104 141 185 231 298 356 415
#     4  11  25  47  71 103 151 186 241 292 362 428
#
# _framework density 23.413843
#
# number of rings (size 3 to 8) (size 9 to 14) (size 15 to 20)
#    0.000    0.571    4.286    3.857    4.000    2.286 
#    0.000    0.714    0.000    0.000    0.000    0.000 
#    0.000    0.000    0.000    0.000    0.000    0.000 
#
# Total GULP energy -78163.403153 kJ/mol
# GULP energy per Si atom -5583.100225 kJ/mol
# Density = 2.336055 g / cm^3
# Si number density = 23.413843 Si / 1000 Ang^3
#
#
#
# Elastic Constant Matrix: (Units=GPa)
#
#
# Indices 1 2 3 4 5 6 
#
# 1 97.7741 24.3271 29.5004 4.5957 44.8986 -5.2225
# 2 24.3271 134.5647 38.7401 -28.3859 6.7544 22.0198
# 3 29.5004 38.7401 103.8082 -10.0291 28.4981 14.0509
# 4 4.5957 -28.3859 -10.0291 58.0075 7.0885 6.0442
# 5 44.8986 6.7544 28.4981 7.0885 56.6720 1.8913
# 6 -5.2225 22.0198 14.0509 6.0442 1.8913 27.3507
#
#
#
# Elastic Compliance Matrix: (Units=1/GPa)
#
#
# Indices 1 2 3 4 5 6 
#
# 1 0.018626 -0.004534 -0.001575 -0.003346 -0.013328 0.009677
# 2 -0.004534 0.011860 -0.001668 0.006732 0.002550 -0.011221
# 3 -0.001575 -0.001668 0.013282 0.002894 -0.005392 -0.006048
# 4 -0.003346 0.006732 0.002894 0.022847 -0.002048 -0.012452
# 5 -0.013328 0.002550 -0.005392 -0.002048 0.030986 -0.003518
# 6 0.009677 -0.011221 -0.006048 -0.012452 -0.003518 0.053546
#
#
# Mechanical properties :
#
#
# Convention : Reuss Voigt Hill
#
# Bulk Modulus (GPa) = 35.44628 57.92022 46.68325
# Shear Modulus (GPa) = 28.39230 44.64468 36.51849
#
# Velocity S-wave (km/s) = 3.48606 4.37139 3.95358
# Velocity P-wave (km/s) = 5.60137 7.09014 6.38926
#
# Compressibility (1/GPa) = 0.02821170
#
# Stress axis : x y z
#
# Youngs Moduli (GPa) = 53.68952 84.32044 75.29084
#
# Poissons Ratio (x) = 0.38233 0.11860
# Poissons Ratio (y) = 0.24344 0.12560
# Poissons Ratio (z) = 0.08457 0.14067
#
# Static dielectric constant tensor:
#      x y z
#    x 1.862360 -0.031400 -0.017770 
#    y -0.031400 2.006370 -0.057530 
#    z -0.017770 -0.057530 1.905820 
# 
# From -- ./inp_files/437431.got.cif
#   From: 2010.05.17/outbox.cif.g08.bks.cpg/sg2_219_cif.got.tgz:437431.got - 2010.06.03 11:33:40.
