data_PCOD9027976
_publ_section_title
;
Structure prediction by ZEFSAII (Michael W. Deem and Ramdas Pophale) SiO2 
 PCOD9027976
Probable space group: P -1
;
_chemical_formula_sum "Si O2"
_cell_formula_units_Z 16
_cell_length_a 8.373618
_cell_length_b 18.443976
_cell_length_c 5.096355
_cell_angle_alpha 121.015864
_cell_angle_beta 113.779998
_cell_angle_gamma 85.154125
_cell_volume 609.614122
_symmetry_space_group_name_H-M "P -1"
_symmetry_group_IT_number 2
_symmetry_cell_setting 'triclinic'
loop_
_space_group_symop_operation_xyz
x,y,z
-x,-y,-z
loop_
_atom_site_type_symbol
_atom_site_label
_atom_site_fract_x
_atom_site_fract_y
_atom_site_fract_z
Si Si1 0.382471 0.311667 0.247872
Si Si2 0.278298 0.547086 0.250259
Si Si3 0.493902 0.100402 0.139553
Si Si4 0.152834 0.625514 0.803922
Si Si5 0.197444 0.350786 0.694992
Si Si6 0.130879 0.061225 0.894429
Si Si7 0.583617 0.205110 0.832017
Si Si8 0.178052 0.901262 0.952662
O O1 0.526204 0.398877 0.503346
O O2 0.314214 0.307812 0.488302
O O3 0.225842 0.314260 0.935970
O O4 0.493345 0.239373 0.090259
O O5 0.204462 0.552560 0.506068
O O6 0.160216 0.592186 0.045252
O O7 0.271897 0.451457 0.969218
O O8 0.444818 0.156512 0.453585
O O9 0.700507 0.135438 0.261554
O O10 0.296078 0.092297 0.868974
O O11 0.500000 0.000000 0.000000
O O12 0.985228 0.651757 0.589213
O O13 0.299983 0.709632 0.041023
O O14 0.181418 0.997069 0.034372
O O15 0.000000 0.000000 0.500000
O O16 0.016224 0.123368 0.092126
O O17 0.696062 0.127882 0.798937
#
# Coordination Sequence:
#
# PCOD9027976 Si02
#       8
#     2   2   2   2   2   2   2   2
#     4  11  25  41  68 100 145 185 238 291 366 430
#     4  11  22  44  71 100 140 191 236 295 357 433
#     4  10  23  43  70  95 132 176 235 286 355 430
#     4  11  25  42  71 101 146 184 240 293 371 425
#     4  12  23  44  69 107 136 186 246 299 345 434
#     4  10  22  42  67 107 126 166 239 293 353 435
#     4  11  26  44  63  94 137 184 223 289 368 433
#     4  10  22  41  70  91 135 175 220 286 363 414
#
# _framework density 26.246113999999999
#
# number of rings (size 3 to 8) (size 9 to 14) (size 15 to 20)
#    0.000    1.250    0.000    6.000    5.250    6.500 
#    2.250    0.000    0.000    0.000    0.000    0.000 
#    0.000    0.000    0.000    0.000    0.000    0.000 
#
# Total GULP energy -89101.527930 kJ/mol
# GULP energy per Si atom -5568.845496 kJ/mol
# Density = 2.618638 g / cm^3
# Si number density = 26.246114 Si / 1000 Ang^3
#
#
#
# Elastic Constant Matrix: (Units=GPa)
#
#
# Indices 1 2 3 4 5 6 
#
# 1 93.3303 -9.3341 20.6295 18.2463 -5.8514 -19.6204
# 2 -9.3341 88.8783 29.7982 -7.3454 7.3906 -23.3661
# 3 20.6295 29.7982 124.9393 7.0472 -10.0960 -2.7983
# 4 18.2463 -7.3454 7.0472 34.8323 -4.8565 -0.2221
# 5 -5.8514 7.3906 -10.0960 -4.8565 31.7123 1.7440
# 6 -19.6204 -23.3661 -2.7983 -0.2221 1.7440 39.8675
#
#
#
# Elastic Compliance Matrix: (Units=1/GPa)
#
#
# Indices 1 2 3 4 5 6 
#
# 1 0.015215 0.004862 -0.003156 -0.006362 -0.000861 0.010118
# 2 0.004862 0.017316 -0.005162 0.001498 -0.005235 0.012417
# 3 -0.003156 -0.005162 0.010034 -0.000948 0.003893 -0.004050
# 4 -0.006362 0.001498 -0.000948 0.033003 0.003355 -0.002282
# 5 -0.000861 -0.005235 0.003893 0.003355 0.034607 -0.004714
# 6 0.010118 0.012417 -0.004050 -0.002282 -0.004714 0.037249
#
#
# Mechanical properties :
#
#
# Convention : Reuss Voigt Hill
#
# Bulk Modulus (GPa) = 28.04836 43.25947 35.65392
# Shear Modulus (GPa) = 30.08047 39.01936 34.54992
#
# Velocity S-wave (km/s) = 3.38907 3.85992 3.63213
# Velocity P-wave (km/s) = 5.10140 6.03186 5.58604
#
# Compressibility (1/GPa) = 0.03565271
#
# Stress axis : x y z
#
# Youngs Moduli (GPa) = 65.72263 57.74941 99.66584
#
# Poissons Ratio (x) = -0.28078 0.31455
# Poissons Ratio (y) = -0.31954 0.51450
# Poissons Ratio (z) = 0.20742 0.29811
#
# Static dielectric constant tensor:
#      x y z
#    x 2.173090 0.006290 0.028510 
#    y 0.006290 2.094930 -0.040450 
#    z 0.028510 -0.040450 2.002870 
# 
# From -- ./inp_files/54010.got.cif
#   From: 2010.05.17/outbox.cif.g08.bks.cpg/sg2_28_cif.got.tgz:54010.got - 2010.06.03 11:33:40.
