data_PCOD9027107
_publ_section_title
;
Structure prediction by ZEFSAII (Michael W. Deem and Ramdas Pophale) SiO2 
 PCOD9027107
Probable space group: P -1
;
_chemical_formula_sum "Si O2"
_cell_formula_units_Z 16
_cell_length_a 16.117131
_cell_length_b 5.057998
_cell_length_c 8.209075
_cell_angle_alpha 81.393299
_cell_angle_beta 78.470782
_cell_angle_gamma 75.449889
_cell_volume 631.176737
_symmetry_space_group_name_H-M "P -1"
_symmetry_group_IT_number 2
_symmetry_cell_setting 'triclinic'
loop_
_space_group_symop_operation_xyz
x,y,z
-x,-y,-z
loop_
_atom_site_type_symbol
_atom_site_label
_atom_site_fract_x
_atom_site_fract_y
_atom_site_fract_z
Si Si1 0.778052 0.196147 0.195708
Si Si2 0.049619 0.165068 0.681110
Si Si3 0.596043 0.682040 0.943672
Si Si4 0.668777 0.332714 0.661445
Si Si5 0.683909 0.739852 0.364350
Si Si6 0.237764 0.062988 0.116784
Si Si7 0.499022 0.184741 0.722023
Si Si8 0.059931 0.266179 0.285897
O O1 0.741284 0.508469 0.241594
O O2 0.871309 0.042858 0.243631
O O3 0.714920 0.018233 0.315658
O O4 0.773764 0.131050 0.011925
O O5 0.071980 0.236086 0.480001
O O6 0.014768 0.462877 0.746748
O O7 0.971437 0.007365 0.723984
O O8 0.632289 0.418206 0.847504
O O9 0.676487 0.816416 0.947726
O O10 0.534262 0.897527 0.828147
O O11 0.547253 0.623361 0.129043
O O12 0.697124 0.583990 0.544724
O O13 0.748175 0.088588 0.698600
O O14 0.584943 0.265070 0.613081
O O15 0.580648 0.808133 0.365861
O O16 0.147397 0.281860 0.155839
#
# Coordination Sequence:
#
# PCOD9027107 Si02
#       8
#     2   2   2   2   2   2   2   2
#     4  12  27  46  69 100 143 176 225 280 340 397
#     4  10  23  44  67 102 134 174 214 279 336 398
#     4  10  22  41  66  97 135 178 228 279 338 395
#     4  11  25  40  69  96 137 180 234 279 335 399
#     4  12  27  43  70 100 138 182 228 285 333 396
#     4  11  25  42  68 102 134 183 225 276 335 409
#     4  10  22  42  63  99 132 182 226 282 337 396
#     4  10  23  42  72  98 135 172 222 268 338 407
#
# _framework density 25.349474000000001
#
# number of rings (size 3 to 8) (size 9 to 14) (size 15 to 20)
#    0.000    1.250    1.250    3.000    8.750    2.500 
#    0.000    0.000    0.000    0.000    0.000    0.000 
#    0.000    0.000    0.000    0.000    0.000    0.000 
#
# Total GULP energy -89593.661904 kJ/mol
# GULP energy per Si atom -5599.603869 kJ/mol
# Density = 2.529178 g / cm^3
# Si number density = 25.349474 Si / 1000 Ang^3
#
#
#
# Elastic Constant Matrix: (Units=GPa)
#
#
# Indices 1 2 3 4 5 6 
#
# 1 79.5171 16.0883 33.4814 6.9457 7.6497 -25.4039
# 2 16.0883 55.3504 6.6366 8.3022 -7.8700 -10.9279
# 3 33.4814 6.6366 56.7600 -6.0413 -4.0655 -7.2508
# 4 6.9457 8.3022 -6.0413 38.5959 -7.4137 3.3324
# 5 7.6497 -7.8700 -4.0655 -7.4137 32.2992 -7.3445
# 6 -25.4039 -10.9279 -7.2508 3.3324 -7.3445 40.3148
#
#
#
# Elastic Compliance Matrix: (Units=1/GPa)
#
#
# Indices 1 2 3 4 5 6 
#
# 1 0.023981 -0.002944 -0.013791 -0.008242 -0.007489 0.011150
# 2 -0.002944 0.021384 0.000029 -0.003305 0.006376 0.005381
# 3 -0.013791 0.000029 0.026815 0.008456 0.007879 -0.003123
# 4 -0.008242 -0.003305 0.008456 0.031483 0.008144 -0.005688
# 5 -0.007489 0.006376 0.007879 0.008144 0.038221 0.004716
# 6 0.011150 0.005381 -0.003123 -0.005688 0.004716 0.034057
#
#
# Mechanical properties :
#
#
# Convention : Reuss Voigt Hill
#
# Bulk Modulus (GPa) = 25.79506 33.78223 29.78864
# Shear Modulus (GPa) = 22.49456 31.27004 26.88230
#
# Velocity S-wave (km/s) = 2.98212 3.51601 3.26002
# Velocity P-wave (km/s) = 4.69630 5.46248 5.09382
#
# Compressibility (1/GPa) = 0.03876712
#
# Stress axis : x y z
#
# Youngs Moduli (GPa) = 41.69983 46.76431 37.29246
#
# Poissons Ratio (x) = 0.13768 0.51430
# Poissons Ratio (y) = 0.12277 -0.00107
# Poissons Ratio (z) = 0.57508 -0.00134
#
# Static dielectric constant tensor:
#      x y z
#    x 2.005880 -0.018250 0.018880 
#    y -0.018250 1.992560 0.032130 
#    z 0.018880 0.032130 2.038400 
# 
# From -- ./inp_files/37347.got.cif
#   From: 2010.05.17/outbox.cif.g08.bks.cpg/sg2_19_cif.got.tgz:37347.got - 2010.06.03 11:33:40.
