data_PCOD9027036
_publ_section_title
;
Structure prediction by ZEFSAII (Michael W. Deem and Ramdas Pophale) SiO2 
 PCOD9027036
Probable space group: P -1
;
_chemical_formula_sum "Si O2"
_cell_formula_units_Z 14
_cell_length_a 17.158489
_cell_length_b 11.188140
_cell_length_c 17.818234
_cell_angle_alpha 149.439810
_cell_angle_beta 22.234136
_cell_angle_gamma 151.862243
_cell_volume 590.805170
_symmetry_space_group_name_H-M "P -1"
_symmetry_group_IT_number 2
_symmetry_cell_setting 'triclinic'
loop_
_space_group_symop_operation_xyz
x,y,z
-x,-y,-z
loop_
_atom_site_type_symbol
_atom_site_label
_atom_site_fract_x
_atom_site_fract_y
_atom_site_fract_z
Si Si1 0.969467 0.583175 0.393523
Si Si2 0.742886 0.767862 0.594712
Si Si3 0.052795 0.299289 0.899138
Si Si4 0.741304 0.928547 0.524388
Si Si5 0.328784 0.568100 0.949730
Si Si6 0.556177 0.219369 0.628508
Si Si7 0.578071 0.817222 0.104869
O O1 0.783373 0.531654 0.465262
O O2 0.835591 0.360807 0.453175
O O3 0.016525 0.840396 0.539264
O O4 0.189793 0.625628 0.171170
O O5 0.554224 0.788442 0.827541
O O6 0.666278 0.745022 0.565298
O O7 0.000000 0.000000 0.500000
O O8 0.160889 0.429443 0.953510
O O9 0.226403 0.218919 0.655148
O O10 0.000000 0.500000 0.000000
O O11 0.828794 0.023241 0.964491
O O12 0.591281 0.085986 0.733226
O O13 0.432970 0.395408 0.805954
O O14 0.453964 0.125699 0.749797
O O15 0.500000 0.000000 0.500000
O O16 0.500000 0.500000 0.000000
#
# Coordination Sequence:
#
# PCOD9027036 Si02
#       7
#     2   2   2   2   2   2   2
#     4  10  22  41  66  95 129 174 228 282 341 410
#     4   9  21  40  65  96 129 170 223 278 336 405
#     4  12  27  45  70 104 140 181 231 287 352 415
#     4  11  24  42  67  96 139 180 224 286 347 402
#     4  11  23  41  67  95 133 179 226 283 345 405
#     4  11  24  41  63  94 131 175 230 282 337 409
#     4  12  27  45  69 102 140 185 236 283 341 417
#
# _framework density 23.696476000000001
#
# number of rings (size 3 to 8) (size 9 to 14) (size 15 to 20)
#    0.000    1.143    0.000    5.143    0.000   16.000 
#    0.000    0.000    0.000    0.000    0.000    0.000 
#    0.000    0.000    0.000    0.000    0.000    0.000 
#
# Total GULP energy -78032.036574 kJ/mol
# GULP energy per Si atom -5573.716898 kJ/mol
# Density = 2.364254 g / cm^3
# Si number density = 23.696476 Si / 1000 Ang^3
#
#
#
# Elastic Constant Matrix: (Units=GPa)
#
#
# Indices 1 2 3 4 5 6 
#
# 1 121.6952 18.4311 43.1091 -6.7043 10.1521 -3.5109
# 2 18.4311 120.4638 46.6416 -25.1684 6.5898 3.1791
# 3 43.1091 46.6416 144.7022 -6.0978 17.1921 -7.3181
# 4 -6.7043 -25.1684 -6.0978 27.1610 3.8149 12.5803
# 5 10.1521 6.5898 17.1921 3.8149 37.6959 2.3491
# 6 -3.5109 3.1791 -7.3181 12.5803 2.3491 28.2275
#
#
#
# Elastic Compliance Matrix: (Units=1/GPa)
#
#
# Indices 1 2 3 4 5 6 
#
# 1 0.009351 0.000130 -0.002565 0.002255 -0.001575 -0.000391
# 2 0.000130 0.013653 -0.004043 0.016550 -0.001641 -0.009809
# 3 -0.002565 -0.004043 0.009368 -0.004012 -0.002754 0.004582
# 4 0.002255 0.016550 -0.004012 0.067653 -0.006509 -0.032233
# 5 -0.001575 -0.001641 -0.002754 -0.006509 0.029170 -0.000252
# 6 -0.000391 -0.009809 0.004582 -0.032233 -0.000252 0.052057
#
#
# Mechanical properties :
#
#
# Convention : Reuss Voigt Hill
#
# Bulk Modulus (GPa) = 51.50591 67.02499 59.26545
# Shear Modulus (GPa) = 24.91528 37.19551 31.05539
#
# Velocity S-wave (km/s) = 3.24610 3.96620 3.62408
# Velocity P-wave (km/s) = 5.98602 7.02285 6.52506
#
# Compressibility (1/GPa) = 0.01941525
#
# Stress axis : x y z
#
# Youngs Moduli (GPa) = 106.94509 73.24296 106.74476
#
# Poissons Ratio (x) = -0.00953 0.27383
# Poissons Ratio (y) = -0.01392 0.43159
# Poissons Ratio (z) = 0.27434 0.29614
#
# Static dielectric constant tensor:
#      x y z
#    x 2.025060 -0.002020 -0.157770 
#    y -0.002020 2.119000 -0.110780 
#    z -0.157770 -0.110780 1.802180 
# 
# From -- ./inp_files/575990.got.cif
#   From: 2010.05.17/outbox.cif.g08.bks.cpg/sg2_288_cif.got.tgz:575990.got - 2010.06.03 11:33:40.
