data_PCOD9027555
_publ_section_title
;
Structure prediction by ZEFSAII (Michael W. Deem and Ramdas Pophale) SiO2 
 PCOD9027555
Probable space group: P -1
;
_chemical_formula_sum "Si O2"
_cell_formula_units_Z 12
_cell_length_a 11.612500
_cell_length_b 5.094609
_cell_length_c 22.382989
_cell_angle_alpha 74.153125
_cell_angle_beta 156.524909
_cell_angle_gamma 98.463694
_cell_volume 488.670723
_symmetry_space_group_name_H-M "P -1"
_symmetry_group_IT_number 2
_symmetry_cell_setting 'triclinic'
loop_
_space_group_symop_operation_xyz
x,y,z
-x,-y,-z
loop_
_atom_site_type_symbol
_atom_site_label
_atom_site_fract_x
_atom_site_fract_y
_atom_site_fract_z
Si Si1 0.036968 0.631598 0.775063
Si Si2 0.088282 0.202947 0.432383
Si Si3 0.265914 0.970555 0.953504
Si Si4 0.293402 0.222415 0.279481
Si Si5 0.748943 0.751682 0.296171
Si Si6 0.200195 0.680832 0.115386
O O1 0.995046 0.690922 0.681897
O O2 0.732769 0.750805 0.662495
O O3 0.150182 0.301993 0.865442
O O4 0.736980 0.204261 0.098153
O O5 0.013685 0.478040 0.421211
O O6 0.422202 0.001784 0.598243
O O7 0.878615 0.004133 0.364972
O O8 0.006075 0.873002 0.871691
O O9 0.562170 0.868075 0.139796
O O10 0.267642 0.528487 0.220850
O O11 0.511394 0.669448 0.231491
O O12 0.000000 0.500000 0.000000
O O13 0.000000 0.000000 0.000000
#
# Coordination Sequence:
#
# PCOD9027555 Si02
#       6
#     2   2   2   2   2   2
#     4  10  22  42  68  96 129 180 225 256 321 391
#     4  12  27  41  66  98 147 162 213 279 331 387
#     4  10  22  41  68  94 127 172 235 251 319 393
#     4  10  26  43  71  96 128 182 222 260 327 392
#     4  12  26  43  64 106 128 175 214 277 337 367
#     4  12  24  46  75  94 127 171 228 272 312 401
#
# _framework density 24.556414
#
# number of rings (size 3 to 8) (size 9 to 14) (size 15 to 20)
#    1.000    0.000    1.667    4.500    2.333    6.000 
#    0.000    0.000    0.000    0.000    0.000    0.000 
#    0.000    0.000    0.000    0.000    0.000    0.000 
#
# Total GULP energy -67228.683621 kJ/mol
# GULP energy per Si atom -5602.390302 kJ/mol
# Density = 2.450052 g / cm^3
# Si number density = 24.556414 Si / 1000 Ang^3
#
#
#
# Elastic Constant Matrix: (Units=GPa)
#
#
# Indices 1 2 3 4 5 6 
#
# 1 90.3672 21.9968 23.5285 -2.2940 18.9912 16.2657
# 2 21.9968 129.5320 45.1067 -36.3054 4.3765 -11.4962
# 3 23.5285 45.1067 107.0414 -17.8003 17.3968 18.3194
# 4 -2.2940 -36.3054 -17.8003 39.4991 -1.2304 5.5514
# 5 18.9912 4.3765 17.3968 -1.2304 35.8876 8.9661
# 6 16.2657 -11.4962 18.3194 5.5514 8.9661 28.6218
#
#
#
# Elastic Compliance Matrix: (Units=1/GPa)
#
#
# Indices 1 2 3 4 5 6 
#
# 1 0.014313 -0.003373 0.000273 -0.001228 -0.005405 -0.007732
# 2 -0.003373 0.013115 -0.004952 0.008459 0.000759 0.008476
# 3 0.000273 -0.004952 0.014382 0.003355 -0.003688 -0.010845
# 4 -0.001228 0.008459 0.003355 0.035255 0.000458 -0.005033
# 5 -0.005405 0.000759 -0.003688 0.000458 0.033659 -0.004896
# 6 -0.007732 0.008476 -0.010845 -0.005033 -0.004896 0.052189
#
#
# Mechanical properties :
#
#
# Convention : Reuss Voigt Hill
#
# Bulk Modulus (GPa) = 38.90343 56.46719 47.68531
# Shear Modulus (GPa) = 26.65442 36.55560 31.60501
#
# Velocity S-wave (km/s) = 3.29817 3.86247 3.59142
# Velocity P-wave (km/s) = 5.51188 6.55259 6.05463
#
# Compressibility (1/GPa) = 0.02570467
#
# Stress axis : x y z
#
# Youngs Moduli (GPa) = 69.86893 76.24751 69.52938
#
# Poissons Ratio (x) = 0.25722 -0.01899
# Poissons Ratio (y) = 0.23570 0.34434
# Poissons Ratio (z) = -0.01908 0.37761
#
# Static dielectric constant tensor:
#      x y z
#    x 1.983580 -0.016620 -0.006900 
#    y -0.016620 1.883150 0.025190 
#    z -0.006900 0.025190 1.924720 
# 
# From -- ./inp_files/68128.got.cif
#   From: 2010.05.17/outbox.cif.g08.bks.cpg/sg2_35_cif.got.tgz:68128.got - 2010.06.03 11:33:40.
