data_PCOD9027078
_publ_section_title
;
Structure prediction by ZEFSAII (Michael W. Deem and Ramdas Pophale) SiO2 
 PCOD9027078
Probable space group: P -1
;
_chemical_formula_sum "Si O2"
_cell_formula_units_Z 12
_cell_length_a 7.254278
_cell_length_b 7.587091
_cell_length_c 20.115646
_cell_angle_alpha 47.638873
_cell_angle_beta 45.115357
_cell_angle_gamma 37.098135
_cell_volume 456.939479
_symmetry_space_group_name_H-M "P -1"
_symmetry_group_IT_number 2
_symmetry_cell_setting 'triclinic'
loop_
_space_group_symop_operation_xyz
x,y,z
-x,-y,-z
loop_
_atom_site_type_symbol
_atom_site_label
_atom_site_fract_x
_atom_site_fract_y
_atom_site_fract_z
Si Si1 0.399008 0.422934 0.160697
Si Si2 0.197012 0.388303 0.829865
Si Si3 0.852413 0.867919 0.277465
Si Si4 0.306018 0.954875 0.466391
Si Si5 0.605961 0.803169 0.956875
Si Si6 0.469732 0.696176 0.636474
O O1 0.097116 0.482885 0.180801
O O2 0.536957 0.565164 0.047836
O O3 0.218760 0.613599 0.225416
O O4 0.679443 0.094012 0.201203
O O5 0.456250 0.425368 0.723431
O O6 0.990393 0.608707 0.889514
O O7 0.378034 0.048544 0.895394
O O8 0.607828 0.789988 0.378990
O O9 0.823913 0.036971 0.309192
O O10 0.252510 0.267313 0.420605
O O11 0.405072 0.778427 0.555041
O O12 0.000000 0.000000 0.500000
O O13 0.500000 0.000000 0.000000
#
# Coordination Sequence:
#
# PCOD9027078 Si02
#       6
#     2   2   2   2   2   2
#     4  12  23  42  67  97 133 178 220 275 331 394
#     4  12  24  42  65  99 133 173 226 274 328 398
#     4  10  22  41  66  96 134 169 223 270 334 392
#     4   9  19  42  71  97 135 174 223 276 337 397
#     4  12  25  42  66  94 134 179 223 271 332 395
#     4   9  21  41  67 101 134 174 225 275 334 399
#
# _framework density 26.261683999999999
#
# number of rings (size 3 to 8) (size 9 to 14) (size 15 to 20)
#    1.000    0.333    0.000    6.500    0.000    0.000 
#    0.000    8.333    0.000    0.000    0.000    0.000 
#    0.000    0.000    0.000    0.000    0.000    0.000 
#
# Total GULP energy -67207.685826 kJ/mol
# GULP energy per Si atom -5600.640486 kJ/mol
# Density = 2.620191 g / cm^3
# Si number density = 26.261684 Si / 1000 Ang^3
#
#
#
# Elastic Constant Matrix: (Units=GPa)
#
#
# Indices 1 2 3 4 5 6 
#
# 1 141.8410 12.9152 72.9820 -21.0811 -9.9344 -16.3502
# 2 12.9152 88.3635 28.6321 1.8712 6.6872 -16.7943
# 3 72.9820 28.6321 211.2425 -15.4159 -10.1948 -12.4111
# 4 -21.0811 1.8712 -15.4159 20.3246 -3.4306 7.3044
# 5 -9.9344 6.6872 -10.1948 -3.4306 43.1923 11.6016
# 6 -16.3502 -16.7943 -12.4111 7.3044 11.6016 32.7957
#
#
#
# Elastic Compliance Matrix: (Units=1/GPa)
#
#
# Indices 1 2 3 4 5 6 
#
# 1 0.009965 -0.000814 -0.002548 0.008540 0.002257 0.000886
# 2 -0.000814 0.014796 -0.002047 -0.008678 -0.006506 0.010630
# 3 -0.002548 -0.002047 0.006116 0.002939 0.001751 -0.001278
# 4 0.008540 -0.008678 0.002939 0.070884 0.015054 -0.020187
# 5 0.002257 -0.006506 0.001751 0.015054 0.030501 -0.015686
# 6 0.000886 0.010630 -0.001278 -0.020187 -0.015686 0.045939
#
#
# Mechanical properties :
#
#
# Convention : Reuss Voigt Hill
#
# Bulk Modulus (GPa) = 49.85541 74.50061 62.17801
# Shear Modulus (GPa) = 25.54884 41.05702 33.30293
#
# Velocity S-wave (km/s) = 3.12245 3.95825 3.56493
# Velocity P-wave (km/s) = 5.65905 7.02285 6.37751
#
# Compressibility (1/GPa) = 0.02005800
#
# Stress axis : x y z
#
# Youngs Moduli (GPa) = 100.35168 67.58779 163.51647
#
# Poissons Ratio (x) = 0.05502 0.41667
# Poissons Ratio (y) = 0.08169 0.33469
# Poissons Ratio (z) = 0.25572 0.13834
#
# Static dielectric constant tensor:
#      x y z
#    x 2.101310 0.067380 -0.004240 
#    y 0.067380 2.079100 -0.021030 
#    z -0.004240 -0.021030 2.060260 
# 
# From -- ./inp_files/606320.got.cif
#   From: 2010.05.17/outbox.cif.g08.bks.cpg/sg2_304_cif.got.tgz:606320.got - 2010.06.03 11:33:40.
