data_PCOD9027771
_publ_section_title
;
Structure prediction by ZEFSAII (Michael W. Deem and Ramdas Pophale) SiO2 
 PCOD9027771
Probable space group: P -1
;
_chemical_formula_sum "Si O2"
_cell_formula_units_Z 10
_cell_length_a 5.173531
_cell_length_b 9.209734
_cell_length_c 16.672706
_cell_angle_alpha 153.108413
_cell_angle_beta 88.285221
_cell_angle_gamma 92.083474
_cell_volume 359.067907
_symmetry_space_group_name_H-M "P -1"
_symmetry_group_IT_number 2
_symmetry_cell_setting 'triclinic'
loop_
_space_group_symop_operation_xyz
x,y,z
-x,-y,-z
loop_
_atom_site_type_symbol
_atom_site_label
_atom_site_fract_x
_atom_site_fract_y
_atom_site_fract_z
Si Si1 0.863330 0.151438 0.826478
Si Si2 0.746924 0.993515 0.051761
Si Si3 0.621548 0.288614 0.747027
Si Si4 0.428677 0.378464 0.350333
Si Si5 0.876337 0.052572 0.430269
O O1 0.611766 0.193667 0.793548
O O2 0.759724 0.937781 0.794834
O O3 0.044488 0.950590 0.667091
O O4 0.000000 0.500000 0.000000
O O5 0.727553 0.646689 0.921381
O O6 0.500000 0.000000 0.000000
O O7 0.694362 0.271654 0.253384
O O8 0.000000 0.000000 0.000000
O O9 0.336134 0.228034 0.688465
O O10 0.845226 0.065958 0.596761
O O11 0.500000 0.500000 0.500000
O O12 0.288850 0.623083 0.410493
#
# Coordination Sequence:
#
# PCOD9027771 Si02
#       5
#     2   2   2   2   2
#     4  10  23  38  75 111 151 185 251 305 377 434
#     4  12  30  51  73 106 154 206 249 301 378 464
#     4  10  23  45  71 102 151 197 245 296 378 448
#     4  12  25  47  81 116 151 189 258 318 374 430
#     4  10  22  41  69 114 142 185 240 318 365 428
#
# _framework density 27.849888
#
# number of rings (size 3 to 8) (size 9 to 14) (size 15 to 20)
#    1.200    0.000    2.000    3.000    5.600    4.800 
#    0.000    6.000    0.000    0.000    0.000    0.000 
#    0.000    0.000    0.000    0.000    0.000    0.000 
#
# Total GULP energy -55937.811767 kJ/mol
# GULP energy per Si atom -5593.781177 kJ/mol
# Density = 2.778650 g / cm^3
# Si number density = 27.849888 Si / 1000 Ang^3
#
#
#
# Elastic Constant Matrix: (Units=GPa)
#
#
# Indices 1 2 3 4 5 6 
#
# 1 166.5067 22.2120 26.6336 -10.7040 -13.8587 15.6319
# 2 22.2120 -17.1469 29.9854 1.8966 -20.5836 29.3063
# 3 26.6336 29.9854 122.5339 0.3334 -22.1965 10.1566
# 4 -10.7040 1.8966 0.3334 70.3964 6.9926 -3.0914
# 5 -13.8587 -20.5836 -22.1965 6.9926 43.7640 -6.0980
# 6 15.6319 29.3063 10.1566 -3.0914 -6.0980 60.7439
#
#
#
# Elastic Compliance Matrix: (Units=1/GPa)
#
#
# Indices 1 2 3 4 5 6 
#
# 1 0.006395 0.001184 -0.001244 0.000709 0.001585 -0.001814
# 2 0.001184 -0.023947 0.003292 0.002058 -0.008156 0.009984
# 3 -0.001244 0.003292 0.008803 -0.000960 0.005461 -0.002241
# 4 0.000709 0.002058 -0.000960 0.014407 -0.001659 -0.000448
# 5 0.001585 -0.008156 0.005461 -0.001659 0.023228 0.004861
# 6 -0.001814 0.009984 -0.002241 -0.000448 0.004861 0.012952
#
#
# Mechanical properties :
#
#
# Convention : Reuss Voigt Hill
#
# Bulk Modulus (GPa) = -437.67957 47.72840 -194.97558
# Shear Modulus (GPa) = 144.45381 47.85170 96.15276
#
# Velocity S-wave (km/s) = 7.20981 4.14962 5.88220
# Velocity P-wave (km/s) = 9.39092 6.33514 4.90181
#
# Compressibility (1/GPa) = -0.00228478
#
# Stress axis : x y z
#
# Youngs Moduli (GPa) = 156.38224 -41.75960 113.59343
#
# Poissons Ratio (x) = 0.04945 0.14133
# Poissons Ratio (y) = -0.18517 -0.37396
# Poissons Ratio (z) = 0.19457 0.13748
#
# Static dielectric constant tensor:
#      x y z
#    x 2.208230 -0.167360 0.040960 
#    y -0.167360 2.342350 -0.100950 
#    z 0.040960 -0.100950 2.301590 
# 
# From -- ./inp_files/69426.got.cif
#   From: 2010.05.17/outbox.cif.g08.bks.cpg/sg2_35_cif.got.tgz:69426.got - 2010.06.03 11:33:40.
