data_PCOD9027769
_publ_section_title
;
Structure prediction by ZEFSAII (Michael W. Deem and Ramdas Pophale) SiO2 
 PCOD9027769
Probable space group: P -1
;
_chemical_formula_sum "Si O2"
_cell_formula_units_Z 14
_cell_length_a 7.412321
_cell_length_b 9.938654
_cell_length_c 21.954507
_cell_angle_alpha 145.818306
_cell_angle_beta 137.157819
_cell_angle_gamma 64.100754
_cell_volume 553.500665
_symmetry_space_group_name_H-M "P -1"
_symmetry_group_IT_number 2
_symmetry_cell_setting 'triclinic'
loop_
_space_group_symop_operation_xyz
x,y,z
-x,-y,-z
loop_
_atom_site_type_symbol
_atom_site_label
_atom_site_fract_x
_atom_site_fract_y
_atom_site_fract_z
Si Si1 0.661003 0.428058 0.875199
Si Si2 0.928732 0.497800 0.552500
Si Si3 0.826804 0.373000 0.676151
Si Si4 0.622174 0.980445 0.782647
Si Si5 0.325858 0.230053 0.592909
Si Si6 0.854023 0.125356 0.148048
Si Si7 0.409038 0.670588 0.995555
O O1 0.525195 0.152735 0.777333
O O2 0.539282 0.367328 0.754278
O O3 0.000000 0.500000 0.000000
O O4 0.033747 0.957862 0.110783
O O5 0.000000 0.500000 0.500000
O O6 0.086921 0.340173 0.566611
O O7 0.054021 0.776726 0.723187
O O8 0.576026 0.322353 0.400064
O O9 0.510886 0.302882 0.602310
O O10 0.967866 0.601146 0.745532
O O11 0.812832 0.087646 0.549285
O O12 0.061486 0.501877 0.836417
O O13 0.547684 0.056571 0.859524
O O14 0.568257 0.642124 0.963235
O O15 0.500000 0.000000 0.000000
O O16 0.500000 0.500000 0.000000
#
# Coordination Sequence:
#
# PCOD9027769 Si02
#       7
#     2   2   2   2   2   2   2
#     4  11  24  42  75 114 155 197 259 316 394 463
#     4  12  28  49  76 112 156 204 260 318 396 467
#     4  11  25  45  74 110 152 198 267 314 390 463
#     4  11  26  47  74 107 157 205 259 318 387 464
#     4  11  24  47  78 114 149 206 255 334 386 463
#     4  12  30  50  77 111 156 215 262 320 393 469
#     4  10  22  41  69 107 151 196 247 319 383 461
#
# _framework density 25.293555000000001
#
# number of rings (size 3 to 8) (size 9 to 14) (size 15 to 20)
#    0.000    0.857    0.000    6.429    8.000    5.714 
#    0.000    0.000    0.000    0.000    0.000    0.000 
#    0.000    0.000    0.000    0.000    0.000    0.000 
#
# Total GULP energy -78319.824930 kJ/mol
# GULP energy per Si atom -5594.273209 kJ/mol
# Density = 2.523599 g / cm^3
# Si number density = 25.293555 Si / 1000 Ang^3
#
#
#
# Elastic Constant Matrix: (Units=GPa)
#
#
# Indices 1 2 3 4 5 6 
#
# 1 140.4470 44.3944 46.3202 3.6704 -11.1631 -6.8128
# 2 44.3944 111.3162 34.5039 -11.6732 -4.3161 -5.1248
# 3 46.3202 34.5039 154.4007 -7.4157 -16.2966 -2.9945
# 4 3.6704 -11.6732 -7.4157 36.3999 -1.3655 -1.1328
# 5 -11.1631 -4.3161 -16.2966 -1.3655 51.0688 -6.1120
# 6 -6.8128 -5.1248 -2.9945 -1.1328 -6.1120 46.7985
#
#
#
# Elastic Compliance Matrix: (Units=1/GPa)
#
#
# Indices 1 2 3 4 5 6 
#
# 1 0.008940 -0.003105 -0.001959 -0.002226 0.001118 0.000928
# 2 -0.003105 0.011054 -0.001349 0.003607 0.000012 0.000761
# 3 -0.001959 -0.001349 0.007649 0.001408 0.001978 0.000349
# 4 -0.002226 0.003607 0.001408 0.029216 0.001171 0.001021
# 5 0.001118 0.000012 0.001978 0.001171 0.020854 0.003043
# 6 0.000928 0.000761 0.000349 0.001021 0.003043 0.022031
#
#
# Mechanical properties :
#
#
# Convention : Reuss Voigt Hill
#
# Bulk Modulus (GPa) = 67.49617 72.95567 70.22592
# Shear Modulus (GPa) = 42.54969 45.58313 44.06641
#
# Velocity S-wave (km/s) = 4.10595 4.24980 4.17849
# Velocity P-wave (km/s) = 7.01581 7.27923 7.14873
#
# Compressibility (1/GPa) = 0.01481566
#
# Stress axis : x y z
#
# Youngs Moduli (GPa) = 111.85883 90.46554 130.73579
#
# Poissons Ratio (x) = 0.28094 0.25609
# Poissons Ratio (y) = 0.34737 0.17640
# Poissons Ratio (z) = 0.21911 0.12206
#
# Static dielectric constant tensor:
#      x y z
#    x 1.920950 0.142660 0.150700 
#    y 0.142660 1.966720 0.054700 
#    z 0.150700 0.054700 1.950010 
# 
# From -- ./inp_files/606280.got.cif
#   From: 2010.05.17/outbox.cif.g08.bks.cpg/sg2_304_cif.got.tgz:606280.got - 2010.06.03 11:33:40.
