data_PCOD9027389
_publ_section_title
;
Structure prediction by ZEFSAII (Michael W. Deem and Ramdas Pophale) SiO2 
 PCOD9027389
Probable space group: P -1
;
_chemical_formula_sum "Si O2"
_cell_formula_units_Z 14
_cell_length_a 12.859917
_cell_length_b 9.236039
_cell_length_c 13.412984
_cell_angle_alpha 32.506864
_cell_angle_beta 61.198827
_cell_angle_gamma 48.951748
_cell_volume 635.386829
_symmetry_space_group_name_H-M "P -1"
_symmetry_group_IT_number 2
_symmetry_cell_setting 'triclinic'
loop_
_space_group_symop_operation_xyz
x,y,z
-x,-y,-z
loop_
_atom_site_type_symbol
_atom_site_label
_atom_site_fract_x
_atom_site_fract_y
_atom_site_fract_z
Si Si1 0.639710 0.261669 0.348672
Si Si2 0.786773 0.278495 0.574069
Si Si3 0.625839 0.794395 0.181963
Si Si4 0.945885 0.750821 0.469853
Si Si5 0.131213 0.644766 0.142268
Si Si6 0.328604 0.107894 0.246514
Si Si7 0.347416 0.619342 0.215078
O O1 0.621593 0.582283 0.217669
O O2 0.511334 0.357225 0.279099
O O3 0.789991 0.046858 0.353589
O O4 0.635246 0.069008 0.559320
O O5 0.733933 0.544728 0.358272
O O6 0.690999 0.424515 0.630703
O O7 0.943175 0.154878 0.608615
O O8 0.758691 0.014892 0.699348
O O9 0.472849 0.986966 0.192712
O O10 0.668824 0.039415 0.986425
O O11 0.931177 0.570093 0.675722
O O12 0.000000 0.500000 0.500000
O O13 0.227549 0.483537 0.094590
O O14 0.241200 0.604770 0.198552
O O15 0.000000 0.000000 0.000000
#
# Coordination Sequence:
#
# PCOD9027389 Si02
#       7
#     2   2   2   2   2   2   2
#     4  10  22  41  67  98 129 171 224 268 319 398
#     4  11  22  44  70  96 130 177 218 267 332 385
#     4  11  22  41  69 101 132 167 221 280 316 384
#     4  11  24  42  65  94 134 172 215 271 328 380
#     4  11  26  44  62  99 136 171 220 273 323 399
#     4  10  22  42  69  94 136 171 218 275 325 381
#     4  12  23  41  73  96 130 176 223 260 334 390
#
# _framework density 22.033822000000001
#
# number of rings (size 3 to 8) (size 9 to 14) (size 15 to 20)
#    0.000    1.143    4.286    2.143    0.000   11.429 
#    0.000    1.429    0.000    0.000    0.000    0.000 
#    0.000    0.000    0.000    0.000    0.000    0.000 
#
# Total GULP energy -78315.101858 kJ/mol
# GULP energy per Si atom -5593.935847 kJ/mol
# Density = 2.198367 g / cm^3
# Si number density = 22.033822 Si / 1000 Ang^3
#
#
#
# Elastic Constant Matrix: (Units=GPa)
#
#
# Indices 1 2 3 4 5 6 
#
# 1 139.4097 37.2866 7.3282 -11.7853 14.0287 -13.3875
# 2 37.2866 105.9480 -4.8595 -31.4105 15.4558 -18.4513
# 3 7.3282 -4.8595 30.6338 0.7186 -2.0180 -5.1528
# 4 -11.7853 -31.4105 0.7186 33.9715 -6.1716 3.0936
# 5 14.0287 15.4558 -2.0180 -6.1716 27.3021 -2.7602
# 6 -13.3875 -18.4513 -5.1528 3.0936 -2.7602 30.7675
#
#
#
# Elastic Compliance Matrix: (Units=1/GPa)
#
#
# Indices 1 2 3 4 5 6 
#
# 1 0.008374 -0.002297 -0.002298 0.000143 -0.002978 0.001600
# 2 -0.002297 0.016060 0.003825 0.012545 -0.004020 0.007651
# 3 -0.002298 0.003825 0.035158 0.001838 0.002762 0.007245
# 4 0.000143 0.012545 0.001838 0.041168 0.002670 0.003993
# 5 -0.002978 -0.004020 0.002762 0.002670 0.041260 0.000189
# 6 0.001600 0.007651 0.007245 0.003993 0.000189 0.038615
#
#
# Mechanical properties :
#
#
# Convention : Reuss Voigt Hill
#
# Bulk Modulus (GPa) = 17.22599 39.50023 28.36311
# Shear Modulus (GPa) = 24.81088 34.15731 29.48409
#
# Velocity S-wave (km/s) = 3.35929 3.94156 3.66201
# Velocity P-wave (km/s) = 4.78345 6.21937 5.54806
#
# Compressibility (1/GPa) = 0.05805182
#
# Stress axis : x y z
#
# Youngs Moduli (GPa) = 119.42261 62.26510 28.44336
#
# Poissons Ratio (x) = 0.14301 0.06536
# Poissons Ratio (y) = 0.27430 -0.10879
# Poissons Ratio (z) = 0.27443 -0.23816
#
# Static dielectric constant tensor:
#      x y z
#    x 1.782390 -0.004520 0.023740 
#    y -0.004520 1.849380 -0.010360 
#    z 0.023740 -0.010360 1.845510 
# 
# From -- ./inp_files/157657.got.cif
#   From: 2010.05.17/outbox.cif.g08.bks.cpg/sg2_79_cif.got.tgz:157657.got - 2010.06.03 11:33:40.
