data_PCOD9027666
_publ_section_title
;
Structure prediction by ZEFSAII (Michael W. Deem and Ramdas Pophale) SiO2 
 PCOD9027666
Probable space group: P -1
;
_chemical_formula_sum "Si O2"
_cell_formula_units_Z 16
_cell_length_a 16.393077
_cell_length_b 12.276661
_cell_length_c 8.289507
_cell_angle_alpha 134.044413
_cell_angle_beta 44.074751
_cell_angle_gamma 143.450774
_cell_volume 662.399394
_symmetry_space_group_name_H-M "P -1"
_symmetry_group_IT_number 2
_symmetry_cell_setting 'triclinic'
loop_
_space_group_symop_operation_xyz
x,y,z
-x,-y,-z
loop_
_atom_site_type_symbol
_atom_site_label
_atom_site_fract_x
_atom_site_fract_y
_atom_site_fract_z
Si Si1 0.599649 0.435635 0.949537
Si Si2 0.897841 0.189357 0.365461
Si Si3 0.836722 0.432554 0.512307
Si Si4 0.640942 0.000414 0.784209
Si Si5 0.307841 0.335736 0.280514
Si Si6 0.965096 0.058659 0.837256
Si Si7 0.690960 0.699689 0.403296
Si Si8 0.129518 0.712947 0.978594
O O1 0.423849 0.286790 0.046145
O O2 0.643546 0.582335 0.183989
O O3 0.703160 0.372962 0.757074
O O4 0.647313 0.527613 0.796028
O O5 0.910622 0.339756 0.379943
O O6 0.040106 0.337280 0.428304
O O7 0.740771 0.077638 0.559684
O O8 0.913503 0.057986 0.091992
O O9 0.782287 0.327949 0.311421
O O10 0.609182 0.796285 0.640069
O O11 0.500000 0.000000 0.000000
O O12 0.759175 0.145630 0.898418
O O13 0.327785 0.405592 0.508734
O O14 0.143661 0.148295 0.298181
O O15 0.133010 0.136449 0.687000
O O16 0.942280 0.193615 0.903581
O O17 0.000000 0.500000 0.000000
#
# Coordination Sequence:
#
# PCOD9027666 Si02
#       8
#     2   2   2   2   2   2   2   2
#     4  11  26  46  71 105 143 196 233 289 362 425
#     4  10  22  42  67 100 137 178 234 290 349 422
#     4  10  22  41  68  99 134 185 231 288 346 415
#     4  12  28  45  69 106 142 187 237 290 365 423
#     4  11  26  44  68 107 147 180 241 291 358 426
#     4  11  24  45  73 105 139 184 238 297 358 418
#     4  12  26  47  74 105 146 189 237 302 354 422
#     4  11  24  43  70 103 141 182 232 292 351 423
#
# _framework density 24.154610999999999
#
# number of rings (size 3 to 8) (size 9 to 14) (size 15 to 20)
#    0.000    1.000    3.750    1.500    5.250    4.000 
#    0.000    2.500    0.000    0.000    0.000    0.000 
#    0.000    0.000    0.000    0.000    0.000    0.000 
#
# Total GULP energy -89382.098803 kJ/mol
# GULP energy per Si atom -5586.381175 kJ/mol
# Density = 2.409963 g / cm^3
# Si number density = 24.154611 Si / 1000 Ang^3
#
#
#
# Elastic Constant Matrix: (Units=GPa)
#
#
# Indices 1 2 3 4 5 6 
#
# 1 94.6659 27.8034 46.4317 2.2762 -5.2482 -2.6457
# 2 27.8034 59.6184 9.7576 -14.3331 1.6979 12.6364
# 3 46.4317 9.7576 143.5187 -2.3121 9.2021 14.3695
# 4 2.2762 -14.3331 -2.3121 41.1658 9.9220 -4.8171
# 5 -5.2482 1.6979 9.2021 9.9220 50.0014 -17.8729
# 6 -2.6457 12.6364 14.3695 -4.8171 -17.8729 37.6143
#
#
#
# Elastic Compliance Matrix: (Units=1/GPa)
#
#
# Indices 1 2 3 4 5 6 
#
# 1 0.018294 -0.011520 -0.006922 -0.006228 0.008823 0.011196
# 2 -0.011520 0.027730 0.004247 0.011304 -0.010670 -0.015371
# 3 -0.006922 0.004247 0.010222 0.002980 -0.006369 -0.008463
# 4 -0.006228 0.011304 0.002980 0.030385 -0.009812 -0.006145
# 5 0.008823 -0.010670 -0.006369 -0.009812 0.031718 0.020453
# 6 0.011196 -0.015371 -0.008463 -0.006145 0.020453 0.044702
#
#
# Mechanical properties :
#
#
# Convention : Reuss Voigt Hill
#
# Bulk Modulus (GPa) = 35.90013 51.75425 43.82719
# Shear Modulus (GPa) = 24.90933 40.01030 32.45982
#
# Velocity S-wave (km/s) = 3.21478 4.07434 3.66981
# Velocity P-wave (km/s) = 5.35488 6.60351 6.01170
#
# Compressibility (1/GPa) = 0.02785506
#
# Stress axis : x y z
#
# Youngs Moduli (GPa) = 54.66233 36.06174 97.82555
#
# Poissons Ratio (x) = 0.41544 0.67719
# Poissons Ratio (y) = 0.62973 -0.41546
# Poissons Ratio (z) = 0.37840 -0.15315
#
# Static dielectric constant tensor:
#      x y z
#    x 2.035370 -0.040610 0.029270 
#    y -0.040610 1.916200 0.000650 
#    z 0.029270 0.000650 1.971760 
# 
# From -- ./inp_files/335793.got.cif
#   From: 2010.05.17/outbox.cif.g08.bks.cpg/sg2_168_cif.got.tgz:335793.got - 2010.06.03 11:33:40.
