data_PCOD9027831
_publ_section_title
;
Structure prediction by ZEFSAII (Michael W. Deem and Ramdas Pophale) SiO2 
 PCOD9027831
Probable space group: P -1
;
_chemical_formula_sum "Si O2"
_cell_formula_units_Z 14
_cell_length_a 11.331240
_cell_length_b 11.922419
_cell_length_c 17.973189
_cell_angle_alpha 38.282641
_cell_angle_beta 151.900079
_cell_angle_gamma 152.505286
_cell_volume 527.956702
_symmetry_space_group_name_H-M "P -1"
_symmetry_group_IT_number 2
_symmetry_cell_setting 'triclinic'
loop_
_space_group_symop_operation_xyz
x,y,z
-x,-y,-z
loop_
_atom_site_type_symbol
_atom_site_label
_atom_site_fract_x
_atom_site_fract_y
_atom_site_fract_z
Si Si1 0.192369 0.819406 0.707739
Si Si2 0.196783 0.164896 0.641025
Si Si3 0.949917 0.479723 0.874622
Si Si4 0.441252 0.384911 0.803347
Si Si5 0.041606 0.247718 0.803647
Si Si6 0.028880 0.848719 0.024334
Si Si7 0.655474 0.270967 0.470405
O O1 0.019003 0.803562 0.544927
O O2 0.998265 0.567294 0.771664
O O3 0.167286 0.963681 0.683307
O O4 0.574820 0.948040 0.840658
O O5 0.598594 0.393773 0.745669
O O6 0.140102 0.163266 0.698066
O O7 0.946780 0.262856 0.976288
O O8 0.288262 0.651642 0.021124
O O9 0.316996 0.362003 0.831337
O O10 0.535883 0.630245 0.695824
O O11 0.142279 0.306908 0.914883
O O12 0.788370 0.283992 0.620151
O O13 0.877358 0.968286 0.856878
O O14 0.000000 0.500000 0.500000
O O15 0.500000 0.000000 0.500000
#
# Coordination Sequence:
#
# PCOD9027831 Si02
#       7
#     2   2   2   2   2   2   2
#     4  10  22  45  67  96 134 177 232 285 349 419
#     4  10  24  43  67  99 131 177 231 287 354 415
#     4  11  22  42  67  96 132 177 229 286 345 422
#     4  11  23  43  70 104 137 180 229 291 353 420
#     4  10  22  43  64 101 135 182 229 287 346 427
#     4  10  22  41  69  96 135 180 233 277 352 420
#     4  10  23  43  65  98 146 186 233 289 357 426
#
# _framework density 26.517327000000002
#
# number of rings (size 3 to 8) (size 9 to 14) (size 15 to 20)
#    0.000    1.714    1.429    1.714    2.000    3.429 
#   10.286    0.000    0.000    0.000    0.000    0.000 
#    0.000    0.000    0.000    0.000    0.000    0.000 
#
# Total GULP energy -78075.834111 kJ/mol
# GULP energy per Si atom -5576.845294 kJ/mol
# Density = 2.645697 g / cm^3
# Si number density = 26.517327 Si / 1000 Ang^3
#
#
#
# Elastic Constant Matrix: (Units=GPa)
#
#
# Indices 1 2 3 4 5 6 
#
# 1 92.0027 37.8078 17.5129 -3.6221 -0.9013 -8.0016
# 2 37.8078 67.1215 8.7578 -17.5946 -1.2275 -12.4901
# 3 17.5129 8.7578 132.9727 -19.4778 -15.9549 4.3048
# 4 -3.6221 -17.5946 -19.4778 29.7571 0.3858 -0.8312
# 5 -0.9013 -1.2275 -15.9549 0.3858 40.2202 1.6183
# 6 -8.0016 -12.4901 4.3048 -0.8312 1.6183 41.9138
#
#
#
# Elastic Compliance Matrix: (Units=1/GPa)
#
#
# Indices 1 2 3 4 5 6 
#
# 1 0.015003 -0.009514 -0.002217 -0.005235 -0.000791 0.000183
# 2 -0.009514 0.025023 0.001705 0.014902 0.000853 0.005728
# 3 -0.002217 0.001705 0.009133 0.006645 0.003596 -0.000860
# 4 -0.005235 0.014902 0.006645 0.046198 0.002386 0.003583
# 5 -0.000791 0.000853 0.003596 0.002386 0.026325 -0.001235
# 6 0.000183 0.005728 -0.000860 0.003583 -0.001235 0.025807
#
#
# Mechanical properties :
#
#
# Convention : Reuss Voigt Hill
#
# Bulk Modulus (GPa) = 34.35722 46.69487 40.52605
# Shear Modulus (GPa) = 28.20966 37.57944 32.89455
#
# Velocity S-wave (km/s) = 3.26516 3.76861 3.52588
# Velocity P-wave (km/s) = 5.21533 6.04847 5.64729
#
# Compressibility (1/GPa) = 0.02910596
#
# Stress axis : x y z
#
# Youngs Moduli (GPa) = 66.65264 39.96356 109.49539
#
# Poissons Ratio (x) = 0.38022 0.24275
# Poissons Ratio (y) = 0.63415 -0.18667
# Poissons Ratio (z) = 0.14777 -0.06813
#
# Static dielectric constant tensor:
#      x y z
#    x 2.264720 -0.047020 0.034100 
#    y -0.047020 2.236170 0.074150 
#    z 0.034100 0.074150 2.115690 
# 
# From -- ./inp_files/569143.got.cif
#   From: 2010.05.17/outbox.cif.g08.bks.cpg/sg2_285_cif.got.tgz:569143.got - 2010.06.03 11:33:40.
