data_PCOD9027473
_publ_section_title
;
Structure prediction by ZEFSAII (Michael W. Deem and Ramdas Pophale) SiO2 
 PCOD9027473
Probable space group: P -1
;
_chemical_formula_sum "Si O2"
_cell_formula_units_Z 16
_cell_length_a 7.114459
_cell_length_b 10.512170
_cell_length_c 11.108610
_cell_angle_alpha 78.949364
_cell_angle_beta 116.588819
_cell_angle_gamma 81.436398
_cell_volume 702.601735
_symmetry_space_group_name_H-M "P -1"
_symmetry_group_IT_number 2
_symmetry_cell_setting 'triclinic'
loop_
_space_group_symop_operation_xyz
x,y,z
-x,-y,-z
loop_
_atom_site_type_symbol
_atom_site_label
_atom_site_fract_x
_atom_site_fract_y
_atom_site_fract_z
Si Si1 0.499115 0.623087 0.387900
Si Si2 0.000566 0.701309 0.212050
Si Si3 0.358203 0.089475 0.089588
Si Si4 0.193122 0.090683 0.710977
Si Si5 0.718302 0.524123 0.218210
Si Si6 0.346115 0.134453 0.492005
Si Si7 0.627645 0.293859 0.095325
Si Si8 0.055894 0.109308 0.215036
O O1 0.500000 0.500000 0.500000
O O2 0.656833 0.566845 0.330086
O O3 0.556783 0.747037 0.451817
O O4 0.251294 0.678156 0.259236
O O5 0.937243 0.760310 0.316424
O O6 0.931202 0.562748 0.221497
O O7 0.837150 0.821047 0.066229
O O8 0.499692 0.195335 0.136515
O O9 0.225405 0.052060 0.169288
O O10 0.563359 0.958338 0.147644
O O11 0.238607 0.083388 0.585183
O O12 0.035350 0.002085 0.724483
O O13 0.708462 0.375517 0.208382
O O14 0.532082 0.614708 0.062017
O O15 0.171278 0.185388 0.328186
O O16 0.500000 0.000000 0.500000
O O17 0.833065 0.212082 0.091373
#
# Coordination Sequence:
#
# PCOD9027473 Si02
#       8
#     2   2   2   2   2   2   2   2
#     4  12  29  44  67 100 136 182 228 278 329 401
#     4  11  24  43  68  95 135 176 217 277 343 393
#     4  10  22  41  68 103 132 166 221 281 336 400
#     4  11  23  43  66 101 129 175 222 275 341 403
#     4  10  22  45  65  94 135 168 225 274 332 394
#     4  12  25  46  67  94 140 179 223 277 328 402
#     4   9  22  40  69  97 127 175 218 276 330 402
#     4  11  23  39  68  96 130 173 223 270 336 392
#
# _framework density 22.772500000000001
#
# number of rings (size 3 to 8) (size 9 to 14) (size 15 to 20)
#    0.000    1.250    2.500    2.250    3.500    2.000 
#    0.000    3.750    0.000    0.000    0.000    0.000 
#    0.000    0.000    0.000    0.000    0.000    0.000 
#
# Total GULP energy -89305.869337 kJ/mol
# GULP energy per Si atom -5581.616834 kJ/mol
# Density = 2.272067 g / cm^3
# Si number density = 22.772500 Si / 1000 Ang^3
#
#
#
# Elastic Constant Matrix: (Units=GPa)
#
#
# Indices 1 2 3 4 5 6 
#
# 1 113.3706 24.8891 17.8949 -2.0673 -0.2106 14.9094
# 2 24.8891 86.3813 4.9560 7.8226 2.1102 12.4519
# 3 17.8949 4.9560 34.0612 8.8119 0.3965 15.3945
# 4 -2.0673 7.8226 8.8119 23.3516 1.4615 4.4405
# 5 -0.2106 2.1102 0.3965 1.4615 41.6391 1.9373
# 6 14.9094 12.4519 15.3945 4.4405 1.9373 24.7925
#
#
#
# Elastic Compliance Matrix: (Units=1/GPa)
#
#
# Indices 1 2 3 4 5 6 
#
# 1 0.010667 -0.002798 -0.005133 0.004301 0.000215 -0.002610
# 2 -0.002798 0.013566 0.003735 -0.004941 -0.000259 -0.006545
# 3 -0.005133 0.003735 0.046683 -0.014586 0.001027 -0.025244
# 4 0.004301 -0.004941 -0.014586 0.050444 -0.001361 0.000023
# 5 0.000215 -0.000259 0.001027 -0.001361 0.024174 -0.002282
# 6 -0.002610 -0.006545 -0.025244 0.000023 -0.002282 0.061041
#
#
# Mechanical properties :
#
#
# Convention : Reuss Voigt Hill
#
# Bulk Modulus (GPa) = 15.99350 36.58813 26.29081
# Shear Modulus (GPa) = 21.20376 30.36150 25.78263
#
# Velocity S-wave (km/s) = 3.05472 3.65533 3.36844
# Velocity P-wave (km/s) = 4.41364 5.82383 5.16707
#
# Compressibility (1/GPa) = 0.06252539
#
# Stress axis : x y z
#
# Youngs Moduli (GPa) = 93.74675 73.71607 21.42100
#
# Poissons Ratio (x) = 0.20623 0.10995
# Poissons Ratio (y) = 0.26226 -0.08001
# Poissons Ratio (z) = 0.48119 -0.27535
#
# Static dielectric constant tensor:
#      x y z
#    x 1.821940 0.008650 0.023090 
#    y 0.008650 1.891830 0.003640 
#    z 0.023090 0.003640 1.937970 
# 
# From -- ./inp_files/364383.got.cif
#   From: 2010.05.17/outbox.cif.g08.bks.cpg/sg2_183_cif.got.tgz:364383.got - 2010.06.03 11:33:40.
