data_PCOD9027239
_publ_section_title
;
Structure prediction by ZEFSAII (Michael W. Deem and Ramdas Pophale) SiO2 
 PCOD9027239
Probable space group: P -1
;
_chemical_formula_sum "Si O2"
_cell_formula_units_Z 14
_cell_length_a 14.362454
_cell_length_b 14.345776
_cell_length_c 7.117887
_cell_angle_alpha 80.913812
_cell_angle_beta 46.368944
_cell_angle_gamma 47.539538
_cell_volume 639.824108
_symmetry_space_group_name_H-M "P -1"
_symmetry_group_IT_number 2
_symmetry_cell_setting 'triclinic'
loop_
_space_group_symop_operation_xyz
x,y,z
-x,-y,-z
loop_
_atom_site_type_symbol
_atom_site_label
_atom_site_fract_x
_atom_site_fract_y
_atom_site_fract_z
Si Si1 0.853192 0.011875 0.312512
Si Si2 0.371721 0.184473 0.309007
Si Si3 0.580309 0.580939 0.192885
Si Si4 0.913817 0.532420 0.903030
Si Si5 0.372544 0.791647 0.068310
Si Si6 0.527701 0.890028 0.242941
Si Si7 0.735891 0.284075 0.090410
O O1 0.797043 0.080991 0.577608
O O2 0.649880 0.085501 0.474018
O O3 0.022931 0.830573 0.166261
O O4 0.000000 0.000000 0.000000
O O5 0.135197 0.365152 0.556629
O O6 0.430060 0.051032 0.371737
O O7 0.516530 0.183539 0.190843
O O8 0.458428 0.121742 0.998385
O O9 0.543700 0.645818 0.017920
O O10 0.628288 0.444258 0.141246
O O11 0.377666 0.694697 0.575654
O O12 0.754828 0.539709 0.072813
O O13 0.761170 0.714434 0.027824
O O14 0.000000 0.500000 0.000000
O O15 0.288803 0.771056 0.033271
#
# Coordination Sequence:
#
# PCOD9027239 Si02
#       7
#     2   2   2   2   2   2   2
#     4  11  20  40  66  93 135 171 213 278 333 386
#     4  10  22  41  67  92 132 173 217 274 330 393
#     4  11  23  42  63  96 136 167 223 278 327 402
#     4  12  23  41  67  95 133 175 218 275 338 393
#     4  11  22  42  66  98 128 174 223 269 333 402
#     4  10  22  41  67  97 128 175 221 270 335 399
#     4  11  23  40  67  94 130 176 217 270 340 395
#
# _framework density 21.881015000000001
#
# number of rings (size 3 to 8) (size 9 to 14) (size 15 to 20)
#    0.000    1.143    4.286    3.000    0.000    0.571 
#    0.000    1.429    0.000    0.000    0.000    0.000 
#    0.000    0.000    0.000    0.000    0.000    0.000 
#
# Total GULP energy -77937.151885 kJ/mol
# GULP energy per Si atom -5566.939420 kJ/mol
# Density = 2.183121 g / cm^3
# Si number density = 21.881015 Si / 1000 Ang^3
#
#
#
# Elastic Constant Matrix: (Units=GPa)
#
#
# Indices 1 2 3 4 5 6 
#
# 1 60.2835 33.9173 18.1069 8.7009 -12.7172 -13.3704
# 2 33.9173 130.3659 47.2562 13.0092 -14.5639 21.4460
# 3 18.1069 47.2562 114.2962 26.0574 -6.1127 13.1246
# 4 8.7009 13.0092 26.0574 24.2004 -0.7481 -0.1479
# 5 -12.7172 -14.5639 -6.1127 -0.7481 20.7697 0.3244
# 6 -13.3704 21.4460 13.1246 -0.1479 0.3244 33.3418
#
#
#
# Elastic Compliance Matrix: (Units=1/GPa)
#
#
# Indices 1 2 3 4 5 6 
#
# 1 0.028089 -0.007905 -0.001742 -0.003538 0.010752 0.016914
# 2 -0.007905 0.012860 -0.002306 -0.001541 0.003608 -0.010576
# 3 -0.001742 -0.002306 0.013418 -0.012582 0.000883 -0.004562
# 4 -0.003538 -0.001541 -0.012582 0.056846 -0.004978 0.004826
# 5 0.010752 0.003608 0.000883 -0.004978 0.057325 0.001063
# 6 0.016914 -0.010576 -0.004562 0.004826 0.001063 0.045384
#
#
# Mechanical properties :
#
#
# Convention : Reuss Voigt Hill
#
# Bulk Modulus (GPa) = 32.82835 55.94518 44.38676
# Shear Modulus (GPa) = 20.16279 29.37342 24.76810
#
# Velocity S-wave (km/s) = 3.03887 3.66787 3.36809
# Velocity P-wave (km/s) = 5.22960 6.60009 5.95440
#
# Compressibility (1/GPa) = 0.03046148
#
# Stress axis : x y z
#
# Youngs Moduli (GPa) = 35.60089 77.76146 74.52531
#
# Poissons Ratio (x) = 0.61468 0.12985
# Poissons Ratio (y) = 0.28141 0.17185
# Poissons Ratio (z) = 0.06203 0.17931
#
# Static dielectric constant tensor:
#      x y z
#    x 1.763850 0.009890 0.014880 
#    y 0.009890 1.932150 0.067270 
#    z 0.014880 0.067270 1.878500 
# 
# From -- ./inp_files/315020.got.cif
#   From: 2010.05.17/outbox.cif.g08.bks.cpg/sg2_158_cif.got.tgz:315020.got - 2010.06.03 11:33:40.
