data_PCOD9027847
_publ_section_title
;
Structure prediction by ZEFSAII (Michael W. Deem and Ramdas Pophale) SiO2 
 PCOD9027847
Probable space group: P -1
;
_chemical_formula_sum "Si O2"
_cell_formula_units_Z 14
_cell_length_a 6.603571
_cell_length_b 7.593035
_cell_length_c 16.781098
_cell_angle_alpha 67.911003
_cell_angle_beta 128.925925
_cell_angle_gamma 93.734842
_cell_volume 589.205389
_symmetry_space_group_name_H-M "P -1"
_symmetry_group_IT_number 2
_symmetry_cell_setting 'triclinic'
loop_
_space_group_symop_operation_xyz
x,y,z
-x,-y,-z
loop_
_atom_site_type_symbol
_atom_site_label
_atom_site_fract_x
_atom_site_fract_y
_atom_site_fract_z
Si Si1 0.572830 0.703090 0.060864
Si Si2 0.014447 0.909327 0.932040
Si Si3 0.289846 0.498939 0.649965
Si Si4 0.089507 0.881227 0.624628
Si Si5 0.403687 0.313819 0.121145
Si Si6 0.886299 0.257621 0.594832
Si Si7 0.180901 0.696513 0.252514
O O1 0.479403 0.521719 0.110219
O O2 0.878090 0.680371 0.165386
O O3 0.323952 0.875126 0.993913
O O4 0.564278 0.714098 0.961264
O O5 0.886407 0.723034 0.924940
O O6 0.836215 0.076495 0.805568
O O7 0.000000 0.000000 0.000000
O O8 0.108986 0.657912 0.638337
O O9 0.235366 0.607507 0.532516
O O10 0.612889 0.433745 0.736718
O O11 0.182190 0.303109 0.663407
O O12 0.381951 0.838116 0.746086
O O13 0.000000 0.000000 0.500000
O O14 0.906556 0.029376 0.617726
O O15 0.750593 0.329424 0.632839
#
# Coordination Sequence:
#
# PCOD9027847 Si02
#       7
#     2   2   2   2   2   2   2
#     4  11  26  43  66  98 135 179 226 284 344 412
#     4  12  26  41  66  96 134 176 227 276 343 411
#     4  10  23  43  68 103 138 183 231 286 345 409
#     4  10  22  41  69  97 132 178 224 276 341 408
#     4  11  24  44  67  95 137 175 229 281 345 407
#     4  10  22  43  69 100 141 182 230 286 345 410
#     4  12  24  40  73 101 138 181 231 286 346 413
#
# _framework density 23.760815999999998
#
# number of rings (size 3 to 8) (size 9 to 14) (size 15 to 20)
#    0.000    1.143    1.429    3.857    6.000    2.286 
#    0.000    5.714    0.000   18.000    0.000    0.000 
#    0.000    0.000    0.000    0.000    0.000    0.000 
#
# Total GULP energy -77985.550105 kJ/mol
# GULP energy per Si atom -5570.396436 kJ/mol
# Density = 2.370674 g / cm^3
# Si number density = 23.760816 Si / 1000 Ang^3
#
#
#
# Elastic Constant Matrix: (Units=GPa)
#
#
# Indices 1 2 3 4 5 6 
#
# 1 72.8445 27.3207 16.9081 -5.7875 8.5334 4.3457
# 2 27.3207 90.6715 10.8952 -11.2787 3.8762 8.3568
# 3 16.9081 10.8952 98.4033 -0.8721 -7.9343 6.1361
# 4 -5.7875 -11.2787 -0.8721 24.8126 -5.9170 -1.8367
# 5 8.5334 3.8762 -7.9343 -5.9170 42.1715 6.7864
# 6 4.3457 8.3568 6.1361 -1.8367 6.7864 43.4285
#
#
#
# Elastic Compliance Matrix: (Units=1/GPa)
#
#
# Indices 1 2 3 4 5 6 
#
# 1 0.016434 -0.004389 -0.002603 0.000970 -0.003295 0.000124
# 2 -0.004389 0.013177 -0.000495 0.004947 0.000585 -0.001909
# 3 -0.002603 -0.000495 0.011004 0.000130 0.002927 -0.001651
# 4 0.000970 0.004947 0.000130 0.044105 0.005574 -0.000073
# 5 -0.003295 0.000585 0.002927 0.005574 0.026314 -0.004073
# 6 0.000124 -0.001909 -0.001651 -0.000073 -0.004073 0.024248
#
#
# Mechanical properties :
#
#
# Convention : Reuss Voigt Hill
#
# Bulk Modulus (GPa) = 38.99786 41.35192 40.17489
# Shear Modulus (GPa) = 31.48577 35.86888 33.67733
#
# Velocity S-wave (km/s) = 3.64416 3.88955 3.76885
# Velocity P-wave (km/s) = 5.84421 6.13291 5.99030
#
# Compressibility (1/GPa) = 0.02564243
#
# Stress axis : x y z
#
# Youngs Moduli (GPa) = 60.85039 75.89011 90.87352
#
# Poissons Ratio (x) = 0.33307 0.23651
# Poissons Ratio (y) = 0.26706 0.04496
# Poissons Ratio (z) = 0.15837 0.03755
#
# Static dielectric constant tensor:
#      x y z
#    x 1.897040 0.014420 -0.028130 
#    y 0.014420 1.966140 0.006750 
#    z -0.028130 0.006750 1.931300 
# 
# From -- ./inp_files/46180.got.cif
#   From: 2010.05.17/outbox.cif.g08.bks.cpg/sg2_24_cif.got.tgz:46180.got - 2010.06.03 11:33:40.
