data_PCOD9027920
_publ_section_title
;
Structure prediction by ZEFSAII (Michael W. Deem and Ramdas Pophale) SiO2 
 PCOD9027920
Probable space group: P -1
;
_chemical_formula_sum "Si O2"
_cell_formula_units_Z 14
_cell_length_a 7.656922
_cell_length_b 9.397494
_cell_length_c 12.065916
_cell_angle_alpha 97.554068
_cell_angle_beta 74.700906
_cell_angle_gamma 49.286381
_cell_volume 577.461955
_symmetry_space_group_name_H-M "P -1"
_symmetry_group_IT_number 2
_symmetry_cell_setting 'triclinic'
loop_
_space_group_symop_operation_xyz
x,y,z
-x,-y,-z
loop_
_atom_site_type_symbol
_atom_site_label
_atom_site_fract_x
_atom_site_fract_y
_atom_site_fract_z
Si Si1 0.608739 0.047026 0.277086
Si Si2 0.167096 0.046449 0.008538
Si Si3 0.801917 0.484823 0.220481
Si Si4 0.528624 0.704422 0.083344
Si Si5 0.409208 0.473542 0.369700
Si Si6 0.035784 0.344173 0.398135
Si Si7 0.174188 0.625473 0.187516
O O1 0.568387 0.236216 0.343248
O O2 0.331205 0.128279 0.346637
O O3 0.665305 0.018614 0.133875
O O4 0.869011 0.833715 0.263860
O O5 0.345897 0.919840 0.072588
O O6 0.968980 0.284778 0.094008
O O7 0.000000 0.000000 0.000000
O O8 0.663701 0.667004 0.173126
O O9 0.583210 0.511149 0.317502
O O10 0.976816 0.424681 0.290292
O O11 0.337421 0.677560 0.136333
O O12 0.741338 0.533040 0.939119
O O13 0.274477 0.519991 0.278791
O O14 0.189736 0.630466 0.514235
O O15 0.000000 0.500000 0.500000
#
# Coordination Sequence:
#
# PCOD9027920 Si02
#       7
#     2   2   2   2   2   2   2
#     4  11  20  36  59  88 122 153 184 238 298 345
#     4  12  18  34  63  95 122 144 186 244 301 349
#     4  11  21  38  64  88 115 153 198 244 287 343
#     4  10  18  31  56  96 119 139 192 245 290 344
#     4  10  20  38  63  84 115 156 201 233 282 348
#     4  10  25  43  58  80 120 165 199 236 287 344
#     4  10  17  31  59  90 117 150 185 239 295 346
#
# _framework density 24.244019000000002
#
# number of rings (size 3 to 8) (size 9 to 14) (size 15 to 20)
#    0.000    1.429    5.714    1.286    0.000    1.143 
#    0.000    6.429    0.000   10.286    0.000    0.000 
#    0.000    0.000    0.000    0.000    0.000    0.000 
#
# Total GULP energy -78358.110684 kJ/mol
# GULP energy per Si atom -5597.007906 kJ/mol
# Density = 2.418884 g / cm^3
# Si number density = 24.244019 Si / 1000 Ang^3
#
#
#
# Elastic Constant Matrix: (Units=GPa)
#
#
# Indices 1 2 3 4 5 6 
#
# 1 71.4524 15.7573 19.8567 9.0575 3.6477 -18.2399
# 2 15.7573 121.3755 12.7105 13.7302 9.2749 -32.6543
# 3 19.8567 12.7105 100.1210 9.8762 -9.1317 -15.8472
# 4 9.0575 13.7302 9.8762 35.9918 -21.6567 -3.9556
# 5 3.6477 9.2749 -9.1317 -21.6567 39.7694 -2.5811
# 6 -18.2399 -32.6543 -15.8472 -3.9556 -2.5811 34.0139
#
#
#
# Elastic Compliance Matrix: (Units=1/GPa)
#
#
# Indices 1 2 3 4 5 6 
#
# 1 0.017627 0.001461 -0.002153 -0.006830 -0.005611 0.008632
# 2 0.001461 0.012502 0.000108 -0.007861 -0.006564 0.011424
# 3 -0.002153 0.000108 0.011404 -0.000431 0.002843 0.004428
# 4 -0.006830 -0.007861 -0.000431 0.049880 0.029304 -0.003385
# 5 -0.005611 -0.006564 0.002843 0.029304 0.043719 -0.001260
# 6 0.008632 0.011424 0.004428 -0.003385 -0.001260 0.046569
#
#
# Mechanical properties :
#
#
# Convention : Reuss Voigt Hill
#
# Bulk Modulus (GPa) = 24.77440 43.28863 34.03152
# Shear Modulus (GPa) = 25.46791 38.26331 31.86561
#
# Velocity S-wave (km/s) = 3.24463 3.97704 3.62936
# Velocity P-wave (km/s) = 4.92725 6.24366 5.62410
#
# Compressibility (1/GPa) = 0.04036425
#
# Stress axis : x y z
#
# Youngs Moduli (GPa) = 56.73047 79.98609 87.68898
#
# Poissons Ratio (x) = -0.11683 0.18881
# Poissons Ratio (y) = -0.08286 -0.00947
# Poissons Ratio (z) = 0.12215 -0.00864
#
# Static dielectric constant tensor:
#      x y z
#    x 2.113560 0.005690 -0.021190 
#    y 0.005690 1.893440 0.006690 
#    z -0.021190 0.006690 1.915680 
# 
# From -- ./inp_files/171314.got.cif
#   From: 2010.05.17/outbox.cif.g08.bks.cpg/sg2_86_cif.got.tgz:171314.got - 2010.06.03 11:33:40.
