data_PCOD9027019
_publ_section_title
;
Structure prediction by ZEFSAII (Michael W. Deem and Ramdas Pophale) SiO2 
 PCOD9027019
Probable space group: P -1
;
_chemical_formula_sum "Si O2"
_cell_formula_units_Z 14
_cell_length_a 13.181248
_cell_length_b 9.979259
_cell_length_c 7.594740
_cell_angle_alpha 103.307033
_cell_angle_beta 64.860263
_cell_angle_gamma 52.959100
_cell_volume 534.137318
_symmetry_space_group_name_H-M "P -1"
_symmetry_group_IT_number 2
_symmetry_cell_setting 'triclinic'
loop_
_space_group_symop_operation_xyz
x,y,z
-x,-y,-z
loop_
_atom_site_type_symbol
_atom_site_label
_atom_site_fract_x
_atom_site_fract_y
_atom_site_fract_z
Si Si1 0.353217 0.461314 0.866293
Si Si2 0.776116 0.713240 0.193474
Si Si3 0.257119 0.956943 0.687335
Si Si4 0.338445 0.203197 0.309580
Si Si5 0.126298 0.147114 0.443364
Si Si6 0.250241 0.570693 0.335122
Si Si7 0.091194 0.964407 0.129457
O O1 0.291933 0.362455 0.861259
O O2 0.537794 0.301967 0.567378
O O3 0.395256 0.456027 0.039408
O O4 0.193880 0.720279 0.999082
O O5 0.736254 0.896904 0.185451
O O6 0.659139 0.830968 0.496422
O O7 0.000000 0.500000 0.000000
O O8 0.183642 0.055975 0.572699
O O9 0.129010 0.994324 0.922017
O O10 0.180166 0.249188 0.385169
O O11 0.310187 0.394023 0.370354
O O12 0.500000 0.000000 0.000000
O O13 0.909459 0.345936 0.637469
O O14 0.190344 0.969325 0.201766
O O15 0.126054 0.811042 0.587157
#
# Coordination Sequence:
#
# PCOD9027019 Si02
#       7
#     2   2   2   2   2   2   2
#     4  12  24  43  67 101 137 173 230 282 337 402
#     4  11  25  43  67 100 131 174 231 278 337 405
#     4  11  23  45  68 101 133 177 224 287 335 396
#     4  11  22  40  67 102 127 175 230 281 335 393
#     4   9  23  41  68  94 138 168 231 267 344 395
#     4  10  22  41  66  94 135 178 219 277 335 398
#     4  10  25  43  70  95 140 183 222 271 346 409
#
# _framework density 26.210488999999999
#
# number of rings (size 3 to 8) (size 9 to 14) (size 15 to 20)
#    0.857    0.571    0.000    6.000    4.000    0.571 
#    2.571    3.571    0.000    0.000    0.000    0.000 
#    0.000    0.000    0.000    0.000    0.000    0.000 
#
# Total GULP energy -78277.514200 kJ/mol
# GULP energy per Si atom -5591.251014 kJ/mol
# Density = 2.615083 g / cm^3
# Si number density = 26.210489 Si / 1000 Ang^3
#
#
#
# Elastic Constant Matrix: (Units=GPa)
#
#
# Indices 1 2 3 4 5 6 
#
# 1 62.4880 -6.2141 22.4727 -7.9259 9.6179 5.8765
# 2 -6.2141 105.4619 23.6874 -9.0508 2.3254 30.8563
# 3 22.4727 23.6874 154.2590 -3.4350 10.5316 16.6985
# 4 -7.9259 -9.0508 -3.4350 43.4840 -0.9318 6.2857
# 5 9.6179 2.3254 10.5316 -0.9318 38.0358 2.0980
# 6 5.8765 30.8563 16.6985 6.2857 2.0980 37.5939
#
#
#
# Elastic Compliance Matrix: (Units=1/GPa)
#
#
# Indices 1 2 3 4 5 6 
#
# 1 0.018970 0.003785 -0.002362 0.004784 -0.003948 -0.005602
# 2 0.003785 0.014098 -0.001201 0.005319 -0.000668 -0.012482
# 3 -0.002362 -0.001201 0.007298 0.000135 -0.001245 -0.001840
# 4 0.004784 0.005319 0.000135 0.026360 -0.000399 -0.009559
# 5 -0.003948 -0.000668 -0.001245 -0.000399 0.027652 0.000242
# 6 -0.005602 -0.012482 -0.001840 -0.009559 0.000242 0.040123
#
#
# Mechanical properties :
#
#
# Convention : Reuss Voigt Hill
#
# Bulk Modulus (GPa) = 24.50355 44.67787 34.59071
# Shear Modulus (GPa) = 33.86128 42.64026 38.25077
#
# Velocity S-wave (km/s) = 3.59820 4.03779 3.82431
# Velocity P-wave (km/s) = 5.16060 6.23066 5.72070
#
# Compressibility (1/GPa) = 0.04081042
#
# Stress axis : x y z
#
# Youngs Moduli (GPa) = 52.71362 70.93170 137.01676
#
# Poissons Ratio (x) = -0.26849 0.32368
# Poissons Ratio (y) = -0.19953 0.16457
# Poissons Ratio (z) = 0.12453 0.08520
#
# Static dielectric constant tensor:
#      x y z
#    x 2.207450 0.002890 -0.017090 
#    y 0.002890 2.117990 -0.100400 
#    z -0.017090 -0.100400 2.181840 
# 
# From -- ./inp_files/307930.got.cif
#   From: 2010.05.17/outbox.cif.g08.bks.cpg/sg2_154_cif.got.tgz:307930.got - 2010.06.03 11:33:40.
