data_PCOD9027092
_publ_section_title
;
Structure prediction by ZEFSAII (Michael W. Deem and Ramdas Pophale) SiO2 
 PCOD9027092
Probable space group: P -1
;
_chemical_formula_sum "Si O2"
_cell_formula_units_Z 13
_cell_length_a 12.079240
_cell_length_b 16.246998
_cell_length_c 7.196428
_cell_angle_alpha 53.367648
_cell_angle_beta 56.535034
_cell_angle_gamma 23.912362
_cell_volume 459.313825
_symmetry_space_group_name_H-M "P -1"
_symmetry_group_IT_number 2
_symmetry_cell_setting 'triclinic'
loop_
_space_group_symop_operation_xyz
x,y,z
-x,-y,-z
loop_
_atom_site_type_symbol
_atom_site_label
_atom_site_fract_x
_atom_site_fract_y
_atom_site_fract_z
Si Si1 0.150220 0.060260 0.938258
Si Si2 0.928904 0.441890 0.237185
Si Si3 0.584950 0.313956 0.807439
Si Si4 0.506179 0.008221 0.762391
Si Si5 0.720964 0.518776 0.690508
Si Si6 0.000000 0.500000 0.500000
Si Si7 0.753579 0.275639 0.318079
O O1 0.042297 0.098636 0.191865
O O2 0.242241 0.893626 0.981870
O O3 0.392956 0.976517 0.834267
O O4 0.892677 0.299827 0.785350
O O5 0.654243 0.578111 0.234265
O O6 0.867406 0.504130 0.429131
O O7 0.181001 0.194924 0.315019
O O8 0.000000 0.500000 0.000000
O O9 0.754706 0.256291 0.564357
O O10 0.429787 0.497033 0.839330
O O11 0.306625 0.230682 0.579560
O O12 0.500000 0.000000 0.000000
O O13 0.846480 0.498689 0.767836
O O14 0.416673 0.697907 0.668598
#
# Coordination Sequence:
#
# PCOD9027092 Si02
#       7
#     2   2   2   2   2   1   2
#     4  11  22  41  64  95 130 172 218 270 327 394
#     4  11  21  42  67  91 132 169 216 275 326 395
#     4  10  22  41  66  97 125 170 224 266 323 402
#     4  11  23  41  67  97 131 173 220 271 339 391
#     4  10  24  43  61  95 130 167 219 268 335 390
#     4  10  24  42  62  98 128 164 222 268 324 400
#     4  10  22  42  64  91 132 169 218 271 324 395
#
# _framework density 28.303090999999998
#
# number of rings (size 3 to 8) (size 9 to 14) (size 15 to 20)
#    0.000    1.538    1.538    2.769    2.154    4.308 
#   16.615    0.000    0.000    0.000    0.000    0.000 
#    0.000    0.000    0.000    0.000    0.000    0.000 
#
# Total GULP energy -72732.473547 kJ/mol
# GULP energy per Si atom -5594.805657 kJ/mol
# Density = 2.823867 g / cm^3
# Si number density = 28.303091 Si / 1000 Ang^3
#
#
#
# Elastic Constant Matrix: (Units=GPa)
#
#
# Indices 1 2 3 4 5 6 
#
# 1 114.3175 27.6453 9.5912 -13.1299 -7.0065 -0.2337
# 2 27.6453 156.3954 42.4239 -23.6110 -18.9536 20.8601
# 3 9.5912 42.4239 79.0382 2.2656 -5.2674 4.5115
# 4 -13.1299 -23.6110 2.2656 59.4812 18.6525 -2.3092
# 5 -7.0065 -18.9536 -5.2674 18.6525 41.2055 0.2715
# 6 -0.2337 20.8601 4.5115 -2.3092 0.2715 44.4595
#
#
#
# Elastic Compliance Matrix: (Units=1/GPa)
#
#
# Indices 1 2 3 4 5 6 
#
# 1 0.009305 -0.001377 -0.000465 0.001491 0.000209 0.000819
# 2 -0.001377 0.008964 -0.004365 0.002595 0.002180 -0.003649
# 3 -0.000465 -0.004365 0.015183 -0.002743 0.001093 0.000356
# 4 0.001491 0.002595 -0.002743 0.020908 -0.008369 0.000206
# 5 0.000209 0.002180 0.001093 -0.008369 0.029247 -0.001746
# 6 0.000819 -0.003649 0.000356 0.000206 -0.001746 0.024194
#
#
# Mechanical properties :
#
#
# Convention : Reuss Voigt Hill
#
# Bulk Modulus (GPa) = 47.53665 56.56354 52.05010
# Shear Modulus (GPa) = 39.29886 47.03530 43.16708
#
# Velocity S-wave (km/s) = 3.73030 4.08099 3.90958
# Velocity P-wave (km/s) = 5.94858 6.49879 6.22976
#
# Compressibility (1/GPa) = 0.02103640
#
# Stress axis : x y z
#
# Youngs Moduli (GPa) = 107.46374 111.55244 65.86385
#
# Poissons Ratio (x) = 0.15365 0.03066
# Poissons Ratio (y) = 0.14801 0.28752
# Poissons Ratio (z) = 0.05002 0.48696
#
# Static dielectric constant tensor:
#      x y z
#    x 2.195910 0.025470 -0.035740 
#    y 0.025470 2.190590 0.044320 
#    z -0.035740 0.044320 2.487550 
# 
# From -- ./inp_files/26715.got.cif
#   From: 2010.05.17/outbox.cif.g08.bks.cpg/sg2_14_cif.got.tgz:26715.got - 2010.06.03 11:33:40.
