data_PCOD9027415
_publ_section_title
;
Structure prediction by ZEFSAII (Michael W. Deem and Ramdas Pophale) SiO2 
 PCOD9027415
Probable space group: P -1
;
_chemical_formula_sum "Si O2"
_cell_formula_units_Z 16
_cell_length_a 11.529876
_cell_length_b 11.933151
_cell_length_c 12.696892
_cell_angle_alpha 35.187140
_cell_angle_beta 78.691521
_cell_angle_gamma 106.960803
_cell_volume 592.442128
_symmetry_space_group_name_H-M "P -1"
_symmetry_group_IT_number 2
_symmetry_cell_setting 'triclinic'
loop_
_space_group_symop_operation_xyz
x,y,z
-x,-y,-z
loop_
_atom_site_type_symbol
_atom_site_label
_atom_site_fract_x
_atom_site_fract_y
_atom_site_fract_z
Si Si1 0.733489 0.617198 0.369594
Si Si2 0.840711 0.379767 0.782879
Si Si3 0.781375 0.799981 0.695784
Si Si4 0.949821 0.188171 0.754366
Si Si5 0.616806 0.332863 0.274215
Si Si6 0.154858 0.684388 0.646352
Si Si7 0.439942 0.353320 0.467575
Si Si8 0.493705 0.762286 0.997721
O O1 0.827420 0.541377 0.445580
O O2 0.520168 0.350487 0.560619
O O3 0.741256 0.768423 0.353924
O O4 0.852216 0.863240 0.061578
O O5 0.013194 0.749653 0.423095
O O6 0.645069 0.246178 0.931453
O O7 0.852044 0.231976 0.803830
O O8 0.935287 0.418117 0.842681
O O9 0.650436 0.548628 0.815972
O O10 0.801110 0.059587 0.493209
O O11 0.680547 0.577171 0.989856
O O12 0.000000 0.000000 0.500000
O O13 0.804907 0.466265 0.187370
O O14 0.474327 0.240902 0.457694
O O15 0.500000 0.000000 0.500000
O O16 0.322460 0.917205 0.346918
O O17 0.549204 0.685846 0.140108
#
# Coordination Sequence:
#
# PCOD9027415 Si02
#       8
#     2   2   2   2   2   2   2   2
#     4  10  22  41  67  99 133 188 236 288 359 425
#     4  11  24  43  64 103 136 186 237 292 364 419
#     4  12  26  48  72 104 145 190 240 292 363 432
#     4  10  22  42  63  94 143 176 233 301 347 423
#     4  12  26  46  75 107 144 188 240 303 361 425
#     4  12  25  46  73 102 144 187 240 296 354 433
#     4  11  23  42  69 102 137 186 242 291 357 431
#     4  12  23  45  71  99 142 192 232 295 360 423
#
# _framework density 27.006855999999999
#
# number of rings (size 3 to 8) (size 9 to 14) (size 15 to 20)
#    0.000    0.750    5.000    2.625    1.750    0.500 
#    2.250    1.875    0.000    0.000    0.000    0.000 
#    0.000    0.000    0.000    0.000    0.000    0.000 
#
# Total GULP energy -89540.811475 kJ/mol
# GULP energy per Si atom -5596.300717 kJ/mol
# Density = 2.694539 g / cm^3
# Si number density = 27.006856 Si / 1000 Ang^3
#
#
#
# Elastic Constant Matrix: (Units=GPa)
#
#
# Indices 1 2 3 4 5 6 
#
# 1 183.0596 52.9843 9.3763 7.5169 -1.5123 -20.4707
# 2 52.9843 130.7581 5.0839 -2.1767 1.1519 -29.4702
# 3 9.3763 5.0839 51.2748 17.6968 -0.3690 -13.9801
# 4 7.5169 -2.1767 17.6968 34.7651 -4.8639 -0.3313
# 5 -1.5123 1.1519 -0.3690 -4.8639 52.5983 14.3004
# 6 -20.4707 -29.4702 -13.9801 -0.3313 14.3004 52.7419
#
#
#
# Elastic Compliance Matrix: (Units=1/GPa)
#
#
# Indices 1 2 3 4 5 6 
#
# 1 0.006330 -0.002316 -0.000091 -0.001488 -0.000230 0.001192
# 2 -0.002316 0.009749 0.000644 0.000605 -0.001623 0.005163
# 3 -0.000091 0.000644 0.026401 -0.013765 -0.003316 0.008135
# 4 -0.001488 0.000605 -0.013765 0.036725 0.004575 -0.004898
# 5 -0.000230 -0.001623 -0.003316 0.004575 0.021530 -0.007684
# 6 0.001192 0.005163 0.008135 -0.004898 -0.007684 0.026517
#
#
# Mechanical properties :
#
#
# Convention : Reuss Voigt Hill
#
# Bulk Modulus (GPa) = 25.67098 55.55350 40.61224
# Shear Modulus (GPa) = 34.77979 47.86425 41.32202
#
# Velocity S-wave (km/s) = 3.59250 4.21444 3.91584
# Velocity P-wave (km/s) = 5.17050 6.65558 5.95948
#
# Compressibility (1/GPa) = 0.03895450
#
# Stress axis : x y z
#
# Youngs Moduli (GPa) = 157.97627 102.57408 37.87771
#
# Poissons Ratio (x) = 0.23752 0.00345
# Poissons Ratio (y) = 0.36581 -0.02439
# Poissons Ratio (z) = 0.01439 -0.06606
#
# Static dielectric constant tensor:
#      x y z
#    x 2.144160 0.094130 -0.050890 
#    y 0.094130 2.168460 -0.123690 
#    z -0.050890 -0.123690 2.231110 
# 
# From -- ./inp_files/427405.got.cif
#   From: 2010.05.17/outbox.cif.g08.bks.cpg/sg2_214_cif.got.tgz:427405.got - 2010.06.03 11:33:40.
