data_PCOD9027421
_publ_section_title
;
Structure prediction by ZEFSAII (Michael W. Deem and Ramdas Pophale) SiO2 
 PCOD9027421
Probable space group: P -1
;
_chemical_formula_sum "Si O2"
_cell_formula_units_Z 10
_cell_length_a 18.084035
_cell_length_b 5.663023
_cell_length_c 5.068747
_cell_angle_alpha 55.054434
_cell_angle_beta 65.696559
_cell_angle_gamma 70.345299
_cell_volume 384.257150
_symmetry_space_group_name_H-M "P -1"
_symmetry_group_IT_number 2
_symmetry_cell_setting 'triclinic'
loop_
_space_group_symop_operation_xyz
x,y,z
-x,-y,-z
loop_
_atom_site_type_symbol
_atom_site_label
_atom_site_fract_x
_atom_site_fract_y
_atom_site_fract_z
Si Si1 0.155501 0.736190 0.262192
Si Si2 0.412313 0.737366 0.525112
Si Si3 0.733617 0.811830 0.355877
Si Si4 0.950031 0.271931 0.063548
Si Si5 0.589182 0.856297 0.149101
O O1 0.230637 0.493807 0.380133
O O2 0.103501 0.815915 0.554373
O O3 0.107609 0.603054 0.176019
O O4 0.189073 0.025932 0.930099
O O5 0.501490 0.809937 0.432019
O O6 0.403902 0.430268 0.862507
O O7 0.330016 0.956585 0.545048
O O8 0.419080 0.816816 0.152131
O O9 0.673722 0.774380 0.226949
O O10 0.000000 0.500000 0.000000
O O11 0.000000 0.000000 0.000000
#
# Coordination Sequence:
#
# PCOD9027421 Si02
#       5
#     2   2   2   2   2
#     4  12  30  48  87 120 156 204 258 330 407 472
#     4  10  22  41  67  99 147 209 260 311 377 452
#     4  12  26  44  70 113 158 194 260 329 392 450
#     4  12  29  60  86 119 159 210 263 325 408 516
#     4  10  22  41  67  99 147 209 260 311 377 452
#
# _framework density 26.024239000000001
#
# number of rings (size 3 to 8) (size 9 to 14) (size 15 to 20)
#    0.000    0.800    0.000    5.400    8.400    3.200 
#    0.000    8.000    0.000    0.000    0.000    0.000 
#    0.000    0.000    0.000    0.000    0.000    0.000 
#
# Total GULP energy -55697.800417 kJ/mol
# GULP energy per Si atom -5569.780042 kJ/mol
# Density = 2.596501 g / cm^3
# Si number density = 26.024239 Si / 1000 Ang^3
#
#
#
# Elastic Constant Matrix: (Units=GPa)
#
#
# Indices 1 2 3 4 5 6 
#
# 1 162.3180 33.8056 9.6027 13.2269 24.8222 17.9077
# 2 33.8056 109.6640 25.4372 20.3095 -6.7698 9.6485
# 3 9.6027 25.4372 63.8162 11.5696 -4.8707 1.8130
# 4 13.2269 20.3095 11.5696 36.3256 -11.7986 6.2482
# 5 24.8222 -6.7698 -4.8707 -11.7986 48.9318 8.9934
# 6 17.9077 9.6485 1.8130 6.2482 8.9934 37.5526
#
#
#
# Elastic Compliance Matrix: (Units=1/GPa)
#
#
# Indices 1 2 3 4 5 6 
#
# 1 0.007685 -0.001942 -0.000166 -0.002878 -0.004587 -0.001581
# 2 -0.001942 0.011456 -0.003415 -0.003813 0.001605 -0.001602
# 3 -0.000166 -0.003415 0.017731 -0.003661 0.000380 0.000618
# 4 -0.002878 -0.003813 -0.003661 0.036293 0.010423 -0.006006
# 5 -0.004587 0.001605 0.000380 0.010423 0.026708 -0.006374
# 6 -0.001581 -0.001602 0.000618 -0.006006 -0.006374 0.030291
#
#
# Mechanical properties :
#
#
# Convention : Reuss Voigt Hill
#
# Bulk Modulus (GPa) = 38.71845 52.60991 45.66418
# Shear Modulus (GPa) = 33.37379 42.35883 37.86631
#
# Velocity S-wave (km/s) = 3.58496 4.03881 3.81864
# Velocity P-wave (km/s) = 5.66093 6.48143 6.08503
#
# Compressibility (1/GPa) = 0.02582748
#
# Stress axis : x y z
#
# Youngs Moduli (GPa) = 130.11736 87.29294 56.39785
#
# Poissons Ratio (x) = 0.16950 0.00936
# Poissons Ratio (y) = 0.25266 0.19258
# Poissons Ratio (z) = 0.02159 0.29808
#
# Static dielectric constant tensor:
#      x y z
#    x 2.036920 0.039570 0.011480 
#    y 0.039570 2.224270 0.099990 
#    z 0.011480 0.099990 2.083360 
# 
# From -- ./inp_files/4118.got.cif
#   From: 2010.05.17/outbox.cif.g08.bks.cpg/sg2_3_cif.got.tgz:4118.got - 2010.06.03 11:33:40.
