data_PCOD9027927
_publ_section_title
;
Structure prediction by ZEFSAII (Michael W. Deem and Ramdas Pophale) SiO2 
 PCOD9027927
Probable space group: P -1
;
_chemical_formula_sum "Si O2"
_cell_formula_units_Z 12
_cell_length_a 11.530047
_cell_length_b 5.204257
_cell_length_c 9.121998
_cell_angle_alpha 87.800192
_cell_angle_beta 85.675796
_cell_angle_gamma 128.205008
_cell_volume 426.367231
_symmetry_space_group_name_H-M "P -1"
_symmetry_group_IT_number 2
_symmetry_cell_setting 'triclinic'
loop_
_space_group_symop_operation_xyz
x,y,z
-x,-y,-z
loop_
_atom_site_type_symbol
_atom_site_label
_atom_site_fract_x
_atom_site_fract_y
_atom_site_fract_z
Si Si1 0.933912 0.222350 0.341279
Si Si2 0.484496 0.248525 0.177666
Si Si3 0.301481 0.268636 0.436172
Si Si4 0.320141 0.788779 0.607594
Si Si5 0.201297 0.152741 0.933583
Si Si6 0.805841 0.365145 0.887220
O O1 0.873514 0.034316 0.506719
O O2 0.849745 0.380487 0.330507
O O3 0.104663 0.474213 0.276113
O O4 0.856327 0.951191 0.224309
O O5 0.581929 0.194224 0.274174
O O6 0.618077 0.598039 0.089012
O O7 0.371945 0.284699 0.275875
O O8 0.369984 0.906948 0.112468
O O9 0.369377 0.141491 0.542001
O O10 0.325637 0.588923 0.482012
O O11 0.158431 0.348693 0.018381
O O12 0.147241 0.831805 0.034604
#
# Coordination Sequence:
#
# PCOD9027927 Si02
#       6
#     2   2   2   2   2   2
#     4  10  25  46  72  97 135 174 233 268 335 400
#     4  12  24  47  69 104 137 170 226 285 333 393
#     4  10  24  40  77  97 130 173 227 275 337 392
#     4  10  22  41  70 102 126 175 221 269 337 397
#     4  12  26  44  70  96 137 185 224 267 326 408
#     4  12  29  43  69 101 139 178 222 277 335 389
#
# _framework density 28.144752
#
# number of rings (size 3 to 8) (size 9 to 14) (size 15 to 20)
#    1.000    0.000    1.667    4.000    2.333    6.000 
#    0.000    0.833    0.000    0.000    0.000    0.000 
#    0.000    0.000    0.000    0.000    0.000    0.000 
#
# Total GULP energy -67278.644890 kJ/mol
# GULP energy per Si atom -5606.553741 kJ/mol
# Density = 2.808069 g / cm^3
# Si number density = 28.144752 Si / 1000 Ang^3
#
#
#
# Elastic Constant Matrix: (Units=GPa)
#
#
# Indices 1 2 3 4 5 6 
#
# 1 118.7834 72.1457 32.1905 6.7097 -22.8643 -1.7919
# 2 72.1457 153.1265 39.7660 6.0726 -7.2470 -10.3471
# 3 32.1905 39.7660 86.3495 -11.0678 -36.7265 -0.6622
# 4 6.7097 6.0726 -11.0678 66.3301 7.0725 -17.3170
# 5 -22.8643 -7.2470 -36.7265 7.0725 54.8516 -3.9528
# 6 -1.7919 -10.3471 -0.6622 -17.3170 -3.9528 68.6169
#
#
#
# Elastic Compliance Matrix: (Units=1/GPa)
#
#
# Indices 1 2 3 4 5 6 
#
# 1 0.012990 -0.005768 -0.000481 -0.001516 0.004479 -0.000660
# 2 -0.005768 0.010248 -0.004200 -0.000385 -0.003738 0.001042
# 3 -0.000481 -0.004200 0.019009 0.002583 0.011702 0.000863
# 4 -0.001516 -0.000385 0.002583 0.016864 -0.000830 0.004135
# 5 0.004479 -0.003738 0.011702 -0.000830 0.027621 0.001048
# 6 -0.000660 0.001042 0.000863 0.004135 0.001048 0.015826
#
#
# Mechanical properties :
#
#
# Convention : Reuss Voigt Hill
#
# Bulk Modulus (GPa) = 46.84129 71.82931 59.33530
# Shear Modulus (GPa) = 38.29305 52.23685 45.26495
#
# Velocity S-wave (km/s) = 3.69260 4.31281 4.01470
# Velocity P-wave (km/s) = 5.90419 7.09769 6.52828
#
# Compressibility (1/GPa) = 0.02134868
#
# Stress axis : x y z
#
# Youngs Moduli (GPa) = 76.98215 97.58352 52.60661
#
# Poissons Ratio (x) = 0.56285 0.02530
# Poissons Ratio (y) = 0.44403 0.22096
# Poissons Ratio (z) = 0.03702 0.40988
#
# Static dielectric constant tensor:
#      x y z
#    x 2.184050 0.059750 -0.005720 
#    y 0.059750 2.215750 -0.075890 
#    z -0.005720 -0.075890 2.205970 
# 
# From -- ./inp_files/59116.got.cif
#   From: 2010.05.17/outbox.cif.g08.bks.cpg/sg2_30_cif.got.tgz:59116.got - 2010.06.03 11:33:40.
