data_PCOD9027375
_publ_section_title
;
Structure prediction by ZEFSAII (Michael W. Deem and Ramdas Pophale) SiO2 
 PCOD9027375
Probable space group: P -1
;
_chemical_formula_sum "Si O2"
_cell_formula_units_Z 14
_cell_length_a 8.686797
_cell_length_b 11.542174
_cell_length_c 9.299707
_cell_angle_alpha 71.321809
_cell_angle_beta 113.123285
_cell_angle_gamma 58.923247
_cell_volume 549.209417
_symmetry_space_group_name_H-M "P -1"
_symmetry_group_IT_number 2
_symmetry_cell_setting 'triclinic'
loop_
_space_group_symop_operation_xyz
x,y,z
-x,-y,-z
loop_
_atom_site_type_symbol
_atom_site_label
_atom_site_fract_x
_atom_site_fract_y
_atom_site_fract_z
Si Si1 0.703694 0.744475 0.876024
Si Si2 0.245000 0.103792 0.724024
Si Si3 0.074933 0.743321 0.925366
Si Si4 0.082811 0.912048 0.222069
Si Si5 0.549483 0.611118 0.668704
Si Si6 0.223190 0.361545 0.748122
Si Si7 0.237559 0.604627 0.735942
O O1 0.669384 0.661952 0.773390
O O2 0.829376 0.795974 0.835469
O O3 0.445809 0.916445 0.788978
O O4 0.857776 0.618249 0.124248
O O5 0.350074 0.170900 0.809779
O O6 0.081902 0.113083 0.773854
O O7 0.047259 0.251710 0.472815
O O8 0.237218 0.610515 0.903344
O O9 0.246645 0.607210 0.177452
O O10 0.999032 0.921388 0.789359
O O11 0.379144 0.734692 0.420460
O O12 0.000000 0.000000 0.000000
O O13 0.338592 0.670594 0.672813
O O14 0.365838 0.413350 0.794993
O O15 0.000000 0.500000 0.500000
#
# Coordination Sequence:
#
# PCOD9027375 Si02
#       7
#     2   2   2   2   2   2   2
#     4  12  24  43  66 104 140 178 228 278 344 411
#     4  10  23  44  69  99 140 180 229 281 338 419
#     4  12  25  44  71 102 143 178 227 289 339 407
#     4  11  26  48  70 101 138 182 230 287 347 399
#     4  11  25  45  72 102 135 181 236 283 336 412
#     4  10  22  41  67  97 134 181 224 277 337 401
#     4  10  22  43  72 101 131 182 234 279 345 400
#
# _framework density 25.491187
#
# number of rings (size 3 to 8) (size 9 to 14) (size 15 to 20)
#    0.000    1.143    1.429    3.857    2.000    5.143 
#    5.143    0.000    0.000    0.000    0.000    0.000 
#    0.000    0.000    0.000    0.000    0.000    0.000 
#
# Total GULP energy -78282.213175 kJ/mol
# GULP energy per Si atom -5591.586655 kJ/mol
# Density = 2.543317 g / cm^3
# Si number density = 25.491187 Si / 1000 Ang^3
#
#
#
# Elastic Constant Matrix: (Units=GPa)
#
#
# Indices 1 2 3 4 5 6 
#
# 1 60.7864 13.0559 7.4708 5.2785 -2.2258 3.9031
# 2 13.0559 67.8026 8.6753 -2.1498 -0.7077 22.7581
# 3 7.4708 8.6753 114.2379 -0.0300 -5.8427 12.3284
# 4 5.2785 -2.1498 -0.0300 40.1448 3.0855 -2.3871
# 5 -2.2258 -0.7077 -5.8427 3.0855 26.0538 -0.3875
# 6 3.9031 22.7581 12.3284 -2.3871 -0.3875 35.5477
#
#
#
# Elastic Compliance Matrix: (Units=1/GPa)
#
#
# Indices 1 2 3 4 5 6 
#
# 1 0.017557 -0.003486 -0.000854 -0.002587 0.001527 0.000443
# 2 -0.003486 0.019485 0.000048 0.000787 -0.000030 -0.012056
# 3 -0.000854 0.000048 0.009246 -0.000217 0.001981 -0.003136
# 4 -0.002587 0.000787 -0.000217 0.025634 -0.003261 0.001541
# 5 0.001527 -0.000030 0.001981 -0.003261 0.039333 -0.000625
# 6 0.000443 -0.012056 -0.003136 0.001541 -0.000625 0.036985
#
#
# Mechanical properties :
#
#
# Convention : Reuss Voigt Hill
#
# Bulk Modulus (GPa) = 26.52295 33.47009 29.99652
# Shear Modulus (GPa) = 29.51731 34.59094 32.05413
#
# Velocity S-wave (km/s) = 3.40655 3.68771 3.54991
# Velocity P-wave (km/s) = 5.08921 5.59382 5.34747
#
# Compressibility (1/GPa) = 0.03770319
#
# Stress axis : x y z
#
# Youngs Moduli (GPa) = 56.95776 51.32115 108.15972
#
# Poissons Ratio (x) = 0.17892 0.09235
# Poissons Ratio (y) = 0.19857 -0.00519
# Poissons Ratio (z) = 0.04863 -0.00246
#
# Static dielectric constant tensor:
#      x y z
#    x 1.990460 0.104610 0.006690 
#    y 0.104610 2.159150 -0.046680 
#    z 0.006690 -0.046680 2.134300 
# 
# From -- ./inp_files/186016.got.cif
#   From: 2010.05.17/outbox.cif.g08.bks.cpg/sg2_94_cif.got.tgz:186016.got - 2010.06.03 11:33:40.
