data_PCOD9027241
_publ_section_title
;
Structure prediction by ZEFSAII (Michael W. Deem and Ramdas Pophale) SiO2 
 PCOD9027241
Probable space group: P -1
;
_chemical_formula_sum "Si O2"
_cell_formula_units_Z 14
_cell_length_a 5.301188
_cell_length_b 5.887599
_cell_length_c 22.117858
_cell_angle_alpha 96.182798
_cell_angle_beta 66.250780
_cell_angle_gamma 102.802615
_cell_volume 616.027014
_symmetry_space_group_name_H-M "P -1"
_symmetry_group_IT_number 2
_symmetry_cell_setting 'triclinic'
loop_
_space_group_symop_operation_xyz
x,y,z
-x,-y,-z
loop_
_atom_site_type_symbol
_atom_site_label
_atom_site_fract_x
_atom_site_fract_y
_atom_site_fract_z
Si Si1 0.220258 0.262256 0.378411
Si Si2 0.061599 0.960408 0.062887
Si Si3 0.628945 0.239171 0.158556
Si Si4 0.614780 0.335758 0.029584
Si Si5 0.571756 0.249312 0.463596
Si Si6 0.410402 0.382818 0.733776
Si Si7 0.826942 0.086051 0.739130
O O1 0.395564 0.201593 0.416971
O O2 0.407293 0.489051 0.335445
O O3 0.909338 0.298983 0.425370
O O4 0.178583 0.059605 0.326263
O O5 0.360371 0.113456 0.055175
O O6 0.827052 0.048426 0.126472
O O7 0.127315 0.708765 0.038027
O O8 0.000000 0.000000 0.000000
O O9 0.656381 0.382602 0.097753
O O10 0.703239 0.420382 0.211059
O O11 0.322053 0.092585 0.200566
O O12 0.500000 0.500000 0.000000
O O13 0.500000 0.500000 0.500000
O O14 0.500000 0.000000 0.500000
O O15 0.625002 0.270052 0.750726
O O16 0.140494 0.201851 0.731342
#
# Coordination Sequence:
#
# PCOD9027241 Si02
#       7
#     2   2   2   2   2   2   2
#     4  11  26  49  76 111 160 197 260 305 373 446
#     4   9  21  41  60  90 131 168 222 290 364 447
#     4  10  25  43  66 103 135 177 251 301 375 459
#     4  10  22  41  67  92 133 178 228 296 385 452
#     4  12  28  48  82 121 165 210 260 315 378 451
#     4  11  26  45  77 105 142 200 247 312 373 442
#     4  11  26  46  75 104 145 197 245 316 372 435
#
# _framework density 22.726275999999999
#
# number of rings (size 3 to 8) (size 9 to 14) (size 15 to 20)
#    0.000    1.429    0.000    2.571   10.000    9.143 
#    0.000    0.000    0.000    0.000    0.000    0.000 
#    0.000    0.000    0.000    0.000    0.000    0.000 
#
# Total GULP energy -78101.348684 kJ/mol
# GULP energy per Si atom -5578.667763 kJ/mol
# Density = 2.267455 g / cm^3
# Si number density = 22.726276 Si / 1000 Ang^3
#
#
#
# Elastic Constant Matrix: (Units=GPa)
#
#
# Indices 1 2 3 4 5 6 
#
# 1 129.5314 40.4221 57.5396 -24.1586 -4.8137 11.5306
# 2 40.4221 102.0100 70.5858 -18.1955 -3.3620 0.3647
# 3 57.5396 70.5858 122.8224 -19.4671 -9.1448 6.8856
# 4 -24.1586 -18.1955 -19.4671 28.7100 -10.1701 -7.2627
# 5 -4.8137 -3.3620 -9.1448 -10.1701 30.5083 -2.6914
# 6 11.5306 0.3647 6.8856 -7.2627 -2.6914 61.7124
#
#
#
# Elastic Compliance Matrix: (Units=1/GPa)
#
#
# Indices 1 2 3 4 5 6 
#
# 1 0.010964 -0.000587 -0.003336 0.007531 0.003118 -0.000650
# 2 -0.000587 0.016998 -0.008688 0.005171 0.001044 0.001633
# 3 -0.003336 -0.008688 0.015645 0.003749 0.004417 -0.000437
# 4 0.007531 0.005171 0.003749 0.056284 0.022150 0.005734
# 5 0.003118 0.001044 0.004417 0.022150 0.042391 0.003374
# 6 -0.000650 0.001633 -0.000437 0.005734 0.003374 0.017187
#
#
# Mechanical properties :
#
#
# Convention : Reuss Voigt Hill
#
# Bulk Modulus (GPa) = 54.39514 76.82876 65.61195
# Shear Modulus (GPa) = 26.20258 36.57390 31.38824
#
# Velocity S-wave (km/s) = 3.39922 4.01599 3.72041
# Velocity P-wave (km/s) = 6.27639 7.44203 6.88392
#
# Compressibility (1/GPa) = 0.01838400
#
# Stress axis : x y z
#
# Youngs Moduli (GPa) = 91.20768 58.82987 63.91656
#
# Poissons Ratio (x) = 0.03456 0.21325
# Poissons Ratio (y) = 0.05358 0.55530
# Poissons Ratio (z) = 0.30431 0.51111
#
# Static dielectric constant tensor:
#      x y z
#    x 1.776070 0.011630 0.018040 
#    y 0.011630 1.925550 0.030250 
#    z 0.018040 0.030250 1.859420 
# 
# From -- ./inp_files/581131.got.cif
#   From: 2010.05.17/outbox.cif.g08.bks.cpg/sg2_291_cif.got.tgz:581131.got - 2010.06.03 11:33:40.
