data_PCOD9027682
_publ_section_title
;
Structure prediction by ZEFSAII (Michael W. Deem and Ramdas Pophale) SiO2 
 PCOD9027682
Probable space group: P -1
;
_chemical_formula_sum "Si O2"
_cell_formula_units_Z 16
_cell_length_a 5.207517
_cell_length_b 9.270876
_cell_length_c 18.598587
_cell_angle_alpha 44.390184
_cell_angle_beta 79.445438
_cell_angle_gamma 86.499283
_cell_volume 614.303738
_symmetry_space_group_name_H-M "P -1"
_symmetry_group_IT_number 2
_symmetry_cell_setting 'triclinic'
loop_
_space_group_symop_operation_xyz
x,y,z
-x,-y,-z
loop_
_atom_site_type_symbol
_atom_site_label
_atom_site_fract_x
_atom_site_fract_y
_atom_site_fract_z
Si Si1 0.616335 0.596261 0.132962
Si Si2 0.248109 0.751665 0.661899
Si Si3 0.709884 0.243716 0.797575
Si Si4 0.045384 0.177167 0.083916
Si Si5 0.763869 0.642830 0.459041
Si Si6 0.600497 0.943505 0.251826
Si Si7 0.808233 0.729061 0.590101
Si Si8 0.775854 0.772937 0.783332
O O1 0.745065 0.490979 0.231917
O O2 0.451908 0.765696 0.116571
O O3 0.409952 0.421592 0.169213
O O4 0.839766 0.679095 0.036782
O O5 0.558515 0.810546 0.614372
O O6 0.091294 0.808729 0.579096
O O7 0.054184 0.808188 0.715710
O O8 0.530723 0.199715 0.752128
O O9 0.812638 0.483719 0.696185
O O10 0.891574 0.057139 0.854307
O O11 0.175455 0.253183 0.125302
O O12 0.740719 0.143387 0.131824
O O13 0.500000 0.500000 0.500000
O O14 0.792069 0.819301 0.333850
O O15 0.755482 0.740844 0.503960
O O16 0.000000 0.500000 0.500000
O O17 0.383054 0.025597 0.285315
#
# Coordination Sequence:
#
# PCOD9027682 Si02
#       8
#     2   2   2   2   2   2   2   2
#     4  11  24  43  71 103 142 199 241 284 364 427
#     4  11  23  44  72 101 139 187 238 293 345 422
#     4  10  22  41  68  99 146 178 238 294 355 415
#     4  11  25  41  69 106 146 188 239 303 352 425
#     4  12  25  45  78 108 145 189 235 289 369 431
#     4  11  26  44  67 110 144 183 235 304 354 425
#     4  11  23  43  72 107 136 184 238 294 354 423
#     4  11  24  46  70  96 152 189 243 290 356 420
#
# _framework density 26.045743999999999
#
# number of rings (size 3 to 8) (size 9 to 14) (size 15 to 20)
#    0.000    1.000    3.750    3.000    7.000    4.500 
#    0.000    1.250    0.000    0.000    0.000    0.000 
#    0.000    0.000    0.000    0.000    0.000    0.000 
#
# Total GULP energy -89591.800141 kJ/mol
# GULP energy per Si atom -5599.487509 kJ/mol
# Density = 2.598646 g / cm^3
# Si number density = 26.045744 Si / 1000 Ang^3
#
#
#
# Elastic Constant Matrix: (Units=GPa)
#
#
# Indices 1 2 3 4 5 6 
#
# 1 144.3364 41.9847 25.7826 4.1944 -10.8373 -15.6231
# 2 41.9847 115.9544 16.9577 14.9027 -9.7541 -28.6516
# 3 25.7826 16.9577 101.5864 1.5082 -24.0247 3.4612
# 4 4.1944 14.9027 1.5082 35.9632 -4.0461 -1.1677
# 5 -10.8373 -9.7541 -24.0247 -4.0461 31.2971 4.6576
# 6 -15.6231 -28.6516 3.4612 -1.1677 4.6576 26.1449
#
#
#
# Elastic Compliance Matrix: (Units=1/GPa)
#
#
# Indices 1 2 3 4 5 6 
#
# 1 0.008151 -0.001959 -0.001730 0.000080 0.000466 0.002873
# 2 -0.001959 0.013757 -0.002453 -0.005025 -0.001035 0.014190
# 3 -0.001730 -0.002453 0.013311 0.001565 0.010131 -0.007219
# 4 0.000080 -0.005025 0.001565 0.030134 0.004316 -0.005090
# 5 0.000466 -0.001035 0.010131 0.004316 0.041525 -0.009402
# 6 0.002873 0.014190 -0.007219 -0.005090 -0.009402 0.057919
#
#
# Mechanical properties :
#
#
# Convention : Reuss Voigt Hill
#
# Bulk Modulus (GPa) = 43.60319 59.03636 51.31977
# Shear Modulus (GPa) = 27.06685 37.15785 32.11235
#
# Velocity S-wave (km/s) = 3.22717 3.78118 3.51511
# Velocity P-wave (km/s) = 5.53746 6.46365 6.01840
#
# Compressibility (1/GPa) = 0.02293410
#
# Stress axis : x y z
#
# Youngs Moduli (GPa) = 122.68470 72.68842 75.12482
#
# Poissons Ratio (x) = 0.14242 0.13000
# Poissons Ratio (y) = 0.24038 0.18427
# Poissons Ratio (z) = 0.21230 0.17830
#
# Static dielectric constant tensor:
#      x y z
#    x 2.053830 0.015480 -0.011560 
#    y 0.015480 2.059110 -0.032570 
#    z -0.011560 -0.032570 2.061730 
# 
# From -- ./inp_files/547749.got.cif
#   From: 2010.05.17/outbox.cif.g08.bks.cpg/sg2_274_cif.got.tgz:547749.got - 2010.06.03 11:33:40.
