data_PCOD9027212
_publ_section_title
;
Structure prediction by ZEFSAII (Michael W. Deem and Ramdas Pophale) SiO2 
 PCOD9027212
Probable space group: P -1
;
_chemical_formula_sum "Si O2"
_cell_formula_units_Z 16
_cell_length_a 16.647427
_cell_length_b 6.767620
_cell_length_c 10.114101
_cell_angle_alpha 52.452315
_cell_angle_beta 116.294942
_cell_angle_gamma 115.088479
_cell_volume 790.707071
_symmetry_space_group_name_H-M "P -1"
_symmetry_group_IT_number 2
_symmetry_cell_setting 'triclinic'
loop_
_space_group_symop_operation_xyz
x,y,z
-x,-y,-z
loop_
_atom_site_type_symbol
_atom_site_label
_atom_site_fract_x
_atom_site_fract_y
_atom_site_fract_z
Si Si1 0.633828 0.035465 0.485980
Si Si2 0.734846 0.930996 0.348572
Si Si3 0.559954 0.796757 0.084843
Si Si4 0.452803 0.216683 0.224473
Si Si5 0.144196 0.502095 0.798773
Si Si6 0.788285 0.515039 0.412528
Si Si7 0.948396 0.250276 0.714040
Si Si8 0.026921 0.270286 0.034953
O O1 0.688112 0.911824 0.466061
O O2 0.532791 0.054575 0.355454
O O3 0.689742 0.325376 0.423618
O O4 0.621596 0.893836 0.674241
O O5 0.795478 0.214962 0.260320
O O6 0.651612 0.865591 0.210173
O O7 0.796104 0.730304 0.440193
O O8 0.499396 0.509430 0.175343
O O9 0.582543 0.805967 0.941470
O O10 0.500000 0.000000 0.000000
O O11 0.192578 0.378079 0.766391
O O12 0.039896 0.474162 0.679546
O O13 0.120697 0.371487 0.977440
O O14 0.859966 0.337587 0.565497
O O15 0.964849 0.983610 0.776677
O O16 0.948549 0.195551 0.894805
O O17 0.000000 0.500000 0.000000
#
# Coordination Sequence:
#
# PCOD9027212 Si02
#       8
#     2   2   2   2   2   2   2   2
#     4  10  22  42  59  92 117 163 201 258 304 368
#     4  11  23  38  64  91 126 157 216 249 304 369
#     4  11  22  41  63  92 116 162 202 251 309 378
#     4  10  22  41  67  83 125 156 204 255 317 360
#     4   9  22  38  62  88 120 164 200 253 299 360
#     4  11  22  40  61  87 126 158 206 256 297 358
#     4   9  21  40  60  87 119 164 200 245 306 354
#     4   9  20  40  62  85 118 158 205 251 296 362
#
# _framework density 20.235053000000001
#
# number of rings (size 3 to 8) (size 9 to 14) (size 15 to 20)
#    0.750    1.250    2.500    0.375    1.750    4.000 
#    6.750    0.000    0.000    0.000    0.000    0.000 
#    0.000    0.000    0.000    0.000    0.000    0.000 
#
# Total GULP energy -89156.355859 kJ/mol
# GULP energy per Si atom -5572.272241 kJ/mol
# Density = 2.018900 g / cm^3
# Si number density = 20.235053 Si / 1000 Ang^3
#
#
#
# Elastic Constant Matrix: (Units=GPa)
#
#
# Indices 1 2 3 4 5 6 
#
# 1 75.3795 47.4878 35.7415 -5.8630 -21.3326 -1.4182
# 2 47.4878 108.7061 23.2756 7.0477 -17.9717 -23.2031
# 3 35.7415 23.2756 52.5923 -2.0468 -24.8745 -0.6785
# 4 -5.8630 7.0477 -2.0468 16.0573 -0.6270 7.2313
# 5 -21.3326 -17.9717 -24.8745 -0.6270 39.7971 -2.4108
# 6 -1.4182 -23.2031 -0.6785 7.2313 -2.4108 37.1343
#
#
#
# Elastic Compliance Matrix: (Units=1/GPa)
#
#
# Indices 1 2 3 4 5 6 
#
# 1 0.029939 -0.013964 -0.012898 0.020771 0.001295 -0.011778
# 2 -0.013964 0.020485 0.001368 -0.021284 0.003294 0.016650
# 3 -0.012898 0.001368 0.034395 -0.001339 0.015318 0.002246
# 4 0.020771 -0.021284 -0.001339 0.092818 0.000295 -0.030586
# 5 0.001295 0.003294 0.015318 0.000295 0.037175 0.004744
# 6 -0.011778 0.016650 0.002246 -0.030586 0.004744 0.043188
#
#
# Mechanical properties :
#
#
# Convention : Reuss Voigt Hill
#
# Bulk Modulus (GPa) = 29.55720 49.96529 39.76125
# Shear Modulus (GPa) = 15.61213 27.27594 21.44403
#
# Velocity S-wave (km/s) = 2.78067 3.67543 3.25891
# Velocity P-wave (km/s) = 4.99481 6.53894 5.81833
#
# Compressibility (1/GPa) = 0.03383270
#
# Stress axis : x y z
#
# Youngs Moduli (GPa) = 33.40122 48.81733 29.07363
#
# Poissons Ratio (x) = 0.68167 0.37498
# Poissons Ratio (y) = 0.46641 -0.03978
# Poissons Ratio (z) = 0.43080 -0.06680
#
# Static dielectric constant tensor:
#      x y z
#    x 1.735180 -0.021020 -0.012670 
#    y -0.021020 1.739480 -0.009710 
#    z -0.012670 -0.009710 1.773780 
# 
# From -- ./inp_files/322345.got.cif
#   From: 2010.05.17/outbox.cif.g08.bks.cpg/sg2_162_cif.got.tgz:322345.got - 2010.06.03 11:33:40.
