data_PCOD9027661
_publ_section_title
;
Structure prediction by ZEFSAII (Michael W. Deem and Ramdas Pophale) SiO2 
 PCOD9027661
Probable space group: P -1
;
_chemical_formula_sum "Si O2"
_cell_formula_units_Z 12
_cell_length_a 12.026760
_cell_length_b 8.197047
_cell_length_c 11.359428
_cell_angle_alpha 121.249485
_cell_angle_beta 136.745265
_cell_angle_gamma 35.916160
_cell_volume 443.048863
_symmetry_space_group_name_H-M "P -1"
_symmetry_group_IT_number 2
_symmetry_cell_setting 'triclinic'
loop_
_space_group_symop_operation_xyz
x,y,z
-x,-y,-z
loop_
_atom_site_type_symbol
_atom_site_label
_atom_site_fract_x
_atom_site_fract_y
_atom_site_fract_z
Si Si1 0.794765 0.149866 0.802272
Si Si2 0.952559 0.027739 0.283691
Si Si3 0.849634 0.657402 0.629872
Si Si4 0.568546 0.638922 0.226695
Si Si5 0.743791 0.966162 0.301961
Si Si6 0.731111 0.753096 0.840324
O O1 0.803089 0.920983 0.685540
O O2 0.864058 0.204149 0.760065
O O3 0.548367 0.390018 0.770884
O O4 0.000000 0.000000 0.000000
O O5 0.750578 0.343055 0.189315
O O6 0.112101 0.021894 0.491758
O O7 0.814364 0.992095 0.240271
O O8 0.720431 0.662784 0.425949
O O9 0.745017 0.684702 0.686608
O O10 0.125760 0.353806 0.719727
O O11 0.363384 0.943280 0.121915
O O12 0.471905 0.175545 0.212132
O O13 0.000000 0.500000 0.000000
#
# Coordination Sequence:
#
# PCOD9027661 Si02
#       6
#     2   2   2   2   2   2
#     4  11  23  39  63  97 134 171 215 271 332 393
#     4  10  22  41  68  99 130 170 222 278 330 388
#     4  10  22  43  70  94 126 178 229 270 320 394
#     4  10  22  43  70  94 126 178 229 270 320 394
#     4  10  22  41  68  99 130 170 222 278 330 388
#     4  11  23  39  63  97 134 171 215 271 332 393
#
# _framework density 27.085045999999998
#
# number of rings (size 3 to 8) (size 9 to 14) (size 15 to 20)
#    0.000    1.667    0.000    5.000    0.000   10.667 
#    0.000    5.000    0.000    0.000    0.000    0.000 
#    0.000    0.000    0.000    0.000    0.000    0.000 
#
# Total GULP energy -67302.442797 kJ/mol
# GULP energy per Si atom -5608.536900 kJ/mol
# Density = 2.702340 g / cm^3
# Si number density = 27.085046 Si / 1000 Ang^3
#
#
#
# Elastic Constant Matrix: (Units=GPa)
#
#
# Indices 1 2 3 4 5 6 
#
# 1 211.6599 46.9134 26.4288 -12.0052 14.1119 -25.0090
# 2 46.9134 147.5919 31.9269 -25.9787 15.6834 -22.7501
# 3 26.4288 31.9269 75.0420 -7.8536 5.5495 0.8544
# 4 -12.0052 -25.9787 -7.8536 44.2396 -8.2465 3.2730
# 5 14.1119 15.6834 5.5495 -8.2465 46.5535 -4.7899
# 6 -25.0090 -22.7501 0.8544 3.2730 -4.7899 47.9107
#
#
#
# Elastic Compliance Matrix: (Units=1/GPa)
#
#
# Indices 1 2 3 4 5 6 
#
# 1 0.005462 -0.000904 -0.001464 0.000356 -0.000873 0.002336
# 2 -0.000904 0.009127 -0.003080 0.004056 -0.001355 0.003505
# 3 -0.001464 -0.003080 0.015282 0.000605 -0.000500 -0.002591
# 4 0.000356 0.004056 0.000605 0.025715 0.003076 0.000652
# 5 -0.000873 -0.001355 -0.000500 0.003076 0.022908 0.000990
# 6 0.002336 0.003505 -0.002591 0.000652 0.000990 0.023857
#
#
# Mechanical properties :
#
#
# Convention : Reuss Voigt Hill
#
# Bulk Modulus (GPa) = 52.70056 71.64799 62.17427
# Shear Modulus (GPa) = 41.81606 49.67576 45.74591
#
# Velocity S-wave (km/s) = 3.93349 4.28725 4.11417
# Velocity P-wave (km/s) = 6.33478 7.14267 6.75082
#
# Compressibility (1/GPa) = 0.01897513
#
# Stress axis : x y z
#
# Youngs Moduli (GPa) = 183.07694 109.56425 65.43797
#
# Poissons Ratio (x) = 0.09904 0.09579
# Poissons Ratio (y) = 0.16549 0.20155
# Poissons Ratio (z) = 0.26801 0.33746
#
# Static dielectric constant tensor:
#      x y z
#    x 2.152700 0.065820 -0.003890 
#    y 0.065820 2.102040 -0.019200 
#    z -0.003890 -0.019200 2.088500 
# 
# From -- ./inp_files/181736.got.cif
#   From: 2010.05.17/outbox.cif.g08.bks.cpg/sg2_91_cif.got.tgz:181736.got - 2010.06.03 11:33:40.
