data_PCOD9027640
_publ_section_title
;
Structure prediction by ZEFSAII (Michael W. Deem and Ramdas Pophale) SiO2 
 PCOD9027640
Probable space group: P -1
;
_chemical_formula_sum "Si O2"
_cell_formula_units_Z 11
_cell_length_a 11.805007
_cell_length_b 7.244569
_cell_length_c 9.300083
_cell_angle_alpha 49.108135
_cell_angle_beta 128.295061
_cell_angle_gamma 132.284368
_cell_volume 421.344037
_symmetry_space_group_name_H-M "P -1"
_symmetry_group_IT_number 2
_symmetry_cell_setting 'triclinic'
loop_
_space_group_symop_operation_xyz
x,y,z
-x,-y,-z
loop_
_atom_site_type_symbol
_atom_site_label
_atom_site_fract_x
_atom_site_fract_y
_atom_site_fract_z
Si Si1 0.343329 0.829434 0.866205
Si Si2 0.390666 0.149791 0.466316
Si Si3 0.000000 0.500000 0.000000
Si Si4 0.749570 0.519853 0.609110
Si Si5 0.807648 0.810347 0.957443
Si Si6 0.857720 0.922904 0.254092
O O1 0.251437 0.504358 0.979100
O O2 0.373783 0.909210 0.683364
O O3 0.225472 0.942944 0.777692
O O4 0.500000 0.000000 0.000000
O O5 0.580213 0.325120 0.496530
O O6 0.322770 0.326895 0.417931
O O7 0.286353 0.076687 0.277535
O O8 0.835414 0.363110 0.840670
O O9 0.992871 0.795318 0.820532
O O10 0.869504 0.703396 0.481949
O O11 0.766291 0.784282 0.107562
O O12 0.000000 0.000000 0.000000
#
# Coordination Sequence:
#
# PCOD9027640 Si02
#       6
#     2   2   1   2   2   2
#     4  11  24  45  71 100 137 182 229 283 347 411
#     4  10  22  43  67  96 135 178 228 284 341 408
#     4  12  22  40  66  98 136 180 226 278 342 406
#     4  10  22  41  68  98 133 180 230 281 342 412
#     4  12  26  44  68 103 141 179 231 289 342 408
#     4  11  24  41  68 100 136 182 230 281 343 412
#
# _framework density 26.106932
#
# number of rings (size 3 to 8) (size 9 to 14) (size 15 to 20)
#    0.000    1.091    0.000    8.182    0.000    6.545 
#    0.000    2.727    0.000    0.000    0.000    0.000 
#    0.000    0.000    0.000    0.000    0.000    0.000 
#
# Total GULP energy -61310.556789 kJ/mol
# GULP energy per Si atom -5573.686981 kJ/mol
# Density = 2.604751 g / cm^3
# Si number density = 26.106932 Si / 1000 Ang^3
#
#
#
# Elastic Constant Matrix: (Units=GPa)
#
#
# Indices 1 2 3 4 5 6 
#
# 1 62.7347 -5.1879 37.1414 26.5635 9.2553 18.5095
# 2 -5.1879 -350.1413 -6.0598 191.4610 69.6837 144.6987
# 3 37.1414 -6.0598 221.6937 46.3671 1.6616 37.4034
# 4 26.5635 191.4610 46.3671 -17.7880 -18.9415 -45.1786
# 5 9.2553 69.6837 1.6616 -18.9415 42.2273 1.2434
# 6 18.5095 144.6987 37.4034 -45.1786 1.2434 9.4562
#
#
#
# Elastic Compliance Matrix: (Units=1/GPa)
#
#
# Indices 1 2 3 4 5 6 
#
# 1 0.019023 -0.002774 -0.002346 -0.003325 -0.000954 -0.001270
# 2 -0.002774 0.002364 -0.001534 0.006125 -0.000623 0.004664
# 3 -0.002346 -0.001534 0.005597 -0.001678 0.002142 -0.002373
# 4 -0.003325 0.006125 -0.001678 0.015727 -0.002106 -0.005164
# 5 -0.000954 -0.000623 0.002142 -0.002106 0.024193 -0.010316
# 6 -0.001270 0.004664 -0.002373 -0.005164 -0.010316 0.022941
#
#
# Mechanical properties :
#
#
# Convention : Reuss Voigt Hill
#
# Bulk Modulus (GPa) = 73.11798 -1.54728 35.78535
# Shear Modulus (GPa) = 46.41976 0.67201 23.54589
#
# Velocity S-wave (km/s) = 4.22128 0.50790 3.00643
# Velocity P-wave (km/s) = 7.19909 0.50000 5.07823
#
# Compressibility (1/GPa) = 0.01367653
#
# Stress axis : x y z
#
# Youngs Moduli (GPa) = 52.56815 422.96173 178.66467
#
# Poissons Ratio (x) = 1.17329 0.41915
# Poissons Ratio (y) = 0.14582 0.27405
# Poissons Ratio (z) = 0.12333 0.64878
#
# Static dielectric constant tensor:
#      x y z
#    x 2.583910 0.019360 -0.490190 
#    y 0.019360 2.157800 0.075970 
#    z -0.490190 0.075970 2.306830 
# 
# From -- ./inp_files/294357.got.cif
#   From: 2010.05.17/outbox.cif.g08.bks.cpg/sg2_148_cif.got.tgz:294357.got - 2010.06.03 11:33:40.
