data_PCOD9027038
_publ_section_title
;
Structure prediction by ZEFSAII (Michael W. Deem and Ramdas Pophale) SiO2 
 PCOD9027038
Probable space group: P -1
;
_chemical_formula_sum "Si O2"
_cell_formula_units_Z 14
_cell_length_a 10.318771
_cell_length_b 11.159624
_cell_length_c 12.162308
_cell_angle_alpha 131.754424
_cell_angle_beta 52.439889
_cell_angle_gamma 144.239076
_cell_volume 602.846786
_symmetry_space_group_name_H-M "P -1"
_symmetry_group_IT_number 2
_symmetry_cell_setting 'triclinic'
loop_
_space_group_symop_operation_xyz
x,y,z
-x,-y,-z
loop_
_atom_site_type_symbol
_atom_site_label
_atom_site_fract_x
_atom_site_fract_y
_atom_site_fract_z
Si Si1 0.659088 0.133465 0.223715
Si Si2 0.165240 0.910857 0.408630
Si Si3 0.429153 0.398485 0.597999
Si Si4 0.247824 0.147825 0.919390
Si Si5 0.969808 0.474027 0.129575
Si Si6 0.100311 0.452807 0.512127
Si Si7 0.349906 0.480834 0.912827
O O1 0.849744 0.386803 0.319061
O O2 0.741965 0.209357 0.102995
O O3 0.411803 0.023390 0.309733
O O4 0.693985 0.998744 0.193147
O O5 0.007812 0.687863 0.279235
O O6 0.080693 0.796335 0.502780
O O7 0.216599 0.135862 0.529471
O O8 0.500000 0.500000 0.500000
O O9 0.652760 0.461833 0.573974
O O10 0.374748 0.494884 0.777150
O O11 0.270450 0.252414 0.856048
O O12 0.412067 0.336459 0.039695
O O13 0.000000 0.000000 0.000000
O O14 0.184724 0.502416 0.064363
O O15 0.000000 0.500000 0.000000
O O16 0.000000 0.500000 0.500000
#
# Coordination Sequence:
#
# PCOD9027038 Si02
#       7
#     2   2   2   2   2   2   2
#     4  10  22  41  66  95 130 172 223 279 339 402
#     4  10  24  46  66  93 138 179 222 285 331 404
#     4  11  28  47  66 100 144 185 228 277 351 416
#     4  11  23  42  67 101 136 170 224 288 350 391
#     4  11  24  43  68  99 131 178 230 272 336 414
#     4  10  25  42  69  99 130 180 234 274 335 415
#     4  11  26  41  70 102 137 173 226 288 337 409
#
# _framework density 23.223148999999999
#
# number of rings (size 3 to 8) (size 9 to 14) (size 15 to 20)
#    0.000    1.429    2.857    0.000   12.000    3.429 
#    0.000    0.000    0.000    0.000    0.000    0.000 
#    0.000    0.000    0.000    0.000    0.000    0.000 
#
# Total GULP energy -77937.179748 kJ/mol
# GULP energy per Si atom -5566.941411 kJ/mol
# Density = 2.317029 g / cm^3
# Si number density = 23.223149 Si / 1000 Ang^3
#
#
#
# Elastic Constant Matrix: (Units=GPa)
#
#
# Indices 1 2 3 4 5 6 
#
# 1 66.1200 24.8141 0.5982 -0.0952 -2.6716 11.4082
# 2 24.8141 144.2134 11.2533 -2.7547 9.3509 -7.8622
# 3 0.5982 11.2533 55.3797 3.3101 -20.6144 4.1339
# 4 -0.0952 -2.7547 3.3101 32.7894 -0.9533 -13.8649
# 5 -2.6716 9.3509 -20.6144 -0.9533 23.5318 1.8842
# 6 11.4082 -7.8622 4.1339 -13.8649 1.8842 41.7973
#
#
#
# Elastic Compliance Matrix: (Units=1/GPa)
#
#
# Indices 1 2 3 4 5 6 
#
# 1 0.018578 -0.004656 0.004822 -0.004017 0.008674 -0.008147
# 2 -0.004656 0.009173 -0.006002 0.003238 -0.009709 0.005102
# 3 0.004822 -0.006002 0.032029 -0.006725 0.031460 -0.009262
# 4 -0.004017 0.003238 -0.006725 0.037647 -0.007325 0.015189
# 5 0.008674 -0.009709 0.031460 -0.007325 0.075654 -0.013146
# 6 -0.008147 0.005102 -0.009262 0.015189 -0.013146 0.033655
#
#
# Mechanical properties :
#
#
# Convention : Reuss Voigt Hill
#
# Bulk Modulus (GPa) = 20.78672 37.67159 29.22915
# Shear Modulus (GPa) = 21.32705 34.89352 28.11028
#
# Velocity S-wave (km/s) = 3.03372 3.88046 3.48292
# Velocity P-wave (km/s) = 4.60886 6.02777 5.36543
#
# Compressibility (1/GPa) = 0.04810765
#
# Stress axis : x y z
#
# Youngs Moduli (GPa) = 53.82654 109.01224 31.22212
#
# Poissons Ratio (x) = 0.50759 -0.15056
# Poissons Ratio (y) = 0.25063 0.18740
# Poissons Ratio (z) = -0.25957 0.65432
#
# Static dielectric constant tensor:
#      x y z
#    x 1.939160 0.042900 -0.103510 
#    y 0.042900 1.635290 0.307040 
#    z -0.103510 0.307040 1.509850 
# 
# From -- ./inp_files/66021.got.cif
#   From: 2010.05.17/outbox.cif.g08.bks.cpg/sg2_34_cif.got.tgz:66021.got - 2010.06.03 11:33:40.
