data_PCOD9027667
_publ_section_title
;
Structure prediction by ZEFSAII (Michael W. Deem and Ramdas Pophale) SiO2 
 PCOD9027667
Probable space group: P -1
;
_chemical_formula_sum "Si O2"
_cell_formula_units_Z 16
_cell_length_a 14.321522
_cell_length_b 9.383358
_cell_length_c 22.701713
_cell_angle_alpha 50.635621
_cell_angle_beta 160.303592
_cell_angle_gamma 118.358705
_cell_volume 702.182057
_symmetry_space_group_name_H-M "P -1"
_symmetry_group_IT_number 2
_symmetry_cell_setting 'triclinic'
loop_
_space_group_symop_operation_xyz
x,y,z
-x,-y,-z
loop_
_atom_site_type_symbol
_atom_site_label
_atom_site_fract_x
_atom_site_fract_y
_atom_site_fract_z
Si Si1 0.318957 0.896718 0.297819
Si Si2 0.149903 0.202825 0.741163
Si Si3 0.949705 0.003267 0.165624
Si Si4 0.029042 0.318988 0.202423
Si Si5 0.757868 0.911206 0.296274
Si Si6 0.782083 0.335804 0.171497
Si Si7 0.843599 0.611214 0.525128
Si Si8 0.796489 0.323823 0.823990
O O1 0.167722 0.881242 0.273692
O O2 0.666330 0.844250 0.537075
O O3 0.287674 0.748898 0.268881
O O4 0.100763 0.128637 0.083087
O O5 0.070460 0.247794 0.613957
O O6 0.088017 0.402150 0.691174
O O7 0.949311 0.118373 0.680663
O O8 0.500000 0.000000 0.000000
O O9 0.949491 0.217579 0.125724
O O10 0.609473 0.028330 0.941905
O O11 0.115028 0.494881 0.185269
O O12 0.763908 0.383943 0.078565
O O13 0.850468 0.799157 0.443156
O O14 0.808411 0.110340 0.260476
O O15 0.062091 0.366119 0.358833
O O16 0.500000 0.500000 0.000000
O O17 0.500586 0.624007 0.323159
#
# Coordination Sequence:
#
# PCOD9027667 Si02
#       8
#     2   2   2   2   2   2   2   2
#     4  11  24  47  72 103 141 188 233 298 348 419
#     4  10  22  41  68  99 135 185 228 279 354 422
#     4  11  23  44  71  94 144 186 232 285 354 415
#     4  12  26  45  69 106 141 188 235 290 353 420
#     4  11  24  47  69 101 144 184 234 290 351 428
#     4  12  27  44  71 105 142 185 239 285 358 428
#     4  12  24  46  73 104 138 186 234 300 357 411
#     4  11  26  46  75 105 142 180 242 293 356 416
#
# _framework density 22.786111999999999
#
# number of rings (size 3 to 8) (size 9 to 14) (size 15 to 20)
#    0.000    0.750    3.750    3.750    5.250    0.500 
#    4.500    0.000    0.000    0.000    0.000    0.000 
#    0.000    0.000    0.000    0.000    0.000    0.000 
#
# Total GULP energy -89353.654635 kJ/mol
# GULP energy per Si atom -5584.603415 kJ/mol
# Density = 2.273425 g / cm^3
# Si number density = 22.786112 Si / 1000 Ang^3
#
#
#
# Elastic Constant Matrix: (Units=GPa)
#
#
# Indices 1 2 3 4 5 6 
#
# 1 115.6322 4.9921 1.7676 -10.2484 26.9313 -1.4851
# 2 4.9921 105.4645 20.5515 -5.3576 15.4287 15.4983
# 3 1.7676 20.5515 40.4907 -0.6621 11.9127 5.9727
# 4 -10.2484 -5.3576 -0.6621 22.3808 -1.5031 -0.5443
# 5 26.9313 15.4287 11.9127 -1.5031 26.0474 -4.0094
# 6 -1.4851 15.4983 5.9727 -0.5443 -4.0094 42.5405
#
#
#
# Elastic Compliance Matrix: (Units=1/GPa)
#
#
# Indices 1 2 3 4 5 6 
#
# 1 0.012593 0.001539 0.003649 0.005144 -0.015618 -0.002039
# 2 0.001539 0.011975 -0.003133 0.002844 -0.007790 -0.004567
# 3 0.003649 -0.003133 0.031917 0.000591 -0.017223 -0.004828
# 4 0.005144 0.002844 0.000591 0.047403 -0.004657 -0.000772
# 5 -0.015618 -0.007790 -0.017223 -0.004657 0.068471 0.011105
# 6 -0.002039 -0.004567 -0.004828 -0.000772 0.011105 0.026814
#
#
# Mechanical properties :
#
#
# Convention : Reuss Voigt Hill
#
# Bulk Modulus (GPa) = 16.50322 35.13442 25.81882
# Shear Modulus (GPa) = 23.22748 33.81218 28.51983
#
# Velocity S-wave (km/s) = 3.19622 3.85631 3.54168
# Velocity P-wave (km/s) = 4.56941 5.93977 5.29908
#
# Compressibility (1/GPa) = 0.06059424
#
# Stress axis : x y z
#
# Youngs Moduli (GPa) = 79.40854 83.50914 31.33119
#
# Poissons Ratio (x) = -0.12849 -0.11433
# Poissons Ratio (y) = -0.12218 0.09816
# Poissons Ratio (z) = -0.28977 0.26164
#
# Static dielectric constant tensor:
#      x y z
#    x 1.897270 0.010560 0.005630 
#    y 0.010560 1.855290 -0.000840 
#    z 0.005630 -0.000840 1.965840 
# 
# From -- ./inp_files/611759.got.cif
#   From: 2010.05.17/outbox.cif.g08.bks.cpg/sg2_306_cif.got.tgz:611759.got - 2010.06.03 11:33:40.
