data_PCOD9027576
_publ_section_title
;
Structure prediction by ZEFSAII (Michael W. Deem and Ramdas Pophale) SiO2 
 PCOD9027576
Probable space group: P -1
;
_chemical_formula_sum "Si O2"
_cell_formula_units_Z 16
_cell_length_a 9.562718
_cell_length_b 11.812888
_cell_length_c 12.682745
_cell_angle_alpha 87.844957
_cell_angle_beta 57.649313
_cell_angle_gamma 48.720706
_cell_volume 789.356177
_symmetry_space_group_name_H-M "P -1"
_symmetry_group_IT_number 2
_symmetry_cell_setting 'triclinic'
loop_
_space_group_symop_operation_xyz
x,y,z
-x,-y,-z
loop_
_atom_site_type_symbol
_atom_site_label
_atom_site_fract_x
_atom_site_fract_y
_atom_site_fract_z
Si Si1 0.798229 0.845959 0.369217
Si Si2 0.716299 0.261730 0.174621
Si Si3 0.021633 0.995955 0.737350
Si Si4 0.109264 0.569153 0.441973
Si Si5 0.561377 0.334613 0.004033
Si Si6 0.731368 0.508036 0.186932
Si Si7 0.285136 0.668469 0.504299
Si Si8 0.058753 0.541871 0.128159
O O1 0.953795 0.705540 0.404752
O O2 0.885733 0.735336 0.231482
O O3 0.500000 0.000000 0.500000
O O4 0.870590 0.938601 0.337469
O O5 0.862085 0.098955 0.193456
O O6 0.414026 0.407235 0.310410
O O7 0.815682 0.333882 0.166050
O O8 0.726083 0.248771 0.046025
O O9 0.122035 0.847567 0.623667
O O10 0.724004 0.178274 0.860582
O O11 0.102375 0.662865 0.537637
O O12 0.000000 0.500000 0.500000
O O13 0.500000 0.500000 0.000000
O O14 0.290853 0.414487 0.120672
O O15 0.444796 0.645418 0.344487
O O16 0.889126 0.517921 0.189194
O O17 0.797444 0.507856 0.039257
O O18 0.500000 0.500000 0.500000
#
# Coordination Sequence:
#
# PCOD9027576 Si02
#       8
#     2   2   2   2   2   2   2   2
#     4  12  25  42  67 104 136 175 232 289 342 409
#     4  11  21  42  69  97 130 181 226 275 343 416
#     4  12  24  41  69 100 135 177 231 279 345 409
#     4  11  24  43  72 100 136 179 228 279 350 410
#     4  12  22  42  68  98 133 177 228 280 339 409
#     4  10  22  41  68  95 132 179 226 268 350 404
#     4  11  24  44  72  99 138 182 228 291 344 407
#     4  11  23  42  68  95 137 180 221 284 338 405
#
# _framework density 20.269684000000002
#
# number of rings (size 3 to 8) (size 9 to 14) (size 15 to 20)
#    0.000    0.750    6.250    1.875    3.500    0.500 
#    4.500    0.625    0.000    0.000    0.000    0.000 
#    0.000    0.000    0.000    0.000    0.000    0.000 
#
# Total GULP energy -89234.385790 kJ/mol
# GULP energy per Si atom -5577.149112 kJ/mol
# Density = 2.022355 g / cm^3
# Si number density = 20.269684 Si / 1000 Ang^3
#
#
#
# Elastic Constant Matrix: (Units=GPa)
#
#
# Indices 1 2 3 4 5 6 
#
# 1 155.6349 63.5745 49.0293 7.8593 0.3770 32.3560
# 2 63.5745 137.7228 53.8409 5.9957 0.4185 17.1309
# 3 49.0293 53.8409 102.7391 28.4754 9.8900 14.6844
# 4 7.8593 5.9957 28.4754 47.1228 3.3395 1.1286
# 5 0.3770 0.4185 9.8900 3.3395 38.0870 1.3918
# 6 32.3560 17.1309 14.6844 1.1286 1.3918 36.4209
#
#
#
# Elastic Compliance Matrix: (Units=1/GPa)
#
#
# Indices 1 2 3 4 5 6 
#
# 1 0.009587 -0.002715 -0.002407 0.000298 0.000764 -0.006308
# 2 -0.002715 0.010325 -0.004637 0.001888 0.000976 -0.000671
# 3 -0.002407 -0.004637 0.016269 -0.008559 -0.003332 -0.001848
# 4 0.000298 0.001888 -0.008559 0.026078 -0.000142 0.001496
# 5 0.000764 0.000976 -0.003332 -0.000142 0.027145 -0.000828
# 6 -0.006308 -0.000671 -0.001848 0.001496 -0.000828 0.034107
#
#
# Mechanical properties :
#
#
# Convention : Reuss Voigt Hill
#
# Bulk Modulus (GPa) = 60.00904 80.99845 70.50375
# Shear Modulus (GPa) = 33.65126 39.63628 36.64377
#
# Velocity S-wave (km/s) = 4.07895 4.42684 4.25645
# Velocity P-wave (km/s) = 7.20093 8.13489 7.68211
#
# Compressibility (1/GPa) = 0.01666415
#
# Stress axis : x y z
#
# Youngs Moduli (GPa) = 104.30589 96.84989 61.46709
#
# Poissons Ratio (x) = 0.26298 0.14793
# Poissons Ratio (y) = 0.28322 0.28499
# Poissons Ratio (z) = 0.25104 0.44905
#
# Static dielectric constant tensor:
#      x y z
#    x 1.724320 -0.002910 0.081970 
#    y -0.002910 1.675020 -0.025270 
#    z 0.081970 -0.025270 1.800390 
# 
# From -- ./inp_files/392581.got.cif
#   From: 2010.05.17/outbox.cif.g08.bks.cpg/sg2_197_cif.got.tgz:392581.got - 2010.06.03 11:33:40.
