data_PCOD9027540
_publ_section_title
;
Structure prediction by ZEFSAII (Michael W. Deem and Ramdas Pophale) SiO2 
 PCOD9027540
Probable space group: P -1
;
_chemical_formula_sum "Si O2"
_cell_formula_units_Z 14
_cell_length_a 14.970195
_cell_length_b 11.495811
_cell_length_c 4.923678
_cell_angle_alpha 118.133610
_cell_angle_beta 83.545423
_cell_angle_gamma 129.908759
_cell_volume 550.071969
_symmetry_space_group_name_H-M "P -1"
_symmetry_group_IT_number 2
_symmetry_cell_setting 'triclinic'
loop_
_space_group_symop_operation_xyz
x,y,z
-x,-y,-z
loop_
_atom_site_type_symbol
_atom_site_label
_atom_site_fract_x
_atom_site_fract_y
_atom_site_fract_z
Si Si1 0.486278 0.666875 0.447365
Si Si2 0.382668 0.841716 0.533885
Si Si3 0.064291 0.827438 0.252995
Si Si4 0.903237 0.632536 0.589392
Si Si5 0.630410 0.728389 0.988752
Si Si6 0.762029 0.237257 0.024587
Si Si7 0.865380 0.876260 0.780821
O O1 0.408055 0.719730 0.494671
O O2 0.537649 0.693966 0.758708
O O3 0.407421 0.461535 0.165314
O O4 0.601895 0.779520 0.327965
O O5 0.347562 0.892023 0.866420
O O6 0.500000 0.000000 0.500000
O O7 0.279984 0.753828 0.244542
O O8 0.159233 0.814018 0.102993
O O9 0.946906 0.695762 0.951635
O O10 0.021408 0.753471 0.487750
O O11 0.115176 0.023881 0.393054
O O12 0.838944 0.430938 0.345650
O O13 0.827352 0.685527 0.571304
O O14 0.764781 0.856013 0.962349
O O15 0.000000 0.000000 0.000000
#
# Coordination Sequence:
#
# PCOD9027540 Si02
#       7
#     2   2   2   2   2   2   2
#     4  10  23  42  65  95 126 173 223 268 329 385
#     4  12  27  43  67  98 136 169 230 277 337 395
#     4  11  24  41  67 100 134 173 222 268 334 396
#     4  11  23  44  66  97 135 173 226 268 323 411
#     4  10  22  41  68  93 130 171 217 273 325 402
#     4  12  25  44  70  95 132 185 217 276 336 393
#     4  10  24  41  67 100 137 170 219 277 344 391
#
# _framework density 25.451215000000001
#
# number of rings (size 3 to 8) (size 9 to 14) (size 15 to 20)
#    0.000    1.143    0.000    5.143    4.000    8.000 
#    0.000    0.000    0.000    0.000    0.000    0.000 
#    0.000    0.000    0.000    0.000    0.000    0.000 
#
# Total GULP energy -78513.419407 kJ/mol
# GULP energy per Si atom -5608.101386 kJ/mol
# Density = 2.539329 g / cm^3
# Si number density = 25.451215 Si / 1000 Ang^3
#
#
#
# Elastic Constant Matrix: (Units=GPa)
#
#
# Indices 1 2 3 4 5 6 
#
# 1 120.3110 18.4148 12.3093 -2.1804 -17.9872 -9.7749
# 2 18.4148 89.0655 3.3146 -11.9389 -10.5934 8.6447
# 3 12.3093 3.3146 62.7398 -15.9402 1.6937 -9.3321
# 4 -2.1804 -11.9389 -15.9402 45.4857 2.8083 -11.5982
# 5 -17.9872 -10.5934 1.6937 2.8083 40.5943 -6.5235
# 6 -9.7749 8.6447 -9.3321 -11.5982 -6.5235 35.3963
#
#
#
# Elastic Compliance Matrix: (Units=1/GPa)
#
#
# Indices 1 2 3 4 5 6 
#
# 1 0.009682 -0.001749 -0.001340 0.000186 0.004460 0.003630
# 2 -0.001749 0.012374 -0.000110 0.002397 0.001908 -0.002397
# 3 -0.001340 -0.000110 0.019569 0.008735 -0.000834 0.007524
# 4 0.000186 0.002397 0.008735 0.028515 0.000161 0.011142
# 5 0.004460 0.001908 -0.000834 0.000161 0.028059 0.005770
# 6 0.003630 -0.002397 0.007524 0.011142 0.005770 0.036537
#
#
# Mechanical properties :
#
#
# Convention : Reuss Voigt Hill
#
# Bulk Modulus (GPa) = 28.38786 37.79931 33.09359
# Shear Modulus (GPa) = 32.70627 40.16709 36.43668
#
# Velocity S-wave (km/s) = 3.58866 3.97697 3.78779
# Velocity P-wave (km/s) = 5.32441 5.99769 5.67105
#
# Compressibility (1/GPa) = 0.03522632
#
# Stress axis : x y z
#
# Youngs Moduli (GPa) = 103.28740 80.81335 51.10250
#
# Poissons Ratio (x) = 0.14133 0.06850
# Poissons Ratio (y) = 0.18064 0.00561
# Poissons Ratio (z) = 0.13845 0.00887
#
# Static dielectric constant tensor:
#      x y z
#    x 1.966460 0.039340 -0.005760 
#    y 0.039340 2.047980 0.044010 
#    z -0.005760 0.044010 1.987660 
# 
# From -- ./inp_files/94088.got.cif
#   From: 2010.05.17/outbox.cif.g08.bks.cpg/sg2_48_cif.got.tgz:94088.got - 2010.06.03 11:33:40.
