data_PCOD9027024
_publ_section_title
;
Structure prediction by ZEFSAII (Michael W. Deem and Ramdas Pophale) SiO2 
 PCOD9027024
Probable space group: P -1
;
_chemical_formula_sum "Si O2"
_cell_formula_units_Z 16
_cell_length_a 15.115488
_cell_length_b 30.683644
_cell_length_c 8.398973
_cell_angle_alpha 39.399652
_cell_angle_beta 49.963799
_cell_angle_gamma 19.644129
_cell_volume 763.268355
_symmetry_space_group_name_H-M "P -1"
_symmetry_group_IT_number 2
_symmetry_cell_setting 'triclinic'
loop_
_space_group_symop_operation_xyz
x,y,z
-x,-y,-z
loop_
_atom_site_type_symbol
_atom_site_label
_atom_site_fract_x
_atom_site_fract_y
_atom_site_fract_z
Si Si1 0.409625 0.302598 0.494016
Si Si2 0.736490 0.135946 0.296758
Si Si3 0.260845 0.186664 0.301779
Si Si4 0.166366 0.175328 0.943711
Si Si5 0.282003 0.984746 0.549865
Si Si6 0.158018 0.682292 0.401371
Si Si7 0.951350 0.936810 0.071678
Si Si8 0.015442 0.389295 0.701082
O O1 0.485643 0.293900 0.260159
O O2 0.170377 0.376366 0.520290
O O3 0.299529 0.418723 0.418090
O O4 0.668664 0.120869 0.792402
O O5 0.698155 0.079406 0.437571
O O6 0.000000 0.000000 0.500000
O O7 0.798709 0.147952 0.036656
O O8 0.415149 0.155163 0.333153
O O9 0.984898 0.300396 0.376926
O O10 0.500000 0.000000 0.500000
O O11 0.173501 0.273682 0.999501
O O12 0.052012 0.311241 0.748220
O O13 0.983526 0.248600 0.801805
O O14 0.500000 0.000000 0.000000
O O15 0.144548 0.130270 0.234923
O O16 0.109482 0.042444 0.730681
O O17 0.500000 0.500000 0.500000
O O18 0.036597 0.817579 0.237380
#
# Coordination Sequence:
#
# PCOD9027024 Si02
#       8
#     2   2   2   2   2   2   2   2
#     4  10  22  41  66  94 140 182 228 285 350 420
#     4  10  23  42  65  95 135 181 230 281 346 422
#     4  12  21  44  71 102 139 185 238 294 357 429
#     4  12  22  42  75 104 137 184 240 289 360 430
#     4  12  22  41  77 100 125 189 249 285 343 436
#     4  12  27  45  70 108 147 180 232 310 365 418
#     4  11  22  46  67  95 140 190 231 283 368 425
#     4  11  22  40  66 104 137 175 236 300 339 411
#
# _framework density 20.962484
#
# number of rings (size 3 to 8) (size 9 to 14) (size 15 to 20)
#    0.000    0.750    5.000    3.375    1.750    0.000 
#    6.750    1.875    0.000    0.000    0.000    0.000 
#    0.000    0.000    0.000    0.000    0.000    0.000 
#
# Total GULP energy -89379.335126 kJ/mol
# GULP energy per Si atom -5586.208445 kJ/mol
# Density = 2.091477 g / cm^3
# Si number density = 20.962484 Si / 1000 Ang^3
#
#
#
# Elastic Constant Matrix: (Units=GPa)
#
#
# Indices 1 2 3 4 5 6 
#
# 1 68.3499 12.4777 11.0913 1.1622 8.3355 15.1826
# 2 12.4777 136.7265 39.5812 16.0655 -0.7946 8.7723
# 3 11.0913 39.5812 47.1953 5.3302 -5.3917 0.5394
# 4 1.1622 16.0655 5.3302 35.4588 -4.5094 -10.1051
# 5 8.3355 -0.7946 -5.3917 -4.5094 29.9551 -6.0935
# 6 15.1826 8.7723 0.5394 -10.1051 -6.0935 34.8847
#
#
#
# Elastic Compliance Matrix: (Units=1/GPa)
#
#
# Indices 1 2 3 4 5 6 
#
# 1 0.019185 0.001223 -0.005940 -0.004801 -0.009459 -0.011608
# 2 0.001223 0.010803 -0.009072 -0.005554 -0.003611 -0.005348
# 3 -0.005940 -0.009072 0.030809 0.002691 0.008724 0.006693
# 4 -0.004801 -0.005554 0.002691 0.036277 0.010340 0.015759
# 5 -0.009459 -0.003611 0.008724 0.010340 0.042148 0.015247
# 6 -0.011608 -0.005348 0.006693 0.015759 0.015247 0.042188
#
#
# Mechanical properties :
#
#
# Convention : Reuss Voigt Hill
#
# Bulk Modulus (GPa) = 30.10287 42.06359 36.08323
# Shear Modulus (GPa) = 22.72092 32.66781 27.69437
#
# Velocity S-wave (km/s) = 3.29581 3.95193 3.63869
# Velocity P-wave (km/s) = 5.37352 6.39792 5.90796
#
# Compressibility (1/GPa) = 0.03321943
#
# Stress axis : x y z
#
# Youngs Moduli (GPa) = 52.12387 92.56436 32.45807
#
# Poissons Ratio (x) = -0.11317 0.19280
# Poissons Ratio (y) = -0.06373 0.29445
# Poissons Ratio (z) = 0.30961 0.83972
#
# Static dielectric constant tensor:
#      x y z
#    x 1.723500 -0.036260 -0.022720 
#    y -0.036260 1.790490 -0.005840 
#    z -0.022720 -0.005840 1.770430 
# 
# From -- ./inp_files/321027.got.cif
#   From: 2010.05.17/outbox.cif.g08.bks.cpg/sg2_161_cif.got.tgz:321027.got - 2010.06.03 11:33:40.
