data_PCOD9027210
_publ_section_title
;
Structure prediction by ZEFSAII (Michael W. Deem and Ramdas Pophale) SiO2 
 PCOD9027210
Probable space group: P -1
;
_chemical_formula_sum "Si O2"
_cell_formula_units_Z 15
_cell_length_a 14.826000
_cell_length_b 11.374057
_cell_length_c 14.886176
_cell_angle_alpha 47.677777
_cell_angle_beta 146.266954
_cell_angle_gamma 155.179003
_cell_volume 548.249592
_symmetry_space_group_name_H-M "P -1"
_symmetry_group_IT_number 2
_symmetry_cell_setting 'triclinic'
loop_
_space_group_symop_operation_xyz
x,y,z
-x,-y,-z
loop_
_atom_site_type_symbol
_atom_site_label
_atom_site_fract_x
_atom_site_fract_y
_atom_site_fract_z
Si Si1 0.658596 0.600441 0.777854
Si Si2 0.635251 0.843736 0.965793
Si Si3 0.849770 0.266105 0.632915
Si Si4 0.203110 0.865402 0.537227
Si Si5 0.500000 0.500000 0.500000
Si Si6 0.686140 0.322615 0.050078
Si Si7 0.894628 0.510640 0.819592
Si Si8 0.369964 0.483200 0.764350
O O1 0.492071 0.514042 0.594633
O O2 0.584792 0.663179 0.763718
O O3 0.555392 0.341031 0.861933
O O4 0.017361 0.875972 0.919231
O O5 0.547318 0.891555 0.949636
O O6 0.450195 0.688818 0.797443
O O7 0.564185 0.620663 0.072787
O O8 0.850973 0.160558 0.600225
O O9 0.021256 0.569437 0.584806
O O10 0.031257 0.365767 0.819840
O O11 0.500000 0.000000 0.500000
O O12 0.981746 0.825028 0.406244
O O13 0.560524 0.160754 0.695643
O O14 0.782542 0.598000 0.695774
O O15 0.850089 0.315274 0.135460
O O16 0.000000 0.500000 0.000000
#
# Coordination Sequence:
#
# PCOD9027210 Si02
#       8
#     2   2   2   2   1   2   2   2
#     4  11  25  45  72 101 155 208 259 331 388 469
#     4  10  22  42  70 108 147 197 252 320 414 482
#     4  11  24  41  73 115 154 195 252 332 412 491
#     4  11  25  44  74 115 158 201 266 327 405 489
#     4  12  28  52  78 106 154 220 282 328 382 462
#     4  11  24  44  74 110 149 199 263 322 403 477
#     4  12  27  53  79 113 160 219 276 333 388 470
#     4  10  22  41  67 110 148 193 253 324 404 479
#
# _framework density 27.3598
#
# number of rings (size 3 to 8) (size 9 to 14) (size 15 to 20)
#    0.000    1.067    4.000    1.200    5.600    1.067 
#    2.400    3.333    0.000    0.000    0.000    0.000 
#    0.000    0.000    0.000    0.000    0.000    0.000 
#
# Total GULP energy -83653.234655 kJ/mol
# GULP energy per Si atom -5576.882310 kJ/mol
# Density = 2.729753 g / cm^3
# Si number density = 27.359800 Si / 1000 Ang^3
#
#
#
# Elastic Constant Matrix: (Units=GPa)
#
#
# Indices 1 2 3 4 5 6 
#
# 1 210.5793 46.1095 61.9687 3.6017 8.3976 28.5001
# 2 46.1095 82.3796 13.0446 -3.6066 -1.5668 15.2716
# 3 61.9687 13.0446 177.2579 -11.4644 -8.6392 15.2168
# 4 3.6017 -3.6066 -11.4644 30.8477 13.0253 10.8806
# 5 8.3976 -1.5668 -8.6392 13.0253 63.2035 3.0936
# 6 28.5001 15.2716 15.2168 10.8806 3.0936 43.4328
#
#
#
# Elastic Compliance Matrix: (Units=1/GPa)
#
#
# Indices 1 2 3 4 5 6 
#
# 1 0.006274 -0.002840 -0.001873 -0.000573 -0.000932 -0.002252
# 2 -0.002840 0.014627 0.000547 0.003688 0.000271 -0.004414
# 3 -0.001873 0.000547 0.006684 0.003275 0.000607 -0.002168
# 4 -0.000573 0.003688 0.003275 0.041439 -0.007341 -0.011926
# 5 -0.000932 0.000271 0.000607 -0.007341 0.017504 0.000896
# 6 -0.002252 -0.004414 -0.002168 -0.011926 0.000896 0.029737
#
#
# Mechanical properties :
#
#
# Convention : Reuss Voigt Hill
#
# Bulk Modulus (GPa) = 51.94440 79.16251 65.55345
# Shear Modulus (GPa) = 38.16346 50.76973 44.46660
#
# Velocity S-wave (km/s) = 3.73885 4.31238 4.03582
# Velocity P-wave (km/s) = 6.13723 7.33431 6.76231
#
# Compressibility (1/GPa) = 0.01925135
#
# Stress axis : x y z
#
# Youngs Moduli (GPa) = 159.39436 68.36705 149.61659
#
# Poissons Ratio (x) = 0.19418 0.28030
# Poissons Ratio (y) = 0.45272 -0.08187
# Poissons Ratio (z) = 0.29862 -0.03741
#
# Static dielectric constant tensor:
#      x y z
#    x 2.220780 -0.046040 0.051070 
#    y -0.046040 2.280320 0.088780 
#    z 0.051070 0.088780 2.142460 
# 
# From -- ./inp_files/532486.got.cif
#   From: 2010.05.17/outbox.cif.g08.bks.cpg/sg2_267_cif.got.tgz:532486.got - 2010.06.03 11:33:40.
