data_PCOD9027845
_publ_section_title
;
Structure prediction by ZEFSAII (Michael W. Deem and Ramdas Pophale) SiO2 
 PCOD9027845
Probable space group: P -1
;
_chemical_formula_sum "Si O2"
_cell_formula_units_Z 16
_cell_length_a 4.962785
_cell_length_b 13.044195
_cell_length_c 11.936382
_cell_angle_alpha 64.648417
_cell_angle_beta 72.323750
_cell_angle_gamma 74.661871
_cell_volume 657.157928
_symmetry_space_group_name_H-M "P -1"
_symmetry_group_IT_number 2
_symmetry_cell_setting 'triclinic'
loop_
_space_group_symop_operation_xyz
x,y,z
-x,-y,-z
loop_
_atom_site_type_symbol
_atom_site_label
_atom_site_fract_x
_atom_site_fract_y
_atom_site_fract_z
Si Si1 0.865893 0.187953 0.802884
Si Si2 0.127688 0.072821 0.617888
Si Si3 0.380560 0.386463 0.747868
Si Si4 0.569517 0.618428 0.711493
Si Si5 0.212423 0.381445 0.066192
Si Si6 0.824063 0.622877 0.447668
Si Si7 0.882402 0.298348 0.963723
Si Si8 0.279155 0.847474 0.563642
O O1 0.975234 0.083762 0.754374
O O2 0.023940 0.282495 0.675555
O O3 0.922293 0.186776 0.929752
O O4 0.544254 0.257895 0.810776
O O5 0.440110 0.111052 0.548723
O O6 0.930246 0.149587 0.516483
O O7 0.163017 0.945054 0.622675
O O8 0.478588 0.496709 0.743321
O O9 0.412362 0.394115 0.606866
O O10 0.056730 0.383317 0.830583
O O11 0.731525 0.618627 0.808274
O O12 0.747173 0.653405 0.568581
O O13 0.317951 0.726783 0.680707
O O14 0.451455 0.645804 0.004270
O O15 0.051301 0.290261 0.063429
O O16 0.000000 0.500000 0.000000
O O17 0.000000 0.500000 0.500000
#
# Coordination Sequence:
#
# PCOD9027845 Si02
#       8
#     2   2   2   2   2   2   2   2
#     4  11  21  40  68  91 132 171 218 272 331 394
#     4  10  22  41  69  97 132 174 211 277 330 408
#     4  11  24  39  62  95 135 172 220 267 327 408
#     4  12  25  41  66  95 139 180 212 278 334 395
#     4  12  28  45  65  91 134 185 230 268 319 390
#     4  11  23  34  56  99 132 168 207 263 334 404
#     4  11  26  45  62  94 127 179 236 266 316 386
#     4  10  23  42  63 100 137 167 221 263 341 403
#
# _framework density 24.347266000000001
#
# number of rings (size 3 to 8) (size 9 to 14) (size 15 to 20)
#    0.000    1.000    3.750    2.250    7.000    1.000 
#    0.000    0.000    0.000    1.500    0.000    0.000 
#    0.000    0.000    0.000    0.500    0.000    0.125 
#
# Total GULP energy -89186.195610 kJ/mol
# GULP energy per Si atom -5574.137226 kJ/mol
# Density = 2.429185 g / cm^3
# Si number density = 24.347266 Si / 1000 Ang^3
#
#
#
# Elastic Constant Matrix: (Units=GPa)
#
#
# Indices 1 2 3 4 5 6 
#
# 1 146.5699 34.5362 52.8907 26.9745 17.5426 -2.9431
# 2 34.5362 110.5362 38.4758 48.6505 11.9358 -8.0048
# 3 52.8907 38.4758 186.4202 65.0587 58.8635 29.1308
# 4 26.9745 48.6505 65.0587 50.1760 6.7329 4.3560
# 5 17.5426 11.9358 58.8635 6.7329 70.7258 28.4197
# 6 -2.9431 -8.0048 29.1308 4.3560 28.4197 41.8232
#
#
#
# Elastic Compliance Matrix: (Units=1/GPa)
#
#
# Indices 1 2 3 4 5 6 
#
# 1 0.008106 -0.001061 -0.001565 -0.001330 -0.001435 0.002571
# 2 -0.001061 0.022280 0.009252 -0.032237 -0.011790 0.009115
# 3 -0.001565 0.009252 0.019228 -0.031206 -0.014852 0.001611
# 4 -0.001330 -0.032237 -0.031206 0.089686 0.028532 -0.013256
# 5 -0.001435 -0.011790 -0.014852 0.028532 0.033172 -0.017526
# 6 0.002571 0.009115 0.001611 -0.013256 -0.017526 0.038003
#
#
# Mechanical properties :
#
#
# Convention : Reuss Voigt Hill
#
# Bulk Modulus (GPa) = 15.90754 77.25907 46.58331
# Shear Modulus (GPa) = 22.91694 53.71989 38.31842
#
# Velocity S-wave (km/s) = 3.07131 4.70233 3.97145
# Velocity P-wave (km/s) = 4.37322 7.82838 6.34069
#
# Compressibility (1/GPa) = 0.06286328
#
# Stress axis : x y z
#
# Youngs Moduli (GPa) = 123.36955 44.88389 52.00878
#
# Poissons Ratio (x) = 0.04763 0.08140
# Poissons Ratio (y) = 0.13092 -0.48116
# Poissons Ratio (z) = 0.19309 -0.41525
#
# Static dielectric constant tensor:
#      x y z
#    x 2.045660 -0.005000 0.040710 
#    y -0.005000 2.041170 -0.006750 
#    z 0.040710 -0.006750 1.899530 
# 
# From -- ./inp_files/366182.got.cif
#   From: 2010.05.17/outbox.cif.g08.bks.cpg/sg2_184_cif.got.tgz:366182.got - 2010.06.03 11:33:40.
