data_PCOD9027272
_publ_section_title
;
Structure prediction by ZEFSAII (Michael W. Deem and Ramdas Pophale) SiO2 
 PCOD9027272
Probable space group: P -1
;
_chemical_formula_sum "Si O2"
_cell_formula_units_Z 16
_cell_length_a 15.332694
_cell_length_b 13.665223
_cell_length_c 9.291621
_cell_angle_alpha 86.289049
_cell_angle_beta 115.000553
_cell_angle_gamma 148.544104
_cell_volume 718.439289
_symmetry_space_group_name_H-M "P -1"
_symmetry_group_IT_number 2
_symmetry_cell_setting 'triclinic'
loop_
_space_group_symop_operation_xyz
x,y,z
-x,-y,-z
loop_
_atom_site_type_symbol
_atom_site_label
_atom_site_fract_x
_atom_site_fract_y
_atom_site_fract_z
Si Si1 0.547345 0.310095 0.593699
Si Si2 0.052380 0.188983 0.138388
Si Si3 0.523335 0.906788 0.682137
Si Si4 0.716385 0.134627 0.085691
Si Si5 0.887815 0.344243 0.678513
Si Si6 0.115433 0.209002 0.513695
Si Si7 0.874177 0.168339 0.475036
Si Si8 0.639831 0.712515 0.738510
O O1 0.802161 0.575838 0.807372
O O2 0.565165 0.264622 0.463138
O O3 0.427954 0.300888 0.459532
O O4 0.374979 0.094617 0.601778
O O5 0.032613 0.156641 0.298566
O O6 0.212713 0.248725 0.185016
O O7 0.805462 0.944842 0.912106
O O8 0.303359 0.776861 0.542804
O O9 0.734241 0.154252 0.716445
O O10 0.621134 0.981186 0.901962
O O11 0.819599 0.167630 0.285108
O O12 0.920217 0.400714 0.157382
O O13 0.500000 0.000000 0.000000
O O14 0.989911 0.353363 0.648137
O O15 0.398337 0.467734 0.677242
O O16 0.029861 0.217126 0.554903
O O17 0.000000 0.000000 0.500000
#
# Coordination Sequence:
#
# PCOD9027272 Si02
#       8
#     2   2   2   2   2   2   2   2
#     4  10  22  42  65  92 129 172 216 262 323 387
#     4  10  22  42  67  92 126 172 219 270 311 397
#     4  10  23  42  68  90 128 174 219 263 321 390
#     4  12  25  41  65  95 135 168 216 276 326 376
#     4  10  23  45  63  92 130 176 218 263 320 394
#     4  11  23  41  67  96 137 168 208 272 329 377
#     4  11  24  43  64  97 132 171 215 271 329 383
#     4  10  22  41  67  94 125 172 221 260 325 385
#
# _framework density 22.270495
#
# number of rings (size 3 to 8) (size 9 to 14) (size 15 to 20)
#    0.000    1.500    1.250    3.750    5.250    0.500 
#    4.500    0.000    0.000    0.000    0.000    0.000 
#    0.000    0.000    0.000    0.000    0.000    0.000 
#
# Total GULP energy -89548.892706 kJ/mol
# GULP energy per Si atom -5596.805794 kJ/mol
# Density = 2.221981 g / cm^3
# Si number density = 22.270495 Si / 1000 Ang^3
#
#
#
# Elastic Constant Matrix: (Units=GPa)
#
#
# Indices 1 2 3 4 5 6 
#
# 1 118.8186 11.0725 14.3200 7.6677 -17.7158 6.8825
# 2 11.0725 73.7869 21.4550 18.7513 -12.4698 -8.5575
# 3 14.3200 21.4550 83.5671 26.1193 -27.1637 4.1455
# 4 7.6677 18.7513 26.1193 28.7021 -5.6840 -7.4826
# 5 -17.7158 -12.4698 -27.1637 -5.6840 35.8960 -0.4214
# 6 6.8825 -8.5575 4.1455 -7.4826 -0.4214 25.2101
#
#
#
# Elastic Compliance Matrix: (Units=1/GPa)
#
#
# Indices 1 2 3 4 5 6 
#
# 1 0.009495 -0.000568 0.001433 -0.003524 0.004968 -0.003984
# 2 -0.000568 0.017105 -0.000331 -0.009039 0.004020 0.003400
# 3 0.001433 -0.000331 0.024153 -0.021918 0.015273 -0.010725
# 4 -0.003524 -0.009039 -0.021918 0.064821 -0.010960 0.020554
# 5 0.004968 0.004020 0.015273 -0.010960 0.041469 -0.005063
# 6 -0.003984 0.003400 -0.010725 0.020554 -0.005063 0.049688
#
#
# Mechanical properties :
#
#
# Convention : Reuss Voigt Hill
#
# Bulk Modulus (GPa) = 19.29748 41.09643 30.19695
# Shear Modulus (GPa) = 22.42779 33.24998 27.83888
#
# Velocity S-wave (km/s) = 3.17687 3.86814 3.53942
# Velocity P-wave (km/s) = 4.70537 6.20027 5.50381
#
# Compressibility (1/GPa) = 0.05182024
#
# Stress axis : x y z
#
# Youngs Moduli (GPa) = 105.31412 58.46302 41.40296
#
# Poissons Ratio (x) = 0.03323 -0.05932
# Poissons Ratio (y) = 0.05986 0.01370
# Poissons Ratio (z) = -0.15089 0.01934
#
# Static dielectric constant tensor:
#      x y z
#    x 1.863200 -0.006080 -0.006280 
#    y -0.006080 1.801920 0.017520 
#    z -0.006280 0.017520 1.795790 
# 
# From -- ./inp_files/315473.got.cif
#   From: 2010.05.17/outbox.cif.g08.bks.cpg/sg2_158_cif.got.tgz:315473.got - 2010.06.03 11:33:40.
