data_PCOD9027003
_publ_section_title
;
Structure prediction by ZEFSAII (Michael W. Deem and Ramdas Pophale) SiO2 
 PCOD9027003
Probable space group: P -1
;
_chemical_formula_sum "Si O2"
_cell_formula_units_Z 13
_cell_length_a 7.146813
_cell_length_b 17.849499
_cell_length_c 15.219509
_cell_angle_alpha 22.148611
_cell_angle_beta 57.881326
_cell_angle_gamma 49.125422
_cell_volume 534.269671
_symmetry_space_group_name_H-M "P -1"
_symmetry_group_IT_number 2
_symmetry_cell_setting 'triclinic'
loop_
_space_group_symop_operation_xyz
x,y,z
-x,-y,-z
loop_
_atom_site_type_symbol
_atom_site_label
_atom_site_fract_x
_atom_site_fract_y
_atom_site_fract_z
Si Si1 0.103995 0.490903 0.581126
Si Si2 0.856928 0.925830 0.280552
Si Si3 0.325355 0.594557 0.157849
Si Si4 0.162538 0.705635 0.886502
Si Si5 0.440543 0.191487 0.380009
Si Si6 0.283880 0.905763 0.327013
Si Si7 0.500000 0.000000 0.000000
O O1 0.390755 0.279267 0.741205
O O2 0.000000 0.500000 0.500000
O O3 0.013864 0.744415 0.362469
O O4 0.939470 0.407085 0.768933
O O5 0.664026 0.866693 0.443148
O O6 0.067973 0.900553 0.325759
O O7 0.708424 0.195916 0.000890
O O8 0.546480 0.347411 0.400463
O O9 0.331153 0.657536 0.986908
O O10 0.300737 0.796292 0.688733
O O11 0.218151 0.451416 0.125906
O O12 0.876330 0.894998 0.778080
O O13 0.500000 0.000000 0.500000
O O14 0.449496 0.964642 0.155464
#
# Coordination Sequence:
#
# PCOD9027003 Si02
#       7
#     2   2   2   2   2   2   1
#     4  12  25  44  66  93 130 172 216 263 325 376
#     4  11  24  44  66  96 130 168 217 267 316 386
#     4  11  22  43  64  94 132 167 211 267 316 383
#     4  10  22  41  66  94 129 171 210 264 319 385
#     4  11  19  40  73  89 128 176 208 261 331 368
#     4  11  23  42  65  96 131 169 218 263 322 378
#     4  12  22  42  66  90 130 172 212 262 320 380
#
# _framework density 24.332281999999999
#
# number of rings (size 3 to 8) (size 9 to 14) (size 15 to 20)
#    0.000    0.923    9.231    0.000    0.000    2.462 
#    2.769    6.154    0.000    0.000    0.000    0.000 
#    0.000    0.000    0.000    0.000    0.000    0.000 
#
# Total GULP energy -72396.509058 kJ/mol
# GULP energy per Si atom -5568.962235 kJ/mol
# Density = 2.427690 g / cm^3
# Si number density = 24.332282 Si / 1000 Ang^3
#
#
#
# Elastic Constant Matrix: (Units=GPa)
#
#
# Indices 1 2 3 4 5 6 
#
# 1 39.6870 5.8404 25.9606 -13.0806 0.5084 6.5915
# 2 5.8404 114.7781 58.6820 -49.3787 -0.7096 13.6175
# 3 25.9606 58.6820 180.4779 -58.5039 4.5496 11.4611
# 4 -13.0806 -49.3787 -58.5039 66.7417 10.2365 -12.6643
# 5 0.5084 -0.7096 4.5496 10.2365 35.8711 -6.7623
# 6 6.5915 13.6175 11.4611 -12.6643 -6.7623 31.8797
#
#
#
# Elastic Compliance Matrix: (Units=1/GPa)
#
#
# Indices 1 2 3 4 5 6 
#
# 1 0.029162 0.002519 -0.003351 0.004052 -0.001983 -0.004712
# 2 0.002519 0.013603 -0.001619 0.009028 -0.002651 -0.002725
# 3 -0.003351 -0.001619 0.008602 0.006142 -0.002802 0.000137
# 4 0.004052 0.009028 0.006142 0.029741 -0.008561 0.003097
# 5 -0.001983 -0.002651 -0.002802 -0.008561 0.031761 0.005886
# 6 -0.004712 -0.002725 0.000137 0.003097 0.005886 0.035936
#
#
# Mechanical properties :
#
#
# Convention : Reuss Voigt Hill
#
# Bulk Modulus (GPa) = 21.52125 57.32323 39.42224
# Shear Modulus (GPa) = 29.55161 43.19583 36.37372
#
# Velocity S-wave (km/s) = 3.48875 4.21794 3.87056
# Velocity P-wave (km/s) = 5.00924 6.87975 6.01762
#
# Compressibility (1/GPa) = 0.04646569
#
# Stress axis : x y z
#
# Youngs Moduli (GPa) = 34.29110 73.51334 116.25078
#
# Poissons Ratio (x) = -0.18521 0.38960
# Poissons Ratio (y) = -0.08639 0.18819
# Poissons Ratio (z) = 0.11492 0.11900
#
# Static dielectric constant tensor:
#      x y z
#    x 2.248550 0.362010 0.382360 
#    y 0.362010 2.697090 0.617600 
#    z 0.382360 0.617600 2.579300 
# 
# From -- ./inp_files/337439.got.cif
#   From: 2010.05.17/outbox.cif.g08.bks.cpg/sg2_169_cif.got.tgz:337439.got - 2010.06.03 11:33:40.
