data_PCOD9027021
_publ_section_title
;
Structure prediction by ZEFSAII (Michael W. Deem and Ramdas Pophale) SiO2 
 PCOD9027021
Probable space group: P -1
;
_chemical_formula_sum "Si O2"
_cell_formula_units_Z 14
_cell_length_a 9.192956
_cell_length_b 12.815246
_cell_length_c 8.841918
_cell_angle_alpha 120.576657
_cell_angle_beta 111.770287
_cell_angle_gamma 47.987918
_cell_volume 665.587842
_symmetry_space_group_name_H-M "P -1"
_symmetry_group_IT_number 2
_symmetry_cell_setting 'triclinic'
loop_
_space_group_symop_operation_xyz
x,y,z
-x,-y,-z
loop_
_atom_site_type_symbol
_atom_site_label
_atom_site_fract_x
_atom_site_fract_y
_atom_site_fract_z
Si Si1 0.171277 0.019095 0.087105
Si Si2 0.533745 0.466479 0.808044
Si Si3 0.534596 0.261716 0.209293
Si Si4 0.162883 0.306290 0.252378
Si Si5 0.575625 0.097526 0.618487
Si Si6 0.217544 0.841926 0.479331
Si Si7 0.765294 0.594780 0.335397
O O1 0.135802 0.174090 0.138132
O O2 0.243068 0.984900 0.261579
O O3 0.348703 0.886207 0.958377
O O4 0.000000 0.000000 0.000000
O O5 0.529163 0.592661 0.806581
O O6 0.726154 0.297178 0.712346
O O7 0.347867 0.469608 0.688875
O O8 0.500000 0.500000 0.000000
O O9 0.348894 0.278249 0.220676
O O10 0.693529 0.229143 0.374519
O O11 0.182987 0.337067 0.459109
O O12 0.962152 0.461412 0.233459
O O13 0.642818 0.116789 0.498385
O O14 0.397189 0.265266 0.727206
O O15 0.500000 0.000000 0.500000
O O16 0.000000 0.000000 0.500000
#
# Coordination Sequence:
#
# PCOD9027021 Si02
#       7
#     2   2   2   2   2   2   2
#     4  12  25  43  68 101 140 187 232 282 353 417
#     4  11  24  46  70  97 139 183 234 286 355 424
#     4  12  23  43  69 100 137 183 232 296 342 410
#     4  11  23  41  65 101 132 180 232 285 339 416
#     4  11  21  43  65  95 134 183 224 280 344 413
#     4  11  24  40  64 102 139 175 232 289 344 409
#     4  10  22  41  66  94 136 175 231 276 353 410
#
# _framework density 21.034037999999999
#
# number of rings (size 3 to 8) (size 9 to 14) (size 15 to 20)
#    0.000    0.857    4.286    4.286    0.000    2.286 
#    0.000    2.857    0.000    0.000    0.000    0.000 
#    0.000    0.000    0.000    0.000    0.000    0.000 
#
# Total GULP energy -78171.885068 kJ/mol
# GULP energy per Si atom -5583.706076 kJ/mol
# Density = 2.098616 g / cm^3
# Si number density = 21.034038 Si / 1000 Ang^3
#
#
#
# Elastic Constant Matrix: (Units=GPa)
#
#
# Indices 1 2 3 4 5 6 
#
# 1 120.8081 87.5584 40.2210 20.5939 13.0099 -3.0070
# 2 87.5584 147.6398 35.9407 21.6276 -1.2183 3.5134
# 3 40.2210 35.9407 67.5255 13.9981 6.2352 15.6436
# 4 20.5939 21.6276 13.9981 43.3407 -1.5015 -0.7513
# 5 13.0099 -1.2183 6.2352 -1.5015 38.1011 5.7877
# 6 -3.0070 3.5134 15.6436 -0.7513 5.7877 43.5857
#
#
#
# Elastic Compliance Matrix: (Units=1/GPa)
#
#
# Indices 1 2 3 4 5 6 
#
# 1 0.018041 -0.009078 -0.006012 -0.002234 -0.006304 0.004933
# 2 -0.009078 0.012700 -0.000946 -0.001616 0.003879 -0.001853
# 3 -0.006012 -0.000946 0.021598 -0.003802 -0.000432 -0.008099
# 4 -0.002234 -0.001616 -0.003802 0.026269 0.002139 0.001510
# 5 -0.006304 0.003879 -0.000432 0.002139 0.029354 -0.004454
# 6 0.004933 -0.001853 -0.008099 0.001510 -0.004454 0.026957
#
#
# Mechanical properties :
#
#
# Convention : Reuss Voigt Hill
#
# Bulk Modulus (GPa) = 49.34111 73.71263 61.52687
# Shear Modulus (GPa) = 28.77742 36.48906 32.63324
#
# Velocity S-wave (km/s) = 3.70284 4.16957 3.94312
# Velocity P-wave (km/s) = 6.46452 7.63550 7.07428
#
# Compressibility (1/GPa) = 0.02026708
#
# Stress axis : x y z
#
# Youngs Moduli (GPa) = 55.42922 78.73889 46.30060
#
# Poissons Ratio (x) = 0.71479 0.27835
# Poissons Ratio (y) = 0.50319 0.04381
# Poissons Ratio (z) = 0.33323 0.07450
#
# Static dielectric constant tensor:
#      x y z
#    x 1.741740 -0.029200 0.005350 
#    y -0.029200 1.802100 -0.006930 
#    z 0.005350 -0.006930 1.798230 
# 
# From -- ./inp_files/190207.got.cif
#   From: 2010.05.17/outbox.cif.g08.bks.cpg/sg2_96_cif.got.tgz:190207.got - 2010.06.03 11:33:40.
