data_PCOD9027809
_publ_section_title
;
Structure prediction by ZEFSAII (Michael W. Deem and Ramdas Pophale) SiO2 
 PCOD9027809
Probable space group: P -1
;
_chemical_formula_sum "Si O2"
_cell_formula_units_Z 16
_cell_length_a 14.789693
_cell_length_b 10.399363
_cell_length_c 8.340368
_cell_angle_alpha 39.948170
_cell_angle_beta 101.579852
_cell_angle_gamma 84.522626
_cell_volume 740.799063
_symmetry_space_group_name_H-M "P -1"
_symmetry_group_IT_number 2
_symmetry_cell_setting 'triclinic'
loop_
_space_group_symop_operation_xyz
x,y,z
-x,-y,-z
loop_
_atom_site_type_symbol
_atom_site_label
_atom_site_fract_x
_atom_site_fract_y
_atom_site_fract_z
Si Si1 0.323920 0.261950 0.430096
Si Si2 0.646353 0.439839 0.126588
Si Si3 0.199105 0.679150 0.150017
Si Si4 0.475235 0.844608 0.767627
Si Si5 0.033112 0.239520 0.080919
Si Si6 0.160604 0.833232 0.342421
Si Si7 0.003205 0.359956 0.477438
Si Si8 0.837571 0.918139 0.428882
O O1 0.276938 0.430420 0.397216
O O2 0.233584 0.189407 0.420017
O O3 0.416615 0.026818 0.706193
O O4 0.345783 0.411111 0.161050
O O5 0.595014 0.271861 0.220678
O O6 0.752909 0.298198 0.376886
O O7 0.575419 0.628972 0.043396
O O8 0.201857 0.768751 0.241363
O O9 0.083089 0.713377 0.041180
O O10 0.219952 0.831835 0.879247
O O11 0.500000 0.000000 0.500000
O O12 0.074134 0.120359 0.375929
O O13 0.110206 0.087508 0.121627
O O14 0.039545 0.471825 0.845569
O O15 0.066558 0.766795 0.394681
O O16 0.000000 0.500000 0.500000
O O17 0.111407 0.200845 0.604041
#
# Coordination Sequence:
#
# PCOD9027809 Si02
#       8
#     2   2   2   2   2   2   2   2
#     4  11  21  39  63  93 122 156 203 257 306 362
#     4  10  22  41  69  95 118 155 201 257 317 371
#     4  12  24  37  56  85 128 170 205 251 304 353
#     4   9  20  42  70  95 119 147 196 262 321 373
#     4  12  23  37  57  83 119 171 216 253 291 349
#     4  12  24  40  59  88 129 168 210 252 304 364
#     4  12  23  39  58  84 128 174 208 250 300 354
#     4  12  24  37  59  88 125 168 215 253 293 357
#
# _framework density 21.598302
#
# number of rings (size 3 to 8) (size 9 to 14) (size 15 to 20)
#    0.000    0.750    3.750    4.875    1.750    1.000 
#    0.000    0.625    0.000   10.500    0.000    0.000 
#    0.000    0.000    0.000    0.000    0.000    0.000 
#
# Total GULP energy -89316.590044 kJ/mol
# GULP energy per Si atom -5582.286878 kJ/mol
# Density = 2.154914 g / cm^3
# Si number density = 21.598302 Si / 1000 Ang^3
#
#
#
# Elastic Constant Matrix: (Units=GPa)
#
#
# Indices 1 2 3 4 5 6 
#
# 1 61.2441 8.5835 15.1085 -9.4782 -11.1911 -6.1404
# 2 8.5835 116.5638 29.1516 -37.7568 8.4767 -24.0358
# 3 15.1085 29.1516 73.7591 -33.4619 -15.7522 -4.9435
# 4 -9.4782 -37.7568 -33.4619 49.3260 -9.9083 7.5911
# 5 -11.1911 8.4767 -15.7522 -9.9083 29.0618 -13.1177
# 6 -6.1404 -24.0358 -4.9435 7.5911 -13.1177 21.9328
#
#
#
# Elastic Compliance Matrix: (Units=1/GPa)
#
#
# Indices 1 2 3 4 5 6 
#
# 1 0.023994 0.004304 0.008479 0.015640 0.029440 0.025540
# 2 0.004304 0.015930 0.005118 0.016040 0.016016 0.023843
# 3 0.008479 0.005118 0.041179 0.038706 0.053469 0.035847
# 4 0.015640 0.016040 0.038706 0.067977 0.066749 0.047075
# 5 0.029440 0.016016 0.053469 0.066749 0.136251 0.096234
# 6 0.025540 0.023843 0.035847 0.047075 0.096234 0.128216
#
#
# Mechanical properties :
#
#
# Convention : Reuss Voigt Hill
#
# Bulk Modulus (GPa) = 8.55398 39.69490 24.12444
# Shear Modulus (GPa) = 11.99863 33.31235 22.65549
#
# Velocity S-wave (km/s) = 2.35954 3.93155 3.24226
# Velocity P-wave (km/s) = 3.37525 6.24724 5.02097
#
# Compressibility (1/GPa) = 0.11690464
#
# Stress axis : x y z
#
# Youngs Moduli (GPa) = 41.67697 62.77648 24.28406
#
# Poissons Ratio (x) = -0.27022 -0.20590
# Poissons Ratio (y) = -0.17940 -0.12428
# Poissons Ratio (z) = -0.35336 -0.32128
#
# Static dielectric constant tensor:
#      x y z
#    x 1.802100 -0.050990 -0.015350 
#    y -0.050990 1.872780 -0.038220 
#    z -0.015350 -0.038220 1.778240 
# 
# From -- ./inp_files/277655.got.cif
#   From: 2010.05.17/outbox.cif.g08.bks.cpg/sg2_139_cif.got.tgz:277655.got - 2010.06.03 11:33:40.
