data_PCOD9027319
_publ_section_title
;
Structure prediction by ZEFSAII (Michael W. Deem and Ramdas Pophale) SiO2 
 PCOD9027319
Probable space group: P -1
;
_chemical_formula_sum "Si O2"
_cell_formula_units_Z 12
_cell_length_a 9.367621
_cell_length_b 12.353062
_cell_length_c 10.342174
_cell_angle_alpha 62.224536
_cell_angle_beta 108.509401
_cell_angle_gamma 154.095365
_cell_volume 446.296010
_symmetry_space_group_name_H-M "P -1"
_symmetry_group_IT_number 2
_symmetry_cell_setting 'triclinic'
loop_
_space_group_symop_operation_xyz
x,y,z
-x,-y,-z
loop_
_atom_site_type_symbol
_atom_site_label
_atom_site_fract_x
_atom_site_fract_y
_atom_site_fract_z
Si Si1 0.575310 0.902207 0.736136
Si Si2 0.005685 0.646134 0.053738
Si Si3 0.672755 0.571403 0.638842
Si Si4 0.475900 0.102007 0.563190
Si Si5 0.520266 0.825592 0.211636
Si Si6 0.465308 0.379603 0.174391
O O1 0.629700 0.085136 0.666406
O O2 0.760946 0.906468 0.766433
O O3 0.317613 0.670548 0.902395
O O4 0.398435 0.784476 0.607653
O O5 0.266935 0.735030 0.123029
O O6 0.854374 0.612803 0.150471
O O7 0.140033 0.845409 0.883570
O O8 0.500000 0.500000 0.500000
O O9 0.480873 0.308050 0.774274
O O10 0.644358 0.647444 0.705419
O O11 0.064696 0.814167 0.592704
O O12 0.567402 0.260284 0.615607
O O13 0.500000 0.500000 0.000000
#
# Coordination Sequence:
#
# PCOD9027319 Si02
#       6
#     2   2   2   2   2   2
#     4   9  22  43  64  94 125 171 225 264 318 387
#     4   9  22  43  61  97 126 167 225 270 315 382
#     4  12  26  42  66 101 137 169 217 274 331 396
#     4  11  23  43  70  91 129 179 219 270 325 390
#     4  11  23  42  70  94 129 174 223 272 322 390
#     4  10  22  41  67  95 134 173 212 268 328 396
#
# _framework density 26.887985
#
# number of rings (size 3 to 8) (size 9 to 14) (size 15 to 20)
#    1.000    0.667    1.667    2.000    0.000   11.333 
#    0.000    0.000    0.000    0.000    0.000    0.000 
#    0.000    0.000    0.000    0.000    0.000    0.000 
#
# Total GULP energy -66881.980278 kJ/mol
# GULP energy per Si atom -5573.498356 kJ/mol
# Density = 2.682679 g / cm^3
# Si number density = 26.887985 Si / 1000 Ang^3
#
#
#
# Elastic Constant Matrix: (Units=GPa)
#
#
# Indices 1 2 3 4 5 6 
#
# 1 164.5210 42.6233 58.1145 15.7496 19.4569 -0.5226
# 2 42.6233 41.4992 31.2316 14.6120 6.9409 16.9321
# 3 58.1145 31.2316 113.2703 4.3900 11.2330 7.4617
# 4 15.7496 14.6120 4.3900 31.7144 -13.4093 6.6387
# 5 19.4569 6.9409 11.2330 -13.4093 56.9502 4.6975
# 6 -0.5226 16.9321 7.4617 6.6387 4.6975 36.8910
#
#
#
# Elastic Compliance Matrix: (Units=1/GPa)
#
#
# Indices 1 2 3 4 5 6 
#
# 1 0.010010 -0.009218 -0.002575 -0.002813 -0.002927 0.005773
# 2 -0.009218 0.054264 -0.007842 -0.016994 -0.004282 -0.019847
# 3 -0.002575 -0.007842 0.012141 0.003163 0.000143 0.000520
# 4 -0.002813 -0.016994 0.003163 0.046731 0.013661 -0.003029
# 5 -0.002927 -0.004282 0.000143 0.013661 0.022553 -0.003435
# 6 0.005773 -0.019847 0.000520 -0.003029 -0.003435 0.037175
#
#
# Mechanical properties :
#
#
# Convention : Reuss Voigt Hill
#
# Bulk Modulus (GPa) = 26.92179 64.80325 45.86252
# Shear Modulus (GPa) = 21.31969 37.59919 29.45944
#
# Velocity S-wave (km/s) = 2.81892 3.74353 3.31363
# Velocity P-wave (km/s) = 4.54196 6.54514 5.63330
#
# Compressibility (1/GPa) = 0.03714463
#
# Stress axis : x y z
#
# Youngs Moduli (GPa) = 99.90184 18.42840 82.36725
#
# Poissons Ratio (x) = 0.16988 0.21209
# Poissons Ratio (y) = 0.92093 0.64591
# Poissons Ratio (z) = 0.25723 0.14451
#
# Static dielectric constant tensor:
#      x y z
#    x 2.174400 0.067430 -0.029920 
#    y 0.067430 2.221120 -0.085780 
#    z -0.029920 -0.085780 2.046950 
# 
# From -- ./inp_files/166314.got.cif
#   From: 2010.05.17/outbox.cif.g08.bks.cpg/sg2_84_cif.got.tgz:166314.got - 2010.06.03 11:33:40.
