data_PCOD9027652
_publ_section_title
;
Structure prediction by ZEFSAII (Michael W. Deem and Ramdas Pophale) SiO2 
 PCOD9027652
Probable space group: P -1
;
_chemical_formula_sum "Si O2"
_cell_formula_units_Z 16
_cell_length_a 12.312104
_cell_length_b 5.312709
_cell_length_c 13.896820
_cell_angle_alpha 112.163044
_cell_angle_beta 50.822610
_cell_angle_gamma 91.174103
_cell_volume 621.824423
_symmetry_space_group_name_H-M "P -1"
_symmetry_group_IT_number 2
_symmetry_cell_setting 'triclinic'
loop_
_space_group_symop_operation_xyz
x,y,z
-x,-y,-z
loop_
_atom_site_type_symbol
_atom_site_label
_atom_site_fract_x
_atom_site_fract_y
_atom_site_fract_z
Si Si1 0.594884 0.191984 0.940433
Si Si2 0.151522 0.812500 0.056838
Si Si3 0.995167 0.765100 0.326873
Si Si4 0.399169 0.817255 0.573242
Si Si5 0.225726 0.475055 0.527197
Si Si6 0.248325 0.162576 0.892495
Si Si7 0.814697 0.332179 0.617129
Si Si8 0.581024 0.094309 0.733875
O O1 0.702610 0.210017 0.966353
O O2 0.500000 0.500000 0.000000
O O3 0.500000 0.000000 0.000000
O O4 0.664052 0.032624 0.781009
O O5 0.164674 0.493963 0.967655
O O6 0.158120 0.021452 0.995470
O O7 0.035207 0.878274 0.219560
O O8 0.135930 0.614727 0.295533
O O9 0.895906 0.558324 0.335449
O O10 0.898994 0.013192 0.486113
O O11 0.500000 0.500000 0.500000
O O12 0.287678 0.736472 0.550151
O O13 0.500000 0.000000 0.500000
O O14 0.299841 0.983584 0.740666
O O15 0.150757 0.497845 0.467620
O O16 0.358876 0.180525 0.406269
O O17 0.407522 0.154044 0.847849
O O18 0.640882 0.355730 0.707011
#
# Coordination Sequence:
#
# PCOD9027652 Si02
#       8
#     2   2   2   2   2   2   2   2
#     4  12  23  37  59  95 138 180 217 265 343 421
#     4  12  25  44  65  96 145 184 220 282 334 425
#     4  10  24  43  64 100 138 189 233 272 343 407
#     4  12  26  48  76 105 136 174 231 299 353 401
#     4  11  25  42  72  97 136 179 231 299 340 402
#     4  12  26  43  69 103 136 180 231 279 354 404
#     4  10  22  41  68  98 137 182 236 283 335 412
#     4  11  22  37  64 101 135 167 226 281 350 403
#
# _framework density 25.730737000000001
#
# number of rings (size 3 to 8) (size 9 to 14) (size 15 to 20)
#    0.000    0.750    5.000    1.875    7.000    1.000 
#    0.000    1.250    0.000    0.000    0.000    0.000 
#    0.000    0.000    0.000    0.000    0.000    0.000 
#
# Total GULP energy -89442.541740 kJ/mol
# GULP energy per Si atom -5590.158859 kJ/mol
# Density = 2.567217 g / cm^3
# Si number density = 25.730737 Si / 1000 Ang^3
#
#
#
# Elastic Constant Matrix: (Units=GPa)
#
#
# Indices 1 2 3 4 5 6 
#
# 1 58.0413 24.9698 19.8694 1.2478 5.9926 9.8450
# 2 24.9698 172.0976 61.9112 -25.1306 -5.1334 15.7047
# 3 19.8694 61.9112 132.1299 -19.5199 19.2383 19.2410
# 4 1.2478 -25.1306 -19.5199 54.2540 7.3334 3.5224
# 5 5.9926 -5.1334 19.2383 7.3334 35.6940 -1.6683
# 6 9.8450 15.7047 19.2410 3.5224 -1.6683 29.0068
#
#
#
# Elastic Compliance Matrix: (Units=1/GPa)
#
#
# Indices 1 2 3 4 5 6 
#
# 1 0.019721 -0.002369 -0.000838 -0.001101 -0.003203 -0.004906
# 2 -0.002369 0.007837 -0.003157 0.002281 0.002689 -0.001467
# 3 -0.000838 -0.003157 0.012008 0.004413 -0.008018 -0.006969
# 4 -0.001101 0.002281 0.004413 0.022470 -0.006805 -0.006909
# 5 -0.003203 0.002689 -0.008018 -0.006805 0.035024 0.007790
# 6 -0.004906 -0.001467 -0.006969 -0.006909 0.007790 0.042844
#
#
# Mechanical properties :
#
#
# Convention : Reuss Voigt Hill
#
# Bulk Modulus (GPa) = 37.25785 63.97439 50.61612
# Shear Modulus (GPa) = 30.94502 40.82551 35.88527
#
# Velocity S-wave (km/s) = 3.47168 3.98759 3.73855
# Velocity P-wave (km/s) = 5.53005 6.79104 6.19272
#
# Compressibility (1/GPa) = 0.02683998
#
# Stress axis : x y z
#
# Youngs Moduli (GPa) = 50.70631 127.59701 83.28021
#
# Poissons Ratio (x) = 0.30223 0.06975
# Poissons Ratio (y) = 0.12011 0.26291
# Poissons Ratio (z) = 0.04247 0.40282
#
# Static dielectric constant tensor:
#      x y z
#    x 2.108720 -0.023480 -0.031860 
#    y -0.023480 2.055810 0.018960 
#    z -0.031860 0.018960 2.078950 
# 
# From -- ./inp_files/410482.got.cif
#   From: 2010.05.17/outbox.cif.g08.bks.cpg/sg2_206_cif.got.tgz:410482.got - 2010.06.03 11:33:40.
