data_PCOD9027596
_publ_section_title
;
Structure prediction by ZEFSAII (Michael W. Deem and Ramdas Pophale) SiO2 
 PCOD9027596
Probable space group: P -1
;
_chemical_formula_sum "Si O2"
_cell_formula_units_Z 16
_cell_length_a 8.784158
_cell_length_b 19.322581
_cell_length_c 10.640576
_cell_angle_alpha 149.578946
_cell_angle_beta 41.954317
_cell_angle_gamma 125.165266
_cell_volume 599.872042
_symmetry_space_group_name_H-M "P -1"
_symmetry_group_IT_number 2
_symmetry_cell_setting 'triclinic'
loop_
_space_group_symop_operation_xyz
x,y,z
-x,-y,-z
loop_
_atom_site_type_symbol
_atom_site_label
_atom_site_fract_x
_atom_site_fract_y
_atom_site_fract_z
Si Si1 0.115421 0.442204 0.172609
Si Si2 0.380173 0.215977 0.824495
Si Si3 0.113600 0.106189 0.179743
Si Si4 0.760160 0.590777 0.231341
Si Si5 0.576418 0.564856 0.684640
Si Si6 0.985757 0.060910 0.809883
Si Si7 0.539346 0.108819 0.037149
Si Si8 0.781523 0.272179 0.484369
O O1 0.179660 0.337561 0.082467
O O2 0.247893 0.571164 0.298067
O O3 0.843102 0.495232 0.421333
O O4 0.188153 0.372086 0.884265
O O5 0.442870 0.272138 0.010445
O O6 0.246537 0.087591 0.699280
O O7 0.583965 0.224993 0.615263
O O8 0.389881 0.068677 0.950776
O O9 0.002989 0.250683 0.409629
O O10 0.026363 0.084897 0.341659
O O11 0.000000 0.000000 0.000000
O O12 0.582529 0.486825 0.193178
O O13 0.611160 0.735290 0.605006
O O14 0.000000 0.500000 0.000000
O O15 0.500000 0.500000 0.500000
O O16 0.818070 0.091736 0.838933
O O17 0.841165 0.174595 0.173990
O O18 0.500000 0.000000 0.000000
#
# Coordination Sequence:
#
# PCOD9027596 Si02
#       8
#     2   2   2   2   2   2   2   2
#     4  12  24  41  64  98 137 179 224 276 348 408
#     4  12  25  39  65  99 134 178 223 273 348 411
#     4   9  21  40  68  93 123 177 228 276 334 400
#     4  12  24  42  69 101 140 179 226 285 338 402
#     4  12  26  40  62 100 139 180 222 282 350 401
#     4  10  22  43  66  92 134 179 223 277 334 408
#     4  10  22  41  68  96 128 178 226 272 338 400
#     4  11  22  40  65  95 135 173 224 281 337 399
#
# _framework density 26.672357000000002
#
# number of rings (size 3 to 8) (size 9 to 14) (size 15 to 20)
#    0.000    1.000    3.750    3.000    1.750    0.500 
#    0.000    0.000    0.000   35.250    0.000    0.000 
#    0.000    0.000    0.000    0.000    0.000    0.000 
#
# Total GULP energy -89426.425579 kJ/mol
# GULP energy per Si atom -5589.151599 kJ/mol
# Density = 2.661165 g / cm^3
# Si number density = 26.672357 Si / 1000 Ang^3
#
#
#
# Elastic Constant Matrix: (Units=GPa)
#
#
# Indices 1 2 3 4 5 6 
#
# 1 148.4002 25.0668 24.9037 -7.6918 -13.8858 15.4972
# 2 25.0668 115.7203 21.3438 -13.3459 -6.0888 14.4079
# 3 24.9037 21.3438 90.7792 -15.2650 -5.1616 14.3080
# 4 -7.6918 -13.3459 -15.2650 55.4291 -2.5423 -14.7148
# 5 -13.8858 -6.0888 -5.1616 -2.5423 31.1990 1.8423
# 6 15.4972 14.4079 14.3080 -14.7148 1.8423 41.1383
#
#
#
# Elastic Compliance Matrix: (Units=1/GPa)
#
#
# Indices 1 2 3 4 5 6 
#
# 1 0.007652 -0.000968 -0.001343 0.000015 0.003126 -0.002211
# 2 -0.000968 0.009592 -0.001353 0.001306 0.001449 -0.002122
# 3 -0.001343 -0.001353 0.012599 0.002329 0.001568 -0.002639
# 4 0.000015 0.001306 0.002329 0.020693 0.001976 0.006040
# 5 0.003126 0.001449 0.001568 0.001976 0.034328 -0.003061
# 6 -0.002211 -0.002122 -0.002639 0.006040 -0.003061 0.029100
#
#
# Mechanical properties :
#
#
# Convention : Reuss Voigt Hill
#
# Bulk Modulus (GPa) = 44.41644 55.28092 49.84868
# Shear Modulus (GPa) = 38.82107 44.45899 41.64003
#
# Velocity S-wave (km/s) = 3.81921 4.08714 3.95545
# Velocity P-wave (km/s) = 6.01143 6.56079 6.29211
#
# Compressibility (1/GPa) = 0.02251419
#
# Stress axis : x y z
#
# Youngs Moduli (GPa) = 130.69173 104.25512 79.37118
#
# Poissons Ratio (x) = 0.10095 0.10657
# Poissons Ratio (y) = 0.12655 0.10741
# Poissons Ratio (z) = 0.17547 0.14108
#
# Static dielectric constant tensor:
#      x y z
#    x 2.232480 0.053820 0.033320 
#    y 0.053820 2.087560 0.052780 
#    z 0.033320 0.052780 2.187330 
# 
# From -- ./inp_files/405653.got.cif
#   From: 2010.05.17/outbox.cif.g08.bks.cpg/sg2_203_cif.got.tgz:405653.got - 2010.06.03 11:33:40.
