data_PCOD9027346
_publ_section_title
;
Structure prediction by ZEFSAII (Michael W. Deem and Ramdas Pophale) SiO2 
 PCOD9027346
Probable space group: P -1
;
_chemical_formula_sum "Si O2"
_cell_formula_units_Z 13
_cell_length_a 11.558016
_cell_length_b 4.877160
_cell_length_c 10.733665
_cell_angle_alpha 109.024963
_cell_angle_beta 64.246601
_cell_angle_gamma 85.586026
_cell_volume 497.925348
_symmetry_space_group_name_H-M "P -1"
_symmetry_group_IT_number 2
_symmetry_cell_setting 'triclinic'
loop_
_space_group_symop_operation_xyz
x,y,z
-x,-y,-z
loop_
_atom_site_type_symbol
_atom_site_label
_atom_site_fract_x
_atom_site_fract_y
_atom_site_fract_z
Si Si1 0.300650 0.691510 0.191199
Si Si2 0.272616 0.202880 0.485742
Si Si3 0.110326 0.001760 0.845467
Si Si4 0.707970 0.622536 0.244601
Si Si5 0.002213 0.799439 0.345197
Si Si6 0.477629 0.354317 0.245695
Si Si7 0.500000 0.000000 0.000000
O O1 0.156685 0.635938 0.229115
O O2 0.404547 0.386314 0.145650
O O3 0.286754 0.909849 0.350634
O O4 0.365818 0.846959 0.079030
O O5 0.322259 0.137236 0.593055
O O6 0.365248 0.385514 0.404819
O O7 0.114647 0.358906 0.588584
O O8 0.184067 0.268390 0.870619
O O9 0.047970 0.047928 0.741905
O O10 0.219346 0.690578 0.769395
O O11 0.000000 0.000000 0.000000
O O12 0.574947 0.558126 0.247679
O O13 0.000000 0.000000 0.500000
O O14 0.543278 0.008709 0.134870
#
# Coordination Sequence:
#
# PCOD9027346 Si02
#       7
#     2   2   2   2   2   2   1
#     4  10  22  41  67  96 136 183 237 293 361 421
#     4   9  22  42  63 101 133 181 234 294 350 420
#     4  11  26  49  71 106 146 196 239 293 361 430
#     4  11  26  44  74 103 146 185 243 295 358 434
#     4   9  21  44  68 101 137 184 240 295 353 421
#     4  11  24  41  69  98 139 184 235 296 364 426
#     4  10  24  44  56 104 134 188 232 294 356 436
#
# _framework density 26.108328
#
# number of rings (size 3 to 8) (size 9 to 14) (size 15 to 20)
#    0.000    1.846    0.000    1.385   12.923    1.231 
#   13.846    0.000    0.000    0.000    0.000    0.000 
#    0.000    0.000    0.000    0.000    0.000    0.000 
#
# Total GULP energy -72496.593741 kJ/mol
# GULP energy per Si atom -5576.661057 kJ/mol
# Density = 2.604890 g / cm^3
# Si number density = 26.108328 Si / 1000 Ang^3
#
#
#
# Elastic Constant Matrix: (Units=GPa)
#
#
# Indices 1 2 3 4 5 6 
#
# 1 183.6875 83.3728 80.7852 -21.1853 -29.8814 33.4349
# 2 83.3728 117.0713 52.9297 -18.3341 -17.5578 17.3559
# 3 80.7852 52.9297 160.8748 -37.7647 -25.9938 24.7067
# 4 -21.1853 -18.3341 -37.7647 43.8585 8.0945 -10.6958
# 5 -29.8814 -17.5578 -25.9938 8.0945 33.5536 -3.7090
# 6 33.4349 17.3559 24.7067 -10.6958 -3.7090 57.4404
#
#
#
# Elastic Compliance Matrix: (Units=1/GPa)
#
#
# Indices 1 2 3 4 5 6 
#
# 1 0.009932 -0.005040 -0.002375 -0.000900 0.004239 -0.003131
# 2 -0.005040 0.013117 -0.001175 0.001821 0.001012 -0.000120
# 3 -0.002375 -0.001175 0.009935 0.005998 0.003387 -0.001200
# 4 -0.000900 0.001821 0.005998 0.029321 -0.001974 0.002726
# 5 0.004239 0.001012 0.003387 -0.001974 0.036963 -0.002211
# 6 -0.003131 -0.000120 -0.001200 0.002726 -0.002211 0.020149
#
#
# Mechanical properties :
#
#
# Convention : Reuss Voigt Hill
#
# Bulk Modulus (GPa) = 63.27832 99.53435 81.40634
# Shear Modulus (GPa) = 35.24465 43.27358 39.25911
#
# Velocity S-wave (km/s) = 3.67814 4.07561 3.88196
# Velocity P-wave (km/s) = 6.50598 7.76877 7.16525
#
# Compressibility (1/GPa) = 0.01580320
#
# Stress axis : x y z
#
# Youngs Moduli (GPa) = 100.68775 76.23432 100.65623
#
# Poissons Ratio (x) = 0.38426 0.23902
# Poissons Ratio (y) = 0.50751 0.11831
# Poissons Ratio (z) = 0.23909 0.08960
#
# Static dielectric constant tensor:
#      x y z
#    x 2.117820 -0.029710 0.026940 
#    y -0.029710 2.119120 0.080610 
#    z 0.026940 0.080610 2.132090 
# 
# From -- ./inp_files/64769.got.cif
#   From: 2010.05.17/outbox.cif.g08.bks.cpg/sg2_33_cif.got.tgz:64769.got - 2010.06.03 11:33:40.
