data_PCOD9027006
_publ_section_title
;
Structure prediction by ZEFSAII (Michael W. Deem and Ramdas Pophale) SiO2 
 PCOD9027006
Probable space group: P -1
;
_chemical_formula_sum "Si O2"
_cell_formula_units_Z 16
_cell_length_a 12.501596
_cell_length_b 8.179947
_cell_length_c 15.501187
_cell_angle_alpha 106.895486
_cell_angle_beta 126.790739
_cell_angle_gamma 33.923528
_cell_volume 628.456831
_symmetry_space_group_name_H-M "P -1"
_symmetry_group_IT_number 2
_symmetry_cell_setting 'triclinic'
loop_
_space_group_symop_operation_xyz
x,y,z
-x,-y,-z
loop_
_atom_site_type_symbol
_atom_site_label
_atom_site_fract_x
_atom_site_fract_y
_atom_site_fract_z
Si Si1 0.656504 0.226238 0.605237
Si Si2 0.949049 0.492209 0.299346
Si Si3 0.302694 0.367200 0.114640
Si Si4 0.917090 0.615708 0.852157
Si Si5 0.423723 0.312910 0.760063
Si Si6 0.941321 0.013181 0.116905
Si Si7 0.312165 0.323972 0.521802
Si Si8 0.427061 0.693074 0.880168
O O1 0.500000 0.500000 0.500000
O O2 0.424266 0.387251 0.566921
O O3 0.845852 0.122442 0.743765
O O4 0.856434 0.859937 0.615063
O O5 0.029446 0.429073 0.229454
O O6 0.026733 0.582703 0.396566
O O7 0.676166 0.698037 0.211724
O O8 0.260249 0.342669 0.187827
O O9 0.547608 0.183811 0.158351
O O10 0.109167 0.739994 0.083776
O O11 0.175713 0.363707 0.991823
O O12 0.728274 0.978983 0.840947
O O13 0.323854 0.316269 0.629325
O O14 0.360141 0.580573 0.788538
O O15 0.795963 0.039899 0.115567
O O16 0.698967 0.381652 0.016253
O O17 0.500000 0.000000 0.500000
#
# Coordination Sequence:
#
# PCOD9027006 Si02
#       8
#     2   2   2   2   2   2   2   2
#     4  11  23  41  68  96 136 177 226 283 329 397
#     4  11  24  45  68  95 138 181 227 274 340 406
#     4  11  25  40  67  99 141 178 222 282 341 402
#     4  11  25  43  64 101 137 181 225 277 340 406
#     4  12  22  43  72 100 132 178 225 281 339 408
#     4  11  23  42  69 101 137 179 225 279 345 399
#     4  10  22  41  66  94 129 180 224 269 332 398
#     4  11  24  40  72 104 134 179 227 278 342 410
#
# _framework density 25.459185999999999
#
# number of rings (size 3 to 8) (size 9 to 14) (size 15 to 20)
#    0.000    1.000    5.000    2.250    3.500    1.000 
#    0.000    3.125    0.000    0.000    0.000    0.000 
#    0.000    0.000    0.000    0.000    0.000    0.000 
#
# Total GULP energy -89302.409194 kJ/mol
# GULP energy per Si atom -5581.400575 kJ/mol
# Density = 2.540124 g / cm^3
# Si number density = 25.459186 Si / 1000 Ang^3
#
#
#
# Elastic Constant Matrix: (Units=GPa)
#
#
# Indices 1 2 3 4 5 6 
#
# 1 202.2896 21.0657 62.8637 10.3474 -4.0943 -17.9056
# 2 21.0657 53.3036 31.1889 -1.4342 -1.8478 -14.7849
# 3 62.8637 31.1889 156.3771 -6.3926 16.8062 1.5884
# 4 10.3474 -1.4342 -6.3926 32.8657 2.0244 -0.4288
# 5 -4.0943 -1.8478 16.8062 2.0244 48.8438 3.5444
# 6 -17.9056 -14.7849 1.5884 -0.4288 3.5444 24.2946
#
#
#
# Elastic Compliance Matrix: (Units=1/GPa)
#
#
# Indices 1 2 3 4 5 6 
#
# 1 0.006421 0.000596 -0.003001 -0.002595 0.001334 0.005050
# 2 0.000596 0.026735 -0.005949 -0.000075 0.001891 0.016821
# 3 -0.003001 -0.005949 0.009316 0.002627 -0.003363 -0.005904
# 4 -0.002595 -0.000075 0.002627 0.031881 -0.002357 -0.001224
# 5 0.001334 0.001891 -0.003363 -0.002357 0.021976 -0.000894
# 6 0.005050 0.016821 -0.005904 -0.001224 -0.000894 0.055615
#
#
# Mechanical properties :
#
#
# Convention : Reuss Voigt Hill
#
# Bulk Modulus (GPa) = 38.81365 71.35631 55.08498
# Shear Modulus (GPa) = 28.21035 40.99096 34.60065
#
# Velocity S-wave (km/s) = 3.33237 4.01692 3.69055
# Velocity P-wave (km/s) = 5.48496 7.04292 6.31219
#
# Compressibility (1/GPa) = 0.02576413
#
# Stress axis : x y z
#
# Youngs Moduli (GPa) = 155.74676 37.40430 107.33892
#
# Poissons Ratio (x) = -0.02228 0.32209
# Poissons Ratio (y) = -0.09275 0.63853
# Poissons Ratio (z) = 0.46735 0.22251
#
# Static dielectric constant tensor:
#      x y z
#    x 2.106370 0.020670 -0.019570 
#    y 0.020670 2.154900 -0.050930 
#    z -0.019570 -0.050930 2.079400 
# 
# From -- ./inp_files/514454.got.cif
#   From: 2010.05.17/outbox.cif.g08.bks.cpg/sg2_258_cif.got.tgz:514454.got - 2010.06.03 11:33:40.
