data_PCOD9027307
_publ_section_title
;
Structure prediction by ZEFSAII (Michael W. Deem and Ramdas Pophale) SiO2 
 PCOD9027307
Probable space group: P -1
;
_chemical_formula_sum "Si O2"
_cell_formula_units_Z 16
_cell_length_a 8.142656
_cell_length_b 11.673983
_cell_length_c 16.756583
_cell_angle_alpha 128.059564
_cell_angle_beta 50.556968
_cell_angle_gamma 143.397474
_cell_volume 713.574625
_symmetry_space_group_name_H-M "P -1"
_symmetry_group_IT_number 2
_symmetry_cell_setting 'triclinic'
loop_
_space_group_symop_operation_xyz
x,y,z
-x,-y,-z
loop_
_atom_site_type_symbol
_atom_site_label
_atom_site_fract_x
_atom_site_fract_y
_atom_site_fract_z
Si Si1 0.131328 0.690789 0.491699
Si Si2 0.794092 0.795128 0.101221
Si Si3 0.562276 0.864379 0.948894
Si Si4 0.731506 0.931214 0.644920
Si Si5 0.741248 0.431677 0.947198
Si Si6 0.878387 0.705380 0.417432
Si Si7 0.769308 0.943861 0.339255
Si Si8 0.664140 0.360078 0.233545
O O1 0.963279 0.648152 0.442876
O O2 0.460504 0.805151 0.417757
O O3 0.000000 0.500000 0.500000
O O4 0.131153 0.842477 0.604942
O O5 0.541791 0.709730 0.080643
O O6 0.744754 0.855250 0.224601
O O7 0.782460 0.616296 0.042362
O O8 0.112456 0.986444 0.055361
O O9 0.537870 0.753412 0.829693
O O10 0.324939 0.702316 0.015436
O O11 0.500000 0.000000 0.000000
O O12 0.450379 0.802303 0.732009
O O13 0.733392 0.787777 0.527519
O O14 0.823505 0.108815 0.638531
O O15 0.998706 0.030172 0.665560
O O16 0.018181 0.523041 0.847729
O O17 0.677597 0.523041 0.341113
#
# Coordination Sequence:
#
# PCOD9027307 Si02
#       8
#     2   2   2   2   2   2   2   2
#     4  10  23  44  65  97 137 175 220 269 330 404
#     4  11  24  48  67  97 135 179 227 275 341 393
#     4  12  26  45  67 101 138 179 224 282 338 396
#     4  10  23  43  67  99 137 170 222 282 332 395
#     4  11  27  44  70 100 136 174 233 284 326 406
#     4  10  24  42  66 102 134 174 224 275 330 401
#     4  10  22  41  67  95 129 181 219 270 334 394
#     4  12  24  40  72 101 132 181 219 279 341 392
#
# _framework density 22.422324
#
# number of rings (size 3 to 8) (size 9 to 14) (size 15 to 20)
#    0.000    1.250    2.500    1.875    3.500    7.000 
#    2.250    0.000    0.000    0.000    0.000    0.000 
#    0.000    0.000    0.000    0.000    0.000    0.000 
#
# Total GULP energy -89589.732346 kJ/mol
# GULP energy per Si atom -5599.358272 kJ/mol
# Density = 2.237129 g / cm^3
# Si number density = 22.422324 Si / 1000 Ang^3
#
#
#
# Elastic Constant Matrix: (Units=GPa)
#
#
# Indices 1 2 3 4 5 6 
#
# 1 71.1848 61.3170 37.0364 4.6511 9.4057 -8.9471
# 2 61.3170 168.6987 64.2230 -15.0229 18.8629 -12.2680
# 3 37.0364 64.2230 118.0236 6.6382 21.5301 -5.1563
# 4 4.6511 -15.0229 6.6382 48.7344 9.1047 9.4175
# 5 9.4057 18.8629 21.5301 9.1047 17.6251 -6.1325
# 6 -8.9471 -12.2680 -5.1563 9.4175 -6.1325 48.3999
#
#
#
# Elastic Compliance Matrix: (Units=1/GPa)
#
#
# Indices 1 2 3 4 5 6 
#
# 1 0.022596 -0.007703 -0.003195 -0.005550 0.004171 0.003493
# 2 -0.007703 0.011086 -0.002495 0.006277 -0.008351 -0.001159
# 3 -0.003195 -0.002495 0.012965 0.000313 -0.012123 -0.001439
# 4 -0.005550 0.006277 0.000313 0.028436 -0.021492 -0.007658
# 5 0.004171 -0.008351 -0.012123 -0.021492 0.094044 0.013460
# 6 0.003493 -0.001159 -0.001439 -0.007658 0.013460 0.024055
#
#
# Mechanical properties :
#
#
# Convention : Reuss Voigt Hill
#
# Bulk Modulus (GPa) = 50.35497 75.89555 63.12526
# Shear Modulus (GPa) = 22.06629 35.97393 29.02011
#
# Velocity S-wave (km/s) = 3.14047 4.00982 3.60147
# Velocity P-wave (km/s) = 5.97130 7.44042 6.74597
#
# Compressibility (1/GPa) = 0.01985901
#
# Stress axis : x y z
#
# Youngs Moduli (GPa) = 44.25502 90.20311 77.13334
#
# Poissons Ratio (x) = 0.69487 0.24646
# Poissons Ratio (y) = 0.34091 0.19248
# Poissons Ratio (z) = 0.14140 0.22510
#
# Static dielectric constant tensor:
#      x y z
#    x 1.820230 0.014370 -0.000850 
#    y 0.014370 1.837530 -0.007720 
#    z -0.000850 -0.007720 1.816860 
# 
# From -- ./inp_files/559915.got.cif
#   From: 2010.05.17/outbox.cif.g08.bks.cpg/sg2_280_cif.got.tgz:559915.got - 2010.06.03 11:33:40.
