data_PCOD9027322
_publ_section_title
;
Structure prediction by ZEFSAII (Michael W. Deem and Ramdas Pophale) SiO2 
 PCOD9027322
Probable space group: P -1
;
_chemical_formula_sum "Si O2"
_cell_formula_units_Z 11
_cell_length_a 9.350177
_cell_length_b 9.790178
_cell_length_c 9.475124
_cell_angle_alpha 150.908551
_cell_angle_beta 95.138447
_cell_angle_gamma 84.195453
_cell_volume 419.547288
_symmetry_space_group_name_H-M "P -1"
_symmetry_group_IT_number 2
_symmetry_cell_setting 'triclinic'
loop_
_space_group_symop_operation_xyz
x,y,z
-x,-y,-z
loop_
_atom_site_type_symbol
_atom_site_label
_atom_site_fract_x
_atom_site_fract_y
_atom_site_fract_z
Si Si1 0.219879 0.672321 0.474925
Si Si2 0.628789 0.279238 0.023607
Si Si3 0.723021 0.981677 0.484184
Si Si4 0.278846 0.126996 0.124638
Si Si5 0.500000 0.500000 0.000000
Si Si6 0.106686 0.356526 0.577850
O O1 0.235258 0.824916 0.465218
O O2 0.317913 0.411767 0.308397
O O3 0.058953 0.557728 0.355143
O O4 0.229161 0.912839 0.810530
O O5 0.628352 0.183669 0.768839
O O6 0.522701 0.540846 0.218036
O O7 0.603494 0.035913 0.910691
O O8 0.784320 0.392771 0.171327
O O9 0.850346 0.855894 0.481807
O O10 0.637447 0.721487 0.187125
O O11 0.155357 0.212310 0.305434
#
# Coordination Sequence:
#
# PCOD9027322 Si02
#       6
#     2   2   2   2   1   2
#     4  12  25  39  66 102 137 165 210 266 320 378
#     4  10  22  43  68  93 123 180 216 260 321 392
#     4  10  24  41  67  95 127 169 225 267 314 380
#     4  11  24  41  64  98 139 171 207 255 327 391
#     4  10  22  46  70  86 124 174 226 266 326 368
#     4  10  22  41  67  95 135 178 207 252 319 398
#
# _framework density 26.218737000000001
#
# number of rings (size 3 to 8) (size 9 to 14) (size 15 to 20)
#    0.000    1.455    1.818    2.182   10.182    0.727 
#    0.000    1.818    0.000    0.000    0.000    0.000 
#    0.000    0.000    0.000    0.000    0.000    0.000 
#
# Total GULP energy -61427.640902 kJ/mol
# GULP energy per Si atom -5584.330991 kJ/mol
# Density = 2.615906 g / cm^3
# Si number density = 26.218737 Si / 1000 Ang^3
#
#
#
# Elastic Constant Matrix: (Units=GPa)
#
#
# Indices 1 2 3 4 5 6 
#
# 1 48.8946 47.9846 18.9762 2.2330 1.2265 -6.9421
# 2 47.9846 300.8668 49.1738 20.9382 -4.6374 -5.1270
# 3 18.9762 49.1738 134.2562 6.9151 22.3877 -3.5232
# 4 2.2330 20.9382 6.9151 50.2910 -11.7267 -2.9848
# 5 1.2265 -4.6374 22.3877 -11.7267 13.6002 7.6398
# 6 -6.9421 -5.1270 -3.5232 -2.9848 7.6398 30.6068
#
#
#
# Elastic Compliance Matrix: (Units=1/GPa)
#
#
# Indices 1 2 3 4 5 6 
#
# 1 0.025767 -0.003894 -0.001036 -0.000376 -0.005931 0.006517
# 2 -0.003894 0.004374 -0.002259 0.000138 0.006868 -0.002111
# 3 -0.001036 -0.002259 0.016465 -0.010695 -0.043192 0.011020
# 4 -0.000376 0.000138 -0.010695 0.032838 0.052255 -0.011134
# 5 -0.005931 0.006868 -0.043192 0.052255 0.224011 -0.055986
# 6 0.006517 -0.002111 0.011020 -0.011134 -0.055986 0.047954
#
#
# Mechanical properties :
#
#
# Convention : Reuss Voigt Hill
#
# Bulk Modulus (GPa) = 31.03026 79.58743 55.30884
# Shear Modulus (GPa) = 13.27907 43.42513 28.35210
#
# Velocity S-wave (km/s) = 2.25294 4.07414 3.29198
# Velocity P-wave (km/s) = 4.31607 7.24931 5.96578
#
# Compressibility (1/GPa) = 0.03222661
#
# Stress axis : x y z
#
# Youngs Moduli (GPa) = 38.80870 228.60445 60.73484
#
# Poissons Ratio (x) = 0.89028 0.06294
# Poissons Ratio (y) = 0.15114 0.13723
# Poissons Ratio (z) = 0.04021 0.51652
#
# Static dielectric constant tensor:
#      x y z
#    x 2.183470 -0.050920 -0.147060 
#    y -0.050920 2.118290 0.057550 
#    z -0.147060 0.057550 2.070080 
# 
# From -- ./inp_files/20063.got.cif
#   From: 2010.05.17/outbox.cif.g08.bks.cpg/sg2_11_cif.got.tgz:20063.got - 2010.06.03 11:33:40.
