data_PCOD9027660
_publ_section_title
;
Structure prediction by ZEFSAII (Michael W. Deem and Ramdas Pophale) SiO2 
 PCOD9027660
Probable space group: P -1
;
_chemical_formula_sum "Si O2"
_cell_formula_units_Z 16
_cell_length_a 18.169387
_cell_length_b 5.498671
_cell_length_c 20.359049
_cell_angle_alpha 82.390213
_cell_angle_beta 150.443053
_cell_angle_gamma 75.599838
_cell_volume 664.268302
_symmetry_space_group_name_H-M "P -1"
_symmetry_group_IT_number 2
_symmetry_cell_setting 'triclinic'
loop_
_space_group_symop_operation_xyz
x,y,z
-x,-y,-z
loop_
_atom_site_type_symbol
_atom_site_label
_atom_site_fract_x
_atom_site_fract_y
_atom_site_fract_z
Si Si1 0.078177 0.731898 0.372414
Si Si2 0.757759 0.861147 0.827448
Si Si3 0.821963 0.215680 0.699794
Si Si4 0.420468 0.466883 0.004751
Si Si5 0.215187 0.282511 0.899117
Si Si6 0.440353 0.534221 0.753016
Si Si7 0.577982 0.620288 0.622790
Si Si8 0.255399 0.450084 0.060080
O O1 0.162039 0.698679 0.364699
O O2 0.255995 0.604750 0.568602
O O3 0.007678 0.533068 0.316269
O O4 0.835551 0.131955 0.193456
O O5 0.615404 0.808256 0.689568
O O6 0.684057 0.228892 0.743145
O O7 0.739891 0.814724 0.891359
O O8 0.000000 0.500000 0.000000
O O9 0.694341 0.522990 0.646142
O O10 0.680572 0.135961 0.591891
O O11 0.065852 0.853772 0.929161
O O12 0.384961 0.217181 0.985687
O O13 0.500000 0.500000 0.000000
O O14 0.589877 0.322453 0.201577
O O15 0.169852 0.510774 0.917698
O O16 0.348495 0.899043 0.051351
O O17 0.520087 0.668624 0.766863
#
# Coordination Sequence:
#
# PCOD9027660 Si02
#       8
#     2   2   2   2   2   2   2   2
#     4  11  23  41  68  98 134 175 228 280 337 416
#     4  12  26  43  67  94 135 185 241 296 364 413
#     4  11  23  45  65  92 139 177 235 290 349 409
#     4  10  23  46  69  99 138 173 215 276 345 417
#     4  10  22  41  68  99 129 181 219 279 340 413
#     4  10  23  43  64 104 133 172 229 273 344 415
#     4  11  28  44  62 101 135 186 238 300 355 418
#     4  11  23  42  66  92 137 180 228 292 344 418
#
# _framework density 24.086652999999998
#
# number of rings (size 3 to 8) (size 9 to 14) (size 15 to 20)
#    0.000    1.250    5.000    1.125    5.250    7.500 
#    0.000    1.250    0.000    0.000    0.000    0.000 
#    0.000    0.000    0.000    0.000    0.000    0.000 
#
# Total GULP energy -89346.919255 kJ/mol
# GULP energy per Si atom -5584.182453 kJ/mol
# Density = 2.403183 g / cm^3
# Si number density = 24.086653 Si / 1000 Ang^3
#
#
#
# Elastic Constant Matrix: (Units=GPa)
#
#
# Indices 1 2 3 4 5 6 
#
# 1 181.8367 39.9057 47.8749 10.2242 -0.5620 19.3504
# 2 39.9057 73.2204 40.2278 22.0084 -2.2139 21.5544
# 3 47.8749 40.2278 129.1557 35.6872 -8.7856 0.7065
# 4 10.2242 22.0084 35.6872 48.0429 -2.3179 -4.7373
# 5 -0.5620 -2.2139 -8.7856 -2.3179 21.8986 -3.2597
# 6 19.3504 21.5544 0.7065 -4.7373 -3.2597 27.6994
#
#
#
# Elastic Compliance Matrix: (Units=1/GPa)
#
#
# Indices 1 2 3 4 5 6 
#
# 1 0.006782 -0.001676 -0.002222 0.000572 -0.001338 -0.003436
# 2 -0.001676 0.026739 -0.004920 -0.010559 -0.003669 -0.021749
# 3 -0.002222 -0.004920 0.011865 -0.005418 0.004326 0.004661
# 4 0.000572 -0.010559 -0.005418 0.030986 0.002062 0.013498
# 5 -0.001338 -0.003669 0.004326 0.002062 0.048666 0.009759
# 6 -0.003436 -0.021749 0.004661 0.013498 0.009759 0.058764
#
#
# Mechanical properties :
#
#
# Convention : Reuss Voigt Hill
#
# Bulk Modulus (GPa) = 36.03683 71.13662 53.58672
# Shear Modulus (GPa) = 23.73188 36.60847 30.17018
#
# Velocity S-wave (km/s) = 3.14231 3.90277 3.54300
# Velocity P-wave (km/s) = 5.30653 7.06446 6.24763
#
# Compressibility (1/GPa) = 0.02774939
#
# Stress axis : x y z
#
# Youngs Moduli (GPa) = 147.45644 37.39831 84.28483
#
# Poissons Ratio (x) = 0.06268 0.18728
# Poissons Ratio (y) = 0.24714 0.41469
# Poissons Ratio (z) = 0.32764 0.18400
#
# Static dielectric constant tensor:
#      x y z
#    x 1.964820 -0.002680 -0.052520 
#    y -0.002680 2.098320 0.006600 
#    z -0.052520 0.006600 1.979410 
# 
# From -- ./inp_files/599012.got.cif
#   From: 2010.05.17/outbox.cif.g08.bks.cpg/sg2_300_cif.got.tgz:599012.got - 2010.06.03 11:33:40.
