data_PCOD9027950
_publ_section_title
;
Structure prediction by ZEFSAII (Michael W. Deem and Ramdas Pophale) SiO2 
 PCOD9027950
Probable space group: P -1
;
_chemical_formula_sum "Si O2"
_cell_formula_units_Z 14
_cell_length_a 12.202479
_cell_length_b 17.794218
_cell_length_c 13.203485
_cell_angle_alpha 155.687775
_cell_angle_beta 30.023937
_cell_angle_gamma 145.593781
_cell_volume 581.496720
_symmetry_space_group_name_H-M "P -1"
_symmetry_group_IT_number 2
_symmetry_cell_setting 'triclinic'
loop_
_space_group_symop_operation_xyz
x,y,z
-x,-y,-z
loop_
_atom_site_type_symbol
_atom_site_label
_atom_site_fract_x
_atom_site_fract_y
_atom_site_fract_z
Si Si1 0.256675 0.118305 0.124575
Si Si2 0.886352 0.321591 0.736885
Si Si3 0.987361 0.741272 0.231048
Si Si4 0.100373 0.767391 0.959701
Si Si5 0.773735 0.570874 0.827901
Si Si6 0.428996 0.162792 0.822480
Si Si7 0.481096 0.214693 0.259414
O O1 0.444934 0.231848 0.188990
O O2 0.052782 0.228349 0.421703
O O3 0.175674 0.926497 0.012814
O O4 0.328607 0.084765 0.913524
O O5 0.650583 0.302795 0.850184
O O6 0.871929 0.213119 0.723441
O O7 0.994108 0.530046 0.933856
O O8 0.738019 0.740872 0.461858
O O9 0.043808 0.849839 0.214820
O O10 0.311803 0.676096 0.710237
O O11 0.892827 0.635212 0.916702
O O12 0.000000 0.500000 0.500000
O O13 0.500000 0.500000 0.000000
O O14 0.731576 0.731603 0.983173
O O15 0.500000 0.000000 0.500000
O O16 0.500000 0.000000 0.000000
#
# Coordination Sequence:
#
# PCOD9027950 Si02
#       7
#     2   2   2   2   2   2   2
#     4  10  24  44  70 110 144 191 249 313 384 460
#     4  10  23  43  69 104 145 190 248 314 382 458
#     4  10  22  41  70 105 143 188 242 312 390 452
#     4  11  24  42  73  99 148 191 248 307 381 455
#     4  12  32  52  77 111 152 208 265 322 384 462
#     4  12  28  47  76 102 153 201 264 316 385 458
#     4   9  21  39  69 108 146 183 238 306 384 458
#
# _framework density 24.075800999999998
#
# number of rings (size 3 to 8) (size 9 to 14) (size 15 to 20)
#    0.000    1.429    0.000    2.571   10.000    9.714 
#    0.000    4.286    0.000    0.000    0.000    0.000 
#    0.000    0.000    0.000    0.000    0.000    0.000 
#
# Total GULP energy -78016.446384 kJ/mol
# GULP energy per Si atom -5572.603313 kJ/mol
# Density = 2.402100 g / cm^3
# Si number density = 24.075801 Si / 1000 Ang^3
#
#
#
# Elastic Constant Matrix: (Units=GPa)
#
#
# Indices 1 2 3 4 5 6 
#
# 1 159.6576 40.8391 49.5161 -26.1397 2.1313 -1.1624
# 2 40.8391 86.6675 39.2056 -28.0027 8.5582 -12.0929
# 3 49.5161 39.2056 157.6975 -37.9163 1.9468 -22.2527
# 4 -26.1397 -28.0027 -37.9163 28.1813 -2.0797 1.0640
# 5 2.1313 8.5582 1.9468 -2.0797 49.0475 -12.4945
# 6 -1.1624 -12.0929 -22.2527 1.0640 -12.4945 51.2040
#
#
#
# Elastic Compliance Matrix: (Units=1/GPa)
#
#
# Indices 1 2 3 4 5 6 
#
# 1 0.007740 -0.002094 -0.001188 0.003533 -0.000006 -0.000910
# 2 -0.002094 0.018398 0.000774 0.017126 -0.001422 0.003931
# 3 -0.001188 0.000774 0.010456 0.013650 0.001285 0.004730
# 4 0.003533 0.017126 0.013650 0.073934 0.001730 0.008943
# 5 -0.000006 -0.001422 0.001285 0.001730 0.022079 0.005574
# 6 -0.000910 0.003931 0.004730 0.008943 0.005574 0.023667
#
#
# Mechanical properties :
#
#
# Convention : Reuss Voigt Hill
#
# Bulk Modulus (GPa) = 31.67125 73.68271 52.67698
# Shear Modulus (GPa) = 29.10084 43.98402 36.54243
#
# Velocity S-wave (km/s) = 3.48043 4.27886 3.90013
# Velocity P-wave (km/s) = 5.41614 7.42175 6.49681
#
# Compressibility (1/GPa) = 0.03157438
#
# Stress axis : x y z
#
# Youngs Moduli (GPa) = 129.20641 54.35476 95.64257
#
# Poissons Ratio (x) = 0.11384 0.11367
# Poissons Ratio (y) = 0.27061 -0.07399
# Poissons Ratio (z) = 0.15356 -0.04205
#
# Static dielectric constant tensor:
#      x y z
#    x 1.907810 0.055530 0.015590 
#    y 0.055530 2.110400 -0.086930 
#    z 0.015590 -0.086930 1.943890 
# 
# From -- ./inp_files/437416.got.cif
#   From: 2010.05.17/outbox.cif.g08.bks.cpg/sg2_219_cif.got.tgz:437416.got - 2010.06.03 11:33:40.
