data_PCOD9027712
_publ_section_title
;
Structure prediction by ZEFSAII (Michael W. Deem and Ramdas Pophale) SiO2 
 PCOD9027712
Probable space group: P -1
;
_chemical_formula_sum "Si O2"
_cell_formula_units_Z 14
_cell_length_a 11.495313
_cell_length_b 9.465679
_cell_length_c 11.939017
_cell_angle_alpha 143.472566
_cell_angle_beta 125.379319
_cell_angle_gamma 58.951154
_cell_volume 627.020054
_symmetry_space_group_name_H-M "P -1"
_symmetry_group_IT_number 2
_symmetry_cell_setting 'triclinic'
loop_
_space_group_symop_operation_xyz
x,y,z
-x,-y,-z
loop_
_atom_site_type_symbol
_atom_site_label
_atom_site_fract_x
_atom_site_fract_y
_atom_site_fract_z
Si Si1 0.154791 0.514460 0.149215
Si Si2 0.652659 0.884717 0.132652
Si Si3 0.748425 0.740060 0.564124
Si Si4 0.814020 0.936046 0.484589
Si Si5 0.842826 0.147543 0.014343
Si Si6 0.351449 0.732448 0.808558
Si Si7 0.970881 0.472370 0.677393
O O1 0.134830 0.466091 0.238952
O O2 0.191004 0.782448 0.323613
O O3 0.263780 0.320033 0.027093
O O4 0.000000 0.500000 0.000000
O O5 0.718779 0.889087 0.294675
O O6 0.668149 0.131496 0.233385
O O7 0.488791 0.828782 0.003819
O O8 0.766806 0.817630 0.496877
O O9 0.630955 0.552366 0.382857
O O10 0.887774 0.576890 0.588084
O O11 0.740070 0.983646 0.786402
O O12 0.975168 0.806760 0.472313
O O13 0.780095 0.198764 0.135360
O O14 0.883450 0.396325 0.143727
O O15 0.000000 0.000000 0.000000
#
# Coordination Sequence:
#
# PCOD9027712 Si02
#       7
#     2   2   2   2   2   2   2
#     4  12  25  43  69 102 139 171 223 279 335 395
#     4  11  27  47  68  97 136 181 224 272 337 395
#     4  11  24  40  71  99 136 176 222 274 336 394
#     4  12  25  42  67 104 138 173 219 281 336 394
#     4  10  22  41  69 102 130 168 225 275 326 389
#     4  11  25  48  71  94 134 182 226 274 327 406
#     4  11  22  43  67 102 137 174 222 277 333 394
#
# _framework density 22.327835
#
# number of rings (size 3 to 8) (size 9 to 14) (size 15 to 20)
#    0.000    0.857    2.857    4.286    4.000    1.714 
#    0.000    5.000    0.000    0.000    0.000    0.000 
#    0.000    0.000    0.000    0.000    0.000    0.000 
#
# Total GULP energy -78302.183030 kJ/mol
# GULP energy per Si atom -5593.013074 kJ/mol
# Density = 2.227702 g / cm^3
# Si number density = 22.327835 Si / 1000 Ang^3
#
#
#
# Elastic Constant Matrix: (Units=GPa)
#
#
# Indices 1 2 3 4 5 6 
#
# 1 74.1493 37.4361 31.8333 -0.0162 2.6305 18.5991
# 2 37.4361 118.6365 57.0747 -9.6674 2.7676 41.9770
# 3 31.8333 57.0747 118.9437 8.7274 -7.3511 35.1983
# 4 -0.0162 -9.6674 8.7274 43.1948 4.1385 -0.5991
# 5 2.6305 2.7676 -7.3511 4.1385 25.6866 -1.2562
# 6 18.5991 41.9770 35.1983 -0.5991 -1.2562 30.8480
#
#
#
# Elastic Compliance Matrix: (Units=1/GPa)
#
#
# Indices 1 2 3 4 5 6 
#
# 1 0.016916 -0.002868 -0.002104 -0.000054 -0.002212 -0.003987
# 2 -0.002868 0.018192 -0.002609 0.004717 -0.004157 -0.020127
# 3 -0.002104 -0.002609 0.014111 -0.004035 0.004639 -0.011172
# 4 -0.000054 0.004717 -0.004035 0.025561 -0.005850 -0.001524
# 5 -0.002212 -0.004157 0.004639 -0.005850 0.042036 0.003296
# 6 -0.003987 -0.020127 -0.011172 -0.001524 0.003296 0.075061
#
#
# Mechanical properties :
#
#
# Convention : Reuss Voigt Hill
#
# Bulk Modulus (GPa) = 29.36169 62.71306 46.03738
# Shear Modulus (GPa) = 22.89465 32.30493 27.59979
#
# Velocity S-wave (km/s) = 3.20564 3.80787 3.51966
# Velocity P-wave (km/s) = 5.18462 6.89068 6.09762
#
# Compressibility (1/GPa) = 0.03405799
#
# Stress axis : x y z
#
# Youngs Moduli (GPa) = 59.11561 54.96958 70.86620
#
# Poissons Ratio (x) = 0.15763 0.14911
# Poissons Ratio (y) = 0.16952 0.18488
# Poissons Ratio (z) = 0.12439 0.14340
#
# Static dielectric constant tensor:
#      x y z
#    x 1.845030 0.006370 0.001010 
#    y 0.006370 1.817650 0.041450 
#    z 0.001010 0.041450 1.905280 
# 
# From -- ./inp_files/420201.got.cif
#   From: 2010.05.17/outbox.cif.g08.bks.cpg/sg2_211_cif.got.tgz:420201.got - 2010.06.03 11:33:40.
