data_PCOD9027185
_publ_section_title
;
Structure prediction by ZEFSAII (Michael W. Deem and Ramdas Pophale) SiO2 
 PCOD9027185
Probable space group: P -1
;
_chemical_formula_sum "Si O2"
_cell_formula_units_Z 15
_cell_length_a 12.344175
_cell_length_b 5.273553
_cell_length_c 21.065470
_cell_angle_alpha 102.685113
_cell_angle_beta 26.489612
_cell_angle_gamma 104.866921
_cell_volume 591.018235
_symmetry_space_group_name_H-M "P -1"
_symmetry_group_IT_number 2
_symmetry_cell_setting 'triclinic'
loop_
_space_group_symop_operation_xyz
x,y,z
-x,-y,-z
loop_
_atom_site_type_symbol
_atom_site_label
_atom_site_fract_x
_atom_site_fract_y
_atom_site_fract_z
Si Si1 0.240820 0.483074 0.009708
Si Si2 0.724042 0.873453 0.734599
Si Si3 0.891730 0.530321 0.297702
Si Si4 0.000000 0.500000 0.000000
Si Si5 0.450550 0.251447 0.314491
Si Si6 0.491208 0.112263 0.425001
Si Si7 0.508129 0.788963 0.040621
Si Si8 0.845513 0.353277 0.441414
O O1 0.085769 0.640043 0.148670
O O2 0.088299 0.427609 0.022506
O O3 0.503164 0.651555 0.863480
O O4 0.282739 0.226041 0.015033
O O5 0.664887 0.909236 0.694060
O O6 0.985460 0.792371 0.609769
O O7 0.704953 0.133462 0.798253
O O8 0.731118 0.285553 0.333822
O O9 0.725975 0.740187 0.423552
O O10 0.994057 0.417720 0.302098
O O11 0.708351 0.413106 0.167200
O O12 0.503145 0.099956 0.341989
O O13 0.250778 0.426575 0.454006
O O14 0.404806 0.808038 0.466757
O O15 0.500000 0.500000 0.000000
O O16 0.500000 0.000000 0.000000
#
# Coordination Sequence:
#
# PCOD9027185 Si02
#       8
#     2   2   2   1   2   2   2   2
#     4  11  24  45  77 109 156 201 260 321 390 464
#     4  11  26  45  72 110 152 202 255 323 390 467
#     4  10  22  41  67 101 143 194 247 315 377 455
#     4  10  22  48  74 106 152 200 260 324 386 472
#     4  10  23  46  70 105 145 200 253 315 390 466
#     4  10  22  42  65  99 144 192 246 308 380 463
#     4  12  26  47  74 113 158 203 257 319 396 466
#     4  11  24  41  71 105 148 197 256 315 393 465
#
# _framework density 25.379929000000001
#
# number of rings (size 3 to 8) (size 9 to 14) (size 15 to 20)
#    0.000    1.333    2.667    1.600    1.867    4.800 
#    4.800    3.333    0.000    0.000    0.000    0.000 
#    0.000    0.000    0.000    0.000    0.000    0.000 
#
# Total GULP energy -83541.756058 kJ/mol
# GULP energy per Si atom -5569.450404 kJ/mol
# Density = 2.532216 g / cm^3
# Si number density = 25.379929 Si / 1000 Ang^3
#
#
#
# Elastic Constant Matrix: (Units=GPa)
#
#
# Indices 1 2 3 4 5 6 
#
# 1 204.6180 52.2636 30.4802 -18.0984 17.3796 -13.8689
# 2 52.2636 79.8589 7.8586 -4.2362 11.2679 5.5105
# 3 30.4802 7.8586 91.0809 -24.9622 8.6309 -5.9756
# 4 -18.0984 -4.2362 -24.9622 19.5347 0.1886 -6.0930
# 5 17.3796 11.2679 8.6309 0.1886 48.6166 -8.6481
# 6 -13.8689 5.5105 -5.9756 -6.0930 -8.6481 36.3721
#
#
#
# Elastic Compliance Matrix: (Units=1/GPa)
#
#
# Indices 1 2 3 4 5 6 
#
# 1 0.006980 -0.004413 0.000475 0.007522 -0.000789 0.004481
# 2 -0.004413 0.016122 -0.000972 -0.003548 -0.002966 -0.005585
# 3 0.000475 -0.000972 0.018916 0.026735 -0.002087 0.007419
# 4 0.007522 -0.003548 0.026735 0.098978 -0.002778 0.023718
# 5 -0.000789 -0.002966 -0.002087 -0.002778 0.022765 0.004753
# 6 0.004481 -0.005585 0.007419 0.023718 0.004753 0.036370
#
#
# Mechanical properties :
#
#
# Convention : Reuss Voigt Hill
#
# Bulk Modulus (GPa) = 31.05863 61.86249 46.46056
# Shear Modulus (GPa) = 22.65691 39.90170 31.27930
#
# Velocity S-wave (km/s) = 2.99107 3.96937 3.51442
# Velocity P-wave (km/s) = 4.91861 6.74057 5.90034
#
# Compressibility (1/GPa) = 0.03219717
#
# Stress axis : x y z
#
# Youngs Moduli (GPa) = 143.27377 62.02805 52.86625
#
# Poissons Ratio (x) = 0.27376 -0.02513
# Poissons Ratio (y) = 0.63234 0.05137
# Poissons Ratio (z) = -0.06809 0.06027
#
# Static dielectric constant tensor:
#      x y z
#    x 2.024670 -0.043740 -0.022570 
#    y -0.043740 2.109940 -0.073910 
#    z -0.022570 -0.073910 2.032490 
# 
# From -- ./inp_files/592789.got.cif
#   From: 2010.05.17/outbox.cif.g08.bks.cpg/sg2_297_cif.got.tgz:592789.got - 2010.06.03 11:33:40.
