data_PCOD9027887
_publ_section_title
;
Structure prediction by ZEFSAII (Michael W. Deem and Ramdas Pophale) SiO2 
 PCOD9027887
Probable space group: P -1
;
_chemical_formula_sum "Si O2"
_cell_formula_units_Z 16
_cell_length_a 14.823939
_cell_length_b 24.216481
_cell_length_c 18.645504
_cell_angle_alpha 20.503397
_cell_angle_beta 28.446562
_cell_angle_gamma 17.521021
_cell_volume 699.622888
_symmetry_space_group_name_H-M "P -1"
_symmetry_group_IT_number 2
_symmetry_cell_setting 'triclinic'
loop_
_space_group_symop_operation_xyz
x,y,z
-x,-y,-z
loop_
_atom_site_type_symbol
_atom_site_label
_atom_site_fract_x
_atom_site_fract_y
_atom_site_fract_z
Si Si1 0.404700 0.619558 0.130750
Si Si2 0.034013 0.153852 0.318539
Si Si3 0.182504 0.967370 0.126658
Si Si4 0.308560 0.188529 0.970636
Si Si5 0.219052 0.019811 0.517133
Si Si6 0.188760 0.501244 0.317951
Si Si7 0.184300 0.269514 0.361951
Si Si8 0.038696 0.850397 0.245301
O O1 0.711144 0.438852 0.179375
O O2 0.388463 0.487548 0.246344
O O3 0.153013 0.748427 0.210004
O O4 0.292003 0.853118 0.888318
O O5 0.000000 0.000000 0.500000
O O6 0.106908 0.108240 0.406637
O O7 0.277647 0.084148 0.183773
O O8 0.966124 0.995023 0.291982
O O9 0.499798 0.790226 0.158216
O O10 0.221633 0.859023 0.153867
O O11 0.023899 0.239304 0.892293
O O12 0.969255 0.460164 0.855174
O O13 0.500000 0.000000 0.000000
O O14 0.572434 0.743262 0.601876
O O15 0.178323 0.207719 0.360431
O O16 0.000000 0.500000 0.500000
O O17 0.956254 0.312684 0.516742
O O18 0.500000 0.000000 0.500000
#
# Coordination Sequence:
#
# PCOD9027887 Si02
#       8
#     2   2   2   2   2   2   2   2
#     4  10  22  41  69  99 138 182 229 285 349 414
#     4  12  25  45  69 102 141 180 231 283 357 416
#     4  10  24  44  67 100 137 183 240 285 351 415
#     4  12  29  46  72 105 138 185 234 294 350 426
#     4  11  25  44  70 100 142 189 229 294 351 418
#     4  11  23  41  70 102 141 186 239 288 350 412
#     4  11  27  46  71 101 140 184 237 290 356 411
#     4   9  22  43  69  97 133 185 227 289 348 414
#
# _framework density 22.869464000000001
#
# number of rings (size 3 to 8) (size 9 to 14) (size 15 to 20)
#    0.000    1.250    1.250    2.625    8.750    1.500 
#    4.500    0.000    0.000    0.000    0.000    0.000 
#    0.000    0.000    0.000    0.000    0.000    0.000 
#
# Total GULP energy -89445.920261 kJ/mol
# GULP energy per Si atom -5590.370016 kJ/mol
# Density = 2.281741 g / cm^3
# Si number density = 22.869464 Si / 1000 Ang^3
#
#
#
# Elastic Constant Matrix: (Units=GPa)
#
#
# Indices 1 2 3 4 5 6 
#
# 1 87.0528 13.1154 17.5140 -11.2342 27.0035 8.0554
# 2 13.1154 81.2894 22.4946 -3.4863 3.1249 5.3760
# 3 17.5140 22.4946 96.6647 6.3172 16.1795 9.3526
# 4 -11.2342 -3.4863 6.3172 31.6437 -1.8023 4.5924
# 5 27.0035 3.1249 16.1795 -1.8023 25.7971 -4.4646
# 6 8.0554 5.3760 9.3526 4.5924 -4.4646 41.8163
#
#
#
# Elastic Compliance Matrix: (Units=1/GPa)
#
#
# Indices 1 2 3 4 5 6 
#
# 1 0.019796 -0.001832 0.000697 0.006433 -0.021656 -0.006753
# 2 -0.001832 0.013522 -0.003261 0.001710 0.002341 -0.000594
# 3 0.000697 -0.003261 0.013031 -0.002760 -0.009275 -0.003317
# 4 0.006433 0.001710 -0.002760 0.035157 -0.003635 -0.005091
# 5 -0.021656 0.002341 -0.009275 -0.003635 0.069086 0.013720
# 6 -0.006753 -0.000594 -0.003317 -0.005091 0.013720 0.028057
#
#
# Mechanical properties :
#
#
# Convention : Reuss Voigt Hill
#
# Bulk Modulus (GPa) = 26.62552 41.25054 33.93803
# Shear Modulus (GPa) = 25.00497 33.97696 29.49097
#
# Velocity S-wave (km/s) = 3.31021 3.85865 3.59490
# Velocity P-wave (km/s) = 5.12618 6.15863 5.66597
#
# Compressibility (1/GPa) = 0.03755795
#
# Stress axis : x y z
#
# Youngs Moduli (GPa) = 50.51616 73.95192 76.73880
#
# Poissons Ratio (x) = 0.13547 -0.05351
# Poissons Ratio (y) = 0.09254 0.25025
# Poissons Ratio (z) = -0.03522 0.24116
#
# Static dielectric constant tensor:
#      x y z
#    x 1.844130 -0.063610 -0.024750 
#    y -0.063610 1.900200 -0.027800 
#    z -0.024750 -0.027800 1.935300 
# 
# From -- ./inp_files/574399.got.cif
#   From: 2010.05.17/outbox.cif.g08.bks.cpg/sg2_288_cif.got.tgz:574399.got - 2010.06.03 11:33:40.
