data_PCOD9027586
_publ_section_title
;
Structure prediction by ZEFSAII (Michael W. Deem and Ramdas Pophale) SiO2 
 PCOD9027586
Probable space group: P -1
;
_chemical_formula_sum "Si O2"
_cell_formula_units_Z 16
_cell_length_a 12.121988
_cell_length_b 12.806558
_cell_length_c 11.204631
_cell_angle_alpha 115.409705
_cell_angle_beta 142.610793
_cell_angle_gamma 91.215479
_cell_volume 716.533104
_symmetry_space_group_name_H-M "P -1"
_symmetry_group_IT_number 2
_symmetry_cell_setting 'triclinic'
loop_
_space_group_symop_operation_xyz
x,y,z
-x,-y,-z
loop_
_atom_site_type_symbol
_atom_site_label
_atom_site_fract_x
_atom_site_fract_y
_atom_site_fract_z
Si Si1 0.224154 0.106796 0.445332
Si Si2 0.861891 0.899682 0.216122
Si Si3 0.848219 0.657547 0.450222
Si Si4 0.653204 0.580114 0.976178
Si Si5 0.983001 0.365293 0.861096
Si Si6 0.205888 0.876370 0.202237
Si Si7 0.295405 0.790995 0.011724
Si Si8 0.475440 0.920138 0.813983
O O1 0.126359 0.194439 0.423025
O O2 0.166418 0.998763 0.231397
O O3 0.511140 0.221382 0.781012
O O4 0.084379 0.972658 0.356961
O O5 0.717720 0.729214 0.048958
O O6 0.677378 0.907633 0.998030
O O7 0.000000 0.000000 0.500000
O O8 0.779674 0.619956 0.233623
O O9 0.084728 0.678109 0.681403
O O10 0.626346 0.534182 0.284974
O O11 0.766956 0.544846 0.955453
O O12 0.913651 0.248254 0.853844
O O13 0.773488 0.245389 0.523825
O O14 0.000000 0.500000 0.000000
O O15 0.500000 0.000000 0.500000
O O16 0.139061 0.779025 0.978821
O O17 0.449242 0.957409 0.163285
O O18 0.500000 0.000000 0.000000
#
# Coordination Sequence:
#
# PCOD9027586 Si02
#       8
#     2   2   2   2   2   2   2   2
#     4  11  21  40  70  97 131 178 230 298 342 410
#     4  12  21  41  71 101 136 179 238 300 350 414
#     4  11  25  44  68 102 138 183 234 300 359 419
#     4  11  25  46  63  98 147 179 231 299 362 419
#     4  12  26  46  69 103 150 189 231 301 366 421
#     4  10  22  41  68  95 137 182 234 283 343 426
#     4  11  22  42  69 100 134 176 243 282 347 425
#     4  12  24  42  75 109 134 185 245 292 355 430
#
# _framework density 22.329743000000001
#
# number of rings (size 3 to 8) (size 9 to 14) (size 15 to 20)
#    0.000    0.750    6.250    2.250    3.500    1.500 
#    2.250    2.500    0.000    0.000    0.000    0.000 
#    0.000    0.000    0.000    0.000    0.000    0.000 
#
# Total GULP energy -89112.429170 kJ/mol
# GULP energy per Si atom -5569.526823 kJ/mol
# Density = 2.227892 g / cm^3
# Si number density = 22.329743 Si / 1000 Ang^3
#
#
#
# Elastic Constant Matrix: (Units=GPa)
#
#
# Indices 1 2 3 4 5 6 
#
# 1 108.1639 32.1594 7.8237 14.0955 6.1561 7.4206
# 2 32.1594 56.2671 19.3307 6.5396 2.4613 -5.7512
# 3 7.8237 19.3307 75.2596 -9.3485 14.0274 -3.6601
# 4 14.0955 6.5396 -9.3485 35.4283 -2.8440 -4.3452
# 5 6.1561 2.4613 14.0274 -2.8440 31.3276 7.6771
# 6 7.4206 -5.7512 -3.6601 -4.3452 7.6771 26.4431
#
#
#
# Elastic Compliance Matrix: (Units=1/GPa)
#
#
# Indices 1 2 3 4 5 6 
#
# 1 0.012339 -0.007019 -0.000129 -0.004389 -0.000872 -0.005475
# 2 -0.007019 0.024624 -0.005659 -0.002481 0.000269 0.006056
# 3 -0.000129 -0.005659 0.017093 0.005515 -0.007743 0.004325
# 4 -0.004389 -0.002481 0.005515 0.032718 -0.000125 0.006868
# 5 -0.000872 0.000269 -0.007743 -0.000125 0.038456 -0.011954
# 6 -0.005475 0.006056 0.004325 0.006868 -0.011954 0.045868
#
#
# Mechanical properties :
#
#
# Convention : Reuss Voigt Hill
#
# Bulk Modulus (GPa) = 35.15946 39.81312 37.48629
# Shear Modulus (GPa) = 24.24922 30.66491 27.45707
#
# Velocity S-wave (km/s) = 3.29897 3.70979 3.51040
# Velocity P-wave (km/s) = 5.50370 6.01818 5.76668
#
# Compressibility (1/GPa) = 0.02844185
#
# Stress axis : x y z
#
# Youngs Moduli (GPa) = 81.04561 40.61073 58.50409
#
# Poissons Ratio (x) = 0.28506 0.00752
# Poissons Ratio (y) = 0.56889 0.33107
# Poissons Ratio (z) = 0.01042 0.22981
#
# Static dielectric constant tensor:
#      x y z
#    x 1.982820 -0.066960 -0.026960 
#    y -0.066960 1.842580 0.000030 
#    z -0.026960 0.000030 1.925770 
# 
# From -- ./inp_files/434268.got.cif
#   From: 2010.05.17/outbox.cif.g08.bks.cpg/sg2_218_cif.got.tgz:434268.got - 2010.06.03 11:33:40.
