data_PCOD9027106
_publ_section_title
;
Structure prediction by ZEFSAII (Michael W. Deem and Ramdas Pophale) SiO2 
 PCOD9027106
Probable space group: P -1
;
_chemical_formula_sum "Si O2"
_cell_formula_units_Z 16
_cell_length_a 8.775564
_cell_length_b 12.995841
_cell_length_c 11.178656
_cell_angle_alpha 42.856751
_cell_angle_beta 91.467853
_cell_angle_gamma 119.009910
_cell_volume 631.030539
_symmetry_space_group_name_H-M "P -1"
_symmetry_group_IT_number 2
_symmetry_cell_setting 'triclinic'
loop_
_space_group_symop_operation_xyz
x,y,z
-x,-y,-z
loop_
_atom_site_type_symbol
_atom_site_label
_atom_site_fract_x
_atom_site_fract_y
_atom_site_fract_z
Si Si1 0.061119 0.716128 0.310529
Si Si2 0.128170 0.906630 0.412165
Si Si3 0.456063 0.280989 0.947562
Si Si4 0.722380 0.727176 0.278029
Si Si5 0.221381 0.766660 0.030783
Si Si6 0.098270 0.971645 0.747625
Si Si7 0.144670 0.616513 0.786289
Si Si8 0.625981 0.514786 0.099614
O O1 0.874486 0.693338 0.277116
O O2 0.000000 0.500000 0.500000
O O3 0.093388 0.795940 0.378700
O O4 0.235584 0.834846 0.108588
O O5 0.167144 0.808902 0.596453
O O6 0.948229 0.908887 0.435512
O O7 0.333341 0.138540 0.182146
O O8 0.312556 0.187274 0.907741
O O9 0.639045 0.287136 0.932611
O O10 0.495135 0.486527 0.792207
O O11 0.500000 0.500000 0.500000
O O12 0.833283 0.895968 0.241998
O O13 0.991620 0.544559 0.187814
O O14 0.248945 0.925048 0.801942
O O15 0.868704 0.736018 0.930864
O O16 0.348077 0.648005 0.769605
O O17 0.000000 0.500000 0.000000
O O18 0.500000 0.500000 0.000000
#
# Coordination Sequence:
#
# PCOD9027106 Si02
#       8
#     2   2   2   2   2   2   2   2
#     4  11  20  35  63  96 136 178 222 266 339 420
#     4  10  22  41  66  97 135 178 220 286 348 403
#     4  11  24  41  65 102 142 177 231 281 338 417
#     4  11  23  39  65 103 142 184 225 279 347 416
#     4  11  22  41  64  99 139 183 223 276 345 414
#     4   9  22  42  64  97 137 172 227 274 341 406
#     4  11  23  43  71  96 131 180 233 283 345 415
#     4  10  22  46  70  95 131 180 227 287 343 401
#
# _framework density 25.355350999999999
#
# number of rings (size 3 to 8) (size 9 to 14) (size 15 to 20)
#    0.000    1.500    1.250    4.500    1.750    6.500 
#    0.000   11.250    0.000    0.000    0.000    0.000 
#    0.000    0.000    0.000    0.000    0.000    0.000 
#
# Total GULP energy -89209.477794 kJ/mol
# GULP energy per Si atom -5575.592362 kJ/mol
# Density = 2.529764 g / cm^3
# Si number density = 25.355351 Si / 1000 Ang^3
#
#
#
# Elastic Constant Matrix: (Units=GPa)
#
#
# Indices 1 2 3 4 5 6 
#
# 1 200.7393 8.6993 43.8906 12.3230 59.0332 6.7546
# 2 8.6993 101.7401 16.7515 5.7311 8.8315 9.4035
# 3 43.8906 16.7515 117.7643 11.9240 31.1759 8.6273
# 4 12.3230 5.7311 11.9240 35.1420 4.2446 3.7387
# 5 59.0332 8.8315 31.1759 4.2446 54.8716 -0.9016
# 6 6.7546 9.4035 8.6273 3.7387 -0.9016 38.1221
#
#
#
# Elastic Compliance Matrix: (Units=1/GPa)
#
#
# Indices 1 2 3 4 5 6 
#
# 1 0.007486 0.000322 -0.000557 -0.001418 -0.007701 -0.001323
# 2 0.000322 0.010355 -0.000934 -0.001063 -0.001439 -0.002330
# 3 -0.000557 -0.000934 0.010569 -0.002416 -0.005101 -0.001947
# 4 -0.001418 -0.001063 -0.002416 0.030059 0.000713 -0.001871
# 5 -0.007701 -0.001439 -0.005101 0.000713 0.029642 0.003505
# 6 -0.001323 -0.002330 -0.001947 -0.001871 0.003505 0.027748
#
#
# Mechanical properties :
#
#
# Convention : Reuss Voigt Hill
#
# Bulk Modulus (GPa) = 38.35250 62.10295 50.22773
# Shear Modulus (GPa) = 39.40531 49.02062 44.21296
#
# Velocity S-wave (km/s) = 3.94651 4.40175 4.18033
# Velocity P-wave (km/s) = 5.99378 7.09789 6.56908
#
# Compressibility (1/GPa) = 0.02607392
#
# Stress axis : x y z
#
# Youngs Moduli (GPa) = 133.59071 96.56894 94.61228
#
# Poissons Ratio (x) = -0.03111 0.05265
# Poissons Ratio (y) = -0.04304 0.08835
# Poissons Ratio (z) = 0.07435 0.09018
#
# Static dielectric constant tensor:
#      x y z
#    x 2.050160 -0.044000 0.030040 
#    y -0.044000 2.108690 -0.031050 
#    z 0.030040 -0.031050 2.103020 
# 
# From -- ./inp_files/398421.got.cif
#   From: 2010.05.17/outbox.cif.g08.bks.cpg/sg2_200_cif.got.tgz:398421.got - 2010.06.03 11:33:40.
