data_PCOD9027045
_publ_section_title
;
Structure prediction by ZEFSAII (Michael W. Deem and Ramdas Pophale) SiO2 
 PCOD9027045
Probable space group: P -1
;
_chemical_formula_sum "Si O2"
_cell_formula_units_Z 14
_cell_length_a 11.924209
_cell_length_b 8.025434
_cell_length_c 13.638275
_cell_angle_alpha 117.317686
_cell_angle_beta 32.605170
_cell_angle_gamma 127.277598
_cell_volume 555.580243
_symmetry_space_group_name_H-M "P -1"
_symmetry_group_IT_number 2
_symmetry_cell_setting 'triclinic'
loop_
_space_group_symop_operation_xyz
x,y,z
-x,-y,-z
loop_
_atom_site_type_symbol
_atom_site_label
_atom_site_fract_x
_atom_site_fract_y
_atom_site_fract_z
Si Si1 0.360592 0.626481 0.607896
Si Si2 0.745203 0.846184 0.249879
Si Si3 0.770048 0.099623 0.106865
Si Si4 0.897320 0.649747 0.662970
Si Si5 0.110447 0.595272 0.217289
Si Si6 0.504363 0.395253 0.197351
Si Si7 0.715672 0.037611 0.655855
O O1 0.500000 0.500000 0.500000
O O2 0.563579 0.833177 0.462818
O O3 0.246133 0.686385 0.799964
O O4 0.152578 0.501394 0.652486
O O5 0.619451 0.618548 0.227096
O O6 0.783213 0.014149 0.182598
O O7 0.996921 0.877296 0.110736
O O8 0.523813 0.955914 0.198141
O O9 0.869279 0.584539 0.779086
O O10 0.659702 0.603529 0.770558
O O11 0.000000 0.500000 0.500000
O O12 0.094855 0.879281 0.548137
O O13 0.179873 0.801818 0.287249
O O14 0.288771 0.645702 0.010629
O O15 0.349144 0.196716 0.325985
#
# Coordination Sequence:
#
# PCOD9027045 Si02
#       7
#     2   2   2   2   2   2   2
#     4  12  26  45  73 103 141 183 235 292 355 416
#     4  11  24  45  73  97 144 186 237 287 350 419
#     4  11  25  46  69 104 137 188 237 287 348 425
#     4  10  22  41  66  95 134 179 229 279 346 413
#     4  11  24  46  68 102 141 181 237 286 352 424
#     4  12  23  42  72 103 139 182 233 294 354 411
#     4  11  24  43  69 101 141 176 233 291 352 412
#
# _framework density 25.198879999999999
#
# number of rings (size 3 to 8) (size 9 to 14) (size 15 to 20)
#    0.000    0.857    1.429    6.857    2.000    2.286 
#    2.571    0.000    0.000    0.000    0.000    0.000 
#    0.000    0.000    0.000    0.000    0.000    0.000 
#
# Total GULP energy -78502.051304 kJ/mol
# GULP energy per Si atom -5607.289379 kJ/mol
# Density = 2.514153 g / cm^3
# Si number density = 25.198880 Si / 1000 Ang^3
#
#
#
# Elastic Constant Matrix: (Units=GPa)
#
#
# Indices 1 2 3 4 5 6 
#
# 1 88.5574 13.1728 15.7851 -8.0327 -36.9696 8.1349
# 2 13.1728 67.3256 13.2387 0.1580 -0.9770 0.5607
# 3 15.7851 13.2387 128.8498 -9.7424 -28.0011 9.7193
# 4 -8.0327 0.1580 -9.7424 33.4462 1.1160 -2.2530
# 5 -36.9696 -0.9770 -28.0011 1.1160 54.6256 -11.1601
# 6 8.1349 0.5607 9.7193 -2.2530 -11.1601 55.0812
#
#
#
# Elastic Compliance Matrix: (Units=1/GPa)
#
#
# Indices 1 2 3 4 5 6 
#
# 1 0.016923 -0.003377 0.001169 0.004018 0.011890 -0.000098
# 2 -0.003377 0.015861 -0.001968 -0.001358 -0.002977 0.000026
# 3 0.001169 -0.001968 0.009227 0.002761 0.005308 -0.000592
# 4 0.004018 -0.001358 0.002761 0.031617 0.003662 0.000968
# 5 0.011890 -0.002977 0.005308 0.003662 0.029661 0.003497
# 6 -0.000098 0.000026 -0.000592 0.000968 0.003497 0.019022
#
#
# Mechanical properties :
#
#
# Convention : Reuss Voigt Hill
#
# Bulk Modulus (GPa) = 29.70970 41.01398 35.36184
# Shear Modulus (GPa) = 35.24063 44.79969 40.02016
#
# Velocity S-wave (km/s) = 3.74371 4.22102 3.98951
# Velocity P-wave (km/s) = 5.52294 6.32989 5.94013
#
# Compressibility (1/GPa) = 0.03365905
#
# Stress axis : x y z
#
# Youngs Moduli (GPa) = 59.09065 63.04935 108.37878
#
# Poissons Ratio (x) = 0.21292 -0.12667
# Poissons Ratio (y) = 0.19955 0.21324
# Poissons Ratio (z) = -0.06906 0.12405
#
# Static dielectric constant tensor:
#      x y z
#    x 2.031990 -0.041170 0.038330 
#    y -0.041170 2.012670 -0.030020 
#    z 0.038330 -0.030020 1.951270 
# 
# From -- ./inp_files/243338.got.cif
#   From: 2010.05.17/outbox.cif.g08.bks.cpg/sg2_122_cif.got.tgz:243338.got - 2010.06.03 11:33:40.
