data_PCOD9027502
_publ_section_title
;
Structure prediction by ZEFSAII (Michael W. Deem and Ramdas Pophale) SiO2 
 PCOD9027502
Probable space group: P -1
;
_chemical_formula_sum "Si O2"
_cell_formula_units_Z 16
_cell_length_a 16.763032
_cell_length_b 12.288620
_cell_length_c 8.607589
_cell_angle_alpha 135.861017
_cell_angle_beta 138.329860
_cell_angle_gamma 39.943741
_cell_volume 711.877554
_symmetry_space_group_name_H-M "P -1"
_symmetry_group_IT_number 2
_symmetry_cell_setting 'triclinic'
loop_
_space_group_symop_operation_xyz
x,y,z
-x,-y,-z
loop_
_atom_site_type_symbol
_atom_site_label
_atom_site_fract_x
_atom_site_fract_y
_atom_site_fract_z
Si Si1 0.403478 0.957584 0.205184
Si Si2 0.903064 0.852591 0.537676
Si Si3 0.557194 0.535988 0.959016
Si Si4 0.192436 0.511440 0.569240
Si Si5 0.867617 0.813058 0.803778
Si Si6 0.084703 0.854929 0.339653
Si Si7 0.352357 0.148871 0.000899
Si Si8 0.658919 0.506422 0.555270
O O1 0.500000 0.000000 0.500000
O O2 0.266689 0.002380 0.148309
O O3 0.487795 0.751299 0.064831
O O4 0.351231 0.086959 0.112698
O O5 0.904608 0.833633 0.704599
O O6 0.771633 0.847687 0.271232
O O7 0.044063 0.684998 0.507898
O O8 0.897824 0.033108 0.658353
O O9 0.493669 0.465633 0.663674
O O10 0.500000 0.500000 0.000000
O O11 0.719836 0.457746 0.137457
O O12 0.172300 0.343172 0.407536
O O13 0.281496 0.471975 0.501779
O O14 0.991573 0.772469 0.058991
O O15 0.233106 0.696211 0.445606
O O16 0.000000 0.000000 0.500000
O O17 0.341648 0.342868 0.181961
O O18 0.500000 0.000000 0.000000
#
# Coordination Sequence:
#
# PCOD9027502 Si02
#       8
#     2   2   2   2   2   2   2   2
#     4  12  22  44  73 103 139 192 244 292 361 428
#     4  12  27  46  68 109 146 185 243 299 362 432
#     4  10  22  41  68 107 139 182 238 292 355 430
#     4  11  23  43  74 103 146 189 239 296 355 437
#     4  12  25  44  71 102 144 191 239 297 360 431
#     4  12  25  46  74 107 145 189 236 298 363 434
#     4  12  27  48  74 105 141 186 247 306 362 429
#     4  11  23  46  74 107 141 191 242 300 364 428
#
# _framework density 22.475776
#
# number of rings (size 3 to 8) (size 9 to 14) (size 15 to 20)
#    0.000    0.500    3.750    5.250    1.750    1.000 
#    2.250    1.250    0.000    0.000    0.000    0.000 
#    0.000    0.000    0.000    0.000    0.000    0.000 
#
# Total GULP energy -89634.136866 kJ/mol
# GULP energy per Si atom -5602.133554 kJ/mol
# Density = 2.242462 g / cm^3
# Si number density = 22.475776 Si / 1000 Ang^3
#
#
#
# Elastic Constant Matrix: (Units=GPa)
#
#
# Indices 1 2 3 4 5 6 
#
# 1 49.6820 10.8392 28.6828 5.0422 5.7316 1.2066
# 2 10.8392 94.1511 19.3049 0.4531 13.2593 -2.3435
# 3 28.6828 19.3049 114.3033 -25.6590 25.3220 -12.0523
# 4 5.0422 0.4531 -25.6590 38.4926 -3.9138 9.0939
# 5 5.7316 13.2593 25.3220 -3.9138 34.8595 -6.2903
# 6 1.2066 -2.3435 -12.0523 9.0939 -6.2903 45.2427
#
#
#
# Elastic Compliance Matrix: (Units=1/GPa)
#
#
# Indices 1 2 3 4 5 6 
#
# 1 0.026264 -0.001407 -0.008769 -0.008860 0.001387 -0.001136
# 2 -0.001407 0.011493 -0.001035 -0.001013 -0.003489 0.000076
# 3 -0.008769 -0.001035 0.015308 0.010302 -0.007932 0.001085
# 4 -0.008860 -0.001013 0.010302 0.034806 -0.002531 -0.004420
# 5 0.001387 -0.003489 -0.007932 -0.002531 0.035834 0.003160
# 6 -0.001136 0.000076 0.001085 -0.004420 0.003160 0.023754
#
#
# Mechanical properties :
#
#
# Convention : Reuss Voigt Hill
#
# Bulk Modulus (GPa) = 32.63155 41.75446 37.19300
# Shear Modulus (GPa) = 27.76317 37.00626 32.38471
#
# Velocity S-wave (km/s) = 3.51842 4.06210 3.80000
# Velocity P-wave (km/s) = 5.57277 6.37329 5.98643
#
# Compressibility (1/GPa) = 0.03064519
#
# Stress axis : x y z
#
# Youngs Moduli (GPa) = 38.07462 87.00619 65.32476
#
# Poissons Ratio (x) = 0.12238 0.57283
# Poissons Ratio (y) = 0.05356 0.06760
# Poissons Ratio (z) = 0.33387 0.09003
#
# Static dielectric constant tensor:
#      x y z
#    x 1.808620 0.013360 -0.046670 
#    y 0.013360 1.804590 -0.012560 
#    z -0.046670 -0.012560 1.808910 
# 
# From -- ./inp_files/285159.got.cif
#   From: 2010.05.17/outbox.cif.g08.bks.cpg/sg2_143_cif.got.tgz:285159.got - 2010.06.03 11:33:40.
