data_PCOD9027757
_publ_section_title
;
Structure prediction by ZEFSAII (Michael W. Deem and Ramdas Pophale) SiO2 
 PCOD9027757
Probable space group: P -1
;
_chemical_formula_sum "Si O2"
_cell_formula_units_Z 16
_cell_length_a 5.542882
_cell_length_b 15.055717
_cell_length_c 13.544829
_cell_angle_alpha 128.084112
_cell_angle_beta 125.363349
_cell_angle_gamma 48.312972
_cell_volume 636.521237
_symmetry_space_group_name_H-M "P -1"
_symmetry_group_IT_number 2
_symmetry_cell_setting 'triclinic'
loop_
_space_group_symop_operation_xyz
x,y,z
-x,-y,-z
loop_
_atom_site_type_symbol
_atom_site_label
_atom_site_fract_x
_atom_site_fract_y
_atom_site_fract_z
Si Si1 0.646096 0.407443 0.754185
Si Si2 0.827638 0.961904 0.118232
Si Si3 0.343780 0.690130 0.814160
Si Si4 0.510087 0.939422 0.297033
Si Si5 0.414443 0.647216 0.582347
Si Si6 0.408620 0.163771 0.324418
Si Si7 0.879375 0.735711 0.083038
Si Si8 0.216675 0.268615 0.622415
O O1 0.388076 0.553017 0.763994
O O2 0.442108 0.330881 0.680428
O O3 0.838335 0.396743 0.896084
O O4 0.927978 0.355149 0.696588
O O5 0.970456 0.811149 0.074554
O O6 0.164273 0.968890 0.178719
O O7 0.677082 0.064586 0.241956
O O8 0.500000 0.000000 0.000000
O O9 0.498944 0.673899 0.729900
O O10 0.957352 0.792820 0.778769
O O11 0.558213 0.727401 0.963217
O O12 0.790820 0.832679 0.220638
O O13 0.560909 0.867675 0.363635
O O14 0.520624 0.072043 0.383905
O O15 0.500000 0.500000 0.500000
O O16 0.571584 0.704187 0.579511
O O17 0.018599 0.727454 0.520629
#
# Coordination Sequence:
#
# PCOD9027757 Si02
#       8
#     2   2   2   2   2   2   2   2
#     4  11  24  47  72 106 144 190 238 296 361 429
#     4  11  20  40  68  98 143 180 229 293 353 431
#     4  12  25  43  68 105 143 185 241 293 355 434
#     4  10  22  44  68 101 142 181 233 296 359 429
#     4  12  26  46  69 100 140 191 239 298 350 425
#     4  11  25  41  67 103 137 183 241 288 363 417
#     4  10  22  41  69 105 140 183 229 295 365 425
#     4  11  25  47  76 102 143 194 242 293 360 421
#
# _framework density 25.136634000000001
#
# number of rings (size 3 to 8) (size 9 to 14) (size 15 to 20)
#    0.000    1.000    2.500    4.125    1.750    3.500 
#    0.000    4.375    0.000    0.000    0.000    0.000 
#    0.000    0.000    0.000    0.000    0.000    0.000 
#
# Total GULP energy -89402.042987 kJ/mol
# GULP energy per Si atom -5587.627687 kJ/mol
# Density = 2.507942 g / cm^3
# Si number density = 25.136634 Si / 1000 Ang^3
#
#
#
# Elastic Constant Matrix: (Units=GPa)
#
#
# Indices 1 2 3 4 5 6 
#
# 1 84.5996 51.6070 10.9731 4.0192 13.7051 24.3432
# 2 51.6070 190.0122 39.7876 -4.7600 12.7247 46.0213
# 3 10.9731 39.7876 61.5376 -14.6610 1.6754 17.4761
# 4 4.0192 -4.7600 -14.6610 39.8315 -4.4535 8.5380
# 5 13.7051 12.7247 1.6754 -4.4535 27.4352 3.9478
# 6 24.3432 46.0213 17.4761 8.5380 3.9478 51.4914
#
#
#
# Elastic Compliance Matrix: (Units=1/GPa)
#
#
# Indices 1 2 3 4 5 6 
#
# 1 0.015902 -0.002946 -0.000021 -0.001787 -0.006276 -0.004100
# 2 -0.002946 0.007950 -0.002974 0.001047 -0.001175 -0.004787
# 3 -0.000021 -0.002974 0.022282 0.009563 0.002542 -0.006675
# 4 -0.001787 0.001047 0.009563 0.031570 0.006250 -0.009051
# 5 -0.006276 -0.001175 0.002542 0.006250 0.041138 -0.001036
# 6 -0.004100 -0.004787 -0.006675 -0.009051 -0.001036 0.029483
#
#
# Mechanical properties :
#
#
# Convention : Reuss Voigt Hill
#
# Bulk Modulus (GPa) = 29.19631 60.09828 44.64730
# Shear Modulus (GPa) = 29.13353 39.33708 34.23531
#
# Velocity S-wave (km/s) = 3.40811 3.96021 3.69449
# Velocity P-wave (km/s) = 5.20838 6.69863 5.99995
#
# Compressibility (1/GPa) = 0.03425090
#
# Stress axis : x y z
#
# Youngs Moduli (GPa) = 62.88708 125.78675 44.88018
#
# Poissons Ratio (x) = 0.37054 0.00096
# Poissons Ratio (y) = 0.18525 0.13347
# Poissons Ratio (z) = 0.00135 0.37407
#
# Static dielectric constant tensor:
#      x y z
#    x 2.069660 0.048990 -0.008280 
#    y 0.048990 2.006450 0.012450 
#    z -0.008280 0.012450 2.018700 
# 
# From -- ./inp_files/66426.got.cif
#   From: 2010.05.17/outbox.cif.g08.bks.cpg/sg2_34_cif.got.tgz:66426.got - 2010.06.03 11:33:40.
