data_PCOD9027846
_publ_section_title
;
Structure prediction by ZEFSAII (Michael W. Deem and Ramdas Pophale) SiO2 
 PCOD9027846
Probable space group: P -1
;
_chemical_formula_sum "Si O2"
_cell_formula_units_Z 12
_cell_length_a 9.425192
_cell_length_b 11.957945
_cell_length_c 9.264263
_cell_angle_alpha 29.465159
_cell_angle_beta 108.090748
_cell_angle_gamma 102.638916
_cell_volume 485.239080
_symmetry_space_group_name_H-M "P -1"
_symmetry_group_IT_number 2
_symmetry_cell_setting 'triclinic'
loop_
_space_group_symop_operation_xyz
x,y,z
-x,-y,-z
loop_
_atom_site_type_symbol
_atom_site_label
_atom_site_fract_x
_atom_site_fract_y
_atom_site_fract_z
Si Si1 0.345177 0.766620 0.784449
Si Si2 0.113876 0.324847 0.822182
Si Si3 0.261316 0.198480 0.743762
Si Si4 0.536897 0.025281 0.161069
Si Si5 0.923227 0.394917 0.953734
Si Si6 0.618511 0.376383 0.352505
O O1 0.423701 0.959667 0.675684
O O2 0.317831 0.766738 0.607084
O O3 0.195878 0.750211 0.846768
O O4 0.464327 0.541147 0.093120
O O5 0.165011 0.141721 0.917833
O O6 0.254541 0.464856 0.744785
O O7 0.000000 0.500000 0.500000
O O8 0.039660 0.269995 0.013558
O O9 0.173838 0.409716 0.392444
O O10 0.312772 0.020636 0.832988
O O11 0.422747 0.233257 0.830184
O O12 0.438528 0.814200 0.349220
O O13 0.000000 0.500000 0.000000
#
# Coordination Sequence:
#
# PCOD9027846 Si02
#       6
#     2   2   2   2   2   2
#     4  11  23  41  71  98 133 180 223 275 332 393
#     4  10  22  41  69  97 132 177 220 266 339 397
#     4  10  23  41  65 101 133 172 222 277 330 393
#     4  11  23  41  69 104 135 165 234 278 328 396
#     4  11  22  44  70  95 136 179 224 269 339 403
#     4  11  22  42  70  98 136 175 225 276 326 400
#
# _framework density 24.730079
#
# number of rings (size 3 to 8) (size 9 to 14) (size 15 to 20)
#    0.000    1.333    5.000    0.500    0.000    6.667 
#    3.000    8.333    0.000    0.000    0.000    0.000 
#    0.000    0.000    0.000    0.000    0.000    0.000 
#
# Total GULP energy -66900.584954 kJ/mol
# GULP energy per Si atom -5575.048746 kJ/mol
# Density = 2.467379 g / cm^3
# Si number density = 24.730079 Si / 1000 Ang^3
#
#
#
# Elastic Constant Matrix: (Units=GPa)
#
#
# Indices 1 2 3 4 5 6 
#
# 1 150.3445 60.6966 18.1054 9.0978 -19.0201 -36.0679
# 2 60.6966 85.8952 -5.9507 22.6270 -14.1425 -41.9990
# 3 18.1054 -5.9507 49.3741 12.9041 -1.6021 -5.2075
# 4 9.0978 22.6270 12.9041 26.7654 -8.0273 -6.1397
# 5 -19.0201 -14.1425 -1.6021 -8.0273 32.8519 4.4933
# 6 -36.0679 -41.9990 -5.2075 -6.1397 4.4933 64.8049
#
#
#
# Elastic Compliance Matrix: (Units=1/GPa)
#
#
# Indices 1 2 3 4 5 6 
#
# 1 0.012167 -0.011872 -0.008781 0.011247 0.004372 -0.000866
# 2 -0.011872 0.038636 0.019740 -0.034282 0.000052 0.016767
# 3 -0.008781 0.019740 0.034267 -0.029321 -0.003188 0.008103
# 4 0.011247 -0.034282 -0.029321 0.077199 0.010794 -0.011749
# 5 0.004372 0.000052 -0.003188 0.010794 0.035368 0.000781
# 6 -0.000866 0.016767 0.008103 -0.011749 0.000781 0.025299
#
#
# Mechanical properties :
#
#
# Convention : Reuss Voigt Hill
#
# Bulk Modulus (GPa) = 12.01294 47.92403 29.96848
# Shear Modulus (GPa) = 19.80120 39.06862 29.43491
#
# Velocity S-wave (km/s) = 2.83272 3.97898 3.45374
# Velocity P-wave (km/s) = 3.94554 6.36637 5.29613
#
# Compressibility (1/GPa) = 0.08324359
#
# Stress axis : x y z
#
# Youngs Moduli (GPa) = 82.19290 25.88236 29.18266
#
# Poissons Ratio (x) = 0.30727 0.25626
# Poissons Ratio (y) = 0.97578 -0.57606
# Poissons Ratio (z) = 0.72174 -0.51091
#
# Static dielectric constant tensor:
#      x y z
#    x 1.958040 -0.026980 0.067090 
#    y -0.026980 2.026730 0.005310 
#    z 0.067090 0.005310 1.948190 
# 
# From -- ./inp_files/90713.got.cif
#   From: 2010.05.17/outbox.cif.g08.bks.cpg/sg2_46_cif.got.tgz:90713.got - 2010.06.03 11:33:40.
