data_PCOD9027120
_publ_section_title
;
Structure prediction by ZEFSAII (Michael W. Deem and Ramdas Pophale) SiO2 
 PCOD9027120
Probable space group: P -1
;
_chemical_formula_sum "Si O2"
_cell_formula_units_Z 13
_cell_length_a 8.275119
_cell_length_b 9.462533
_cell_length_c 11.855700
_cell_angle_alpha 137.463384
_cell_angle_beta 54.257937
_cell_angle_gamma 119.520602
_cell_volume 506.112928
_symmetry_space_group_name_H-M "P -1"
_symmetry_group_IT_number 2
_symmetry_cell_setting 'triclinic'
loop_
_space_group_symop_operation_xyz
x,y,z
-x,-y,-z
loop_
_atom_site_type_symbol
_atom_site_label
_atom_site_fract_x
_atom_site_fract_y
_atom_site_fract_z
Si Si1 0.679886 0.750537 0.194727
Si Si2 0.500000 0.500000 0.500000
Si Si3 0.081720 0.681798 0.858634
Si Si4 0.653926 0.308318 0.028168
Si Si5 0.418971 0.961993 0.784301
Si Si6 0.886535 0.619678 0.524250
Si Si7 0.990816 0.928691 0.333931
O O1 0.558828 0.896533 0.253422
O O2 0.771337 0.849422 0.331130
O O3 0.584412 0.516422 0.123893
O O4 0.882278 0.727999 0.026919
O O5 0.653723 0.536240 0.567301
O O6 0.534252 0.757030 0.612887
O O7 0.047534 0.470385 0.676008
O O8 0.188732 0.864615 0.842593
O O9 0.263772 0.653031 0.855157
O O10 0.493127 0.112975 0.947447
O O11 0.858554 0.246799 0.849649
O O12 0.000000 0.500000 0.500000
O O13 0.933172 0.868990 0.655205
O O14 0.000000 0.000000 0.500000
#
# Coordination Sequence:
#
# PCOD9027120 Si02
#       7
#     2   1   2   2   2   2   2
#     4  11  23  41  65  98 129 167 222 264 323 402
#     4  10  22  42  62  96 128 166 218 266 322 380
#     4  10  22  41  66  98 125 173 217 266 322 395
#     4  11  22  41  64  96 131 168 212 268 333 388
#     4  11  22  41  67  92 134 166 215 272 328 379
#     4  11  22  41  67  94 130 169 220 265 323 384
#     4  11  21  39  66  89 125 173 212 262 327 389
#
# _framework density 25.685966000000001
#
# number of rings (size 3 to 8) (size 9 to 14) (size 15 to 20)
#    0.000    1.231    1.538    6.923    0.000    1.231 
#    5.538    0.769    0.000    0.000    0.000    0.000 
#    0.000    0.000    0.000    0.000    0.000    0.000 
#
# Total GULP energy -72578.155073 kJ/mol
# GULP energy per Si atom -5582.935006 kJ/mol
# Density = 2.562750 g / cm^3
# Si number density = 25.685966 Si / 1000 Ang^3
#
#
#
# Elastic Constant Matrix: (Units=GPa)
#
#
# Indices 1 2 3 4 5 6 
#
# 1 78.9612 18.0388 43.9660 18.6759 -0.8148 -20.2795
# 2 18.0388 115.6388 46.0455 43.2011 -3.8413 -28.7565
# 3 43.9660 46.0455 81.7565 21.9421 14.0897 -22.0201
# 4 18.6759 43.2011 21.9421 62.8866 8.5717 -4.6952
# 5 -0.8148 -3.8413 14.0897 8.5717 39.7279 7.0958
# 6 -20.2795 -28.7565 -22.0201 -4.6952 7.0958 47.9372
#
#
#
# Elastic Compliance Matrix: (Units=1/GPa)
#
#
# Indices 1 2 3 4 5 6 
#
# 1 0.021102 0.005311 -0.012371 -0.006008 0.005738 0.004992
# 2 0.005311 0.017161 -0.008986 -0.010576 0.006080 0.006478
# 3 -0.012371 -0.008986 0.026153 0.002545 -0.011545 0.003348
# 4 -0.006008 -0.010576 0.002545 0.024639 -0.006591 -0.004328
# 5 0.005738 0.006080 -0.011545 -0.006591 0.032223 -0.004644
# 6 0.004992 0.006478 0.003348 -0.004328 -0.004644 0.028660
#
#
# Mechanical properties :
#
#
# Convention : Reuss Voigt Hill
#
# Bulk Modulus (GPa) = 30.93627 54.71746 42.82687
# Shear Modulus (GPa) = 25.93315 41.33076 33.63196
#
# Velocity S-wave (km/s) = 3.18090 4.01568 3.62242
# Velocity P-wave (km/s) = 5.05579 6.54597 5.84854
#
# Compressibility (1/GPa) = 0.03232452
#
# Stress axis : x y z
#
# Youngs Moduli (GPa) = 47.38966 58.27134 38.23640
#
# Poissons Ratio (x) = -0.30946 0.47301
# Poissons Ratio (y) = -0.25167 0.34358
# Poissons Ratio (z) = 0.58624 0.52361
#
# Static dielectric constant tensor:
#      x y z
#    x 2.011370 0.032160 -0.077260 
#    y 0.032160 2.038190 -0.127240 
#    z -0.077260 -0.127240 2.191360 
# 
# From -- ./inp_files/149556.got.cif
#   From: 2010.05.17/outbox.cif.g08.bks.cpg/sg2_75_cif.got.tgz:149556.got - 2010.06.03 11:33:40.
