data_PCOD9027388
_publ_section_title
;
Structure prediction by ZEFSAII (Michael W. Deem and Ramdas Pophale) SiO2 
 PCOD9027388
Probable space group: P -1
;
_chemical_formula_sum "Si O2"
_cell_formula_units_Z 16
_cell_length_a 11.788990
_cell_length_b 11.377133
_cell_length_c 9.149388
_cell_angle_alpha 50.179071
_cell_angle_beta 51.028905
_cell_angle_gamma 61.568674
_cell_volume 727.226322
_symmetry_space_group_name_H-M "P -1"
_symmetry_group_IT_number 2
_symmetry_cell_setting 'triclinic'
loop_
_space_group_symop_operation_xyz
x,y,z
-x,-y,-z
loop_
_atom_site_type_symbol
_atom_site_label
_atom_site_fract_x
_atom_site_fract_y
_atom_site_fract_z
Si Si1 0.184236 0.687310 0.306495
Si Si2 0.700701 0.106299 0.742163
Si Si3 0.274692 0.207852 0.843946
Si Si4 0.438912 0.794291 0.816976
Si Si5 0.923394 0.847486 0.221387
Si Si6 0.320874 0.994383 0.490349
Si Si7 0.437241 0.381103 0.756547
Si Si8 0.586770 0.591321 0.643745
O O1 0.176969 0.791739 0.375355
O O2 0.257192 0.514693 0.416453
O O3 0.039795 0.717703 0.302910
O O4 0.312868 0.752405 0.056747
O O5 0.549365 0.223010 0.789393
O O6 0.721519 0.055643 0.596989
O O7 0.701464 0.955835 0.963137
O O8 0.145499 0.200620 0.837346
O O9 0.281967 0.333857 0.867971
O O10 0.401008 0.265756 0.590601
O O11 0.532224 0.921389 0.705170
O O12 0.557657 0.657987 0.773631
O O13 0.357832 0.855378 0.685078
O O14 0.800997 0.895518 0.406809
O O15 0.000000 0.000000 0.000000
O O16 0.500000 0.500000 0.500000
O O17 0.460611 0.481484 0.799970
#
# Coordination Sequence:
#
# PCOD9027388 Si02
#       8
#     2   2   2   2   2   2   2   2
#     4  11  25  42  67  94 133 173 217 263 331 388
#     4  11  23  36  64  97 127 171 213 271 325 379
#     4  11  21  40  64  92 130 170 217 262 324 384
#     4  11  22  41  65 101 130 164 218 277 320 381
#     4  12  23  45  65  94 131 178 214 265 322 393
#     4  11  24  37  68  99 130 163 220 271 324 382
#     4   9  20  35  60  96 129 163 207 272 324 373
#     4  10  22  41  67  98 129 168 219 274 322 381
#
# _framework density 22.001403
#
# number of rings (size 3 to 8) (size 9 to 14) (size 15 to 20)
#    0.000    1.250    3.750    2.250    8.750    1.000 
#    0.000    0.000    0.000    1.500    0.000    0.000 
#    0.000    0.000    0.000    0.000    0.000    0.000 
#
# Total GULP energy -89249.369437 kJ/mol
# GULP energy per Si atom -5578.085590 kJ/mol
# Density = 2.195133 g / cm^3
# Si number density = 22.001403 Si / 1000 Ang^3
#
#
#
# Elastic Constant Matrix: (Units=GPa)
#
#
# Indices 1 2 3 4 5 6 
#
# 1 147.1669 48.0402 29.8412 -10.4371 22.6928 26.3434
# 2 48.0402 82.2785 26.7818 -16.4735 13.2078 14.0835
# 3 29.8412 26.7818 86.8355 -5.1840 22.3806 -1.9940
# 4 -10.4371 -16.4735 -5.1840 29.3637 2.3908 -2.9514
# 5 22.6928 13.2078 22.3806 2.3908 37.3629 -0.7595
# 6 26.3434 14.0835 -1.9940 -2.9514 -0.7595 36.7878
#
#
#
# Elastic Compliance Matrix: (Units=1/GPa)
#
#
# Indices 1 2 3 4 5 6 
#
# 1 0.009989 -0.003489 -0.001337 0.001109 -0.004223 -0.005888
# 2 -0.003489 0.018017 -0.003208 0.008139 -0.002930 -0.003980
# 3 -0.001337 -0.003208 0.014911 0.001224 -0.007004 0.002947
# 4 0.001109 0.008139 0.001224 0.039709 -0.006841 -0.000799
# 5 -0.004223 -0.002930 -0.007004 -0.006841 0.035078 0.003942
# 6 -0.005888 -0.003980 0.002947 -0.000799 0.003942 0.033100
#
#
# Mechanical properties :
#
#
# Convention : Reuss Voigt Hill
#
# Bulk Modulus (GPa) = 37.24715 58.40081 47.82398
# Shear Modulus (GPa) = 28.43794 34.81073 31.62433
#
# Velocity S-wave (km/s) = 3.59911 3.98201 3.79539
# Velocity P-wave (km/s) = 5.85129 6.90968 6.40239
#
# Compressibility (1/GPa) = 0.02684769
#
# Stress axis : x y z
#
# Youngs Moduli (GPa) = 100.11066 55.50459 67.06526
#
# Poissons Ratio (x) = 0.19367 0.08967
# Poissons Ratio (y) = 0.34931 0.21514
# Poissons Ratio (z) = 0.13386 0.17806
#
# Static dielectric constant tensor:
#      x y z
#    x 1.917710 0.036920 0.058060 
#    y 0.036920 1.875690 -0.010990 
#    z 0.058060 -0.010990 1.821200 
# 
# From -- ./inp_files/261499.got.cif
#   From: 2010.05.17/outbox.cif.g08.bks.cpg/sg2_131_cif.got.tgz:261499.got - 2010.06.03 11:33:40.
