data_PCOD9027939
_publ_section_title
;
Structure prediction by ZEFSAII (Michael W. Deem and Ramdas Pophale) SiO2 
 PCOD9027939
Probable space group: P -1
;
_chemical_formula_sum "Si O2"
_cell_formula_units_Z 16
_cell_length_a 11.136633
_cell_length_b 5.533171
_cell_length_c 12.562918
_cell_angle_alpha 81.417045
_cell_angle_beta 112.596762
_cell_angle_gamma 116.994374
_cell_volume 636.544268
_symmetry_space_group_name_H-M "P -1"
_symmetry_group_IT_number 2
_symmetry_cell_setting 'triclinic'
loop_
_space_group_symop_operation_xyz
x,y,z
-x,-y,-z
loop_
_atom_site_type_symbol
_atom_site_label
_atom_site_fract_x
_atom_site_fract_y
_atom_site_fract_z
Si Si1 0.904933 0.015411 0.666821
Si Si2 0.637832 0.267371 0.342088
Si Si3 0.426333 0.340559 0.378699
Si Si4 0.553711 0.813388 0.221059
Si Si5 0.755464 0.358767 0.956256
Si Si6 0.651374 0.572680 0.104717
Si Si7 0.095045 0.445265 0.446102
Si Si8 0.006892 0.841205 0.909487
O O1 0.741420 0.808259 0.650731
O O2 0.947067 0.850441 0.599468
O O3 0.005986 0.012640 0.796570
O O4 0.900059 0.308768 0.643617
O O5 0.491532 0.140271 0.370335
O O6 0.643583 0.383316 0.216555
O O7 0.754673 0.472891 0.446366
O O8 0.659016 0.006401 0.334354
O O9 0.500000 0.500000 0.500000
O O10 0.475429 0.534164 0.278710
O O11 0.657378 0.827195 0.158436
O O12 0.408630 0.831891 0.126296
O O13 0.741055 0.527947 0.042131
O O14 0.851275 0.207505 0.032957
O O15 0.858573 0.561415 0.886831
O O16 0.500000 0.500000 0.000000
O O17 0.000000 0.500000 0.500000
O O18 0.000000 0.000000 0.000000
#
# Coordination Sequence:
#
# PCOD9027939 Si02
#       8
#     2   2   2   2   2   2   2   2
#     4  12  28  50  79 106 150 198 248 312 376 434
#     4  11  25  41  73 106 142 193 244 307 372 446
#     4  11  22  41  68 105 142 184 240 300 364 436
#     4  10  22  41  70 102 144 181 245 307 371 440
#     4  10  23  44  66  99 149 187 250 301 378 438
#     4   9  22  42  65  99 140 187 238 301 373 434
#     4  12  30  53  75 109 150 199 251 305 371 454
#     4  11  27  42  69 107 141 200 249 303 371 449
#
# _framework density 25.135719999999999
#
# number of rings (size 3 to 8) (size 9 to 14) (size 15 to 20)
#    0.000    1.250    2.500    1.125   10.500    4.000 
#    0.000    0.000    0.000    0.000    0.000    0.000 
#    0.000    0.000    0.000    0.000    0.000    0.000 
#
# Total GULP energy -89164.499558 kJ/mol
# GULP energy per Si atom -5572.781222 kJ/mol
# Density = 2.507851 g / cm^3
# Si number density = 25.135720 Si / 1000 Ang^3
#
#
#
# Elastic Constant Matrix: (Units=GPa)
#
#
# Indices 1 2 3 4 5 6 
#
# 1 132.6293 2.4471 23.5526 -0.3877 -21.3600 -24.7439
# 2 2.4471 22.4155 14.2355 2.0737 3.4970 -13.0550
# 3 23.5526 14.2355 108.2961 -3.1835 -1.5307 -17.3668
# 4 -0.3877 2.0737 -3.1835 48.8439 -7.4282 -14.2449
# 5 -21.3600 3.4970 -1.5307 -7.4282 34.1874 4.9002
# 6 -24.7439 -13.0550 -17.3668 -14.2449 4.9002 34.7918
#
#
#
# Elastic Compliance Matrix: (Units=1/GPa)
#
#
# Indices 1 2 3 4 5 6 
#
# 1 0.010133 0.003393 -0.001126 0.003148 0.005407 0.008444
# 2 0.003393 0.063535 -0.004868 0.003538 -0.007604 0.026342
# 3 -0.001126 -0.004868 0.010741 0.001950 0.000196 0.003504
# 4 0.003148 0.003538 0.001950 0.025408 0.005175 0.014213
# 5 0.005407 -0.007604 0.000196 0.005175 0.034782 -0.001690
# 6 0.008444 0.026342 0.003504 0.014213 -0.001690 0.052439
#
#
# Mechanical properties :
#
#
# Convention : Reuss Voigt Hill
#
# Bulk Modulus (GPa) = 12.62575 38.20125 25.41350
# Shear Modulus (GPa) = 21.86817 38.43834 30.15325
#
# Velocity S-wave (km/s) = 2.95278 3.91478 3.46731
# Velocity P-wave (km/s) = 4.08156 5.97202 5.11489
#
# Compressibility (1/GPa) = 0.07920322
#
# Stress axis : x y z
#
# Youngs Moduli (GPa) = 98.69061 15.73947 93.10196
#
# Poissons Ratio (x) = -0.05340 0.10488
# Poissons Ratio (y) = -0.33481 0.45327
# Poissons Ratio (z) = 0.11117 0.07663
#
# Static dielectric constant tensor:
#      x y z
#    x 2.281200 0.010880 0.206270 
#    y 0.010880 2.727550 -0.139770 
#    z 0.206270 -0.139770 2.169990 
# 
# From -- ./inp_files/410315.got.cif
#   From: 2010.05.17/outbox.cif.g08.bks.cpg/sg2_206_cif.got.tgz:410315.got - 2010.06.03 11:33:40.
