data_PCOD9027197
_publ_section_title
;
Structure prediction by ZEFSAII (Michael W. Deem and Ramdas Pophale) SiO2 
 PCOD9027197
Probable space group: P -1
;
_chemical_formula_sum "Si O2"
_cell_formula_units_Z 14
_cell_length_a 19.756610
_cell_length_b 5.122773
_cell_length_c 8.366276
_cell_angle_alpha 59.427735
_cell_angle_beta 45.776045
_cell_angle_gamma 61.406748
_cell_volume 511.807031
_symmetry_space_group_name_H-M "P -1"
_symmetry_group_IT_number 2
_symmetry_cell_setting 'triclinic'
loop_
_space_group_symop_operation_xyz
x,y,z
-x,-y,-z
loop_
_atom_site_type_symbol
_atom_site_label
_atom_site_fract_x
_atom_site_fract_y
_atom_site_fract_z
Si Si1 0.216267 0.882419 0.268665
Si Si2 0.330221 0.195255 0.215049
Si Si3 0.278669 0.173819 0.760616
Si Si4 0.972635 0.825328 0.355825
Si Si5 0.088830 0.235747 0.883878
Si Si6 0.584294 0.408229 0.267463
Si Si7 0.456211 0.270876 0.262365
O O1 0.272174 0.957708 0.311434
O O2 0.103120 0.950938 0.475221
O O3 0.260727 0.530339 0.256795
O O4 0.239092 0.123932 0.019727
O O5 0.401007 0.096586 0.277529
O O6 0.397073 0.281664 0.937532
O O7 0.188366 0.307929 0.756664
O O8 0.366227 0.342826 0.516451
O O9 0.320545 0.813530 0.756977
O O10 0.920392 0.812187 0.274388
O O11 0.000000 0.500000 0.500000
O O12 0.068545 0.943939 0.110069
O O13 0.000000 0.500000 0.000000
O O14 0.500000 0.500000 0.500000
O O15 0.546289 0.202015 0.256465
O O16 0.500000 0.500000 0.000000
#
# Coordination Sequence:
#
# PCOD9027197 Si02
#       7
#     2   2   2   2   2   2   2
#     4  11  25  45  74 109 153 205 260 320 406 473
#     4  10  24  44  69 109 144 201 253 319 391 476
#     4  11  24  44  72 104 154 203 262 327 399 477
#     4  11  27  47  78 113 162 204 267 334 401 481
#     4  11  27  50  77 120 158 209 269 331 405 489
#     4  10  22  41  68 103 147 197 258 319 392 467
#     4  10  22  41  67 104 147 196 256 322 388 467
#
# _framework density 27.354058999999999
#
# number of rings (size 3 to 8) (size 9 to 14) (size 15 to 20)
#    0.000    1.429    0.000    3.000    8.000    5.714 
#    2.571    8.571    0.000    0.000    0.000    0.000 
#    0.000    0.000    0.000    0.000    0.000    0.000 
#
# Total GULP energy -78360.852448 kJ/mol
# GULP energy per Si atom -5597.203746 kJ/mol
# Density = 2.729180 g / cm^3
# Si number density = 27.354059 Si / 1000 Ang^3
#
#
#
# Elastic Constant Matrix: (Units=GPa)
#
#
# Indices 1 2 3 4 5 6 
#
# 1 97.8381 16.9608 29.2790 0.9355 -15.3234 1.6041
# 2 16.9608 95.9432 26.8317 9.5364 10.1167 -8.9401
# 3 29.2790 26.8317 191.7619 -6.9936 4.6510 -7.3423
# 4 0.9355 9.5364 -6.9936 59.5277 -2.5906 -1.3221
# 5 -15.3234 10.1167 4.6510 -2.5906 49.4167 4.0784
# 6 1.6041 -8.9401 -7.3423 -1.3221 4.0784 45.3175
#
#
#
# Elastic Compliance Matrix: (Units=1/GPa)
#
#
# Indices 1 2 3 4 5 6 
#
# 1 0.011820 -0.002249 -0.001650 0.000139 0.004414 -0.001523
# 2 -0.002249 0.011959 -0.001231 -0.002116 -0.003345 0.002479
# 3 -0.001650 -0.001231 0.005723 0.000878 -0.000822 0.000842
# 4 0.000139 -0.002116 0.000878 0.017297 0.001291 0.000108
# 5 0.004414 -0.003345 -0.000822 0.001291 0.022678 -0.002953
# 6 -0.001523 0.002479 0.000842 0.000108 -0.002953 0.023015
#
#
# Mechanical properties :
#
#
# Convention : Reuss Voigt Hill
#
# Bulk Modulus (GPa) = 51.97259 59.07623 55.52441
# Shear Modulus (GPa) = 45.80167 51.68383 48.74275
#
# Velocity S-wave (km/s) = 4.09638 4.35148 4.22586
# Velocity P-wave (km/s) = 6.43545 6.84770 6.64477
#
# Compressibility (1/GPa) = 0.01924091
#
# Stress axis : x y z
#
# Youngs Moduli (GPa) = 84.60504 83.62133 174.72621
#
# Poissons Ratio (x) = 0.18807 0.28834
# Poissons Ratio (y) = 0.19028 0.21509
# Poissons Ratio (z) = 0.13962 0.10294
#
# Static dielectric constant tensor:
#      x y z
#    x 2.105240 0.019050 0.010230 
#    y 0.019050 2.181770 -0.002040 
#    z 0.010230 -0.002040 2.170220 
# 
# From -- ./inp_files/340067.got.cif
#   From: 2010.05.17/outbox.cif.g08.bks.cpg/sg2_171_cif.got.tgz:340067.got - 2010.06.03 11:33:40.
