data_PCOD9027037
_publ_section_title
;
Structure prediction by ZEFSAII (Michael W. Deem and Ramdas Pophale) SiO2 
 PCOD9027037
Probable space group: P -1
;
_chemical_formula_sum "Si O2"
_cell_formula_units_Z 16
_cell_length_a 10.469859
_cell_length_b 8.562768
_cell_length_c 13.893374
_cell_angle_alpha 72.471208
_cell_angle_beta 128.019603
_cell_angle_gamma 132.668798
_cell_volume 706.812386
_symmetry_space_group_name_H-M "P -1"
_symmetry_group_IT_number 2
_symmetry_cell_setting 'triclinic'
loop_
_space_group_symop_operation_xyz
x,y,z
-x,-y,-z
loop_
_atom_site_type_symbol
_atom_site_label
_atom_site_fract_x
_atom_site_fract_y
_atom_site_fract_z
Si Si1 0.968907 0.482683 0.373532
Si Si2 0.439077 0.599547 0.804248
Si Si3 0.157751 0.029289 0.962760
Si Si4 0.302715 0.967391 0.461338
Si Si5 0.860614 0.069103 0.397215
Si Si6 0.722006 0.763916 0.728721
Si Si7 0.860462 0.563547 0.943709
Si Si8 0.395637 0.199345 0.859428
O O1 0.727558 0.371045 0.253328
O O2 0.009057 0.323338 0.389203
O O3 0.000000 0.500000 0.500000
O O4 0.111906 0.733803 0.368542
O O5 0.520713 0.673579 0.719302
O O6 0.337120 0.353539 0.813351
O O7 0.657807 0.752424 0.937736
O O8 0.282410 0.036714 0.926865
O O9 0.949208 0.982372 0.833709
O O10 0.039032 0.814684 0.012939
O O11 0.309100 0.162105 0.397395
O O12 0.500000 0.000000 0.500000
O O13 0.267366 0.954686 0.562387
O O14 0.701320 0.926474 0.262086
O O15 0.000000 0.000000 0.500000
O O16 0.760833 0.595789 0.798149
O O17 0.654121 0.376722 0.944820
O O18 0.000000 0.500000 0.000000
#
# Coordination Sequence:
#
# PCOD9027037 Si02
#       8
#     2   2   2   2   2   2   2   2
#     4  10  22  41  66  95 129 180 234 281 345 418
#     4  11  21  41  68  96 134 184 233 285 344 417
#     4  10  22  41  67  94 135 180 237 274 352 417
#     4  11  23  46  71 100 137 183 238 290 347 429
#     4  11  24  43  68  97 140 177 230 293 357 413
#     4   9  20  38  67  94 130 174 229 291 336 408
#     4   9  23  42  62  93 140 173 228 285 356 409
#     4  11  23  42  67  97 136 181 226 295 353 414
#
# _framework density 22.636842000000001
#
# number of rings (size 3 to 8) (size 9 to 14) (size 15 to 20)
#    0.750    1.000    0.000    5.250    1.750    1.500 
#    2.250    3.125    0.000    0.000    0.000    0.000 
#    0.000    0.000    0.000    0.000    0.000    0.000 
#
# Total GULP energy -89096.496071 kJ/mol
# GULP energy per Si atom -5568.531004 kJ/mol
# Density = 2.258532 g / cm^3
# Si number density = 22.636842 Si / 1000 Ang^3
#
#
#
# Elastic Constant Matrix: (Units=GPa)
#
#
# Indices 1 2 3 4 5 6 
#
# 1 104.9458 33.2678 23.4288 1.0691 15.6114 4.9923
# 2 33.2678 66.8545 13.1309 8.8997 6.7839 4.3689
# 3 23.4288 13.1309 30.8081 10.4149 -2.8864 1.7023
# 4 1.0691 8.8997 10.4149 33.9950 -4.2713 2.9942
# 5 15.6114 6.7839 -2.8864 -4.2713 35.1190 -0.5754
# 6 4.9923 4.3689 1.7023 2.9942 -0.5754 41.2204
#
#
#
# Elastic Compliance Matrix: (Units=1/GPa)
#
#
# Indices 1 2 3 4 5 6 
#
# 1 0.014285 -0.004839 -0.010430 0.003372 -0.005880 -0.001113
# 2 -0.004839 0.018809 -0.003137 -0.004003 -0.002244 -0.001018
# 3 -0.010430 -0.003137 0.046530 -0.012211 0.007593 0.000667
# 4 0.003372 -0.004003 -0.012211 0.034578 0.002444 -0.001957
# 5 -0.005880 -0.002244 0.007593 0.002444 0.032458 0.000912
# 6 -0.001113 -0.001018 0.000667 -0.001957 0.000912 0.024630
#
#
# Mechanical properties :
#
#
# Convention : Reuss Voigt Hill
#
# Bulk Modulus (GPa) = 23.35846 38.02926 30.69386
# Shear Modulus (GPa) = 22.48463 30.91896 26.70179
#
# Velocity S-wave (km/s) = 3.15505 3.69978 3.43822
# Velocity P-wave (km/s) = 4.85938 5.92345 5.41761
#
# Compressibility (1/GPa) = 0.04281104
#
# Stress axis : x y z
#
# Youngs Moduli (GPa) = 70.00570 53.16548 21.49133
#
# Poissons Ratio (x) = 0.25727 0.22415
# Poissons Ratio (y) = 0.33876 0.06743
# Poissons Ratio (z) = 0.73016 0.16681
#
# Static dielectric constant tensor:
#      x y z
#    x 1.888500 -0.009470 -0.008170 
#    y -0.009470 1.938600 -0.024540 
#    z -0.008170 -0.024540 1.844190 
# 
# From -- ./inp_files/515426.got.cif
#   From: 2010.05.17/outbox.cif.g08.bks.cpg/sg2_258_cif.got.tgz:515426.got - 2010.06.03 11:33:40.
