data_PCOD9027196
_publ_section_title
;
Structure prediction by ZEFSAII (Michael W. Deem and Ramdas Pophale) SiO2 
 PCOD9027196
Probable space group: P -1
;
_chemical_formula_sum "Si O2"
_cell_formula_units_Z 10
_cell_length_a 5.206575
_cell_length_b 12.604305
_cell_length_c 8.217399
_cell_angle_alpha 133.470018
_cell_angle_beta 86.260195
_cell_angle_gamma 100.566838
_cell_volume 383.323155
_symmetry_space_group_name_H-M "P -1"
_symmetry_group_IT_number 2
_symmetry_cell_setting 'triclinic'
loop_
_space_group_symop_operation_xyz
x,y,z
-x,-y,-z
loop_
_atom_site_type_symbol
_atom_site_label
_atom_site_fract_x
_atom_site_fract_y
_atom_site_fract_z
Si Si1 0.462614 0.194225 0.957426
Si Si2 0.857621 0.330576 0.841693
Si Si3 0.241066 0.102150 0.186637
Si Si4 0.216797 0.400049 0.377983
Si Si5 0.678402 0.842734 0.412619
O O1 0.472224 0.130857 0.071607
O O2 0.260693 0.307749 0.115841
O O3 0.729195 0.291359 0.983227
O O4 0.350665 0.092474 0.699682
O O5 0.065672 0.228628 0.686840
O O6 0.408084 0.719457 0.308472
O O7 0.000000 0.500000 0.000000
O O8 0.169740 0.267829 0.373320
O O9 0.291230 0.059100 0.322768
O O10 0.000000 0.000000 0.000000
O O11 0.500000 0.500000 0.500000
O O12 0.000000 0.500000 0.500000
#
# Coordination Sequence:
#
# PCOD9027196 Si02
#       5
#     2   2   2   2   2
#     4   8  24  41  70 101 146 179 241 289 358 412
#     4  10  22  41  67 104 141 183 234 290 354 424
#     4  10  24  48  74 106 143 191 242 292 358 429
#     4  10  24  43  71 103 139 182 232 292 353 412
#     4  10  23  42  67 103 136 187 234 291 350 421
#
# _framework density 26.087648000000002
#
# number of rings (size 3 to 8) (size 9 to 14) (size 15 to 20)
#    2.400    0.000    0.000    0.600    5.600    2.400 
#    3.600    6.000    0.000    0.000    0.000    0.000 
#    0.000    0.000    0.000    0.000    0.000    0.000 
#
# Total GULP energy -55864.295425 kJ/mol
# GULP energy per Si atom -5586.429543 kJ/mol
# Density = 2.602827 g / cm^3
# Si number density = 26.087648 Si / 1000 Ang^3
#
#
#
# Elastic Constant Matrix: (Units=GPa)
#
#
# Indices 1 2 3 4 5 6 
#
# 1 171.1683 48.7208 54.9694 -15.0747 -11.7845 16.6763
# 2 48.7208 143.7262 44.1541 -17.4210 9.8094 2.4829
# 3 54.9694 44.1541 154.5949 -45.6714 8.5895 -13.5288
# 4 -15.0747 -17.4210 -45.6714 56.0308 6.8215 6.0091
# 5 -11.7845 9.8094 8.5895 6.8215 53.4537 7.0623
# 6 16.6763 2.4829 -13.5288 6.0091 7.0623 36.1135
#
#
#
# Elastic Compliance Matrix: (Units=1/GPa)
#
#
# Indices 1 2 3 4 5 6 
#
# 1 0.008150 -0.002022 -0.003269 -0.000952 0.003525 -0.005380
# 2 -0.002022 0.008286 -0.001135 0.001336 -0.001968 0.000101
# 3 -0.003269 -0.001135 0.010848 0.007531 -0.003898 0.005160
# 4 -0.000952 0.001336 0.007531 0.024733 -0.004821 -0.000003
# 5 0.003525 -0.001968 -0.003898 -0.004821 0.021939 -0.006441
# 6 -0.005380 0.000101 0.005160 -0.000003 -0.006441 0.033361
#
#
# Mechanical properties :
#
#
# Convention : Reuss Voigt Hill
#
# Bulk Modulus (GPa) = 69.28054 85.01978 77.15016
# Shear Modulus (GPa) = 40.00667 50.56259 45.28463
#
# Velocity S-wave (km/s) = 3.92030 4.40725 4.17089
# Velocity P-wave (km/s) = 6.86339 7.65241 7.26861
#
# Compressibility (1/GPa) = 0.01443407
#
# Stress axis : x y z
#
# Youngs Moduli (GPa) = 122.69362 120.68317 92.18294
#
# Poissons Ratio (x) = 0.24400 0.30131
# Poissons Ratio (y) = 0.24806 0.10461
# Poissons Ratio (z) = 0.40104 0.13695
#
# Static dielectric constant tensor:
#      x y z
#    x 1.826410 0.168230 0.302110 
#    y 0.168230 1.845510 -0.278190 
#    z 0.302110 -0.278190 1.875810 
# 
# From -- ./inp_files/133734.got.cif
#   From: 2010.05.17/outbox.cif.g08.bks.cpg/sg2_67_cif.got.tgz:133734.got - 2010.06.03 11:33:40.
