data_PCOD9027606
_publ_section_title
;
Structure prediction by ZEFSAII (Michael W. Deem and Ramdas Pophale) SiO2 
 PCOD9027606
Probable space group: P -1
;
_chemical_formula_sum "Si O2"
_cell_formula_units_Z 16
_cell_length_a 16.199412
_cell_length_b 11.887429
_cell_length_c 8.951199
_cell_angle_alpha 112.710730
_cell_angle_beta 73.534532
_cell_angle_gamma 156.496818
_cell_volume 622.332747
_symmetry_space_group_name_H-M "P -1"
_symmetry_group_IT_number 2
_symmetry_cell_setting 'triclinic'
loop_
_space_group_symop_operation_xyz
x,y,z
-x,-y,-z
loop_
_atom_site_type_symbol
_atom_site_label
_atom_site_fract_x
_atom_site_fract_y
_atom_site_fract_z
Si Si1 0.863009 0.142606 0.825532
Si Si2 0.703831 0.584574 0.538094
Si Si3 0.821248 0.213080 0.301965
Si Si4 0.129975 0.145730 0.741742
Si Si5 0.487783 0.352601 0.006137
Si Si6 0.801491 0.345806 0.881429
Si Si7 0.400969 0.836050 0.626398
Si Si8 0.771677 0.981603 0.459875
O O1 0.805566 0.212026 0.870467
O O2 0.854129 0.074267 0.632313
O O3 0.093677 0.434534 0.932340
O O4 0.678850 0.856049 0.879311
O O5 0.768714 0.696590 0.391872
O O6 0.672853 0.398428 0.464737
O O7 0.479667 0.352414 0.570282
O O8 0.886074 0.863130 0.701398
O O9 0.023386 0.423636 0.220786
O O10 0.217534 0.696995 0.669822
O O11 0.615046 0.876914 0.171317
O O12 0.823144 0.176896 0.455269
O O13 0.139271 0.010864 0.682898
O O14 0.284576 0.394153 0.917268
O O15 0.500000 0.500000 0.000000
O O16 0.574594 0.077422 0.791090
O O17 0.500000 0.000000 0.500000
#
# Coordination Sequence:
#
# PCOD9027606 Si02
#       8
#     2   2   2   2   2   2   2   2
#     4  10  22  41  68  96 135 176 225 273 333 402
#     4  11  25  43  65 102 132 174 228 278 330 399
#     4  11  26  41  73 105 130 183 222 270 353 394
#     4  11  25  44  70  95 135 181 227 277 334 401
#     4  11  22  45  68  99 138 176 224 282 330 401
#     4  10  23  46  64  99 140 179 219 275 341 402
#     4  12  24  42  69 100 144 168 222 288 328 403
#     4  12  22  44  70  97 134 177 229 274 329 398
#
# _framework density 25.709716
#
# number of rings (size 3 to 8) (size 9 to 14) (size 15 to 20)
#    0.000    1.000    5.000    0.375    3.500    1.000 
#    4.500    6.875    0.000    0.000    0.000    0.000 
#    0.000    0.000    0.000    0.000    0.000    0.000 
#
# Total GULP energy -89788.164444 kJ/mol
# GULP energy per Si atom -5611.760278 kJ/mol
# Density = 2.565120 g / cm^3
# Si number density = 25.709716 Si / 1000 Ang^3
#
#
#
# Elastic Constant Matrix: (Units=GPa)
#
#
# Indices 1 2 3 4 5 6 
#
# 1 84.7796 21.7996 25.0376 14.2493 19.9292 -7.4804
# 2 21.7996 112.2896 45.7340 19.8247 29.1054 -4.0080
# 3 25.0376 45.7340 166.4150 41.4079 27.8295 10.1101
# 4 14.2493 19.8247 41.4079 51.5531 6.4085 18.3204
# 5 19.9292 29.1054 27.8295 6.4085 40.5812 4.6404
# 6 -7.4804 -4.0080 10.1101 18.3204 4.6404 52.8669
#
#
#
# Elastic Compliance Matrix: (Units=1/GPa)
#
#
# Indices 1 2 3 4 5 6 
#
# 1 0.014595 -0.000049 -0.000176 -0.004547 -0.006781 0.004266
# 2 -0.000049 0.012201 -0.001327 -0.003790 -0.007579 0.003151
# 3 -0.000176 -0.001327 0.008518 -0.006037 -0.003928 0.000682
# 4 -0.004547 -0.003790 -0.006037 0.030065 0.005565 -0.010683
# 5 -0.006781 -0.007579 -0.003928 0.005565 0.035893 -0.005862
# 6 0.004266 0.003151 0.000682 -0.010683 -0.005862 0.023844
#
#
# Mechanical properties :
#
#
# Convention : Reuss Voigt Hill
#
# Bulk Modulus (GPa) = 31.04625 60.95851 46.00238
# Shear Modulus (GPa) = 35.98250 47.06110 41.52180
#
# Velocity S-wave (km/s) = 3.74514 4.28305 4.02310
# Velocity P-wave (km/s) = 5.55007 6.94414 6.28588
#
# Compressibility (1/GPa) = 0.03221001
#
# Stress axis : x y z
#
# Youngs Moduli (GPa) = 68.51894 81.95728 117.40284
#
# Poissons Ratio (x) = 0.00401 0.02068
# Poissons Ratio (y) = 0.00336 0.15576
# Poissons Ratio (z) = 0.01207 0.10873
#
# Static dielectric constant tensor:
#      x y z
#    x 1.997750 -0.020270 -0.006960 
#    y -0.020270 1.988680 0.038940 
#    z -0.006960 0.038940 2.033850 
# 
# From -- ./inp_files/347601.got.cif
#   From: 2010.05.17/outbox.cif.g08.bks.cpg/sg2_174_cif.got.tgz:347601.got - 2010.06.03 11:33:40.
