data_PCOD9027894
_publ_section_title
;
Structure prediction by ZEFSAII (Michael W. Deem and Ramdas Pophale) SiO2 
 PCOD9027894
Probable space group: P -1
;
_chemical_formula_sum "Si O2"
_cell_formula_units_Z 13
_cell_length_a 9.404443
_cell_length_b 10.700970
_cell_length_c 10.165297
_cell_angle_alpha 47.031585
_cell_angle_beta 53.734816
_cell_angle_gamma 83.323664
_cell_volume 527.376368
_symmetry_space_group_name_H-M "P -1"
_symmetry_group_IT_number 2
_symmetry_cell_setting 'triclinic'
loop_
_space_group_symop_operation_xyz
x,y,z
-x,-y,-z
loop_
_atom_site_type_symbol
_atom_site_label
_atom_site_fract_x
_atom_site_fract_y
_atom_site_fract_z
Si Si1 0.965968 0.300610 0.224713
Si Si2 0.244293 0.315885 0.616464
Si Si3 0.389236 0.702594 0.982737
Si Si4 0.323810 0.960048 0.228438
Si Si5 0.014929 0.049252 0.172161
Si Si6 0.000000 0.500000 0.500000
Si Si7 0.582300 0.463094 0.157104
O O1 0.908577 0.131516 0.269665
O O2 0.813786 0.239426 0.473949
O O3 0.000000 0.500000 0.000000
O O4 0.193471 0.355667 0.103084
O O5 0.483015 0.399503 0.400611
O O6 0.173662 0.472668 0.505222
O O7 0.161205 0.220576 0.870650
O O8 0.134781 0.136966 0.699175
O O9 0.559217 0.887284 0.830375
O O10 0.407684 0.703834 0.814535
O O11 0.428794 0.524645 0.130762
O O12 0.172530 0.652062 0.192385
O O13 0.156474 0.989687 0.221066
O O14 0.500000 0.000000 0.000000
#
# Coordination Sequence:
#
# PCOD9027894 Si02
#       7
#     2   2   2   2   2   1   2
#     4  12  29  46  71 104 141 189 239 297 348 423
#     4  10  24  44  73 104 140 189 226 298 349 425
#     4  10  22  41  70 100 133 187 227 286 348 424
#     4  12  27  46  72 102 141 186 237 295 359 418
#     4  11  25  47  71 101 145 182 240 287 361 414
#     4  10  22  42  72 108 136 180 240 280 352 420
#     4  10  23  42  69  98 138 181 234 283 354 414
#
# _framework density 24.650327000000001
#
# number of rings (size 3 to 8) (size 9 to 14) (size 15 to 20)
#    0.000    1.231    1.538    2.308   12.923    1.846 
#    0.000    1.538    0.000    0.000    0.000    0.000 
#    0.000    0.000    0.000    0.000    0.000    0.000 
#
# Total GULP energy -72440.442042 kJ/mol
# GULP energy per Si atom -5572.341696 kJ/mol
# Density = 2.459422 g / cm^3
# Si number density = 24.650327 Si / 1000 Ang^3
#
#
#
# Elastic Constant Matrix: (Units=GPa)
#
#
# Indices 1 2 3 4 5 6 
#
# 1 56.1340 8.6484 32.0244 7.5691 -5.0639 -7.9436
# 2 8.6484 83.6986 35.5390 15.7982 2.4372 14.3861
# 3 32.0244 35.5390 198.8979 30.6677 -8.9497 -13.8377
# 4 7.5691 15.7982 30.6677 21.4924 -6.2011 -3.0735
# 5 -5.0639 2.4372 -8.9497 -6.2011 40.1270 -7.5371
# 6 -7.9436 14.3861 -13.8377 -3.0735 -7.5371 29.1139
#
#
#
# Elastic Compliance Matrix: (Units=1/GPa)
#
#
# Indices 1 2 3 4 5 6 
#
# 1 0.020758 -0.002340 -0.002240 -0.000462 0.003429 0.006594
# 2 -0.002340 0.018122 -0.002034 -0.013419 -0.006489 -0.013657
# 3 -0.002240 -0.002034 0.007122 -0.007140 0.000940 0.003269
# 4 -0.000462 -0.013419 -0.007140 0.072524 0.013028 0.014140
# 5 0.003429 -0.006489 0.000940 0.013028 0.030578 0.013880
# 6 0.006594 -0.013657 0.003269 0.014140 0.013880 0.049535
#
#
# Mechanical properties :
#
#
# Convention : Reuss Voigt Hill
#
# Bulk Modulus (GPa) = 30.51159 54.57268 42.54214
# Shear Modulus (GPa) = 22.44245 35.64791 29.04518
#
# Velocity S-wave (km/s) = 3.02061 3.80695 3.43634
# Velocity P-wave (km/s) = 4.95682 6.44287 5.74807
#
# Compressibility (1/GPa) = 0.03277443
#
# Stress axis : x y z
#
# Youngs Moduli (GPa) = 48.17511 55.18059 140.40028
#
# Poissons Ratio (x) = 0.12912 0.31446
# Poissons Ratio (y) = 0.11273 0.28562
# Poissons Ratio (z) = 0.10790 0.11226
#
# Static dielectric constant tensor:
#      x y z
#    x 1.944390 0.023080 0.024200 
#    y 0.023080 2.020680 0.020690 
#    z 0.024200 0.020690 2.032120 
# 
# From -- ./inp_files/173994.got.cif
#   From: 2010.05.17/outbox.cif.g08.bks.cpg/sg2_87_cif.got.tgz:173994.got - 2010.06.03 11:33:40.
