data_PCOD9027311
_publ_section_title
;
Structure prediction by ZEFSAII (Michael W. Deem and Ramdas Pophale) SiO2 
 PCOD9027311
Probable space group: P -1
;
_chemical_formula_sum "Si O2"
_cell_formula_units_Z 16
_cell_length_a 11.273333
_cell_length_b 15.520756
_cell_length_c 9.880180
_cell_angle_alpha 139.846933
_cell_angle_beta 106.166095
_cell_angle_gamma 104.131076
_cell_volume 722.719308
_symmetry_space_group_name_H-M "P -1"
_symmetry_group_IT_number 2
_symmetry_cell_setting 'triclinic'
loop_
_space_group_symop_operation_xyz
x,y,z
-x,-y,-z
loop_
_atom_site_type_symbol
_atom_site_label
_atom_site_fract_x
_atom_site_fract_y
_atom_site_fract_z
Si Si1 0.922783 0.127078 0.935722
Si Si2 0.473747 0.816916 0.755081
Si Si3 0.116327 0.849798 0.735927
Si Si4 0.187591 0.694595 0.356169
Si Si5 0.784045 0.727955 0.346887
Si Si6 0.337904 0.467310 0.457024
Si Si7 0.655765 0.032326 0.523946
Si Si8 0.502767 0.616939 0.966187
O O1 0.809040 0.897055 0.620794
O O2 0.817784 0.141792 0.816997
O O3 0.935762 0.190235 0.170364
O O4 0.128723 0.266402 0.115355
O O5 0.337159 0.700950 0.445131
O O6 0.382644 0.653954 0.645946
O O7 0.500000 0.000000 0.000000
O O8 0.678595 0.926860 0.933700
O O9 0.135402 0.721989 0.515375
O O10 0.975269 0.813163 0.548445
O O11 0.276591 0.861571 0.472491
O O12 0.000000 0.500000 0.000000
O O13 0.625925 0.510300 0.099142
O O14 0.692840 0.685098 0.120139
O O15 0.500000 0.500000 0.500000
O O16 0.364461 0.474146 0.632596
O O17 0.500000 0.000000 0.500000
O O18 0.566421 0.817975 0.214953
#
# Coordination Sequence:
#
# PCOD9027311 Si02
#       8
#     2   2   2   2   2   2   2   2
#     4  11  24  42  69 102 133 175 227 281 333 407
#     4  10  23  43  64  94 137 179 220 275 338 399
#     4  11  22  42  68  97 132 180 222 274 334 407
#     4  11  25  44  67  98 135 180 223 275 338 403
#     4  10  22  41  67  95 131 176 220 272 342 397
#     4  12  25  42  68 104 137 176 226 285 339 400
#     4  11  25  46  69  97 135 178 229 279 338 400
#     4  10  23  42  64  98 135 169 223 280 331 403
#
# _framework density 22.138608999999999
#
# number of rings (size 3 to 8) (size 9 to 14) (size 15 to 20)
#    0.000    1.250    1.250    4.125    3.500    3.000 
#    0.000    6.875    0.000    0.000    0.000    0.000 
#    0.000    0.000    0.000    0.000    0.000    0.000 
#
# Total GULP energy -89204.952180 kJ/mol
# GULP energy per Si atom -5575.309511 kJ/mol
# Density = 2.208822 g / cm^3
# Si number density = 22.138609 Si / 1000 Ang^3
#
#
#
# Elastic Constant Matrix: (Units=GPa)
#
#
# Indices 1 2 3 4 5 6 
#
# 1 55.5453 8.8525 22.0758 -6.0564 34.5490 -7.9570
# 2 8.8525 63.2948 5.2573 7.5892 5.8995 -7.9233
# 3 22.0758 5.2573 105.9173 -8.0737 47.0181 -6.0110
# 4 -6.0564 7.5892 -8.0737 36.1114 -10.5457 10.5562
# 5 34.5490 5.8995 47.0181 -10.5457 50.0658 -10.5311
# 6 -7.9570 -7.9233 -6.0110 10.5562 -10.5311 29.7155
#
#
#
# Elastic Compliance Matrix: (Units=1/GPa)
#
#
# Indices 1 2 3 4 5 6 
#
# 1 0.033806 -0.002477 0.005708 -0.000803 -0.028633 -0.000316
# 2 -0.002477 0.017660 -0.000542 -0.005990 0.000163 0.006122
# 3 0.005708 -0.000542 0.017304 -0.000434 -0.020701 -0.002298
# 4 -0.000803 -0.005990 -0.000434 0.034005 0.006364 -0.011725
# 5 -0.028633 0.000163 -0.020701 0.006364 0.062169 0.007961
# 6 -0.000316 0.006122 -0.002298 -0.011725 0.007961 0.041722
#
#
# Mechanical properties :
#
#
# Convention : Reuss Voigt Hill
#
# Bulk Modulus (GPa) = 13.48611 33.01430 23.25020
# Shear Modulus (GPa) = 22.12352 35.75001 28.93677
#
# Velocity S-wave (km/s) = 3.16463 4.02285 3.61927
# Velocity P-wave (km/s) = 4.41113 6.04340 5.29059
#
# Compressibility (1/GPa) = 0.07415037
#
# Stress axis : x y z
#
# Youngs Moduli (GPa) = 29.58021 56.62581 57.78849
#
# Poissons Ratio (x) = 0.14025 -0.32988
# Poissons Ratio (y) = 0.07326 0.03132
# Poissons Ratio (z) = -0.16886 0.03069
#
# Static dielectric constant tensor:
#      x y z
#    x 2.036860 0.125690 -0.013090 
#    y 0.125690 1.996290 -0.080260 
#    z -0.013090 -0.080260 1.858960 
# 
# From -- ./inp_files/274432.got.cif
#   From: 2010.05.17/outbox.cif.g08.bks.cpg/sg2_138_cif.got.tgz:274432.got - 2010.06.03 11:33:40.
