data_PCOD9027729
_publ_section_title
;
Structure prediction by ZEFSAII (Michael W. Deem and Ramdas Pophale) SiO2 
 PCOD9027729
Probable space group: P -1
;
_chemical_formula_sum "Si O2"
_cell_formula_units_Z 16
_cell_length_a 11.780787
_cell_length_b 8.554921
_cell_length_c 9.040674
_cell_angle_alpha 110.532679
_cell_angle_beta 50.849484
_cell_angle_gamma 97.410299
_cell_volume 656.315764
_symmetry_space_group_name_H-M "P -1"
_symmetry_group_IT_number 2
_symmetry_cell_setting 'triclinic'
loop_
_space_group_symop_operation_xyz
x,y,z
-x,-y,-z
loop_
_atom_site_type_symbol
_atom_site_label
_atom_site_fract_x
_atom_site_fract_y
_atom_site_fract_z
Si Si1 0.997300 0.339491 0.782189
Si Si2 0.851951 0.972581 0.263209
Si Si3 0.377721 0.512425 0.292624
Si Si4 0.867200 0.713313 0.670396
Si Si5 0.618625 0.143328 0.746082
Si Si6 0.309823 0.020752 0.892944
Si Si7 0.329294 0.714870 0.947324
Si Si8 0.904191 0.333084 0.276849
O O1 0.068648 0.273212 0.542660
O O2 0.049257 0.523681 0.821991
O O3 0.820764 0.361229 0.923542
O O4 0.050098 0.190799 0.805437
O O5 0.754364 0.055711 0.508751
O O6 0.923493 0.130890 0.186601
O O7 0.744985 0.921219 0.205285
O O8 0.273546 0.389483 0.260158
O O9 0.412481 0.659752 0.205056
O O10 0.523778 0.415186 0.210262
O O11 0.267359 0.607615 0.534330
O O12 0.998931 0.638461 0.646228
O O13 0.800876 0.883386 0.864527
O O14 0.474349 0.059969 0.799857
O O15 0.652101 0.149569 0.893367
O O16 0.311280 0.822259 0.848735
#
# Coordination Sequence:
#
# PCOD9027729 Si02
#       8
#     2   2   2   2   2   2   2   2
#     4  11  24  44  74 102 133 179 223 284 343 395
#     4  11  26  49  65  98 143 184 229 265 339 416
#     4  10  22  41  69 103 133 167 226 286 338 395
#     4  11  22  43  73 102 134 174 228 284 337 395
#     4  11  23  43  71  99 135 178 220 287 339 394
#     4  12  27  42  68  99 140 181 222 282 331 404
#     4  12  24  41  70 107 130 168 232 283 339 396
#     4  10  23  44  71 101 137 180 222 283 335 398
#
# _framework density 24.378509999999999
#
# number of rings (size 3 to 8) (size 9 to 14) (size 15 to 20)
#    0.000    1.000    1.250    6.375    5.250    3.500 
#    2.250    2.500    0.000    0.000    0.000    0.000 
#    0.000    0.000    0.000    0.000    0.000    0.000 
#
# Total GULP energy -89584.260391 kJ/mol
# GULP energy per Si atom -5599.016274 kJ/mol
# Density = 2.432302 g / cm^3
# Si number density = 24.378510 Si / 1000 Ang^3
#
#
#
# Elastic Constant Matrix: (Units=GPa)
#
#
# Indices 1 2 3 4 5 6 
#
# 1 72.3877 53.6955 54.0136 -2.2879 -12.0599 -12.2455
# 2 53.6955 151.5035 67.2395 3.8217 -8.3300 -23.9132
# 3 54.0136 67.2395 91.7017 11.9152 -12.8567 -19.6018
# 4 -2.2879 3.8217 11.9152 53.1791 -0.4622 -3.3789
# 5 -12.0599 -8.3300 -12.8567 -0.4622 45.0440 -1.3402
# 6 -12.2455 -23.9132 -19.6018 -3.3789 -1.3402 46.0329
#
#
#
# Elastic Compliance Matrix: (Units=1/GPa)
#
#
# Indices 1 2 3 4 5 6 
#
# 1 0.027227 -0.003567 -0.013615 0.004503 0.002790 0.000004
# 2 -0.003567 0.010516 -0.005230 0.000405 -0.000430 0.002304
# 3 -0.013615 -0.005230 0.024633 -0.005465 0.002476 0.003822
# 4 0.004503 0.000405 -0.005465 0.020229 -0.000055 0.000565
# 5 0.002790 -0.000430 0.002476 -0.000055 0.023641 0.002257
# 6 0.000004 0.002304 0.003822 0.000565 0.002257 0.024656
#
#
# Mechanical properties :
#
#
# Convention : Reuss Voigt Hill
#
# Bulk Modulus (GPa) = 56.97140 73.94335 65.45737
# Shear Modulus (GPa) = 27.53659 38.22748 32.88203
#
# Velocity S-wave (km/s) = 3.36451 3.96420 3.67660
# Velocity P-wave (km/s) = 6.20593 7.16592 6.70313
#
# Compressibility (1/GPa) = 0.01755267
#
# Stress axis : x y z
#
# Youngs Moduli (GPa) = 36.72803 95.09670 40.59551
#
# Poissons Ratio (x) = 0.33919 0.55270
# Poissons Ratio (y) = 0.13100 0.21232
# Poissons Ratio (z) = 0.50004 0.49736
#
# Static dielectric constant tensor:
#      x y z
#    x 1.932760 -0.008650 0.050360 
#    y -0.008650 1.945450 0.020050 
#    z 0.050360 0.020050 1.958200 
# 
# From -- ./inp_files/244370.got.cif
#   From: 2010.05.17/outbox.cif.g08.bks.cpg/sg2_123_cif.got.tgz:244370.got - 2010.06.03 11:33:40.
