data_PCOD9027689
_publ_section_title
;
Structure prediction by ZEFSAII (Michael W. Deem and Ramdas Pophale) SiO2 
 PCOD9027689
Probable space group: P -1
;
_chemical_formula_sum "Si O2"
_cell_formula_units_Z 16
_cell_length_a 11.522121
_cell_length_b 8.938788
_cell_length_c 16.586633
_cell_angle_alpha 54.714469
_cell_angle_beta 116.413550
_cell_angle_gamma 70.379086
_cell_volume 730.983370
_symmetry_space_group_name_H-M "P -1"
_symmetry_group_IT_number 2
_symmetry_cell_setting 'triclinic'
loop_
_space_group_symop_operation_xyz
x,y,z
-x,-y,-z
loop_
_atom_site_type_symbol
_atom_site_label
_atom_site_fract_x
_atom_site_fract_y
_atom_site_fract_z
Si Si1 0.503766 0.689314 0.484453
Si Si2 0.794683 0.100154 0.539869
Si Si3 0.730207 0.622342 0.704469
Si Si4 0.529485 0.122212 0.156049
Si Si5 0.225248 0.480154 0.515713
Si Si6 0.136814 0.418031 0.850459
Si Si7 0.234295 0.022451 0.875239
Si Si8 0.584037 0.545666 0.818596
O O1 0.500000 0.500000 0.500000
O O2 0.284820 0.927937 0.397445
O O3 0.700075 0.493534 0.670549
O O4 0.567440 0.750571 0.412001
O O5 0.795058 0.309469 0.504445
O O6 0.616992 0.273649 0.360228
O O7 0.021455 0.745064 0.693539
O O8 0.722215 0.541962 0.814577
O O9 0.943226 0.497464 0.790238
O O10 0.500000 0.000000 0.500000
O O11 0.500267 0.273184 0.180291
O O12 0.727326 0.750118 0.344227
O O13 0.588104 0.176236 0.079869
O O14 0.310877 0.258164 0.024052
O O15 0.005500 0.713796 0.322263
O O16 0.249437 0.189087 0.880936
O O17 0.279297 0.793615 0.014877
#
# Coordination Sequence:
#
# PCOD9027689 Si02
#       8
#     2   2   2   2   2   2   2   2
#     4   9  18  36  65  96 131 162 211 268 326 396
#     4  10  22  41  69 100 134 171 212 277 342 400
#     4  11  20  42  71 100 133 168 214 270 341 401
#     4  12  27  45  65  96 135 180 229 273 322 391
#     4  11  22  44  68  96 130 179 227 272 330 389
#     4  12  24  43  69  98 139 172 219 275 332 394
#     4  12  26  46  66  95 133 180 230 274 322 391
#     4  11  24  44  70  97 137 170 221 277 333 394
#
# _framework density 21.888324000000001
#
# number of rings (size 3 to 8) (size 9 to 14) (size 15 to 20)
#    0.000    1.000    3.750    4.125    0.000    1.000 
#    6.750    1.875    0.000    0.000    0.000    0.000 
#    0.000    0.000    0.000    0.000    0.000    0.000 
#
# Total GULP energy -89359.447495 kJ/mol
# GULP energy per Si atom -5584.965468 kJ/mol
# Density = 2.183851 g / cm^3
# Si number density = 21.888324 Si / 1000 Ang^3
#
#
#
# Elastic Constant Matrix: (Units=GPa)
#
#
# Indices 1 2 3 4 5 6 
#
# 1 48.1072 9.4450 16.3240 4.2915 -2.8226 -8.9812
# 2 9.4450 143.0607 33.4047 20.2180 2.3057 12.9899
# 3 16.3240 33.4047 113.0326 3.9565 4.5978 11.9564
# 4 4.2915 20.2180 3.9565 29.7436 3.7447 -3.9210
# 5 -2.8226 2.3057 4.5978 3.7447 29.8392 5.8885
# 6 -8.9812 12.9899 11.9564 -3.9210 5.8885 28.0380
#
#
#
# Elastic Compliance Matrix: (Units=1/GPa)
#
#
# Indices 1 2 3 4 5 6 
#
# 1 0.024487 -0.001442 -0.004180 -0.000843 0.001220 0.009920
# 2 -0.001442 0.008813 -0.001698 -0.006365 0.001223 -0.004968
# 3 -0.004180 -0.001698 0.010510 -0.000169 -0.000902 -0.004868
# 4 -0.000843 -0.006365 -0.000169 0.040198 -0.006529 0.009744
# 5 0.001220 0.001223 -0.000902 -0.006529 0.036129 -0.008292
# 6 0.009920 -0.004968 -0.004868 0.009744 -0.008292 0.046325
#
#
# Mechanical properties :
#
#
# Convention : Reuss Voigt Hill
#
# Bulk Modulus (GPa) = 34.28069 46.94979 40.61524
# Shear Modulus (GPa) = 26.20214 33.85927 30.03070
#
# Velocity S-wave (km/s) = 3.46364 3.93734 3.70807
# Velocity P-wave (km/s) = 5.62951 6.49357 6.07692
#
# Compressibility (1/GPa) = 0.02917094
#
# Stress axis : x y z
#
# Youngs Moduli (GPa) = 40.83794 113.47404 95.14841
#
# Poissons Ratio (x) = 0.16363 0.39769
# Poissons Ratio (y) = 0.05889 0.16152
# Poissons Ratio (z) = 0.17069 0.19263
#
# Static dielectric constant tensor:
#      x y z
#    x 1.856110 -0.019570 0.001470 
#    y -0.019570 1.861790 -0.014020 
#    z 0.001470 -0.014020 1.755360 
# 
# From -- ./inp_files/447828.got.cif
#   From: 2010.05.17/outbox.cif.g08.bks.cpg/sg2_224_cif.got.tgz:447828.got - 2010.06.03 11:33:40.
