data_PCOD9027589
_publ_section_title
;
Structure prediction by ZEFSAII (Michael W. Deem and Ramdas Pophale) SiO2 
 PCOD9027589
Probable space group: P -1
;
_chemical_formula_sum "Si O2"
_cell_formula_units_Z 16
_cell_length_a 8.859892
_cell_length_b 15.549901
_cell_length_c 10.706522
_cell_angle_alpha 127.992924
_cell_angle_beta 97.710323
_cell_angle_gamma 122.902146
_cell_volume 689.153371
_symmetry_space_group_name_H-M "P -1"
_symmetry_group_IT_number 2
_symmetry_cell_setting 'triclinic'
loop_
_space_group_symop_operation_xyz
x,y,z
-x,-y,-z
loop_
_atom_site_type_symbol
_atom_site_label
_atom_site_fract_x
_atom_site_fract_y
_atom_site_fract_z
Si Si1 0.286909 0.057397 0.142144
Si Si2 0.429792 0.035814 0.640837
Si Si3 0.238700 0.143639 0.786766
Si Si4 0.061478 0.737111 0.987976
Si Si5 0.879309 0.424493 0.555870
Si Si6 0.893305 0.707587 0.214614
Si Si7 0.711737 0.510904 0.252064
Si Si8 0.929585 0.848724 0.695184
O O1 0.589284 0.214992 0.333091
O O2 0.229947 0.151401 0.249174
O O3 0.115864 0.884643 0.061876
O O4 0.177702 0.965807 0.911631
O O5 0.396992 0.146944 0.724655
O O6 0.650700 0.144250 0.860993
O O7 0.500000 0.000000 0.500000
O O8 0.139677 0.833311 0.444238
O O9 0.134860 0.183137 0.729389
O O10 0.021281 0.958004 0.675268
O O11 0.434933 0.300859 0.054292
O O12 0.943692 0.679607 0.062276
O O13 0.895674 0.555525 0.731569
O O14 0.000000 0.500000 0.500000
O O15 0.072059 0.456338 0.680044
O O16 0.684506 0.537905 0.130065
O O17 0.776676 0.651285 0.470941
#
# Coordination Sequence:
#
# PCOD9027589 Si02
#       8
#     2   2   2   2   2   2   2   2
#     4  11  26  46  74 100 134 184 235 285 345 411
#     4  10  22  41  68  95 139 184 222 278 336 407
#     4  12  23  46  67 100 147 180 229 284 345 408
#     4  11  24  48  67 103 142 180 232 284 345 410
#     4  12  27  47  72 103 138 184 229 287 349 410
#     4  11  24  43  69 102 137 187 226 282 344 408
#     4  12  26  43  70 107 138 182 229 281 351 413
#     4  11  26  46  70 103 136 181 236 286 342 411
#
# _framework density 23.216889999999999
#
# number of rings (size 3 to 8) (size 9 to 14) (size 15 to 20)
#    0.000    0.750    3.750    3.000    1.750    1.500 
#    4.500    3.125    0.000    0.000    0.000    0.000 
#    0.000    0.000    0.000    0.000    0.000    0.000 
#
# Total GULP energy -89395.205926 kJ/mol
# GULP energy per Si atom -5587.200370 kJ/mol
# Density = 2.316405 g / cm^3
# Si number density = 23.216890 Si / 1000 Ang^3
#
#
#
# Elastic Constant Matrix: (Units=GPa)
#
#
# Indices 1 2 3 4 5 6 
#
# 1 72.7539 -7.0418 19.5134 -3.3433 -18.7257 -10.1293
# 2 -7.0418 49.5125 14.0422 -7.5765 -11.4368 2.0352
# 3 19.5134 14.0422 120.8236 0.8189 -17.5403 -3.3514
# 4 -3.3433 -7.5765 0.8189 28.8316 -9.4256 -5.5390
# 5 -18.7257 -11.4368 -17.5403 -9.4256 47.4721 -6.9439
# 6 -10.1293 2.0352 -3.3514 -5.5390 -6.9439 25.6241
#
#
#
# Elastic Compliance Matrix: (Units=1/GPa)
#
#
# Indices 1 2 3 4 5 6 
#
# 1 0.021075 0.008004 -0.002024 0.011765 0.013837 0.013723
# 2 0.008004 0.026651 -0.002499 0.013367 0.012325 0.006950
# 3 -0.002024 -0.002499 0.009236 -0.000240 0.002130 0.001132
# 4 0.011765 0.013367 -0.000240 0.050163 0.020657 0.019999
# 5 0.013837 0.012325 0.002130 0.020657 0.037207 0.019317
# 6 0.013723 0.006950 0.001132 0.019999 0.019317 0.053604
#
#
# Mechanical properties :
#
#
# Convention : Reuss Voigt Hill
#
# Bulk Modulus (GPa) = 15.64364 32.90195 24.27279
# Shear Modulus (GPa) = 23.55358 34.82398 29.18878
#
# Velocity S-wave (km/s) = 3.18858 3.87711 3.54958
# Velocity P-wave (km/s) = 4.50652 5.85192 5.22272
#
# Compressibility (1/GPa) = 0.06392376
#
# Stress axis : x y z
#
# Youngs Moduli (GPa) = 47.44908 37.52267 108.27102
#
# Poissons Ratio (x) = -0.30032 0.21917
# Poissons Ratio (y) = -0.37977 0.27052
# Poissons Ratio (z) = 0.09605 0.09375
#
# Static dielectric constant tensor:
#      x y z
#    x 1.911130 -0.000850 0.007490 
#    y -0.000850 1.880290 0.019810 
#    z 0.007490 0.019810 1.931310 
# 
# From -- ./inp_files/399651.got.cif
#   From: 2010.05.17/outbox.cif.g08.bks.cpg/sg2_200_cif.got.tgz:399651.got - 2010.06.03 11:33:40.
