data_PCOD9027970
_publ_section_title
;
Structure prediction by ZEFSAII (Michael W. Deem and Ramdas Pophale) SiO2 
 PCOD9027970
Probable space group: P -1
;
_chemical_formula_sum "Si O2"
_cell_formula_units_Z 16
_cell_length_a 11.865763
_cell_length_b 16.865479
_cell_length_c 12.980175
_cell_angle_alpha 149.939382
_cell_angle_beta 136.734996
_cell_angle_gamma 29.313970
_cell_volume 633.331144
_symmetry_space_group_name_H-M "P -1"
_symmetry_group_IT_number 2
_symmetry_cell_setting 'triclinic'
loop_
_space_group_symop_operation_xyz
x,y,z
-x,-y,-z
loop_
_atom_site_type_symbol
_atom_site_label
_atom_site_fract_x
_atom_site_fract_y
_atom_site_fract_z
Si Si1 0.572560 0.065067 0.892336
Si Si2 0.316630 0.257494 0.128284
Si Si3 0.322479 0.524441 0.601457
Si Si4 0.321933 0.407091 0.700681
Si Si5 0.174918 0.152697 0.375118
Si Si6 0.251252 0.059831 0.550077
Si Si7 0.049429 0.200178 0.981681
Si Si8 0.155472 0.823513 0.497642
O O1 0.400427 0.040929 0.717272
O O2 0.666169 0.056093 0.833217
O O3 0.796888 0.871419 0.892933
O O4 0.410367 0.262196 0.089185
O O5 0.303683 0.395289 0.362057
O O6 0.086844 0.307644 0.038441
O O7 0.500000 0.000000 0.000000
O O8 0.296107 0.485626 0.656546
O O9 0.587034 0.398404 0.616044
O O10 0.070431 0.773790 0.696230
O O11 0.195777 0.318490 0.528682
O O12 0.206819 0.601800 0.924571
O O13 0.596739 0.198430 0.661792
O O14 0.251775 0.135131 0.522983
O O15 0.995096 0.211521 0.590764
O O16 0.143293 0.972921 0.742141
O O17 0.000000 0.000000 0.500000
#
# Coordination Sequence:
#
# PCOD9027970 Si02
#       8
#     2   2   2   2   2   2   2   2
#     4  10  19  38  65  88 121 160 213 261 301 360
#     4  10  17  31  59  95 117 146 207 264 303 343
#     4  12  21  37  68  96 119 165 213 261 310 370
#     4  11  20  38  66  97 119 160 218 265 306 356
#     4  11  23  38  65  94 128 167 210 261 311 369
#     4  11  25  41  61  91 138 169 200 254 326 374
#     4  11  21  35  68  99 119 157 218 268 301 366
#     4  12  25  42  64  94 132 166 201 261 322 377
#
# _framework density 25.263245000000001
#
# number of rings (size 3 to 8) (size 9 to 14) (size 15 to 20)
#    0.000    1.000    6.250    5.625    0.000    1.000 
#    0.000    1.250    2.750    0.000    0.000    0.000 
#    0.000    0.000    0.000    0.000    0.000    0.000 
#
# Total GULP energy -89224.316891 kJ/mol
# GULP energy per Si atom -5576.519806 kJ/mol
# Density = 2.520574 g / cm^3
# Si number density = 25.263245 Si / 1000 Ang^3
#
#
#
# Elastic Constant Matrix: (Units=GPa)
#
#
# Indices 1 2 3 4 5 6 
#
# 1 79.7350 22.0416 37.0700 6.3431 -31.9223 -21.9166
# 2 22.0416 60.3487 21.0836 2.7209 -1.7757 -26.4776
# 3 37.0700 21.0836 75.6842 1.8131 -30.2571 -7.4453
# 4 6.3431 2.7209 1.8131 28.6738 -15.5818 -13.6959
# 5 -31.9223 -1.7757 -30.2571 -15.5818 38.5031 4.4314
# 6 -21.9166 -26.4776 -7.4453 -13.6959 4.4314 48.4839
#
#
#
# Elastic Compliance Matrix: (Units=1/GPa)
#
#
# Indices 1 2 3 4 5 6 
#
# 1 0.025964 -0.004351 -0.000845 0.013337 0.024824 0.010729
# 2 -0.004351 0.025789 -0.008160 -0.001286 -0.010672 0.011476
# 3 -0.000845 -0.008160 0.025065 0.012355 0.023580 0.000346
# 4 0.013337 -0.001286 0.012355 0.066098 0.044949 0.021787
# 5 0.024824 -0.010672 0.023580 0.044949 0.081137 0.014296
# 6 0.010729 0.011476 0.000346 0.021787 0.014296 0.036643
#
#
# Mechanical properties :
#
#
# Convention : Reuss Voigt Hill
#
# Bulk Modulus (GPa) = 19.95745 41.79538 30.87642
# Shear Modulus (GPa) = 16.44149 32.17034 24.30591
#
# Velocity S-wave (km/s) = 2.55386 3.57235 3.10515
# Velocity P-wave (km/s) = 4.07593 5.79616 5.01042
#
# Compressibility (1/GPa) = 0.05010660
#
# Stress axis : x y z
#
# Youngs Moduli (GPa) = 38.51526 38.77585 39.89706
#
# Poissons Ratio (x) = 0.16873 0.03369
# Poissons Ratio (y) = 0.16760 0.32554
# Poissons Ratio (z) = 0.03253 0.31639
#
# Static dielectric constant tensor:
#      x y z
#    x 2.055370 -0.050440 0.035340 
#    y -0.050440 2.112730 0.000830 
#    z 0.035340 0.000830 2.012910 
# 
# From -- ./inp_files/437023.got.cif
#   From: 2010.05.17/outbox.cif.g08.bks.cpg/sg2_219_cif.got.tgz:437023.got - 2010.06.03 11:33:40.
