data_PCOD9027508
_publ_section_title
;
Structure prediction by ZEFSAII (Michael W. Deem and Ramdas Pophale) SiO2 
 PCOD9027508
Probable space group: P -1
;
_chemical_formula_sum "Si O2"
_cell_formula_units_Z 14
_cell_length_a 6.498875
_cell_length_b 12.144003
_cell_length_c 8.726781
_cell_angle_alpha 56.696230
_cell_angle_beta 77.014727
_cell_angle_gamma 95.422180
_cell_volume 540.462964
_symmetry_space_group_name_H-M "P -1"
_symmetry_group_IT_number 2
_symmetry_cell_setting 'triclinic'
loop_
_space_group_symop_operation_xyz
x,y,z
-x,-y,-z
loop_
_atom_site_type_symbol
_atom_site_label
_atom_site_fract_x
_atom_site_fract_y
_atom_site_fract_z
Si Si1 0.409125 0.187213 0.992117
Si Si2 0.245299 0.902360 0.176922
Si Si3 0.015976 0.819419 0.841144
Si Si4 0.739917 0.588329 0.270970
Si Si5 0.577447 0.933384 0.389049
Si Si6 0.788531 0.696608 0.509865
Si Si7 0.059146 0.607799 0.771229
O O1 0.639262 0.161609 0.928146
O O2 0.439433 0.344692 0.823748
O O3 0.229706 0.168493 0.174874
O O4 0.255445 0.060253 0.013963
O O5 0.404861 0.922568 0.286295
O O6 0.017626 0.804296 0.340128
O O7 0.119594 0.752889 0.736067
O O8 0.948392 0.705349 0.074529
O O9 0.184011 0.958220 0.756880
O O10 0.771360 0.445077 0.321032
O O11 0.721124 0.605315 0.440551
O O12 0.625494 0.786826 0.510460
O O13 0.500000 0.000000 0.500000
O O14 0.849808 0.609981 0.702864
O O15 0.000000 0.500000 0.000000
#
# Coordination Sequence:
#
# PCOD9027508 Si02
#       7
#     2   2   2   2   2   2   2
#     4   9  20  36  66  93 130 160 206 248 319 371
#     4  11  23  37  64  99 130 159 200 259 318 376
#     4   9  20  40  64  89 131 160 202 252 314 369
#     4   9  20  40  67  90 121 168 214 253 304 365
#     4  12  25  37  62 100 129 161 204 255 319 382
#     4  12  23  41  66  94 126 163 208 265 312 362
#     4  10  22  41  68  85 120 180 210 250 314 364
#
# _framework density 25.903715999999999
#
# number of rings (size 3 to 8) (size 9 to 14) (size 15 to 20)
#    0.857    0.857    2.857    1.286    6.000    2.857 
#    0.000    0.714    3.143    6.000    0.000    0.000 
#    0.000    0.000    0.000    0.000    0.000    0.000 
#
# Total GULP energy -78041.147385 kJ/mol
# GULP energy per Si atom -5574.367670 kJ/mol
# Density = 2.584476 g / cm^3
# Si number density = 25.903716 Si / 1000 Ang^3
#
#
#
# Elastic Constant Matrix: (Units=GPa)
#
#
# Indices 1 2 3 4 5 6 
#
# 1 114.4453 76.6763 43.0216 8.3373 -8.4561 -40.8239
# 2 76.6763 144.0281 27.3282 11.0924 4.7486 -45.1183
# 3 43.0216 27.3282 72.8372 6.9885 1.2886 -9.4682
# 4 8.3373 11.0924 6.9885 35.2035 1.8473 -14.6326
# 5 -8.4561 4.7486 1.2886 1.8473 44.9525 -5.7750
# 6 -40.8239 -45.1183 -9.4682 -14.6326 -5.7750 59.3320
#
#
#
# Elastic Compliance Matrix: (Units=1/GPa)
#
#
# Indices 1 2 3 4 5 6 
#
# 1 0.019366 -0.006562 -0.008232 0.002192 0.005523 0.008100
# 2 -0.006562 0.011841 0.000048 -0.000328 -0.001930 0.004228
# 3 -0.008232 0.000048 0.018437 -0.003134 -0.002428 -0.003694
# 4 0.002192 -0.000328 -0.003134 0.032228 0.000335 0.008740
# 5 0.005523 -0.001930 -0.002428 0.000335 0.024106 0.004374
# 6 0.008100 0.004228 -0.003694 0.008740 0.004374 0.027634
#
#
# Mechanical properties :
#
#
# Convention : Reuss Voigt Hill
#
# Bulk Modulus (GPa) = 49.62026 69.48476 59.55251
# Shear Modulus (GPa) = 29.44304 40.18324 34.81314
#
# Velocity S-wave (km/s) = 3.37506 3.94287 3.66996
# Velocity P-wave (km/s) = 5.86389 6.90006 6.40297
#
# Compressibility (1/GPa) = 0.02015306
#
# Stress axis : x y z
#
# Youngs Moduli (GPa) = 51.63681 84.45572 54.23959
#
# Poissons Ratio (x) = 0.55416 0.44649
# Poissons Ratio (y) = 0.33882 -0.00262
# Poissons Ratio (z) = 0.42507 -0.00408
#
# Static dielectric constant tensor:
#      x y z
#    x 2.141060 -0.026560 0.003350 
#    y -0.026560 2.018390 -0.006740 
#    z 0.003350 -0.006740 2.091940 
# 
# From -- ./inp_files/134836.got.cif
#   From: 2010.05.17/outbox.cif.g08.bks.cpg/sg2_68_cif.got.tgz:134836.got - 2010.06.03 11:33:40.
