data_PCOD9027213
_publ_section_title
;
Structure prediction by ZEFSAII (Michael W. Deem and Ramdas Pophale) SiO2 
 PCOD9027213
Probable space group: P -1
;
_chemical_formula_sum "Si O2"
_cell_formula_units_Z 16
_cell_length_a 11.537403
_cell_length_b 17.489955
_cell_length_c 11.088539
_cell_angle_alpha 30.076081
_cell_angle_beta 55.730065
_cell_angle_gamma 37.943923
_cell_volume 635.694052
_symmetry_space_group_name_H-M "P -1"
_symmetry_group_IT_number 2
_symmetry_cell_setting 'triclinic'
loop_
_space_group_symop_operation_xyz
x,y,z
-x,-y,-z
loop_
_atom_site_type_symbol
_atom_site_label
_atom_site_fract_x
_atom_site_fract_y
_atom_site_fract_z
Si Si1 0.759833 0.638999 0.290658
Si Si2 0.106146 0.251796 0.287195
Si Si3 0.210975 0.341464 0.316072
Si Si4 0.289833 0.660206 0.234386
Si Si5 0.077849 0.067373 0.068632
Si Si6 0.987100 0.194899 0.215014
Si Si7 0.626257 0.946851 0.172851
Si Si8 0.287441 0.622121 0.575577
O O1 0.729478 0.504013 0.564129
O O2 0.704038 0.808284 0.192479
O O3 0.982880 0.483312 0.312865
O O4 0.587605 0.799185 0.069987
O O5 0.156694 0.135307 0.287447
O O6 0.918837 0.295742 0.380057
O O7 0.254972 0.180556 0.405555
O O8 0.000000 0.500000 0.000000
O O9 0.365575 0.180859 0.551818
O O10 0.195708 0.533008 0.025954
O O11 0.283001 0.639223 0.410749
O O12 0.499825 0.587742 0.200578
O O13 0.105070 0.874054 0.973538
O O14 0.997492 0.203745 0.052502
O O15 0.256414 0.822606 0.354877
O O16 0.193980 0.070919 0.893223
O O17 0.000000 0.000000 0.500000
#
# Coordination Sequence:
#
# PCOD9027213 Si02
#       8
#     2   2   2   2   2   2   2   2
#     4  11  20  35  59  98 126 155 193 255 325 374
#     4  10  22  41  67  87 120 174 216 251 303 360
#     4  11  21  41  67  89 126 163 205 262 306 379
#     4  11  23  36  62  97 125 159 198 257 330 368
#     4  12  21  38  64  92 126 163 206 255 310 380
#     4  11  23  40  65  89 118 172 219 249 303 361
#     4  11  22  35  64  99 124 156 201 253 326 375
#     4  11  22  40  60  93 132 158 199 263 314 377
#
# _framework density 25.169339999999998
#
# number of rings (size 3 to 8) (size 9 to 14) (size 15 to 20)
#    0.000    1.000    6.250    1.500    0.000    0.000 
#    0.000    0.625    5.500    4.500    0.000    0.000 
#    0.000    0.000    0.000    0.000    0.000    0.000 
#
# Total GULP energy -89077.722015 kJ/mol
# GULP energy per Si atom -5567.357626 kJ/mol
# Density = 2.511205 g / cm^3
# Si number density = 25.169340 Si / 1000 Ang^3
#
#
#
# Elastic Constant Matrix: (Units=GPa)
#
#
# Indices 1 2 3 4 5 6 
#
# 1 92.3644 32.4531 38.2308 -5.7538 17.9573 2.9820
# 2 32.4531 48.1489 8.4333 9.7775 18.8255 6.5325
# 3 38.2308 8.4333 130.7105 8.4377 5.6372 -11.3625
# 4 -5.7538 9.7775 8.4377 26.2938 -0.2426 -0.5691
# 5 17.9573 18.8255 5.6372 -0.2426 49.7714 2.1197
# 6 2.9820 6.5325 -11.3625 -0.5691 2.1197 41.7867
#
#
#
# Elastic Compliance Matrix: (Units=1/GPa)
#
#
# Indices 1 2 3 4 5 6 
#
# 1 0.018545 -0.013291 -0.005254 0.010667 -0.000996 -0.000478
# 2 -0.013291 0.037077 0.002711 -0.017737 -0.009457 -0.003872
# 3 -0.005254 0.002711 0.009579 -0.005181 -0.000347 0.002503
# 4 0.010667 -0.017737 -0.005181 0.048681 0.003638 0.001081
# 5 -0.000996 -0.009457 -0.000347 0.003638 0.024073 0.000284
# 6 -0.000478 -0.003872 0.002503 0.001081 0.000284 0.025251
#
#
# Mechanical properties :
#
#
# Convention : Reuss Voigt Hill
#
# Bulk Modulus (GPa) = 29.81983 47.71757 38.76870
# Shear Modulus (GPa) = 24.26574 36.37749 30.32162
#
# Velocity S-wave (km/s) = 3.10836 3.80585 3.47465
# Velocity P-wave (km/s) = 4.97554 6.18970 5.61553
#
# Compressibility (1/GPa) = 0.03353473
#
# Stress axis : x y z
#
# Youngs Moduli (GPa) = 53.92356 26.97074 104.39334
#
# Poissons Ratio (x) = 0.35847 0.54845
# Poissons Ratio (y) = 0.71669 -0.28306
# Poissons Ratio (z) = 0.28330 -0.07313
#
# Static dielectric constant tensor:
#      x y z
#    x 2.115580 0.068800 -0.043110 
#    y 0.068800 2.104830 0.000250 
#    z -0.043110 0.000250 2.071040 
# 
# From -- ./inp_files/436370.got.cif
#   From: 2010.05.17/outbox.cif.g08.bks.cpg/sg2_219_cif.got.tgz:436370.got - 2010.06.03 11:33:40.
