data_PCOD9027382
_publ_section_title
;
Structure prediction by ZEFSAII (Michael W. Deem and Ramdas Pophale) SiO2 
 PCOD9027382
Probable space group: P -1
;
_chemical_formula_sum "Si O2"
_cell_formula_units_Z 14
_cell_length_a 15.017435
_cell_length_b 9.857307
_cell_length_c 5.134316
_cell_angle_alpha 71.428705
_cell_angle_beta 82.866674
_cell_angle_gamma 43.344240
_cell_volume 487.723491
_symmetry_space_group_name_H-M "P -1"
_symmetry_group_IT_number 2
_symmetry_cell_setting 'triclinic'
loop_
_space_group_symop_operation_xyz
x,y,z
-x,-y,-z
loop_
_atom_site_type_symbol
_atom_site_label
_atom_site_fract_x
_atom_site_fract_y
_atom_site_fract_z
Si Si1 0.790859 0.302727 0.522951
Si Si2 0.820180 0.900423 0.427374
Si Si3 0.625850 0.454584 0.971149
Si Si4 0.126286 0.430873 0.124864
Si Si5 0.050673 0.113660 0.106497
Si Si6 0.335093 0.255551 0.742993
Si Si7 0.454081 0.881366 0.542119
O O1 0.694763 0.342359 0.741473
O O2 0.770203 0.496915 0.434712
O O3 0.929063 0.078726 0.722852
O O4 0.731047 0.333005 0.242654
O O5 0.857482 0.687776 0.554951
O O6 0.897901 0.884712 0.639512
O O7 0.667263 0.086098 0.442615
O O8 0.859796 0.924903 0.129460
O O9 0.567458 0.681752 0.804937
O O10 0.500000 0.500000 0.000000
O O11 0.259529 0.266323 0.001865
O O12 0.000000 0.500000 0.000000
O O13 0.086707 0.643327 0.036885
O O14 0.475975 0.177713 0.728674
O O15 0.387166 0.089180 0.599171
#
# Coordination Sequence:
#
# PCOD9027382 Si02
#       7
#     2   2   2   2   2   2   2
#     4  11  24  41  63  97 136 175 219 268 329 398
#     4  11  23  42  70 100 128 174 226 275 332 392
#     4  11  23  40  66  98 134 176 221 267 326 398
#     4  10  23  42  68  96 130 174 229 280 326 392
#     4  11  23  43  69  97 134 175 222 277 329 387
#     4  10  24  42  66 100 136 177 223 270 338 399
#     4  10  22  41  67  97 139 175 216 278 334 396
#
# _framework density 28.704791
#
# number of rings (size 3 to 8) (size 9 to 14) (size 15 to 20)
#    0.000    1.429    0.000    5.143    0.000   12.000 
#    0.000    0.000    0.000    9.429    0.000    0.000 
#    0.000    0.000    0.000    0.000    0.000    0.000 
#
# Total GULP energy -78260.751420 kJ/mol
# GULP energy per Si atom -5590.053673 kJ/mol
# Density = 2.863946 g / cm^3
# Si number density = 28.704791 Si / 1000 Ang^3
#
#
#
# Elastic Constant Matrix: (Units=GPa)
#
#
# Indices 1 2 3 4 5 6 
#
# 1 72.8830 39.4940 61.6684 12.5278 -20.0553 -15.5152
# 2 39.4940 142.3501 80.7699 -11.0896 -31.7913 0.8573
# 3 61.6684 80.7699 174.0188 0.8776 -38.0550 -1.7307
# 4 12.5278 -11.0896 0.8776 79.8096 -16.5933 -22.0112
# 5 -20.0553 -31.7913 -38.0550 -16.5933 47.1246 9.6980
# 6 -15.5152 0.8573 -1.7307 -22.0112 9.6980 57.2878
#
#
#
# Elastic Compliance Matrix: (Units=1/GPa)
#
#
# Indices 1 2 3 4 5 6 
#
# 1 0.022191 -0.002532 -0.006475 -0.002277 0.000706 0.004858
# 2 -0.002532 0.010758 -0.003064 0.002732 0.004812 -0.000704
# 3 -0.006475 -0.003064 0.010363 0.000863 0.004215 -0.001777
# 4 -0.002277 0.002732 0.000863 0.015756 0.006220 0.004369
# 5 0.000706 0.004812 0.004215 0.006220 0.030895 -0.002594
# 6 0.004858 -0.000704 -0.001777 0.004369 -0.002594 0.020846
#
#
# Mechanical properties :
#
#
# Convention : Reuss Voigt Hill
#
# Bulk Modulus (GPa) = 52.16516 83.67961 67.92239
# Shear Modulus (GPa) = 35.37557 50.66570 43.02064
#
# Velocity S-wave (km/s) = 3.51435 4.20582 3.87554
# Velocity P-wave (km/s) = 5.88897 7.26638 6.61363
#
# Compressibility (1/GPa) = 0.01916988
#
# Stress axis : x y z
#
# Youngs Moduli (GPa) = 45.06381 92.95375 96.49667
#
# Poissons Ratio (x) = 0.23537 0.62477
# Poissons Ratio (y) = 0.11410 0.29570
# Poissons Ratio (z) = 0.29177 0.28484
#
# Static dielectric constant tensor:
#      x y z
#    x 2.389360 0.090450 -0.038530 
#    y 0.090450 2.373410 -0.100480 
#    z -0.038530 -0.100480 2.234380 
# 
# From -- ./inp_files/108829.got.cif
#   From: 2010.05.17/outbox.cif.g08.bks.cpg/sg2_55_cif.got.tgz:108829.got - 2010.06.03 11:33:40.
