data_PCOD9027923
_publ_section_title
;
Structure prediction by ZEFSAII (Michael W. Deem and Ramdas Pophale) SiO2 
 PCOD9027923
Probable space group: P -1
;
_chemical_formula_sum "Si O2"
_cell_formula_units_Z 14
_cell_length_a 11.904472
_cell_length_b 9.766233
_cell_length_c 10.243417
_cell_angle_alpha 135.597467
_cell_angle_beta 134.596834
_cell_angle_gamma 66.725592
_cell_volume 579.639087
_symmetry_space_group_name_H-M "P -1"
_symmetry_group_IT_number 2
_symmetry_cell_setting 'triclinic'
loop_
_space_group_symop_operation_xyz
x,y,z
-x,-y,-z
loop_
_atom_site_type_symbol
_atom_site_label
_atom_site_fract_x
_atom_site_fract_y
_atom_site_fract_z
Si Si1 0.661836 0.798543 0.493019
Si Si2 0.702188 0.249137 0.909075
Si Si3 0.814084 0.997772 0.505732
Si Si4 0.415366 0.328413 0.215405
Si Si5 0.830069 0.024023 0.229506
Si Si6 0.159801 0.575123 0.097693
Si Si7 0.708912 0.383437 0.303498
O O1 0.467283 0.736871 0.289322
O O2 0.736077 0.623420 0.496801
O O3 0.712562 0.016268 0.749115
O O4 0.714595 0.831974 0.406883
O O5 0.846278 0.380483 0.030816
O O6 0.696024 0.325920 0.101973
O O7 0.760914 0.205427 0.631830
O O8 0.002414 0.021386 0.713115
O O9 0.807757 0.970202 0.327684
O O10 0.500000 0.500000 0.500000
O O11 0.270529 0.418545 0.101299
O O12 0.833179 0.258251 0.376325
O O13 0.326871 0.116069 0.059879
O O14 0.455013 0.697365 0.804509
O O15 0.000000 0.500000 0.000000
#
# Coordination Sequence:
#
# PCOD9027923 Si02
#       7
#     2   2   2   2   2   2   2
#     4  10  22  41  70 101 140 186 232 287 361 422
#     4  10  23  41  70 102 140 185 235 289 353 435
#     4  10  23  45  69 101 143 189 239 290 352 438
#     4  12  26  43  72 105 143 189 240 297 353 416
#     4  11  25  43  68 104 144 189 237 293 359 420
#     4  11  22  44  73 104 136 193 240 288 356 427
#     4  12  25  42  70 106 141 184 236 302 350 418
#
# _framework density 24.152963
#
# number of rings (size 3 to 8) (size 9 to 14) (size 15 to 20)
#    0.000    1.143    2.857    2.571    4.000    0.571 
#    0.000    4.286    0.000    0.000    0.000    0.000 
#    0.000    0.000    0.000    0.000    0.000    0.000 
#
# Total GULP energy -78351.689422 kJ/mol
# GULP energy per Si atom -5596.549244 kJ/mol
# Density = 2.409799 g / cm^3
# Si number density = 24.152963 Si / 1000 Ang^3
#
#
#
# Elastic Constant Matrix: (Units=GPa)
#
#
# Indices 1 2 3 4 5 6 
#
# 1 142.1172 19.6718 33.7909 0.4518 -9.8094 14.2471
# 2 19.6718 105.9604 30.4347 38.5387 -4.8963 -6.6814
# 3 33.7909 30.4347 70.4987 16.7387 -3.2497 3.5478
# 4 0.4518 38.5387 16.7387 24.9995 2.8965 -5.2815
# 5 -9.8094 -4.8963 -3.2497 2.8965 27.0374 15.8387
# 6 14.2471 -6.6814 3.5478 -5.2815 15.8387 36.4337
#
#
#
# Elastic Compliance Matrix: (Units=1/GPa)
#
#
# Indices 1 2 3 4 5 6 
#
# 1 0.009121 -0.002152 -0.003924 0.004102 0.005040 -0.005176
# 2 -0.002152 0.024784 0.000988 -0.041397 0.011643 -0.005772
# 3 -0.003924 0.000988 0.020178 -0.016799 0.006108 -0.005340
# 4 0.004102 -0.041397 -0.016799 0.124908 -0.037014 0.026638
# 5 0.005040 0.011643 0.006108 -0.037014 0.065766 -0.034387
# 6 -0.005176 -0.005772 -0.005340 0.026638 -0.034387 0.047743
#
#
# Mechanical properties :
#
#
# Convention : Reuss Voigt Hill
#
# Bulk Modulus (GPa) = 22.77509 54.04123 38.40816
# Shear Modulus (GPa) = 15.75742 33.33937 24.54840
#
# Velocity S-wave (km/s) = 2.55699 3.71933 3.19152
# Velocity P-wave (km/s) = 4.26234 6.39278 5.43301
#
# Compressibility (1/GPa) = 0.04390762
#
# Stress axis : x y z
#
# Youngs Moduli (GPa) = 109.63677 40.34906 49.55963
#
# Poissons Ratio (x) = 0.08682 0.19448
# Poissons Ratio (y) = 0.23590 -0.04898
# Poissons Ratio (z) = 0.43023 -0.03988
#
# Static dielectric constant tensor:
#      x y z
#    x 1.887660 0.034290 0.003580 
#    y 0.034290 1.915510 -0.026500 
#    z 0.003580 -0.026500 1.945690 
# 
# From -- ./inp_files/424600.got.cif
#   From: 2010.05.17/outbox.cif.g08.bks.cpg/sg2_213_cif.got.tgz:424600.got - 2010.06.03 11:33:40.
