data_PCOD9027843
_publ_section_title
;
Structure prediction by ZEFSAII (Michael W. Deem and Ramdas Pophale) SiO2 
 PCOD9027843
Probable space group: P -1
;
_chemical_formula_sum "Si O2"
_cell_formula_units_Z 16
_cell_length_a 12.215342
_cell_length_b 9.192869
_cell_length_c 10.751455
_cell_angle_alpha 57.492282
_cell_angle_beta 84.684826
_cell_angle_gamma 47.533276
_cell_volume 676.516886
_symmetry_space_group_name_H-M "P -1"
_symmetry_group_IT_number 2
_symmetry_cell_setting 'triclinic'
loop_
_space_group_symop_operation_xyz
x,y,z
-x,-y,-z
loop_
_atom_site_type_symbol
_atom_site_label
_atom_site_fract_x
_atom_site_fract_y
_atom_site_fract_z
Si Si1 0.740173 0.832405 0.994842
Si Si2 0.564780 0.987943 0.362609
Si Si3 0.001799 0.694394 0.184796
Si Si4 0.840313 0.857159 0.523705
Si Si5 0.978192 0.975454 0.288128
Si Si6 0.235315 0.484454 0.043330
Si Si7 0.691666 0.263339 0.545277
Si Si8 0.622485 0.689766 0.271365
O O1 0.847744 0.852431 0.037283
O O2 0.696637 0.743418 0.146539
O O3 0.818300 0.628156 0.970003
O O4 0.569463 0.103225 0.836840
O O5 0.425839 0.233979 0.174766
O O6 0.500000 0.000000 0.500000
O O7 0.705608 0.961710 0.387371
O O8 0.635677 0.746189 0.385141
O O9 0.974815 0.844099 0.236242
O O10 0.054817 0.437572 0.331382
O O11 0.146675 0.604230 0.129050
O O12 0.948918 0.889524 0.450941
O O13 0.739957 0.031506 0.576943
O O14 0.153330 0.871368 0.320701
O O15 0.829477 0.283380 0.139657
O O16 0.500000 0.500000 0.500000
O O17 0.699258 0.413305 0.378877
#
# Coordination Sequence:
#
# PCOD9027843 Si02
#       8
#     2   2   2   2   2   2   2   2
#     4  10  22  41  69  97 131 176 229 270 343 396
#     4  11  22  43  70 101 136 179 228 273 345 401
#     4  12  24  42  71  97 136 180 224 278 339 406
#     4  12  25  44  73  97 138 184 227 279 337 410
#     4  12  27  46  66 104 137 178 230 282 342 400
#     4  11  25  42  70  96 143 174 222 286 332 402
#     4  12  27  41  69  98 139 176 227 280 341 400
#     4  10  22  42  65  98 135 175 222 284 327 410
#
# _framework density 23.650555000000001
#
# number of rings (size 3 to 8) (size 9 to 14) (size 15 to 20)
#    0.000    0.750    1.250    6.000    5.250    1.500 
#    0.000    0.000    0.000    0.000    0.000    0.000 
#    0.000    0.000    0.000    0.000    0.000    0.000 
#
# Total GULP energy -89542.059397 kJ/mol
# GULP energy per Si atom -5596.378712 kJ/mol
# Density = 2.359673 g / cm^3
# Si number density = 23.650555 Si / 1000 Ang^3
#
#
#
# Elastic Constant Matrix: (Units=GPa)
#
#
# Indices 1 2 3 4 5 6 
#
# 1 104.2484 22.4080 33.9983 -8.7468 38.1900 5.0819
# 2 22.4080 92.7594 15.6049 7.2434 15.5688 19.7473
# 3 33.9983 15.6049 102.6479 -11.0053 -4.5168 8.3706
# 4 -8.7468 7.2434 -11.0053 30.6255 0.7886 -4.5659
# 5 38.1900 15.5688 -4.5168 0.7886 43.5849 4.6966
# 6 5.0819 19.7473 8.3706 -4.5659 4.6966 37.5892
#
#
#
# Elastic Compliance Matrix: (Units=1/GPa)
#
#
# Indices 1 2 3 4 5 6 
#
# 1 0.018167 -0.001360 -0.006282 0.004002 -0.016393 0.002191
# 2 -0.001360 0.013811 -0.001783 -0.005249 -0.003086 -0.006927
# 3 -0.006282 -0.001783 0.012867 0.002804 0.007606 -0.001689
# 4 0.004002 -0.005249 0.002804 0.037073 -0.002705 0.006433
# 5 -0.016393 -0.003086 0.007606 -0.002705 0.039584 -0.003131
# 6 0.002191 -0.006927 -0.001689 0.006433 -0.003131 0.031495
#
#
# Mechanical properties :
#
#
# Convention : Reuss Voigt Hill
#
# Bulk Modulus (GPa) = 38.46580 49.29755 43.88167
# Shear Modulus (GPa) = 27.69907 37.53622 32.61764
#
# Velocity S-wave (km/s) = 3.42596 3.98819 3.71772
# Velocity P-wave (km/s) = 5.65236 6.48821 6.08466
#
# Compressibility (1/GPa) = 0.02599712
#
# Stress axis : x y z
#
# Youngs Moduli (GPa) = 55.04353 72.40397 77.72049
#
# Poissons Ratio (x) = 0.09844 0.48821
# Poissons Ratio (y) = 0.07484 0.13858
# Poissons Ratio (z) = 0.34576 0.12910
#
# Static dielectric constant tensor:
#      x y z
#    x 1.900350 -0.054130 0.002490 
#    y -0.054130 1.910910 -0.015380 
#    z 0.002490 -0.015380 1.918800 
# 
# From -- ./inp_files/419159.got.cif
#   From: 2010.05.17/outbox.cif.g08.bks.cpg/sg2_210_cif.got.tgz:419159.got - 2010.06.03 11:33:40.
