data_PCOD9027091
_publ_section_title
;
Structure prediction by ZEFSAII (Michael W. Deem and Ramdas Pophale) SiO2 
 PCOD9027091
Probable space group: P -1
;
_chemical_formula_sum "Si O2"
_cell_formula_units_Z 16
_cell_length_a 9.092930
_cell_length_b 12.452704
_cell_length_c 18.944881
_cell_angle_alpha 140.178242
_cell_angle_beta 49.320824
_cell_angle_gamma 101.086502
_cell_volume 804.925855
_symmetry_space_group_name_H-M "P -1"
_symmetry_group_IT_number 2
_symmetry_cell_setting 'triclinic'
loop_
_space_group_symop_operation_xyz
x,y,z
-x,-y,-z
loop_
_atom_site_type_symbol
_atom_site_label
_atom_site_fract_x
_atom_site_fract_y
_atom_site_fract_z
Si Si1 0.195172 0.526123 0.925006
Si Si2 0.340292 0.415954 0.667981
Si Si3 0.197973 0.000091 0.769229
Si Si4 0.554584 0.925104 0.027818
Si Si5 0.398906 0.002996 0.271289
Si Si6 0.384546 0.660585 0.182954
Si Si7 0.034934 0.567066 0.308400
Si Si8 0.184603 0.884381 0.947467
O O1 0.317584 0.395304 0.747739
O O2 0.411763 0.439455 0.869272
O O3 0.000000 0.500000 0.000000
O O4 0.010347 0.783229 0.099259
O O5 0.106759 0.458695 0.721954
O O6 0.590986 0.206434 0.447577
O O7 0.310444 0.633294 0.783045
O O8 0.347710 0.045610 0.799504
O O9 0.008819 0.980046 0.859090
O O10 0.770777 0.664805 0.831608
O O11 0.623590 0.074516 0.104054
O O12 0.403702 0.953060 0.161194
O O13 0.500000 0.000000 0.000000
O O14 0.341366 0.871163 0.271528
O O15 0.177367 0.255480 0.481971
O O16 0.165053 0.661018 0.281781
O O17 0.500000 0.500000 0.000000
O O18 0.000000 0.000000 0.000000
#
# Coordination Sequence:
#
# PCOD9027091 Si02
#       8
#     2   2   2   2   2   2   2   2
#     4  11  22  41  64  95 131 164 213 266 314 380
#     4  10  23  42  65  95 128 165 215 267 318 380
#     4  10  22  41  66  97 125 167 214 267 322 373
#     4  12  26  44  64  96 131 172 214 267 326 378
#     4  11  23  45  67  94 131 171 217 264 320 389
#     4  12  24  43  69  95 133 178 209 258 328 386
#     4  11  24  44  67  96 131 172 214 263 326 387
#     4  11  21  40  67  89 123 165 218 265 314 379
#
# _framework density 19.877607000000001
#
# number of rings (size 3 to 8) (size 9 to 14) (size 15 to 20)
#    0.000    1.000    5.000    1.875    3.500    2.500 
#    6.750    0.000    0.000    0.000    0.000    0.000 
#    0.000    0.000    0.000    0.000    0.000    0.000 
#
# Total GULP energy -89098.142985 kJ/mol
# GULP energy per Si atom -5568.633937 kJ/mol
# Density = 1.983236 g / cm^3
# Si number density = 19.877607 Si / 1000 Ang^3
#
#
#
# Elastic Constant Matrix: (Units=GPa)
#
#
# Indices 1 2 3 4 5 6 
#
# 1 52.8909 28.2809 26.2734 5.3825 7.7567 -21.4179
# 2 28.2809 114.3352 39.4443 -5.0494 -3.2293 -15.5235
# 3 26.2734 39.4443 131.9172 0.9164 7.7086 -24.2874
# 4 5.3825 -5.0494 0.9164 14.4433 4.3001 3.9810
# 5 7.7567 -3.2293 7.7086 4.3001 19.5265 -7.0956
# 6 -21.4179 -15.5235 -24.2874 3.9810 -7.0956 46.6961
#
#
#
# Elastic Compliance Matrix: (Units=1/GPa)
#
#
# Indices 1 2 3 4 5 6 
#
# 1 0.029743 -0.006040 -0.001653 -0.014778 -0.004799 0.011305
# 2 -0.006040 0.011440 -0.002511 0.005215 0.004099 -0.000095
# 3 -0.001653 -0.002511 0.009351 -0.001065 -0.002111 0.003041
# 4 -0.014778 0.005215 -0.001065 0.086139 -0.017484 -0.015599
# 5 -0.004799 0.004099 -0.002111 -0.017484 0.061727 0.008934
# 6 0.011305 -0.000095 0.003041 -0.015599 0.008934 0.030838
#
#
# Mechanical properties :
#
#
# Convention : Reuss Voigt Hill
#
# Bulk Modulus (GPa) = 33.19414 54.12670 43.66042
# Shear Modulus (GPa) = 19.25390 29.80951 24.53170
#
# Velocity S-wave (km/s) = 3.11565 3.87674 3.51684
# Velocity P-wave (km/s) = 5.44780 6.87953 6.20509
#
# Compressibility (1/GPa) = 0.03012580
#
# Stress axis : x y z
#
# Youngs Moduli (GPa) = 33.62093 87.41564 106.93896
#
# Poissons Ratio (x) = 0.52798 0.17681
# Poissons Ratio (y) = 0.20307 0.26851
# Poissons Ratio (z) = 0.05559 0.21949
#
# Static dielectric constant tensor:
#      x y z
#    x 1.722300 0.011280 0.007900 
#    y 0.011280 1.675760 -0.013800 
#    z 0.007900 -0.013800 1.680280 
# 
# From -- ./inp_files/560015.got.cif
#   From: 2010.05.17/outbox.cif.g08.bks.cpg/sg2_281_cif.got.tgz:560015.got - 2010.06.03 11:33:40.
