data_PCOD9027973
_publ_section_title
;
Structure prediction by ZEFSAII (Michael W. Deem and Ramdas Pophale) SiO2 
 PCOD9027973
Probable space group: P -1
;
_chemical_formula_sum "Si O2"
_cell_formula_units_Z 13
_cell_length_a 15.899189
_cell_length_b 16.468051
_cell_length_c 9.715188
_cell_angle_alpha 35.854873
_cell_angle_beta 34.231823
_cell_angle_gamma 19.686477
_cell_volume 475.099616
_symmetry_space_group_name_H-M "P -1"
_symmetry_group_IT_number 2
_symmetry_cell_setting 'triclinic'
loop_
_space_group_symop_operation_xyz
x,y,z
-x,-y,-z
loop_
_atom_site_type_symbol
_atom_site_label
_atom_site_fract_x
_atom_site_fract_y
_atom_site_fract_z
Si Si1 0.971778 0.258429 0.639516
Si Si2 0.709300 0.467354 0.251118
Si Si3 0.470262 0.058668 0.657388
Si Si4 0.000000 0.000000 0.500000
Si Si5 0.965470 0.066350 0.141083
Si Si6 0.527377 0.747660 0.850103
Si Si7 0.271832 0.356704 0.773443
O O1 0.783420 0.474904 0.488978
O O2 0.211992 0.176432 0.463877
O O3 0.854180 0.276698 0.910003
O O4 0.110070 0.021452 0.702536
O O5 0.500000 0.500000 0.500000
O O6 0.612649 0.658254 0.226978
O O7 0.968665 0.189755 0.329387
O O8 0.709483 0.538391 0.005055
O O9 0.362111 0.261388 0.422177
O O10 0.403919 0.141995 0.790288
O O11 0.388454 0.977304 0.812130
O O12 0.086452 0.889363 0.689584
O O13 0.285574 0.833134 0.019517
O O14 0.000000 0.500000 0.000000
#
# Coordination Sequence:
#
# PCOD9027973 Si02
#       7
#     2   2   2   1   2   2   2
#     4  10  22  46  61  99 127 174 215 273 325 388
#     4  12  26  43  66  99 132 169 221 268 332 388
#     4  10  25  44  71  91 136 173 221 270 326 389
#     4  12  24  40  66 102 128 176 204 284 320 388
#     4  10  22  41  70  90 133 164 222 266 325 381
#     4  10  22  48  65  99 129 178 219 269 326 390
#     4  12  27  43  65 101 133 174 220 268 332 393
#
# _framework density 27.362684000000002
#
# number of rings (size 3 to 8) (size 9 to 14) (size 15 to 20)
#    0.000    1.231    3.077    0.923    6.462    2.462 
#    0.000    6.154    0.000    0.000    0.000    0.000 
#    0.000    0.000    0.000    0.000    0.000    0.000 
#
# Total GULP energy -72571.529086 kJ/mol
# GULP energy per Si atom -5582.425314 kJ/mol
# Density = 2.730040 g / cm^3
# Si number density = 27.362684 Si / 1000 Ang^3
#
#
#
# Elastic Constant Matrix: (Units=GPa)
#
#
# Indices 1 2 3 4 5 6 
#
# 1 133.4697 12.3452 31.4457 13.5896 21.4197 31.7694
# 2 12.3452 64.4146 29.2027 -1.6819 8.6998 15.0988
# 3 31.4457 29.2027 113.7777 -12.0254 30.1927 2.1452
# 4 13.5896 -1.6819 -12.0254 50.8924 -7.2002 12.6412
# 5 21.4197 8.6998 30.1927 -7.2002 71.0778 2.9564
# 6 31.7694 15.0988 2.1452 12.6412 2.9564 44.0446
#
#
#
# Elastic Compliance Matrix: (Units=1/GPa)
#
#
# Indices 1 2 3 4 5 6 
#
# 1 0.010163 0.001081 -0.002627 -0.001864 -0.001980 -0.006905
# 2 0.001081 0.019371 -0.004979 0.001003 -0.000170 -0.007454
# 3 -0.002627 -0.004979 0.011917 0.002198 -0.003548 0.002629
# 4 -0.001864 0.001003 0.002198 0.022392 0.002009 -0.005668
# 5 -0.001980 -0.000170 -0.003548 0.002009 0.016398 -0.000018
# 6 -0.006905 -0.007454 0.002629 -0.005668 -0.000018 0.031740
#
#
# Mechanical properties :
#
#
# Convention : Reuss Voigt Hill
#
# Bulk Modulus (GPa) = 35.21157 50.84990 43.03074
# Shear Modulus (GPa) = 37.17535 49.11420 43.14478
#
# Velocity S-wave (km/s) = 3.68994 4.24126 3.97517
# Velocity P-wave (km/s) = 5.57231 6.52751 6.06873
#
# Compressibility (1/GPa) = 0.02839976
#
# Stress axis : x y z
#
# Youngs Moduli (GPa) = 98.40069 51.62401 83.91139
#
# Poissons Ratio (x) = -0.05579 0.22047
# Poissons Ratio (y) = -0.10635 0.41778
# Poissons Ratio (z) = 0.25854 0.25703
#
# Static dielectric constant tensor:
#      x y z
#    x 2.080960 0.047010 -0.002010 
#    y 0.047010 2.506030 -0.017880 
#    z -0.002010 -0.017880 2.087170 
# 
# From -- ./inp_files/137217.got.cif
#   From: 2010.05.17/outbox.cif.g08.bks.cpg/sg2_69_cif.got.tgz:137217.got - 2010.06.03 11:33:40.
