data_PCOD9027472
_publ_section_title
;
Structure prediction by ZEFSAII (Michael W. Deem and Ramdas Pophale) SiO2 
 PCOD9027472
Probable space group: P -1
;
_chemical_formula_sum "Si O2"
_cell_formula_units_Z 16
_cell_length_a 11.364578
_cell_length_b 7.595732
_cell_length_c 17.027781
_cell_angle_alpha 113.994312
_cell_angle_beta 29.015306
_cell_angle_gamma 120.949465
_cell_volume 608.155405
_symmetry_space_group_name_H-M "P -1"
_symmetry_group_IT_number 2
_symmetry_cell_setting 'triclinic'
loop_
_space_group_symop_operation_xyz
x,y,z
-x,-y,-z
loop_
_atom_site_type_symbol
_atom_site_label
_atom_site_fract_x
_atom_site_fract_y
_atom_site_fract_z
Si Si1 0.739754 0.855682 0.535976
Si Si2 0.700421 0.732680 0.221411
Si Si3 0.465085 0.777406 0.515693
Si Si4 0.942768 0.429304 0.708268
Si Si5 0.381593 0.671256 0.859785
Si Si6 0.442407 0.210657 0.058482
Si Si7 0.691835 0.270633 0.674477
Si Si8 0.180865 0.040238 0.035128
O O1 0.568027 0.803716 0.548198
O O2 0.564288 0.738822 0.689955
O O3 0.972450 0.772161 0.374010
O O4 0.815369 0.096404 0.554783
O O5 0.644597 0.695844 0.339651
O O6 0.791498 0.566967 0.093981
O O7 0.425243 0.693390 0.332904
O O8 0.905360 0.965671 0.139321
O O9 0.176398 0.616445 0.642270
O O10 0.500000 0.000000 0.500000
O O11 0.685524 0.372442 0.900284
O O12 0.873004 0.440647 0.659126
O O13 0.557799 0.700382 0.839536
O O14 0.224199 0.824329 0.986562
O O15 0.203408 0.150373 0.126272
O O16 0.500000 0.000000 0.000000
O O17 0.424524 0.167852 0.862878
#
# Coordination Sequence:
#
# PCOD9027472 Si02
#       8
#     2   2   2   2   2   2   2   2
#     4  11  23  45  71  99 135 175 234 280 343 409
#     4  12  23  43  64  98 141 179 225 282 341 403
#     4  12  27  47  65 100 140 185 228 284 349 401
#     4  11  24  46  73 100 139 180 228 287 335 411
#     4  10  22  41  68 103 129 177 231 277 335 408
#     4   9  21  42  68 105 135 169 225 283 343 396
#     4  10  23  44  66 101 134 177 228 282 346 403
#     4   9  21  41  67  96 135 177 227 279 336 405
#
# _framework density 26.309065
#
# number of rings (size 3 to 8) (size 9 to 14) (size 15 to 20)
#    0.000    1.500    2.500    2.250    3.500    2.500 
#    4.500    1.250    0.000    0.000    0.000    0.000 
#    0.000    0.000    0.000    0.000    0.000    0.000 
#
# Total GULP energy -89663.168629 kJ/mol
# GULP energy per Si atom -5603.948039 kJ/mol
# Density = 2.624918 g / cm^3
# Si number density = 26.309065 Si / 1000 Ang^3
#
#
#
# Elastic Constant Matrix: (Units=GPa)
#
#
# Indices 1 2 3 4 5 6 
#
# 1 174.3572 51.1955 51.0804 6.0112 19.3874 45.0603
# 2 51.1955 97.4285 25.3864 -2.8340 7.6719 32.7402
# 3 51.0804 25.3864 75.6711 -8.7972 3.8797 17.3502
# 4 6.0112 -2.8340 -8.7972 39.8680 8.8822 -11.3014
# 5 19.3874 7.6719 3.8797 8.8822 37.8694 17.9880
# 6 45.0603 32.7402 17.3502 -11.3014 17.9880 53.8248
#
#
#
# Elastic Compliance Matrix: (Units=1/GPa)
#
#
# Indices 1 2 3 4 5 6 
#
# 1 0.009417 -0.001732 -0.004867 -0.004363 -0.000017 -0.006172
# 2 -0.001732 0.014036 -0.002142 -0.001865 0.002288 -0.007554
# 3 -0.004867 -0.002142 0.017604 0.004795 -0.000404 0.000845
# 4 -0.004363 -0.001865 0.004795 0.033606 -0.012663 0.014529
# 5 -0.000017 0.002288 -0.000404 -0.012663 0.036634 -0.016149
# 6 -0.006172 -0.007554 0.000845 0.014529 -0.016149 0.036515
#
#
# Mechanical properties :
#
#
# Convention : Reuss Voigt Hill
#
# Bulk Modulus (GPa) = 42.41787 66.97569 54.69678
# Shear Modulus (GPa) = 28.87635 40.96542 34.92089
#
# Velocity S-wave (km/s) = 3.31657 3.95027 3.64721
# Velocity P-wave (km/s) = 5.55195 6.80579 6.21059
#
# Compressibility (1/GPa) = 0.02357497
#
# Stress axis : x y z
#
# Youngs Moduli (GPa) = 106.19114 71.24548 56.80657
#
# Poissons Ratio (x) = 0.12338 0.27648
# Poissons Ratio (y) = 0.18390 0.12168
# Poissons Ratio (z) = 0.51684 0.15261
#
# Static dielectric constant tensor:
#      x y z
#    x 2.055550 -0.026190 -0.041450 
#    y -0.026190 2.092750 0.004530 
#    z -0.041450 0.004530 2.073520 
# 
# From -- ./inp_files/457011.got.cif
#   From: 2010.05.17/outbox.cif.g08.bks.cpg/sg2_229_cif.got.tgz:457011.got - 2010.06.03 11:33:40.
