data_PCOD9027483
_publ_section_title
;
Structure prediction by ZEFSAII (Michael W. Deem and Ramdas Pophale) SiO2 
 PCOD9027483
Probable space group: P -1
;
_chemical_formula_sum "Si O2"
_cell_formula_units_Z 16
_cell_length_a 20.171882
_cell_length_b 11.305346
_cell_length_c 8.593260
_cell_angle_alpha 39.749384
_cell_angle_beta 46.584134
_cell_angle_gamma 30.146910
_cell_volume 627.787206
_symmetry_space_group_name_H-M "P -1"
_symmetry_group_IT_number 2
_symmetry_cell_setting 'triclinic'
loop_
_space_group_symop_operation_xyz
x,y,z
-x,-y,-z
loop_
_atom_site_type_symbol
_atom_site_label
_atom_site_fract_x
_atom_site_fract_y
_atom_site_fract_z
Si Si1 0.793245 0.443786 0.252334
Si Si2 0.471786 0.859955 0.790191
Si Si3 0.778592 0.750292 0.373590
Si Si4 0.431533 0.328897 0.842781
Si Si5 0.008017 0.103333 0.036299
Si Si6 0.267028 0.603842 0.261580
Si Si7 0.316347 0.894799 0.523346
Si Si8 0.921639 0.593309 0.779857
O O1 0.676914 0.621070 0.132833
O O2 0.914186 0.156665 0.267277
O O3 0.748176 0.417618 0.510030
O O4 0.858518 0.551306 0.055320
O O5 0.584227 0.555946 0.854975
O O6 0.500000 0.000000 0.500000
O O7 0.321795 0.032197 0.819396
O O8 0.502161 0.855163 0.925300
O O9 0.758420 0.557752 0.617951
O O10 0.932167 0.547573 0.287923
O O11 0.726856 0.935008 0.422892
O O12 0.354562 0.622793 0.735437
O O13 0.551105 0.209485 0.657043
O O14 0.949149 0.393006 0.807224
O O15 0.153311 0.901610 0.078416
O O16 0.000000 0.000000 0.000000
O O17 0.190535 0.105131 0.400412
#
# Coordination Sequence:
#
# PCOD9027483 Si02
#       8
#     2   2   2   2   2   2   2   2
#     4  10  25  43  71 102 137 192 236 296 344 429
#     4  10  25  44  73 103 134 191 235 293 355 414
#     4  11  25  45  70 103 147 180 235 298 354 434
#     4  11  26  49  75 102 143 187 245 293 354 433
#     4  10  22  41  68 104 138 191 237 287 354 423
#     4  11  23  45  68 105 140 190 243 288 360 416
#     4  11  26  47  70 109 139 190 234 297 366 414
#     4  10  26  41  72 105 140 187 228 294 364 413
#
# _framework density 25.486345
#
# number of rings (size 3 to 8) (size 9 to 14) (size 15 to 20)
#    0.750    0.750    0.000    3.000   12.250    1.500 
#    4.500    0.000    0.000    0.000    0.000    0.000 
#    0.000    0.000    0.000    0.000    0.000    0.000 
#
# Total GULP energy -89534.495354 kJ/mol
# GULP energy per Si atom -5595.905960 kJ/mol
# Density = 2.542834 g / cm^3
# Si number density = 25.486345 Si / 1000 Ang^3
#
#
#
# Elastic Constant Matrix: (Units=GPa)
#
#
# Indices 1 2 3 4 5 6 
#
# 1 91.2196 58.3526 31.9425 8.9160 8.4334 -17.5913
# 2 58.3526 173.4442 35.1602 -2.2534 12.0228 -24.4923
# 3 31.9425 35.1602 73.1402 -7.5119 13.5987 0.2631
# 4 8.9160 -2.2534 -7.5119 46.6838 -0.6179 1.0994
# 5 8.4334 12.0228 13.5987 -0.6179 39.7617 -1.0776
# 6 -17.5913 -24.4923 0.2631 1.0994 -1.0776 63.3845
#
#
#
# Elastic Compliance Matrix: (Units=1/GPa)
#
#
# Indices 1 2 3 4 5 6 
#
# 1 0.016596 -0.004014 -0.005716 -0.004362 -0.000334 0.003149
# 2 -0.004014 0.007809 -0.001769 0.000803 -0.000841 0.001883
# 3 -0.005716 -0.001769 0.018271 0.003945 -0.004508 -0.002491
# 4 -0.004362 0.000803 0.003945 0.022954 -0.000346 -0.001320
# 5 -0.000334 -0.000841 -0.004508 -0.000346 0.027013 0.000066
# 6 0.003149 0.001883 -0.002491 -0.001320 0.000066 0.017412
#
#
# Mechanical properties :
#
#
# Convention : Reuss Voigt Hill
#
# Bulk Modulus (GPa) = 50.81368 65.41273 58.11320
# Shear Modulus (GPa) = 35.81346 44.12258 39.96802
#
# Velocity S-wave (km/s) = 3.75267 4.16531 3.96436
# Velocity P-wave (km/s) = 6.22556 6.98961 6.61862
#
# Compressibility (1/GPa) = 0.01967974
#
# Stress axis : x y z
#
# Youngs Moduli (GPa) = 60.25565 128.05588 54.73083
#
# Poissons Ratio (x) = 0.51397 0.31282
# Poissons Ratio (y) = 0.24185 0.09682
# Poissons Ratio (z) = 0.34440 0.22652
#
# Static dielectric constant tensor:
#      x y z
#    x 2.021380 0.016060 -0.035730 
#    y 0.016060 2.061450 -0.007770 
#    z -0.035730 -0.007770 2.048240 
# 
# From -- ./inp_files/345839.got.cif
#   From: 2010.05.17/outbox.cif.g08.bks.cpg/sg2_173_cif.got.tgz:345839.got - 2010.06.03 11:33:40.
