data_PCOD9027911
_publ_section_title
;
Structure prediction by ZEFSAII (Michael W. Deem and Ramdas Pophale) SiO2 
 PCOD9027911
Probable space group: P -1
;
_chemical_formula_sum "Si O2"
_cell_formula_units_Z 16
_cell_length_a 12.309497
_cell_length_b 13.938605
_cell_length_c 9.563788
_cell_angle_alpha 36.240900
_cell_angle_beta 85.873704
_cell_angle_gamma 61.114453
_cell_volume 670.652471
_symmetry_space_group_name_H-M "P -1"
_symmetry_group_IT_number 2
_symmetry_cell_setting 'triclinic'
loop_
_space_group_symop_operation_xyz
x,y,z
-x,-y,-z
loop_
_atom_site_type_symbol
_atom_site_label
_atom_site_fract_x
_atom_site_fract_y
_atom_site_fract_z
Si Si1 0.762816 0.721924 0.694685
Si Si2 0.673550 0.699062 0.302035
Si Si3 0.950469 0.209540 0.845547
Si Si4 0.108898 0.761606 0.864392
Si Si5 0.408133 0.066799 0.257060
Si Si6 0.846666 0.787590 0.351508
Si Si7 0.416063 0.728834 0.321235
Si Si8 0.525599 0.580423 0.770684
O O1 0.727443 0.763692 0.813860
O O2 0.864133 0.740598 0.570811
O O3 0.580402 0.964658 0.381070
O O4 0.843348 0.461629 0.952957
O O5 0.764309 0.710883 0.392797
O O6 0.508809 0.801449 0.245678
O O7 0.766443 0.432721 0.585772
O O8 0.660304 0.801962 0.036355
O O9 0.011235 0.308671 0.646390
O O10 0.977788 0.170879 0.056107
O O11 0.000000 0.000000 0.000000
O O12 0.287981 0.632062 0.032394
O O13 0.000000 0.000000 0.500000
O O14 0.469698 0.817851 0.543414
O O15 0.731587 0.057771 0.004805
O O16 0.500000 0.500000 0.500000
O O17 0.409751 0.667077 0.551011
O O18 0.500000 0.500000 0.000000
#
# Coordination Sequence:
#
# PCOD9027911 Si02
#       8
#     2   2   2   2   2   2   2   2
#     4  10  22  42  68 100 133 173 230 280 337 404
#     4  12  22  46  71  98 134 178 237 286 334 404
#     4  12  28  46  67  99 143 183 229 281 346 415
#     4  11  26  45  66  97 144 186 222 282 353 411
#     4  10  22  41  70 101 130 176 225 288 339 396
#     4  12  24  44  73  98 133 182 232 283 337 408
#     4  12  25  41  71 105 137 179 228 287 346 399
#     4  11  25  44  66 100 142 176 229 287 344 414
#
# _framework density 23.857362999999999
#
# number of rings (size 3 to 8) (size 9 to 14) (size 15 to 20)
#    0.000    0.750    5.000    2.250    5.250    1.000 
#    0.000    0.625    0.000    0.000    0.000    0.000 
#    0.000    0.000    0.000    0.000    0.000    0.000 
#
# Total GULP energy -89219.640482 kJ/mol
# GULP energy per Si atom -5576.227530 kJ/mol
# Density = 2.380306 g / cm^3
# Si number density = 23.857363 Si / 1000 Ang^3
#
#
#
# Elastic Constant Matrix: (Units=GPa)
#
#
# Indices 1 2 3 4 5 6 
#
# 1 52.0271 23.0474 5.7659 5.8941 -11.0889 -12.6659
# 2 23.0474 185.5617 69.7398 18.9360 -14.7550 -14.5352
# 3 5.7659 69.7398 159.7078 8.3564 -18.4963 -9.3086
# 4 5.8941 18.9360 8.3564 49.1113 -16.7718 -14.4432
# 5 -11.0889 -14.7550 -18.4963 -16.7718 14.5290 5.1465
# 6 -12.6659 -14.5352 -9.3086 -14.4432 5.1465 28.8906
#
#
#
# Elastic Compliance Matrix: (Units=1/GPa)
#
#
# Indices 1 2 3 4 5 6 
#
# 1 0.029031 -0.002714 0.004240 0.012415 0.034606 0.012770
# 2 -0.002714 0.006996 -0.002987 -0.002233 -0.001532 0.000524
# 3 0.004240 -0.002987 0.009379 0.006199 0.018150 0.003244
# 4 0.012415 -0.002233 0.006199 0.044442 0.060086 0.017831
# 5 0.034606 -0.001532 0.018150 0.060086 0.179677 0.018281
# 6 0.012770 0.000524 0.003244 0.017831 0.018281 0.047179
#
#
# Mechanical properties :
#
#
# Convention : Reuss Voigt Hill
#
# Bulk Modulus (GPa) = 23.53832 66.04475 44.79153
# Shear Modulus (GPa) = 14.97957 38.42241 26.70099
#
# Velocity S-wave (km/s) = 2.50847 4.01746 3.34906
# Velocity P-wave (km/s) = 4.27523 7.01878 5.81123
#
# Compressibility (1/GPa) = 0.04248392
#
# Stress axis : x y z
#
# Youngs Moduli (GPa) = 34.44538 142.94346 106.61610
#
# Poissons Ratio (x) = 0.38796 -0.45201
# Poissons Ratio (y) = 0.09349 0.31846
# Poissons Ratio (z) = -0.14604 0.42697
#
# Static dielectric constant tensor:
#      x y z
#    x 2.029520 0.046280 0.018600 
#    y 0.046280 1.941150 0.010210 
#    z 0.018600 0.010210 1.873010 
# 
# From -- ./inp_files/314476.got.cif
#   From: 2010.05.17/outbox.cif.g08.bks.cpg/sg2_158_cif.got.tgz:314476.got - 2010.06.03 11:33:40.
