data_PCOD9027832
_publ_section_title
;
Structure prediction by ZEFSAII (Michael W. Deem and Ramdas Pophale) SiO2 
 PCOD9027832
Probable space group: P -1
;
_chemical_formula_sum "Si O2"
_cell_formula_units_Z 13
_cell_length_a 9.424037
_cell_length_b 14.314081
_cell_length_c 13.044734
_cell_angle_alpha 21.396797
_cell_angle_beta 115.132555
_cell_angle_gamma 115.652353
_cell_volume 577.448237
_symmetry_space_group_name_H-M "P -1"
_symmetry_group_IT_number 2
_symmetry_cell_setting 'triclinic'
loop_
_space_group_symop_operation_xyz
x,y,z
-x,-y,-z
loop_
_atom_site_type_symbol
_atom_site_label
_atom_site_fract_x
_atom_site_fract_y
_atom_site_fract_z
Si Si1 0.985014 0.743833 0.891653
Si Si2 0.852023 0.230814 0.303788
Si Si3 0.000000 0.000000 0.000000
Si Si4 0.338257 0.186160 0.989414
Si Si5 0.232347 0.955901 0.920267
Si Si6 0.492365 0.738720 0.827919
Si Si7 0.462044 0.722005 0.378139
O O1 0.042889 0.754800 0.780402
O O2 0.127045 0.829775 0.924342
O O3 0.861166 0.953941 0.640782
O O4 0.910922 0.449947 0.180603
O O5 0.683340 0.287173 0.154005
O O6 0.884974 0.984503 0.085138
O O7 0.849575 0.855930 0.037590
O O8 0.385122 0.242453 0.062639
O O9 0.409447 0.928923 0.233931
O O10 0.414920 0.434049 0.696423
O O11 0.354017 0.196975 0.672569
O O12 0.352817 0.772842 0.194984
O O13 0.500000 0.000000 0.500000
O O14 0.500000 0.500000 0.000000
#
# Coordination Sequence:
#
# PCOD9027832 Si02
#       7
#     2   2   1   2   2   2   2
#     4  10  22  41  69  96 137 176 227 296 339 414
#     4  10  23  41  64 101 130 177 237 276 349 414
#     4  10  26  42  70 106 142 178 232 292 364 404
#     4  11  25  48  69 103 141 186 236 295 344 430
#     4  10  23  43  71 104 137 189 229 299 351 420
#     4  12  26  43  70 100 141 189 230 285 356 431
#     4  10  24  45  72  98 137 185 246 279 350 425
#
# _framework density 22.512841999999999
#
# number of rings (size 3 to 8) (size 9 to 14) (size 15 to 20)
#    0.000    1.538    0.000    2.769    4.308   15.385 
#    0.000    0.000    0.000    0.000    0.000    0.000 
#    0.000    0.000    0.000    0.000    0.000    0.000 
#
# Total GULP energy -72432.934859 kJ/mol
# GULP energy per Si atom -5571.764220 kJ/mol
# Density = 2.246160 g / cm^3
# Si number density = 22.512842 Si / 1000 Ang^3
#
#
#
# Elastic Constant Matrix: (Units=GPa)
#
#
# Indices 1 2 3 4 5 6 
#
# 1 137.9335 33.0107 40.0618 -15.4564 -20.1498 19.7958
# 2 33.0107 189.7229 51.7695 -10.5434 3.1212 40.3093
# 3 40.0618 51.7695 93.8125 -21.6058 3.4281 -3.7173
# 4 -15.4564 -10.5434 -21.6058 26.9749 -5.5635 0.1319
# 5 -20.1498 3.1212 3.4281 -5.5635 17.9148 -8.5304
# 6 19.7958 40.3093 -3.7173 0.1319 -8.5304 29.0481
#
#
#
# Elastic Compliance Matrix: (Units=1/GPa)
#
#
# Indices 1 2 3 4 5 6 
#
# 1 0.011932 0.000460 -0.004651 0.006113 0.013552 -0.005413
# 2 0.000460 0.011805 -0.007991 -0.003721 -0.011153 -0.020975
# 3 -0.004651 -0.007991 0.020191 0.011200 0.004384 0.018079
# 4 0.006113 -0.003721 0.011200 0.053570 0.026807 0.010060
# 5 0.013552 -0.011153 0.004384 0.026807 0.097275 0.035247
# 6 -0.005413 -0.020975 0.018079 0.010060 0.035247 0.079840
#
#
# Mechanical properties :
#
#
# Convention : Reuss Voigt Hill
#
# Bulk Modulus (GPa) = 51.11675 74.57252 62.84463
# Shear Modulus (GPa) = 16.36666 34.56270 25.46468
#
# Velocity S-wave (km/s) = 2.69920 3.92247 3.36686
# Velocity P-wave (km/s) = 5.69817 7.32876 6.56429
#
# Compressibility (1/GPa) = 0.01956306
#
# Stress axis : x y z
#
# Youngs Moduli (GPa) = 83.80629 84.71284 49.52649
#
# Poissons Ratio (x) = -0.03896 0.23036
# Poissons Ratio (y) = -0.03854 0.39578
# Poissons Ratio (z) = 0.38980 0.67696
#
# Static dielectric constant tensor:
#      x y z
#    x 1.874160 -0.010310 0.012140 
#    y -0.010310 1.796110 -0.014750 
#    z 0.012140 -0.014750 1.860130 
# 
# From -- ./inp_files/502477.got.cif
#   From: 2010.05.17/outbox.cif.g08.bks.cpg/sg2_252_cif.got.tgz:502477.got - 2010.06.03 11:33:40.
