data_PCOD9027871
_publ_section_title
;
Structure prediction by ZEFSAII (Michael W. Deem and Ramdas Pophale) SiO2 
 PCOD9027871
Probable space group: P -1
;
_chemical_formula_sum "Si O2"
_cell_formula_units_Z 15
_cell_length_a 9.615108
_cell_length_b 12.525606
_cell_length_c 7.683853
_cell_angle_alpha 66.054902
_cell_angle_beta 65.525832
_cell_angle_gamma 106.915618
_cell_volume 641.901242
_symmetry_space_group_name_H-M "P -1"
_symmetry_group_IT_number 2
_symmetry_cell_setting 'triclinic'
loop_
_space_group_symop_operation_xyz
x,y,z
-x,-y,-z
loop_
_atom_site_type_symbol
_atom_site_label
_atom_site_fract_x
_atom_site_fract_y
_atom_site_fract_z
Si Si1 0.000000 0.000000 0.000000
Si Si2 0.743086 0.459490 0.262906
Si Si3 0.636188 0.622521 0.973345
Si Si4 0.136977 0.678451 0.004326
Si Si5 0.437028 0.154463 0.724885
Si Si6 0.299215 0.922182 0.505144
Si Si7 0.479055 0.805394 0.965392
Si Si8 0.004993 0.119343 0.539261
O O1 0.229871 0.095513 0.821618
O O2 0.998715 0.074867 0.768684
O O3 0.799313 0.394858 0.118022
O O4 0.571218 0.322790 0.527229
O O5 0.690523 0.561075 0.141914
O O6 0.923206 0.560497 0.219066
O O7 0.813828 0.734925 0.700104
O O8 0.500000 0.500000 0.000000
O O9 0.535150 0.696341 0.031791
O O10 0.177166 0.821197 0.794975
O O11 0.269096 0.730159 0.067442
O O12 0.533332 0.095808 0.596880
O O13 0.460851 0.116834 0.933671
O O14 0.158579 0.866886 0.453097
O O15 0.397333 0.088729 0.324729
O O16 0.000000 0.000000 0.500000
#
# Coordination Sequence:
#
# PCOD9027871 Si02
#       8
#     1   2   2   2   2   2   2   2
#     4  12  26  46  70 106 146 182 234 304 356 416
#     4  10  22  43  66  96 137 186 227 281 354 428
#     4  12  23  42  70  99 142 186 234 292 354 429
#     4  10  22  41  69  98 134 179 237 285 345 429
#     4  11  26  46  68 101 146 179 236 302 359 420
#     4  11  23  45  70 100 139 182 237 298 351 423
#     4  12  24  42  68 104 137 185 239 290 360 424
#     4  12  25  46  74 106 143 191 241 294 358 431
#
# _framework density 23.368078000000001
#
# number of rings (size 3 to 8) (size 9 to 14) (size 15 to 20)
#    0.000    0.800    5.333    1.600    1.867    2.133 
#    2.400    1.333    0.000    0.000    0.000    0.000 
#    0.000    0.000    0.000    0.000    0.000    0.000 
#
# Total GULP energy -83642.608616 kJ/mol
# GULP energy per Si atom -5576.173908 kJ/mol
# Density = 2.331489 g / cm^3
# Si number density = 23.368078 Si / 1000 Ang^3
#
#
#
# Elastic Constant Matrix: (Units=GPa)
#
#
# Indices 1 2 3 4 5 6 
#
# 1 184.3404 15.8733 74.3776 -13.0084 -9.7206 46.7158
# 2 15.8733 25.1256 19.2905 -17.7104 -8.7846 7.9351
# 3 74.3776 19.2905 145.6002 -25.6546 -6.6880 3.3986
# 4 -13.0084 -17.7104 -25.6546 38.3855 13.4030 7.7636
# 5 -9.7206 -8.7846 -6.6880 13.4030 51.2125 -15.8973
# 6 46.7158 7.9351 3.3986 7.7636 -15.8973 39.3506
#
#
#
# Elastic Compliance Matrix: (Units=1/GPa)
#
#
# Indices 1 2 3 4 5 6 
#
# 1 0.012612 0.008218 -0.005427 0.010804 -0.006187 -0.020792
# 2 0.008218 0.082022 -0.006167 0.047884 -0.009877 -0.039200
# 3 -0.005427 -0.006167 0.010401 0.000270 0.001475 0.007330
# 4 0.010804 0.047884 0.000270 0.068548 -0.021524 -0.044725
# 5 -0.006187 -0.009877 0.001475 -0.021524 0.030483 0.025771
# 6 -0.020792 -0.039200 0.007330 -0.044725 0.025771 0.076603
#
#
# Mechanical properties :
#
#
# Convention : Reuss Voigt Hill
#
# Bulk Modulus (GPa) = 10.17449 63.79434 36.98441
# Shear Modulus (GPa) = 15.61610 42.15804 28.88707
#
# Velocity S-wave (km/s) = 2.58789 4.25206 3.51974
# Velocity P-wave (km/s) = 3.64596 7.17396 5.69029
#
# Compressibility (1/GPa) = 0.09828503
#
# Stress axis : x y z
#
# Youngs Moduli (GPa) = 79.28958 12.19181 96.14078
#
# Poissons Ratio (x) = -0.10019 0.52171
# Poissons Ratio (y) = -0.65158 0.59285
# Poissons Ratio (z) = 0.43027 0.07518
#
# Static dielectric constant tensor:
#      x y z
#    x 1.863890 0.019690 0.007470 
#    y 0.019690 1.826030 -0.025370 
#    z 0.007470 -0.025370 1.855140 
# 
# From -- ./inp_files/185337.got.cif
#   From: 2010.05.17/outbox.cif.g08.bks.cpg/sg2_93_cif.got.tgz:185337.got - 2010.06.03 11:33:40.
