data_PCOD9027339
_publ_section_title
;
Structure prediction by ZEFSAII (Michael W. Deem and Ramdas Pophale) SiO2 
 PCOD9027339
Probable space group: P -1
;
_chemical_formula_sum "Si O2"
_cell_formula_units_Z 14
_cell_length_a 5.411949
_cell_length_b 12.786321
_cell_length_c 10.305046
_cell_angle_alpha 69.587984
_cell_angle_beta 58.267752
_cell_angle_gamma 68.483814
_cell_volume 553.179999
_symmetry_space_group_name_H-M "P -1"
_symmetry_group_IT_number 2
_symmetry_cell_setting 'triclinic'
loop_
_space_group_symop_operation_xyz
x,y,z
-x,-y,-z
loop_
_atom_site_type_symbol
_atom_site_label
_atom_site_fract_x
_atom_site_fract_y
_atom_site_fract_z
Si Si1 0.837754 0.944180 0.888950
Si Si2 0.798282 0.877112 0.344055
Si Si3 0.716998 0.921849 0.642527
Si Si4 0.674558 0.370452 0.477973
Si Si5 0.347548 0.404067 0.293777
Si Si6 0.258538 0.675160 0.245068
Si Si7 0.320750 0.754570 0.925576
O O1 0.885428 0.915713 0.734588
O O2 0.982492 0.826533 0.973240
O O3 0.012685 0.044491 0.816909
O O4 0.500000 0.000000 0.000000
O O5 0.852274 0.883058 0.481870
O O6 0.920878 0.750064 0.314228
O O7 0.461624 0.946286 0.383835
O O8 0.494929 0.839800 0.771309
O O9 0.500000 0.500000 0.500000
O O10 0.535865 0.343355 0.392517
O O11 0.623148 0.307334 0.652108
O O12 0.028277 0.371502 0.372457
O O13 0.276871 0.541159 0.274901
O O14 0.572404 0.363238 0.130688
O O15 0.405008 0.725940 0.063053
#
# Coordination Sequence:
#
# PCOD9027339 Si02
#       7
#     2   2   2   2   2   2   2
#     4  11  23  42  65  98 139 177 235 289 360 415
#     4  10  22  41  67  96 131 183 232 285 351 419
#     4  10  22  43  65  96 134 178 234 289 346 427
#     4  10  23  47  71  99 142 189 239 289 344 424
#     4  11  25  48  71 104 144 189 239 290 354 430
#     4  11  22  43  66 102 137 179 233 286 357 420
#     4  11  25  42  69  99 142 184 227 298 358 418
#
# _framework density 25.308219000000001
#
# number of rings (size 3 to 8) (size 9 to 14) (size 15 to 20)
#    0.000    1.429    0.000    5.143    4.000    2.286 
#   23.143    3.571    0.000    0.000    0.000    0.000 
#    0.000    0.000    0.000    0.000    0.000    0.000 
#
# Total GULP energy -78287.093436 kJ/mol
# GULP energy per Si atom -5591.935245 kJ/mol
# Density = 2.525062 g / cm^3
# Si number density = 25.308219 Si / 1000 Ang^3
#
#
#
# Elastic Constant Matrix: (Units=GPa)
#
#
# Indices 1 2 3 4 5 6 
#
# 1 106.2847 26.5090 36.6056 0.8476 13.0107 -15.1023
# 2 26.5090 164.1351 44.9015 10.3241 7.3121 -26.4690
# 3 36.6056 44.9015 159.5696 1.6913 22.3568 -23.6170
# 4 0.8476 10.3241 1.6913 31.9917 -1.4417 -0.3256
# 5 13.0107 7.3121 22.3568 -1.4417 44.1946 -2.3933
# 6 -15.1023 -26.4690 -23.6170 -0.3256 -2.3933 23.0283
#
#
#
# Elastic Compliance Matrix: (Units=1/GPa)
#
#
# Indices 1 2 3 4 5 6 
#
# 1 0.010975 -0.000492 -0.001322 -0.000110 -0.002211 0.005046
# 2 -0.000492 0.007819 -0.000871 -0.002403 -0.000370 0.007700
# 3 -0.001322 -0.000871 0.008193 -0.000202 -0.003283 0.006192
# 4 -0.000110 -0.002403 -0.000202 0.032088 0.001447 -0.002437
# 5 -0.002211 -0.000370 -0.003283 0.001447 0.024905 -0.002634
# 6 0.005046 0.007700 0.006192 -0.002437 -0.002634 0.061626
#
#
# Mechanical properties :
#
#
# Convention : Reuss Voigt Hill
#
# Bulk Modulus (GPa) = 46.25336 71.78020 59.01678
# Shear Modulus (GPa) = 31.60938 41.30780 36.45859
#
# Velocity S-wave (km/s) = 3.53792 4.04442 3.79962
# Velocity P-wave (km/s) = 5.91649 7.08758 6.52835
#
# Compressibility (1/GPa) = 0.02162005
#
# Stress axis : x y z
#
# Youngs Moduli (GPa) = 91.11580 127.88582 122.04806
#
# Poissons Ratio (x) = 0.06291 0.16129
# Poissons Ratio (y) = 0.04482 0.10625
# Poissons Ratio (z) = 0.12041 0.11133
#
# Static dielectric constant tensor:
#      x y z
#    x 2.046840 -0.012550 0.005590 
#    y -0.012550 2.009310 -0.006210 
#    z 0.005590 -0.006210 1.987680 
# 
# From -- ./inp_files/134903.got.cif
#   From: 2010.05.17/outbox.cif.g08.bks.cpg/sg2_68_cif.got.tgz:134903.got - 2010.06.03 11:33:40.
