data_PCOD9027205
_publ_section_title
;
Structure prediction by ZEFSAII (Michael W. Deem and Ramdas Pophale) SiO2 
 PCOD9027205
Probable space group: P -1
;
_chemical_formula_sum "Si O2"
_cell_formula_units_Z 16
_cell_length_a 4.994465
_cell_length_b 5.152185
_cell_length_c 26.272066
_cell_angle_alpha 63.457393
_cell_angle_beta 102.290633
_cell_angle_gamma 90.527693
_cell_volume 588.067208
_symmetry_space_group_name_H-M "P -1"
_symmetry_group_IT_number 2
_symmetry_cell_setting 'triclinic'
loop_
_space_group_symop_operation_xyz
x,y,z
-x,-y,-z
loop_
_atom_site_type_symbol
_atom_site_label
_atom_site_fract_x
_atom_site_fract_y
_atom_site_fract_z
Si Si1 0.191087 0.735561 0.007134
Si Si2 0.542311 0.234339 0.793623
Si Si3 0.633586 0.266682 0.097148
Si Si4 0.331995 0.623298 0.541955
Si Si5 0.823566 0.923627 0.289696
Si Si6 0.875678 0.864060 0.573461
Si Si7 0.387269 0.932962 0.358841
Si Si8 0.081538 0.293150 0.190507
O O1 0.409806 0.545610 0.067439
O O2 0.337617 0.818780 0.953448
O O3 0.000000 0.500000 0.000000
O O4 0.000000 0.000000 0.000000
O O5 0.302198 0.292456 0.736744
O O6 0.436044 0.022083 0.850948
O O7 0.757490 0.014636 0.790347
O O8 0.712538 0.479424 0.803037
O O9 0.901260 0.371973 0.126332
O O10 0.634336 0.733584 0.543642
O O11 0.414335 0.281829 0.579014
O O12 0.166091 0.715242 0.579130
O O13 0.153976 0.795822 0.475887
O O14 0.596298 0.004716 0.316958
O O15 0.121500 0.803179 0.334342
O O16 0.881057 0.213854 0.234916
O O17 0.777662 0.842568 0.629201
#
# Coordination Sequence:
#
# PCOD9027205 Si02
#       8
#     2   2   2   2   2   2   2   2
#     4  11  26  47  75 118 171 205 258 330 392 474
#     4  11  26  52  80 112 156 209 272 334 396 475
#     4  10  26  47  82 120 153 220 268 320 400 474
#     4  10  22  41  67 105 147 198 256 313 385 475
#     4  11  26  47  73 113 149 204 269 328 408 476
#     4  10  22  41  67 105 147 198 256 313 385 475
#     4  12  23  46  72 108 152 203 252 326 402 470
#     4  11  26  52  80 112 156 209 272 334 396 475
#
# _framework density 27.207773
#
# number of rings (size 3 to 8) (size 9 to 14) (size 15 to 20)
#    0.000    1.250    1.250    2.625    0.000   13.000 
#    9.000    6.875    0.000    0.000    0.000    0.000 
#    0.000    0.000    0.000    0.000    0.000    0.000 
#
# Total GULP energy -89668.936847 kJ/mol
# GULP energy per Si atom -5604.308553 kJ/mol
# Density = 2.714585 g / cm^3
# Si number density = 27.207773 Si / 1000 Ang^3
#
#
#
# Elastic Constant Matrix: (Units=GPa)
#
#
# Indices 1 2 3 4 5 6 
#
# 1 179.1889 61.5355 48.3719 7.5893 10.1020 -3.9340
# 2 61.5355 149.4287 29.0172 -1.4453 6.5144 -10.1562
# 3 48.3719 29.0172 85.2013 11.0696 3.4352 -2.4564
# 4 7.5893 -1.4453 11.0696 25.8409 -10.9514 -2.2362
# 5 10.1020 6.5144 3.4352 -10.9514 73.6240 14.0516
# 6 -3.9340 -10.1562 -2.4564 -2.2362 14.0516 57.6026
#
#
#
# Elastic Compliance Matrix: (Units=1/GPa)
#
#
# Indices 1 2 3 4 5 6 
#
# 1 0.007358 -0.002384 -0.003159 -0.001299 -0.000865 0.000108
# 2 -0.002384 0.008105 -0.001593 0.001825 -0.000300 0.001342
# 3 -0.003159 -0.001593 0.014895 -0.005968 -0.001039 0.000160
# 4 -0.001299 0.001825 -0.005968 0.044680 0.006937 0.000021
# 5 -0.000865 -0.000300 -0.001039 0.006937 0.015509 -0.003670
# 6 0.000108 0.001342 0.000160 0.000021 -0.003670 0.018507
#
#
# Mechanical properties :
#
#
# Convention : Reuss Voigt Hill
#
# Bulk Modulus (GPa) = 62.16576 76.85201 69.50889
# Shear Modulus (GPa) = 38.85318 49.73978 44.29648
#
# Velocity S-wave (km/s) = 3.78301 4.28032 4.03933
# Velocity P-wave (km/s) = 6.47917 7.26195 6.88170
#
# Compressibility (1/GPa) = 0.01608602
#
# Stress axis : x y z
#
# Youngs Moduli (GPa) = 135.89948 123.37493 67.13742
#
# Poissons Ratio (x) = 0.29416 0.21208
# Poissons Ratio (y) = 0.32403 0.10696
# Poissons Ratio (z) = 0.42929 0.19655
#
# Static dielectric constant tensor:
#      x y z
#    x 2.082740 -0.007580 -0.037490 
#    y -0.007580 2.127180 -0.006960 
#    z -0.037490 -0.006960 2.214900 
# 
# From -- ./inp_files/621604.got.cif
#   From: 2010.05.17/outbox.cif.g08.bks.cpg/sg2_311_cif.got.tgz:621604.got - 2010.06.03 11:33:40.
