data_PCOD9027434
_publ_section_title
;
Structure prediction by ZEFSAII (Michael W. Deem and Ramdas Pophale) SiO2 
 PCOD9027434
Probable space group: P -1
;
_chemical_formula_sum "Si O2"
_cell_formula_units_Z 14
_cell_length_a 9.449214
_cell_length_b 12.218556
_cell_length_c 5.007208
_cell_angle_alpha 75.181947
_cell_angle_beta 94.447208
_cell_angle_gamma 82.186413
_cell_volume 549.875791
_symmetry_space_group_name_H-M "P -1"
_symmetry_group_IT_number 2
_symmetry_cell_setting 'triclinic'
loop_
_space_group_symop_operation_xyz
x,y,z
-x,-y,-z
loop_
_atom_site_type_symbol
_atom_site_label
_atom_site_fract_x
_atom_site_fract_y
_atom_site_fract_z
Si Si1 0.910238 0.185551 0.823504
Si Si2 0.583865 0.539239 0.733649
Si Si3 0.699962 0.058278 0.092359
Si Si4 0.669202 0.771199 0.463378
Si Si5 0.500000 0.000000 0.500000
Si Si6 0.801399 0.848421 0.926266
Si Si7 0.000000 0.000000 0.500000
Si Si8 0.076245 0.550274 0.230405
O O1 0.938048 0.313530 0.795506
O O2 0.039692 0.115070 0.076010
O O3 0.755426 0.168982 0.913168
O O4 0.935761 0.121021 0.587560
O O5 0.500000 0.500000 0.500000
O O6 0.583019 0.673583 0.599223
O O7 0.753408 0.489070 0.767966
O O8 0.500000 0.500000 0.000000
O O9 0.567146 0.088187 0.247321
O O10 0.698585 0.971681 0.885785
O O11 0.835796 0.999418 0.331688
O O12 0.754205 0.768180 0.200786
O O13 0.572001 0.894626 0.384439
O O14 0.785322 0.780231 0.702790
O O15 0.000000 0.500000 0.500000
O O16 0.000000 0.500000 0.000000
#
# Coordination Sequence:
#
# PCOD9027434 Si02
#       8
#     2   2   2   2   1   2   1   2
#     4  11  25  40  76 104 148 190 251 315 379 452
#     4  12  27  49  77 107 152 205 258 316 390 461
#     4  10  24  39  65 103 142 192 235 303 375 457
#     4  11  24  45  68 100 144 190 241 301 376 450
#     4  10  26  42  68 100 144 180 242 292 372 444
#     4  10  22  41  68 100 141 186 234 298 379 446
#     4  10  22  42  68 106 142 188 238 310 382 450
#     4  12  28  51  79 116 153 204 270 326 381 456
#
# _framework density 25.460298000000002
#
# number of rings (size 3 to 8) (size 9 to 14) (size 15 to 20)
#    0.000    1.143    0.000    5.143   16.000    3.429 
#    0.000    0.000    0.000    0.000    0.000    0.000 
#    0.000    0.000    0.000    0.000    0.000    0.000 
#
# Total GULP energy -77955.876898 kJ/mol
# GULP energy per Si atom -5568.276921 kJ/mol
# Density = 2.540235 g / cm^3
# Si number density = 25.460298 Si / 1000 Ang^3
#
#
#
# Elastic Constant Matrix: (Units=GPa)
#
#
# Indices 1 2 3 4 5 6 
#
# 1 173.9137 29.0408 58.1877 3.6278 -28.4073 17.8495
# 2 29.0408 156.9948 32.4732 5.6324 -8.5126 28.9495
# 3 58.1877 32.4732 120.8013 26.3137 -38.4848 20.7258
# 4 3.6278 5.6324 26.3137 31.4718 5.7807 1.5980
# 5 -28.4073 -8.5126 -38.4848 5.7807 60.6592 -6.0759
# 6 17.8495 28.9495 20.7258 1.5980 -6.0759 57.7384
#
#
#
# Elastic Compliance Matrix: (Units=1/GPa)
#
#
# Indices 1 2 3 4 5 6 
#
# 1 0.007121 -0.000524 -0.003280 0.001881 0.000929 -0.000716
# 2 -0.000524 0.007279 -0.001317 0.000082 -0.000373 -0.003057
# 3 -0.003280 -0.001317 0.017596 -0.015898 0.010649 -0.003081
# 4 0.001881 0.000082 -0.015898 0.047187 -0.013454 0.002362
# 5 0.000929 -0.000373 0.010649 -0.013454 0.024813 -0.000939
# 6 -0.000716 -0.003057 -0.003081 0.002362 -0.000939 0.020015
#
#
# Mechanical properties :
#
#
# Convention : Reuss Voigt Hill
#
# Bulk Modulus (GPa) = 45.96657 76.79034 61.37846
# Shear Modulus (GPa) = 35.33435 52.10774 43.72104
#
# Velocity S-wave (km/s) = 3.72939 4.52887 4.14844
# Velocity P-wave (km/s) = 6.05292 7.58775 6.86337
#
# Compressibility (1/GPa) = 0.02175494
#
# Stress axis : x y z
#
# Youngs Moduli (GPa) = 140.43158 137.37411 56.82949
#
# Poissons Ratio (x) = 0.07197 0.18641
# Poissons Ratio (y) = 0.07357 0.07484
# Poissons Ratio (z) = 0.46063 0.18091
#
# Static dielectric constant tensor:
#      x y z
#    x 2.121260 0.113900 0.143780 
#    y 0.113900 1.558230 -0.213510 
#    z 0.143780 -0.213510 1.558560 
# 
# From -- ./inp_files/27266.got.cif
#   From: 2010.05.17/outbox.cif.g08.bks.cpg/sg2_14_cif.got.tgz:27266.got - 2010.06.03 11:33:40.
