data_PCOD9027161
_publ_section_title
;
Structure prediction by ZEFSAII (Michael W. Deem and Ramdas Pophale) SiO2 
 PCOD9027161
Probable space group: P -1
;
_chemical_formula_sum "Si O2"
_cell_formula_units_Z 16
_cell_length_a 13.374739
_cell_length_b 10.605750
_cell_length_c 9.051933
_cell_angle_alpha 58.307832
_cell_angle_beta 129.465559
_cell_angle_gamma 134.944966
_cell_volume 694.721083
_symmetry_space_group_name_H-M "P -1"
_symmetry_group_IT_number 2
_symmetry_cell_setting 'triclinic'
loop_
_space_group_symop_operation_xyz
x,y,z
-x,-y,-z
loop_
_atom_site_type_symbol
_atom_site_label
_atom_site_fract_x
_atom_site_fract_y
_atom_site_fract_z
Si Si1 0.178906 0.497245 0.962449
Si Si2 0.507658 0.336011 0.666289
Si Si3 0.675848 0.834494 0.104866
Si Si4 0.957056 0.343580 0.438290
Si Si5 0.468059 0.131395 0.306743
Si Si6 0.284389 0.463281 0.757071
Si Si7 0.995110 0.907353 0.893838
Si Si8 0.729503 0.946230 0.581058
O O1 0.103359 0.608536 0.791165
O O2 0.252515 0.486699 0.882525
O O3 0.319015 0.585766 0.157737
O O4 0.044949 0.289829 0.996881
O O5 0.500000 0.500000 0.500000
O O6 0.382569 0.223806 0.748795
O O7 0.440461 0.187050 0.567956
O O8 0.643260 0.652189 0.114411
O O9 0.570890 0.890494 0.889719
O O10 0.856342 0.980712 0.143111
O O11 0.000000 0.500000 0.500000
O O12 0.118063 0.355215 0.579423
O O13 0.818241 0.151518 0.488992
O O14 0.606770 0.338937 0.329669
O O15 0.307170 0.080877 0.263161
O O16 0.500000 0.000000 0.500000
O O17 0.843471 0.884549 0.688994
O O18 0.000000 0.000000 0.000000
#
# Coordination Sequence:
#
# PCOD9027161 Si02
#       8
#     2   2   2   2   2   2   2   2
#     4  11  22  41  66  97 137 179 222 280 341 404
#     4  12  27  46  67 100 142 189 228 276 340 420
#     4  12  25  42  70  98 137 181 233 281 341 401
#     4  10  22  41  67 100 131 173 223 282 345 394
#     4  12  25  40  68 106 135 169 231 289 339 405
#     4  11  21  40  68  97 132 172 232 286 334 389
#     4  12  21  40  71 101 127 177 232 290 330 390
#     4  12  24  45  68  97 140 180 224 280 345 405
#
# _framework density 23.030826999999999
#
# number of rings (size 3 to 8) (size 9 to 14) (size 15 to 20)
#    0.000    0.500    6.250    3.375    1.750    1.000 
#    0.000    0.000    0.000    3.750    0.000    0.000 
#    0.000    0.000    0.000    0.000    0.000    0.000 
#
# Total GULP energy -89459.978213 kJ/mol
# GULP energy per Si atom -5591.248638 kJ/mol
# Density = 2.297841 g / cm^3
# Si number density = 23.030827 Si / 1000 Ang^3
#
#
#
# Elastic Constant Matrix: (Units=GPa)
#
#
# Indices 1 2 3 4 5 6 
#
# 1 34.2714 3.0836 7.4996 -9.0589 -8.4899 18.1955
# 2 3.0836 127.9332 35.6530 -26.5173 -13.4961 25.9229
# 3 7.4996 35.6530 134.4913 -9.2382 3.4917 7.3053
# 4 -9.0589 -26.5173 -9.2382 51.3401 12.8001 -3.2660
# 5 -8.4899 -13.4961 3.4917 12.8001 26.0432 -10.6790
# 6 18.1955 25.9229 7.3053 -3.2660 -10.6790 33.0231
#
#
#
# Elastic Compliance Matrix: (Units=1/GPa)
#
#
# Indices 1 2 3 4 5 6 
#
# 1 0.048525 0.008047 -0.002609 0.009524 0.003144 -0.030518
# 2 0.008047 0.012304 -0.002634 0.006214 0.001165 -0.012518
# 3 -0.002609 -0.002634 0.008371 0.000563 -0.003359 0.000623
# 4 0.009524 0.006214 0.000563 0.026609 -0.011474 -0.011329
# 5 0.003144 0.001165 -0.003359 -0.011474 0.051730 0.013690
# 6 -0.030518 -0.012518 0.000623 -0.011329 0.013690 0.060093
#
#
# Mechanical properties :
#
#
# Convention : Reuss Voigt Hill
#
# Bulk Modulus (GPa) = 13.36754 43.24093 28.30423
# Shear Modulus (GPa) = 22.03037 38.77858 30.40447
#
# Velocity S-wave (km/s) = 3.09619 4.10783 3.63735
# Velocity P-wave (km/s) = 4.31261 6.42767 5.47328
#
# Compressibility (1/GPa) = 0.07480810
#
# Stress axis : x y z
#
# Youngs Moduli (GPa) = 20.60813 81.27301 119.45750
#
# Poissons Ratio (x) = -0.65399 0.31165
# Poissons Ratio (y) = -0.16583 0.31464
# Poissons Ratio (z) = 0.05376 0.21407
#
# Static dielectric constant tensor:
#      x y z
#    x 1.941420 0.012830 -0.019450 
#    y 0.012830 1.862170 0.044290 
#    z -0.019450 0.044290 1.965150 
# 
# From -- ./inp_files/187532.got.cif
#   From: 2010.05.17/outbox.cif.g08.bks.cpg/sg2_94_cif.got.tgz:187532.got - 2010.06.03 11:33:40.
