data_PCOD9027313
_publ_section_title
;
Structure prediction by ZEFSAII (Michael W. Deem and Ramdas Pophale) SiO2 
 PCOD9027313
Probable space group: P -1
;
_chemical_formula_sum "Si O2"
_cell_formula_units_Z 16
_cell_length_a 10.794242
_cell_length_b 16.241978
_cell_length_c 17.679303
_cell_angle_alpha 156.669165
_cell_angle_beta 53.554223
_cell_angle_gamma 140.103210
_cell_volume 709.092450
_symmetry_space_group_name_H-M "P -1"
_symmetry_group_IT_number 2
_symmetry_cell_setting 'triclinic'
loop_
_space_group_symop_operation_xyz
x,y,z
-x,-y,-z
loop_
_atom_site_type_symbol
_atom_site_label
_atom_site_fract_x
_atom_site_fract_y
_atom_site_fract_z
Si Si1 0.814179 0.676877 0.064457
Si Si2 0.557085 0.767943 0.477281
Si Si3 0.981129 0.402277 0.839690
Si Si4 0.292030 0.772128 0.936974
Si Si5 0.390075 0.389591 0.070711
Si Si6 0.488713 0.662935 0.578158
Si Si7 0.961939 0.672127 0.478909
Si Si8 0.793589 0.217796 0.379282
O O1 0.607647 0.520441 0.060298
O O2 0.910109 0.543353 0.938145
O O3 0.738777 0.609274 0.947134
O O4 0.965945 0.024294 0.312412
O O5 0.447933 0.560992 0.270519
O O6 0.542534 0.639044 0.454433
O O7 0.417580 0.844661 0.608937
O O8 0.796571 0.058229 0.614171
O O9 0.203685 0.532365 0.832073
O O10 0.000000 0.500000 0.000000
O O11 0.118347 0.545431 0.744132
O O12 0.500000 0.000000 0.000000
O O13 0.344115 0.010184 0.176922
O O14 0.252098 0.058768 0.862981
O O15 0.500000 0.500000 0.500000
O O16 0.243040 0.506951 0.541885
O O17 0.152954 0.750921 0.524331
O O18 0.000000 0.500000 0.500000
#
# Coordination Sequence:
#
# PCOD9027313 Si02
#       8
#     2   2   2   2   2   2   2   2
#     4  10  22  45  66  97 140 173 232 284 346 417
#     4  12  25  44  70 103 138 181 235 290 353 406
#     4  12  24  43  70  99 140 185 230 287 343 412
#     4  10  23  43  68  97 133 182 232 276 348 415
#     4  10  24  44  69 101 135 180 225 291 348 411
#     4  11  23  44  63  97 140 182 230 287 341 424
#     4  10  22  41  67  95 131 181 228 281 350 407
#     4  11  23  44  67  99 142 173 225 297 340 412
#
# _framework density 22.564053999999999
#
# number of rings (size 3 to 8) (size 9 to 14) (size 15 to 20)
#    0.000    1.250    3.750    1.500    1.750    2.000 
#    6.750    1.250    0.000    0.000    0.000    0.000 
#    0.000    0.000    0.000    0.000    0.000    0.000 
#
# Total GULP energy -89231.045566 kJ/mol
# GULP energy per Si atom -5576.940348 kJ/mol
# Density = 2.251270 g / cm^3
# Si number density = 22.564054 Si / 1000 Ang^3
#
#
#
# Elastic Constant Matrix: (Units=GPa)
#
#
# Indices 1 2 3 4 5 6 
#
# 1 59.2535 31.1553 30.0743 -10.0705 3.8017 -16.8310
# 2 31.1553 145.5029 46.7135 9.8212 -0.6629 -20.5138
# 3 30.0743 46.7135 132.8649 2.2852 26.6902 -28.1895
# 4 -10.0705 9.8212 2.2852 48.1711 -4.2877 7.9458
# 5 3.8017 -0.6629 26.6902 -4.2877 21.6699 -2.0976
# 6 -16.8310 -20.5138 -28.1895 7.9458 -2.0976 30.5275
#
#
#
# Elastic Compliance Matrix: (Units=1/GPa)
#
#
# Indices 1 2 3 4 5 6 
#
# 1 0.022624 -0.003317 -0.002851 0.004556 0.000971 0.006493
# 2 -0.003317 0.008972 -0.002516 -0.002532 0.003724 0.002792
# 3 -0.002851 -0.002516 0.014868 -0.004064 -0.017696 0.010309
# 4 0.004556 -0.002532 -0.004064 0.024595 0.008145 -0.008784
# 5 0.000971 0.003724 -0.017696 0.008145 0.068460 -0.010719
# 6 0.006493 0.002792 0.010309 -0.008784 -0.010719 0.049283
#
#
# Mechanical properties :
#
#
# Convention : Reuss Voigt Hill
#
# Bulk Modulus (GPa) = 34.36701 61.50084 47.93392
# Shear Modulus (GPa) = 23.16230 35.38557 29.27394
#
# Velocity S-wave (km/s) = 3.20740 3.96438 3.60581
# Velocity P-wave (km/s) = 5.38335 6.94769 6.21494
#
# Compressibility (1/GPa) = 0.02909768
#
# Stress axis : x y z
#
# Youngs Moduli (GPa) = 44.20102 111.45521 67.25794
#
# Poissons Ratio (x) = 0.36968 0.19172
# Poissons Ratio (y) = 0.14661 0.16922
# Poissons Ratio (z) = 0.12600 0.28041
#
# Static dielectric constant tensor:
#      x y z
#    x 2.016110 0.102700 -0.041590 
#    y 0.102700 2.034100 -0.008430 
#    z -0.041590 -0.008430 1.822330 
# 
# From -- ./inp_files/522630.got.cif
#   From: 2010.05.17/outbox.cif.g08.bks.cpg/sg2_262_cif.got.tgz:522630.got - 2010.06.03 11:33:40.
