data_PCOD9027655
_publ_section_title
;
Structure prediction by ZEFSAII (Michael W. Deem and Ramdas Pophale) SiO2 
 PCOD9027655
Probable space group: P -1
;
_chemical_formula_sum "Si O2"
_cell_formula_units_Z 14
_cell_length_a 15.503233
_cell_length_b 5.810111
_cell_length_c 23.964022
_cell_angle_alpha 103.283382
_cell_angle_beta 159.933241
_cell_angle_gamma 86.081904
_cell_volume 646.706124
_symmetry_space_group_name_H-M "P -1"
_symmetry_group_IT_number 2
_symmetry_cell_setting 'triclinic'
loop_
_space_group_symop_operation_xyz
x,y,z
-x,-y,-z
loop_
_atom_site_type_symbol
_atom_site_label
_atom_site_fract_x
_atom_site_fract_y
_atom_site_fract_z
Si Si1 0.149871 0.354899 0.639019
Si Si2 0.042056 0.738421 0.994259
Si Si3 0.674100 0.416739 0.646715
Si Si4 0.881294 0.070112 0.686073
Si Si5 0.589801 0.956743 0.947376
Si Si6 0.586586 0.961593 0.271208
Si Si7 0.270233 0.217732 0.825512
O O1 0.381540 0.650223 0.798646
O O2 0.242571 0.210834 0.639530
O O3 0.159210 0.236838 0.698478
O O4 0.819484 0.266507 0.427580
O O5 0.850516 0.610066 0.815053
O O6 0.000000 0.500000 0.000000
O O7 0.368300 0.867084 0.182446
O O8 0.000000 0.000000 0.000000
O O9 0.500000 0.500000 0.500000
O O10 0.864702 0.316719 0.720352
O O11 0.430372 0.162325 0.514639
O O12 0.020043 0.124068 0.712468
O O13 0.098627 0.997201 0.848017
O O14 0.582649 0.089570 0.892147
O O15 0.445628 0.053114 0.912703
O O16 0.500000 0.500000 0.000000
#
# Coordination Sequence:
#
# PCOD9027655 Si02
#       7
#     2   2   2   2   2   2   2
#     4  10  22  41  68  98 140 179 234 284 369 433
#     4  12  31  51  76 109 151 200 254 311 373 438
#     4  11  28  49  76 102 141 199 253 307 372 438
#     4  11  25  42  74  99 144 179 248 296 371 435
#     4  11  22  41  68 103 138 183 226 297 368 434
#     4  10  24  43  69  98 138 185 236 291 360 439
#     4  11  24  38  63 105 136 177 224 293 358 432
#
# _framework density 21.648164999999999
#
# number of rings (size 3 to 8) (size 9 to 14) (size 15 to 20)
#    0.000    1.143    1.429    2.571   14.000    1.143 
#    0.000    0.000    0.000    0.000    0.000    0.000 
#    0.000    0.000    0.000    0.000    0.000    0.000 
#
# Total GULP energy -78122.834801 kJ/mol
# GULP energy per Si atom -5580.202486 kJ/mol
# Density = 2.159889 g / cm^3
# Si number density = 21.648165 Si / 1000 Ang^3
#
#
#
# Elastic Constant Matrix: (Units=GPa)
#
#
# Indices 1 2 3 4 5 6 
#
# 1 83.2161 32.2911 23.2611 -20.1470 21.1235 -18.5307
# 2 32.2911 81.7136 21.0569 -1.5869 5.6676 -26.0340
# 3 23.2611 21.0569 97.6640 2.3266 6.0179 -20.1240
# 4 -20.1470 -1.5869 2.3266 40.7694 3.5444 -8.5889
# 5 21.1235 5.6676 6.0179 3.5444 55.5979 -2.8211
# 6 -18.5307 -26.0340 -20.1240 -8.5889 -2.8211 39.4094
#
#
#
# Elastic Compliance Matrix: (Units=1/GPa)
#
#
# Indices 1 2 3 4 5 6 
#
# 1 0.021284 -0.004435 -0.002255 0.012874 -0.007796 0.008175
# 2 -0.004435 0.016988 -0.000825 0.000335 0.000469 0.008822
# 3 -0.002255 -0.000825 0.011854 -0.000924 -0.000068 0.004241
# 4 0.012874 0.000335 -0.000924 0.034206 -0.006356 0.012803
# 5 -0.007796 0.000469 -0.000068 -0.006356 0.021148 -0.003263
# 6 0.008175 0.008822 0.004241 0.012803 -0.003263 0.039769
#
#
# Mechanical properties :
#
#
# Convention : Reuss Voigt Hill
#
# Bulk Modulus (GPa) = 28.49333 46.20133 37.34733
# Shear Modulus (GPa) = 29.07348 39.55429 34.31389
#
# Velocity S-wave (km/s) = 3.66867 4.27915 3.98561
# Velocity P-wave (km/s) = 5.57997 6.76779 6.20238
#
# Compressibility (1/GPa) = 0.03509593
#
# Stress axis : x y z
#
# Youngs Moduli (GPa) = 46.98277 58.86616 84.35645
#
# Poissons Ratio (x) = 0.26105 0.19023
# Poissons Ratio (y) = 0.20835 0.06964
# Poissons Ratio (z) = 0.10595 0.04859
#
# Static dielectric constant tensor:
#      x y z
#    x 1.812440 -0.017510 -0.100820 
#    y -0.017510 1.951010 0.093210 
#    z -0.100820 0.093210 1.964690 
# 
# From -- ./inp_files/65779.got.cif
#   From: 2010.05.17/outbox.cif.g08.bks.cpg/sg2_33_cif.got.tgz:65779.got - 2010.06.03 11:33:40.
