data_PCOD9027072
_publ_section_title
;
Structure prediction by ZEFSAII (Michael W. Deem and Ramdas Pophale) SiO2 
 PCOD9027072
Probable space group: P -1
;
_chemical_formula_sum "Si O2"
_cell_formula_units_Z 11
_cell_length_a 7.411118
_cell_length_b 8.898960
_cell_length_c 11.670569
_cell_angle_alpha 132.795875
_cell_angle_beta 45.658784
_cell_angle_gamma 113.864983
_cell_volume 400.289232
_symmetry_space_group_name_H-M "P -1"
_symmetry_group_IT_number 2
_symmetry_cell_setting 'triclinic'
loop_
_space_group_symop_operation_xyz
x,y,z
-x,-y,-z
loop_
_atom_site_type_symbol
_atom_site_label
_atom_site_fract_x
_atom_site_fract_y
_atom_site_fract_z
Si Si1 0.675624 0.867551 0.761576
Si Si2 0.298292 0.167312 0.515172
Si Si3 0.763302 0.374904 0.164785
Si Si4 0.000000 0.500000 0.500000
Si Si5 0.219227 0.055837 0.741697
Si Si6 0.503898 0.443632 0.837979
O O1 0.732539 0.944156 0.649771
O O2 0.508165 0.684673 0.706993
O O3 0.915239 0.753503 0.662812
O O4 0.500000 0.000000 0.000000
O O5 0.189147 0.412162 0.686973
O O6 0.175362 0.080434 0.637799
O O7 0.606271 0.147427 0.394009
O O8 0.711533 0.428276 0.080854
O O9 0.975578 0.175887 0.977503
O O10 0.770148 0.478579 0.682840
O O11 0.428471 0.215572 0.748096
O O12 0.500000 0.500000 0.000000
#
# Coordination Sequence:
#
# PCOD9027072 Si02
#       6
#     2   2   2   1   2   2
#     4  11  26  42  65 103 139 179 231 283 348 409
#     4  10  22  41  66  96 132 177 229 275 341 411
#     4  10  23  43  67  98 134 179 230 278 345 409
#     4  10  26  44  64  98 148 174 224 284 358 392
#     4  10  23  42  69  97 132 176 235 277 343 415
#     4  10  22  41  70 101 135 183 229 281 346 408
#
# _framework density 27.480129999999999
#
# number of rings (size 3 to 8) (size 9 to 14) (size 15 to 20)
#    0.000    1.818    0.000    2.727   10.182    6.545 
#    0.000    1.818    0.000    0.000    0.000    0.000 
#    0.000    0.000    0.000    0.000    0.000    0.000 
#
# Total GULP energy -61275.096966 kJ/mol
# GULP energy per Si atom -5570.463361 kJ/mol
# Density = 2.741758 g / cm^3
# Si number density = 27.480130 Si / 1000 Ang^3
#
#
#
# Elastic Constant Matrix: (Units=GPa)
#
#
# Indices 1 2 3 4 5 6 
#
# 1 97.2939 -0.1286 43.3287 -10.0531 25.8451 -13.1485
# 2 -0.1286 53.0937 9.3171 -8.5511 14.2113 -5.1552
# 3 43.3287 9.3171 181.6866 -4.1786 7.1547 -30.9565
# 4 -10.0531 -8.5511 -4.1786 52.1977 -15.7928 -14.7995
# 5 25.8451 14.2113 7.1547 -15.7928 56.9249 -2.9123
# 6 -13.1485 -5.1552 -30.9565 -14.7995 -2.9123 37.1649
#
#
#
# Elastic Compliance Matrix: (Units=1/GPa)
#
#
# Indices 1 2 3 4 5 6 
#
# 1 0.013628 0.002700 -0.002519 0.002103 -0.005783 0.003482
# 2 0.002700 0.021375 -0.000708 0.003613 -0.005248 0.004358
# 3 -0.002519 -0.000708 0.007135 0.002020 0.001284 0.005859
# 4 0.002103 0.003613 0.002020 0.025959 0.005793 0.013718
# 5 -0.005783 -0.005248 0.001284 0.005793 0.023072 0.002410
# 6 0.003482 0.004358 0.005859 0.013718 0.002410 0.039275
#
#
# Mechanical properties :
#
#
# Convention : Reuss Voigt Hill
#
# Bulk Modulus (GPa) = 24.34058 48.56762 36.45410
# Shear Modulus (GPa) = 34.43716 47.89462 41.16589
#
# Velocity S-wave (km/s) = 3.54385 4.17931 3.87463
# Velocity P-wave (km/s) = 5.06181 6.40320 5.77161
#
# Compressibility (1/GPa) = 0.04108365
#
# Stress axis : x y z
#
# Youngs Moduli (GPa) = 73.38084 46.78360 140.15151
#
# Poissons Ratio (x) = -0.12630 0.35305
# Poissons Ratio (y) = -0.19811 0.09918
# Poissons Ratio (z) = 0.18485 0.03311
#
# Static dielectric constant tensor:
#      x y z
#    x 2.376590 -0.154360 -0.108490 
#    y -0.154360 2.538370 0.280840 
#    z -0.108490 0.280840 2.289060 
# 
# From -- ./inp_files/380487.got.cif
#   From: 2010.05.17/outbox.cif.g08.bks.cpg/sg2_191_cif.got.tgz:380487.got - 2010.06.03 11:33:40.
