data_PCOD9027807
_publ_section_title
;
Structure prediction by ZEFSAII (Michael W. Deem and Ramdas Pophale) SiO2 
 PCOD9027807
Probable space group: P -1
;
_chemical_formula_sum "Si O2"
_cell_formula_units_Z 16
_cell_length_a 11.545484
_cell_length_b 9.173140
_cell_length_c 15.386993
_cell_angle_alpha 35.245805
_cell_angle_beta 131.546102
_cell_angle_gamma 140.897824
_cell_volume 591.185023
_symmetry_space_group_name_H-M "P -1"
_symmetry_group_IT_number 2
_symmetry_cell_setting 'triclinic'
loop_
_space_group_symop_operation_xyz
x,y,z
-x,-y,-z
loop_
_atom_site_type_symbol
_atom_site_label
_atom_site_fract_x
_atom_site_fract_y
_atom_site_fract_z
Si Si1 0.043377 0.244749 0.129131
Si Si2 0.850377 0.583898 0.404335
Si Si3 0.499683 0.764480 0.440868
Si Si4 0.580802 0.364066 0.230287
Si Si5 0.816474 0.510444 0.104520
Si Si6 0.509740 0.877055 0.972204
Si Si7 0.955140 0.215384 0.420679
Si Si8 0.330920 0.520681 0.290282
O O1 0.182049 0.304676 0.249133
O O2 0.111787 0.274344 0.048628
O O3 0.887712 0.899095 0.232970
O O4 0.000000 0.500000 0.000000
O O5 0.681005 0.356476 0.370901
O O6 0.000000 0.500000 0.500000
O O7 0.892364 0.635281 0.501542
O O8 0.379174 0.571343 0.392560
O O9 0.500728 0.530431 0.623360
O O10 0.448679 0.010624 0.315251
O O11 0.731199 0.999488 0.435050
O O12 0.709849 0.525492 0.129180
O O13 0.505076 0.574392 0.110570
O O14 0.665612 0.195097 0.136828
O O15 0.970041 0.469621 0.242398
O O16 0.677072 0.181765 0.869933
O O17 0.500000 0.000000 0.000000
O O18 0.000000 0.000000 0.500000
#
# Coordination Sequence:
#
# PCOD9027807 Si02
#       8
#     2   2   2   2   2   2   2   2
#     4  12  25  42  69 101 139 178 229 278 335 404
#     4  12  23  45  69  93 136 184 219 277 338 403
#     4  10  22  41  69  94 134 180 227 277 333 400
#     4  11  24  45  69  97 136 181 223 281 345 404
#     4  11  24  42  66 102 136 175 226 282 338 403
#     4  12  24  41  71  98 132 175 225 280 346 408
#     4  11  22  40  67  97 134 178 227 273 332 404
#     4  11  21  41  66  99 131 177 229 279 330 400
#
# _framework density 27.064285000000002
#
# number of rings (size 3 to 8) (size 9 to 14) (size 15 to 20)
#    0.000    0.750    7.500    1.875    1.750    0.500 
#    0.000    0.625    0.000    0.000    0.000    0.000 
#    0.000    0.000    0.000    0.000    0.000    0.000 
#
# Total GULP energy -89104.609731 kJ/mol
# GULP energy per Si atom -5569.038108 kJ/mol
# Density = 2.700269 g / cm^3
# Si number density = 27.064285 Si / 1000 Ang^3
#
#
#
# Elastic Constant Matrix: (Units=GPa)
#
#
# Indices 1 2 3 4 5 6 
#
# 1 89.9503 32.6357 42.7306 7.9905 -11.9001 -26.8740
# 2 32.6357 160.2558 50.1745 26.4250 -11.0092 -27.3229
# 3 42.7306 50.1745 136.1019 17.7786 8.5514 -19.4450
# 4 7.9905 26.4250 17.7786 70.6060 -14.2426 0.8677
# 5 -11.9001 -11.0092 8.5514 -14.2426 40.6558 -6.1415
# 6 -26.8740 -27.3229 -19.4450 0.8677 -6.1415 51.4275
#
#
#
# Elastic Compliance Matrix: (Units=1/GPa)
#
#
# Indices 1 2 3 4 5 6 
#
# 1 0.016526 -0.000276 -0.004541 0.000719 0.007119 0.007611
# 2 -0.000276 0.008128 -0.002285 -0.001985 0.002455 0.003637
# 3 -0.004541 -0.002285 0.010165 -0.002174 -0.004891 -0.000291
# 4 0.000719 -0.001985 -0.002174 0.016548 0.005762 -0.001092
# 5 0.007119 0.002455 -0.004891 0.005762 0.031425 0.006830
# 6 0.007611 0.003637 -0.000291 -0.001092 0.006830 0.026078
#
#
# Mechanical properties :
#
#
# Convention : Reuss Voigt Hill
#
# Bulk Modulus (GPa) = 48.50686 70.82107 59.66397
# Shear Modulus (GPa) = 38.47807 49.92236 44.20022
#
# Velocity S-wave (km/s) = 3.77467 4.29952 4.04562
# Velocity P-wave (km/s) = 6.07941 7.13249 6.62690
#
# Compressibility (1/GPa) = 0.02061564
#
# Stress axis : x y z
#
# Youngs Moduli (GPa) = 60.51031 123.03822 98.37504
#
# Poissons Ratio (x) = 0.03393 0.44670
# Poissons Ratio (y) = 0.01668 0.22480
# Poissons Ratio (z) = 0.27476 0.28115
#
# Static dielectric constant tensor:
#      x y z
#    x 2.449520 0.115230 -0.083200 
#    y 0.115230 2.102620 -0.070430 
#    z -0.083200 -0.070430 2.314110 
# 
# From -- ./inp_files/527163.got.cif
#   From: 2010.05.17/outbox.cif.g08.bks.cpg/sg2_264_cif.got.tgz:527163.got - 2010.06.03 11:33:40.
