data_PCOD9027961
_publ_section_title
;
Structure prediction by ZEFSAII (Michael W. Deem and Ramdas Pophale) SiO2 
 PCOD9027961
Probable space group: P -1
;
_chemical_formula_sum "Si O2"
_cell_formula_units_Z 16
_cell_length_a 5.048166
_cell_length_b 27.366416
_cell_length_c 8.995912
_cell_angle_alpha 33.815190
_cell_angle_beta 60.129956
_cell_angle_gamma 66.125468
_cell_volume 599.647197
_symmetry_space_group_name_H-M "P -1"
_symmetry_group_IT_number 2
_symmetry_cell_setting 'triclinic'
loop_
_space_group_symop_operation_xyz
x,y,z
-x,-y,-z
loop_
_atom_site_type_symbol
_atom_site_label
_atom_site_fract_x
_atom_site_fract_y
_atom_site_fract_z
Si Si1 0.914299 0.443718 0.812843
Si Si2 0.064838 0.317540 0.553883
Si Si3 0.766117 0.200437 0.155593
Si Si4 0.644544 0.007904 0.598294
Si Si5 0.607448 0.787984 0.516669
Si Si6 0.206555 0.319909 0.850967
Si Si7 0.832356 0.093810 0.831166
Si Si8 0.666796 0.465245 0.297440
O O1 0.573552 0.473273 0.872784
O O2 0.000000 0.500000 0.500000
O O3 0.963131 0.347474 0.976248
O O4 0.152344 0.473448 0.793958
O O5 0.901765 0.400302 0.314599
O O6 0.310807 0.276132 0.480021
O O7 0.174040 0.349172 0.607964
O O8 0.826743 0.239531 0.873730
O O9 0.623828 0.104269 0.427538
O O10 0.503015 0.250264 0.195582
O O11 0.094534 0.219458 0.096876
O O12 0.500000 0.000000 0.500000
O O13 0.000000 0.000000 0.500000
O O14 0.474458 0.933676 0.926316
O O15 0.324876 0.851347 0.394773
O O16 0.918824 0.844224 0.314923
O O17 0.486758 0.387159 0.637118
O O18 0.000000 0.000000 0.000000
#
# Coordination Sequence:
#
# PCOD9027961 Si02
#       8
#     2   2   2   2   2   2   2   2
#     4  10  17  31  59  94 126 167 221 264 319 387
#     4  10  23  40  64  97 131 167 221 263 328 392
#     4  10  24  45  64  97 133 171 214 274 334 386
#     4  12  26  44  71  99 129 172 224 277 329 393
#     4  12  27  46  68  97 134 177 214 280 329 398
#     4   9  21  36  60  98 127 168 220 267 325 397
#     4  12  26  47  70  94 130 174 229 264 333 401
#     4  11  19  35  62  97 125 170 222 264 319 396
#
# _framework density 26.682359000000002
#
# number of rings (size 3 to 8) (size 9 to 14) (size 15 to 20)
#    0.750    0.500    3.750    4.125    3.500    2.000 
#    0.000    0.000    0.000    1.500    0.000    0.875 
#    0.000    0.000    0.000    0.000    0.000    0.000 
#
# Total GULP energy -89231.295987 kJ/mol
# GULP energy per Si atom -5576.955999 kJ/mol
# Density = 2.662163 g / cm^3
# Si number density = 26.682359 Si / 1000 Ang^3
#
#
#
# Elastic Constant Matrix: (Units=GPa)
#
#
# Indices 1 2 3 4 5 6 
#
# 1 153.1530 58.7596 17.3564 -11.0654 -17.9130 7.9561
# 2 58.7596 144.7471 36.7003 8.6846 -5.7367 0.9847
# 3 17.3564 36.7003 103.8897 18.1588 -13.6072 17.3083
# 4 -11.0654 8.6846 18.1588 45.4029 -4.3278 -17.9150
# 5 -17.9130 -5.7367 -13.6072 -4.3278 34.0682 -14.1992
# 6 7.9561 0.9847 17.3083 -17.9150 -14.1992 43.7119
#
#
#
# Elastic Compliance Matrix: (Units=1/GPa)
#
#
# Indices 1 2 3 4 5 6 
#
# 1 0.008757 -0.003447 -0.000732 0.004512 0.005279 0.002338
# 2 -0.003447 0.008996 -0.002582 -0.001503 -0.001357 0.000390
# 3 -0.000732 -0.002582 0.013605 -0.008594 -0.000129 -0.008760
# 4 0.004512 -0.001503 -0.008594 0.036548 0.012332 0.021601
# 5 0.005279 -0.001357 -0.000129 0.012332 0.040660 0.017383
# 6 0.002338 0.000390 -0.008760 0.021601 0.017383 0.040411
#
#
# Mechanical properties :
#
#
# Convention : Reuss Voigt Hill
#
# Bulk Modulus (GPa) = 56.06564 69.71359 62.88962
# Shear Modulus (GPa) = 29.68352 43.90150 36.79251
#
# Velocity S-wave (km/s) = 3.33900 4.06068 3.71739
# Velocity P-wave (km/s) = 5.99359 6.94042 6.48431
#
# Compressibility (1/GPa) = 0.01783624
#
# Stress axis : x y z
#
# Youngs Moduli (GPa) = 114.19892 111.15845 73.50329
#
# Poissons Ratio (x) = 0.38311 0.05381
# Poissons Ratio (y) = 0.39359 0.18980
# Poissons Ratio (z) = 0.08360 0.28703
#
# Static dielectric constant tensor:
#      x y z
#    x 2.375960 -0.212520 0.158630 
#    y -0.212520 1.783690 -0.335570 
#    z 0.158630 -0.335570 2.114760 
# 
# From -- ./inp_files/142221.got.cif
#   From: 2010.05.17/outbox.cif.g08.bks.cpg/sg2_72_cif.got.tgz:142221.got - 2010.06.03 11:33:40.
