data_PCOD9027590
_publ_section_title
;
Structure prediction by ZEFSAII (Michael W. Deem and Ramdas Pophale) SiO2 
 PCOD9027590
Probable space group: P -1
;
_chemical_formula_sum "Si O2"
_cell_formula_units_Z 14
_cell_length_a 8.658603
_cell_length_b 6.171426
_cell_length_c 21.763330
_cell_angle_alpha 54.650519
_cell_angle_beta 133.437212
_cell_angle_gamma 125.889018
_cell_volume 652.977062
_symmetry_space_group_name_H-M "P -1"
_symmetry_group_IT_number 2
_symmetry_cell_setting 'triclinic'
loop_
_space_group_symop_operation_xyz
x,y,z
-x,-y,-z
loop_
_atom_site_type_symbol
_atom_site_label
_atom_site_fract_x
_atom_site_fract_y
_atom_site_fract_z
Si Si1 0.561409 0.220094 0.572536
Si Si2 0.449625 0.049234 0.048637
Si Si3 0.350862 0.620396 0.630696
Si Si4 0.670541 0.638809 0.210039
Si Si5 0.187571 0.413076 0.882311
Si Si6 0.034825 0.888406 0.363812
Si Si7 0.768149 0.493909 0.702126
O O1 0.500000 0.500000 0.500000
O O2 0.674835 0.258190 0.664294
O O3 0.745633 0.194165 0.578684
O O4 0.358055 0.929949 0.562965
O O5 0.650736 0.312989 0.085310
O O6 0.472261 0.778102 0.133779
O O7 0.230073 0.147211 0.970819
O O8 0.500000 0.000000 0.000000
O O9 0.375200 0.612096 0.712839
O O10 0.135023 0.351364 0.602240
O O11 0.564323 0.561317 0.668798
O O12 0.725236 0.576800 0.166162
O O13 0.891614 0.857626 0.265825
O O14 0.935373 0.414552 0.807175
O O15 0.098336 0.213856 0.344187
#
# Coordination Sequence:
#
# PCOD9027590 Si02
#       7
#     2   2   2   2   2   2   2
#     4  11  24  40  59  87 115 147 193 241 288 346
#     4   9  18  29  55  87 115 148 193 235 274 333
#     4   9  22  37  59  87 114 150 190 239 287 342
#     4   9  17  36  55  81 114 148 188 228 281 334
#     4  10  17  31  58  86 111 155 192 229 283 331
#     4   9  20  39  58  81 115 150 185 238 284 339
#     4  11  20  37  63  83 113 156 192 232 288 343
#
# _framework density 21.440261
#
# number of rings (size 3 to 8) (size 9 to 14) (size 15 to 20)
#    0.857    1.429    2.857    0.000    0.000    6.286 
#    0.000    2.143    0.000    8.571    0.000    0.000 
#    0.000    0.000    0.000    0.000    0.000    0.000 
#
# Total GULP energy -78048.306215 kJ/mol
# GULP energy per Si atom -5574.879015 kJ/mol
# Density = 2.139146 g / cm^3
# Si number density = 21.440261 Si / 1000 Ang^3
#
#
#
# Elastic Constant Matrix: (Units=GPa)
#
#
# Indices 1 2 3 4 5 6 
#
# 1 44.0451 21.2044 6.5176 -10.4214 6.5044 9.3898
# 2 21.2044 87.7491 8.4045 3.0191 -3.1137 10.0649
# 3 6.5176 8.4045 73.8227 -6.6337 9.2869 0.1235
# 4 -10.4214 3.0191 -6.6337 45.8195 -16.0667 -6.1927
# 5 6.5044 -3.1137 9.2869 -16.0667 30.1742 2.2408
# 6 9.3898 10.0649 0.1235 -6.1927 2.2408 30.1441
#
#
#
# Elastic Compliance Matrix: (Units=1/GPa)
#
#
# Indices 1 2 3 4 5 6 
#
# 1 0.028850 -0.006546 -0.000901 0.004843 -0.003628 -0.005533
# 2 -0.006546 0.013636 -0.001460 -0.002207 0.002325 -0.003134
# 3 -0.000901 -0.001460 0.014367 0.000691 -0.004096 0.001156
# 4 0.004843 -0.002207 0.000691 0.028397 0.013334 0.004068
# 5 -0.003628 0.002325 -0.004096 0.013334 0.042527 -0.000052
# 6 -0.005533 -0.003134 0.001156 0.004068 -0.000052 0.036779
#
#
# Mechanical properties :
#
#
# Convention : Reuss Voigt Hill
#
# Bulk Modulus (GPa) = 25.61563 30.87442 28.24503
# Shear Modulus (GPa) = 25.59081 32.52691 29.05886
#
# Velocity S-wave (km/s) = 3.45858 3.89922 3.68549
# Velocity P-wave (km/s) = 5.28417 5.89095 5.59579
#
# Compressibility (1/GPa) = 0.03903866
#
# Stress axis : x y z
#
# Youngs Moduli (GPa) = 34.66234 73.33692 69.60293
#
# Poissons Ratio (x) = 0.48006 0.06272
# Poissons Ratio (y) = 0.22690 0.10162
# Poissons Ratio (z) = 0.03123 0.10707
#
# Static dielectric constant tensor:
#      x y z
#    x 1.748710 0.009900 0.017780 
#    y 0.009900 1.760220 -0.015700 
#    z 0.017780 -0.015700 1.845810 
# 
# From -- ./inp_files/56197.got.cif
#   From: 2010.05.17/outbox.cif.g08.bks.cpg/sg2_29_cif.got.tgz:56197.got - 2010.06.03 11:33:40.
