data_PCOD9027183
_publ_section_title
;
Structure prediction by ZEFSAII (Michael W. Deem and Ramdas Pophale) SiO2 
 PCOD9027183
Probable space group: P -1
;
_chemical_formula_sum "Si O2"
_cell_formula_units_Z 16
_cell_length_a 12.120221
_cell_length_b 9.022378
_cell_length_c 23.808148
_cell_angle_alpha 47.100712
_cell_angle_beta 150.586410
_cell_angle_gamma 144.717931
_cell_volume 734.276943
_symmetry_space_group_name_H-M "P -1"
_symmetry_group_IT_number 2
_symmetry_cell_setting 'triclinic'
loop_
_space_group_symop_operation_xyz
x,y,z
-x,-y,-z
loop_
_atom_site_type_symbol
_atom_site_label
_atom_site_fract_x
_atom_site_fract_y
_atom_site_fract_z
Si Si1 0.472672 0.435294 0.613733
Si Si2 0.377439 0.857569 0.311654
Si Si3 0.545162 0.336591 0.889943
Si Si4 0.775767 0.307238 0.188376
Si Si5 0.399016 0.056255 0.495998
Si Si6 0.112269 0.748384 0.867277
Si Si7 0.332176 0.181244 0.116612
Si Si8 0.210375 0.161720 0.678901
O O1 0.448858 0.238831 0.610116
O O2 0.464889 0.643259 0.525064
O O3 0.255653 0.293243 0.605585
O O4 0.787021 0.587732 0.743695
O O5 0.499860 0.997156 0.389047
O O6 0.056401 0.598369 0.246679
O O7 0.381762 0.026618 0.221922
O O8 0.578263 0.563597 0.878506
O O9 0.480972 0.332537 0.796779
O O10 0.271532 0.052085 0.863592
O O11 0.818033 0.348851 0.023086
O O12 0.729369 0.274694 0.109132
O O13 0.518027 0.244814 0.127133
O O14 0.832370 0.102913 0.281286
O O15 0.500000 0.000000 0.500000
O O16 0.060457 0.899788 0.392599
O O17 0.000000 0.000000 0.000000
#
# Coordination Sequence:
#
# PCOD9027183 Si02
#       8
#     2   2   2   2   2   2   2   2
#     4  11  22  45  73  95 137 176 236 281 338 413
#     4  11  25  45  72 100 136 191 223 278 352 399
#     4  10  22  41  67 101 142 177 228 273 345 400
#     4  10  22  44  71  97 138 178 230 277 337 415
#     4  12  28  46  67 102 139 178 234 289 340 399
#     4   9  20  44  70  99 134 189 222 275 347 407
#     4  12  26  44  68 109 141 174 231 282 338 407
#     4  11  24  45  70 100 135 181 232 283 336 411
#
# _framework density 21.790143
#
# number of rings (size 3 to 8) (size 9 to 14) (size 15 to 20)
#    0.000    1.250    5.000    1.875    3.500    4.500 
#    4.500    0.000    0.000    0.000    0.000    0.000 
#    0.000    0.000    0.000    0.000    0.000    0.000 
#
# Total GULP energy -89495.797698 kJ/mol
# GULP energy per Si atom -5593.487356 kJ/mol
# Density = 2.174055 g / cm^3
# Si number density = 21.790143 Si / 1000 Ang^3
#
#
#
# Elastic Constant Matrix: (Units=GPa)
#
#
# Indices 1 2 3 4 5 6 
#
# 1 112.1282 32.3756 11.5614 3.6062 5.4064 11.8086
# 2 32.3756 60.1088 9.9509 2.4042 6.6647 -15.2681
# 3 11.5614 9.9509 27.7843 0.5796 -11.7844 4.5248
# 4 3.6062 2.4042 0.5796 28.9966 2.0149 -4.3500
# 5 5.4064 6.6647 -11.7844 2.0149 35.4270 -2.6662
# 6 11.8086 -15.2681 4.5248 -4.3500 -2.6662 32.4448
#
#
#
# Elastic Compliance Matrix: (Units=1/GPa)
#
#
# Indices 1 2 3 4 5 6 
#
# 1 0.012584 -0.008604 -0.001202 -0.002067 -0.001250 -0.008841
# 2 -0.008604 0.028659 -0.012667 0.002151 -0.007053 0.018093
# 3 -0.001202 -0.012667 0.050931 -0.002845 0.018807 -0.011462
# 4 -0.002067 0.002151 -0.002845 0.035813 -0.002564 0.006752
# 5 -0.001250 -0.007053 0.018807 -0.002564 0.035930 -0.002878
# 6 -0.008841 0.018093 -0.011462 0.006752 -0.002878 0.044821
#
#
# Mechanical properties :
#
#
# Convention : Reuss Voigt Hill
#
# Bulk Modulus (GPa) = 21.17328 34.19968 27.68648
# Shear Modulus (GPa) = 18.55779 29.11591 23.83685
#
# Velocity S-wave (km/s) = 2.92149 3.65937 3.31105
# Velocity P-wave (km/s) = 4.59545 5.79515 5.22981
#
# Compressibility (1/GPa) = 0.04722935
#
# Stress axis : x y z
#
# Youngs Moduli (GPa) = 79.46407 34.89262 19.63422
#
# Poissons Ratio (x) = 0.30020 0.02360
# Poissons Ratio (y) = 0.68367 0.24871
# Poissons Ratio (z) = 0.09553 0.44199
#
# Static dielectric constant tensor:
#      x y z
#    x 1.767620 0.004850 -0.014150 
#    y 0.004850 1.792030 0.008100 
#    z -0.014150 0.008100 1.820420 
# 
# From -- ./inp_files/609812.got.cif
#   From: 2010.05.17/outbox.cif.g08.bks.cpg/sg2_305_cif.got.tgz:609812.got - 2010.06.03 11:33:40.
