data_PCOD9027141
_publ_section_title
;
Structure prediction by ZEFSAII (Michael W. Deem and Ramdas Pophale) SiO2 
 PCOD9027141
Probable space group: P -1
;
_chemical_formula_sum "Si O2"
_cell_formula_units_Z 16
_cell_length_a 17.197895
_cell_length_b 6.115933
_cell_length_c 11.733424
_cell_angle_alpha 91.898243
_cell_angle_beta 54.826972
_cell_angle_gamma 127.168676
_cell_volume 703.689629
_symmetry_space_group_name_H-M "P -1"
_symmetry_group_IT_number 2
_symmetry_cell_setting 'triclinic'
loop_
_space_group_symop_operation_xyz
x,y,z
-x,-y,-z
loop_
_atom_site_type_symbol
_atom_site_label
_atom_site_fract_x
_atom_site_fract_y
_atom_site_fract_z
Si Si1 0.732408 0.868993 0.970697
Si Si2 0.680097 0.221976 0.436173
Si Si3 0.637870 0.077540 0.884412
Si Si4 0.894434 0.132221 0.059463
Si Si5 0.534568 0.706585 0.746940
Si Si6 0.067471 0.079677 0.769336
Si Si7 0.902991 0.812411 0.687958
Si Si8 0.472209 0.267315 0.610713
O O1 0.843100 0.940455 0.794325
O O2 0.663315 0.960616 0.967931
O O3 0.620822 0.496199 0.088372
O O4 0.790815 0.033601 0.046665
O O5 0.826951 0.556281 0.347876
O O6 0.586157 0.275281 0.497469
O O7 0.608437 0.972629 0.594111
O O8 0.667807 0.070011 0.324968
O O9 0.771501 0.448062 0.764133
O O10 0.620634 0.879319 0.790567
O O11 0.500000 0.000000 0.000000
O O12 0.859043 0.976022 0.211530
O O13 0.000000 0.500000 0.000000
O O14 0.957810 0.026304 0.937815
O O15 0.506717 0.427667 0.706327
O O16 0.993108 0.862700 0.717313
O O17 0.000000 0.000000 0.500000
O O18 0.500000 0.500000 0.500000
#
# Coordination Sequence:
#
# PCOD9027141 Si02
#       8
#     2   2   2   2   2   2   2   2
#     4  11  26  44  72 104 139 184 248 290 358 432
#     4  10  22  41  66  98 143 179 224 288 366 421
#     4  12  26  46  72 102 139 188 244 300 358 420
#     4  10  23  42  68  96 137 181 228 294 350 421
#     4  11  24  40  67 101 135 179 231 291 348 422
#     4  10  23  42  67 103 135 183 236 281 354 428
#     4  11  25  48  73 103 147 186 240 299 356 427
#     4   9  22  38  59 100 136 179 226 280 347 426
#
# _framework density 22.737297000000002
#
# number of rings (size 3 to 8) (size 9 to 14) (size 15 to 20)
#    0.000    1.500    1.250    1.875    8.750    2.500 
#    0.000    0.000    0.000    0.000    0.000    0.000 
#    0.000    0.000    0.000    0.000    0.000    0.000 
#
# Total GULP energy -89242.729900 kJ/mol
# GULP energy per Si atom -5577.670619 kJ/mol
# Density = 2.268555 g / cm^3
# Si number density = 22.737297 Si / 1000 Ang^3
#
#
#
# Elastic Constant Matrix: (Units=GPa)
#
#
# Indices 1 2 3 4 5 6 
#
# 1 143.1221 56.5865 55.4046 10.0069 27.5445 26.4688
# 2 56.5865 146.7816 54.4101 0.8674 11.2548 46.6919
# 3 55.4046 54.4101 138.7446 -2.5605 17.7184 13.7192
# 4 10.0069 0.8674 -2.5605 41.1417 3.2188 -6.2331
# 5 27.5445 11.2548 17.7184 3.2188 27.9277 0.3189
# 6 26.4688 46.6919 13.7192 -6.2331 0.3189 43.9026
#
#
#
# Elastic Compliance Matrix: (Units=1/GPa)
#
#
# Indices 1 2 3 4 5 6 
#
# 1 0.011206 -0.001057 -0.002496 -0.002972 -0.008640 -0.005211
# 2 -0.001057 0.012169 -0.003033 -0.001822 -0.001595 -0.011604
# 3 -0.002496 -0.003033 0.009560 0.001775 -0.002609 0.002014
# 4 -0.002972 -0.001822 0.001775 0.026269 -0.000567 0.006908
# 5 -0.008640 -0.001595 -0.002609 -0.000567 0.046608 0.007302
# 6 -0.005211 -0.011604 0.002014 0.006908 0.007302 0.038559
#
#
# Mechanical properties :
#
#
# Convention : Reuss Voigt Hill
#
# Bulk Modulus (GPa) = 50.59926 84.60564 67.60245
# Shear Modulus (GPa) = 30.46351 40.07755 35.27053
#
# Velocity S-wave (km/s) = 3.66430 4.20293 3.94282
# Velocity P-wave (km/s) = 6.34074 7.80024 7.10805
#
# Compressibility (1/GPa) = 0.01976314
#
# Stress axis : x y z
#
# Youngs Moduli (GPa) = 89.24078 82.17726 104.59762
#
# Poissons Ratio (x) = 0.08685 0.26113
# Poissons Ratio (y) = 0.09431 0.31720
# Poissons Ratio (z) = 0.22279 0.24921
#
# Static dielectric constant tensor:
#      x y z
#    x 1.891530 0.004720 -0.050350 
#    y 0.004720 1.869180 0.023380 
#    z -0.050350 0.023380 1.992410 
# 
# From -- ./inp_files/459521.got.cif
#   From: 2010.05.17/outbox.cif.g08.bks.cpg/sg2_230_cif.got.tgz:459521.got - 2010.06.03 11:33:40.
