data_PCOD9027609
_publ_section_title
;
Structure prediction by ZEFSAII (Michael W. Deem and Ramdas Pophale) SiO2 
 PCOD9027609
Probable space group: P -1
;
_chemical_formula_sum "Si O2"
_cell_formula_units_Z 16
_cell_length_a 14.368785
_cell_length_b 7.653578
_cell_length_c 11.948890
_cell_angle_alpha 72.506554
_cell_angle_beta 44.537732
_cell_angle_gamma 104.615417
_cell_volume 629.887240
_symmetry_space_group_name_H-M "P -1"
_symmetry_group_IT_number 2
_symmetry_cell_setting 'triclinic'
loop_
_space_group_symop_operation_xyz
x,y,z
-x,-y,-z
loop_
_atom_site_type_symbol
_atom_site_label
_atom_site_fract_x
_atom_site_fract_y
_atom_site_fract_z
Si Si1 0.234860 0.270527 0.024054
Si Si2 0.325047 0.198505 0.729635
Si Si3 0.985058 0.813330 0.467572
Si Si4 0.997593 0.342719 0.936362
Si Si5 0.886845 0.488383 0.803602
Si Si6 0.512679 0.896564 0.893242
Si Si7 0.381815 0.734470 0.428720
Si Si8 0.429889 0.541676 0.199927
O O1 0.234552 0.219631 0.905994
O O2 0.440480 0.496163 0.857192
O O3 0.121472 0.339877 0.142620
O O4 0.146805 0.002771 0.205398
O O5 0.500000 0.500000 0.500000
O O6 0.436837 0.118085 0.679630
O O7 0.152778 0.960573 0.849020
O O8 0.005455 0.656034 0.559372
O O9 0.784517 0.649718 0.614656
O O10 0.000000 0.000000 0.500000
O O11 0.939577 0.373987 0.859711
O O12 0.208810 0.498230 0.694223
O O13 0.000000 0.500000 0.000000
O O14 0.685964 0.274221 0.961686
O O15 0.646889 0.097106 0.640884
O O16 0.535845 0.721272 0.963929
O O17 0.500000 0.000000 0.000000
O O18 0.425399 0.655414 0.296964
#
# Coordination Sequence:
#
# PCOD9027609 Si02
#       8
#     2   2   2   2   2   2   2   2
#     4  10  22  41  68  96 136 177 221 280 338 405
#     4  11  26  49  72  96 131 182 237 292 344 398
#     4   9  19  36  58  95 136 168 209 264 334 405
#     4  12  28  47  70 101 136 180 236 288 340 407
#     4  10  22  42  64 101 141 177 224 281 339 408
#     4   9  18  37  66  98 137 175 220 269 343 409
#     4  10  22  43  67  96 130 174 226 282 339 406
#     4   9  19  37  62  97 129 174 216 263 335 413
#
# _framework density 25.401374000000001
#
# number of rings (size 3 to 8) (size 9 to 14) (size 15 to 20)
#    0.000    2.000    1.250    0.750    3.500    6.500 
#   11.250    2.500    0.000    0.000    0.000    0.000 
#    0.000    0.000    0.000    0.000    0.000    0.000 
#
# Total GULP energy -89236.481425 kJ/mol
# GULP energy per Si atom -5577.280089 kJ/mol
# Density = 2.534356 g / cm^3
# Si number density = 25.401374 Si / 1000 Ang^3
#
#
#
# Elastic Constant Matrix: (Units=GPa)
#
#
# Indices 1 2 3 4 5 6 
#
# 1 78.5270 0.0256 6.8135 -5.4137 -15.8166 5.2702
# 2 0.0256 82.5636 26.3606 -0.2652 4.0615 13.8859
# 3 6.8135 26.3606 143.2148 -10.7175 9.7740 8.1137
# 4 -5.4137 -0.2652 -10.7175 34.7608 2.8712 -4.6696
# 5 -15.8166 4.0615 9.7740 2.8712 37.2262 -4.6808
# 6 5.2702 13.8859 8.1137 -4.6696 -4.6808 31.7984
#
#
#
# Elastic Compliance Matrix: (Units=1/GPa)
#
#
# Indices 1 2 3 4 5 6 
#
# 1 0.014194 0.000200 -0.000965 0.001266 0.006024 -0.001121
# 2 0.000200 0.013888 -0.002219 -0.001220 -0.001499 -0.005931
# 3 -0.000965 -0.002219 0.007834 0.002336 -0.002518 -0.000898
# 4 0.001266 -0.001220 0.002336 0.030351 -0.001790 0.003920
# 5 0.006024 -0.001499 -0.002518 -0.001790 0.030962 0.004594
# 6 -0.001121 -0.005931 -0.000898 0.003920 0.004594 0.035705
#
#
# Mechanical properties :
#
#
# Convention : Reuss Voigt Hill
#
# Bulk Modulus (GPa) = 33.39052 41.18941 37.28997
# Shear Modulus (GPa) = 33.58322 38.83079 36.20700
#
# Velocity S-wave (km/s) = 3.64002 3.91409 3.77954
# Velocity P-wave (km/s) = 5.55338 6.05619 5.81022
#
# Compressibility (1/GPa) = 0.02994862
#
# Stress axis : x y z
#
# Youngs Moduli (GPa) = 70.45268 72.00680 127.64401
#
# Poissons Ratio (x) = -0.01440 0.12316
# Poissons Ratio (y) = -0.01409 0.28319
# Poissons Ratio (z) = 0.06798 0.15976
#
# Static dielectric constant tensor:
#      x y z
#    x 3.430080 -3.374500 -1.318560 
#    y -3.374500 9.982470 3.286150 
#    z -1.318560 3.286150 3.577610 
# 
# From -- ./inp_files/447113.got.cif
#   From: 2010.05.17/outbox.cif.g08.bks.cpg/sg2_224_cif.got.tgz:447113.got - 2010.06.03 11:33:40.
