data_PCOD9027048
_publ_section_title
;
Structure prediction by ZEFSAII (Michael W. Deem and Ramdas Pophale) SiO2 
 PCOD9027048
Probable space group: P -1
;
_chemical_formula_sum "Si O2"
_cell_formula_units_Z 12
_cell_length_a 9.698271
_cell_length_b 11.704955
_cell_length_c 4.956864
_cell_angle_alpha 93.327645
_cell_angle_beta 75.238101
_cell_angle_gamma 67.813709
_cell_volume 496.299760
_symmetry_space_group_name_H-M "P -1"
_symmetry_group_IT_number 2
_symmetry_cell_setting 'triclinic'
loop_
_space_group_symop_operation_xyz
x,y,z
-x,-y,-z
loop_
_atom_site_type_symbol
_atom_site_label
_atom_site_fract_x
_atom_site_fract_y
_atom_site_fract_z
Si Si1 0.372994 0.945812 0.607218
Si Si2 0.979475 0.903169 0.212037
Si Si3 0.502179 0.584216 0.764437
Si Si4 0.196220 0.384688 0.177753
Si Si5 0.689908 0.163997 0.851325
Si Si6 0.935547 0.667208 0.262235
O O1 0.403818 0.827424 0.376542
O O2 0.500000 0.000000 0.500000
O O3 0.201367 0.040494 0.606727
O O4 0.350171 0.924796 0.930846
O O5 0.128648 0.877939 0.322358
O O6 0.000703 0.762080 0.114639
O O7 0.000000 0.000000 0.000000
O O8 0.500000 0.500000 0.500000
O O9 0.654476 0.612910 0.745054
O O10 0.500000 0.500000 0.000000
O O11 0.357754 0.714124 0.919932
O O12 0.072814 0.528546 0.211828
O O13 0.130547 0.308006 0.398757
O O14 0.201183 0.331063 0.869440
#
# Coordination Sequence:
#
# PCOD9027048 Si02
#       6
#     2   2   2   2   2   2
#     4  11  25  43  68  98 132 179 229 281 340 399
#     4  10  24  44  70 100 139 184 233 283 349 410
#     4  12  25  42  69  98 139 180 228 279 348 414
#     4  10  23  40  65  99 130 176 228 278 346 404
#     4  11  25  44  66  98 138 175 228 277 341 411
#     4  10  22  41  66  95 135 174 224 287 338 408
#
# _framework density 24.178934000000002
#
# number of rings (size 3 to 8) (size 9 to 14) (size 15 to 20)
#    0.000    1.333    0.000    4.000    4.667    8.000 
#    0.000    0.000    0.000    0.000    0.000    0.000 
#    0.000    0.000    0.000    0.000    0.000    0.000 
#
# Total GULP energy -66898.787972 kJ/mol
# GULP energy per Si atom -5574.898998 kJ/mol
# Density = 2.412390 g / cm^3
# Si number density = 24.178934 Si / 1000 Ang^3
#
#
#
# Elastic Constant Matrix: (Units=GPa)
#
#
# Indices 1 2 3 4 5 6 
#
# 1 169.3260 27.0628 42.4192 4.8725 -8.2408 9.8459
# 2 27.0628 85.1049 19.3937 -13.8801 -8.5724 17.8390
# 3 42.4192 19.3937 120.1709 -9.8821 14.6997 4.1340
# 4 4.8725 -13.8801 -9.8821 24.5405 3.7290 -9.9717
# 5 -8.2408 -8.5724 14.6997 3.7290 41.9075 -0.1334
# 6 9.8459 17.8390 4.1340 -9.9717 -0.1334 32.8319
#
#
#
# Elastic Compliance Matrix: (Units=1/GPa)
#
#
# Indices 1 2 3 4 5 6 
#
# 1 0.007325 -0.001707 -0.002949 -0.004971 0.002560 -0.002397
# 2 -0.001707 0.015019 -0.001512 0.005452 0.002763 -0.005791
# 3 -0.002949 -0.001512 0.010623 0.005619 -0.005109 0.002054
# 4 -0.004971 0.005452 0.005619 0.053829 -0.006578 0.014143
# 5 0.002560 0.002763 -0.005109 -0.006578 0.027297 -0.003513
# 6 -0.002397 -0.005791 0.002054 0.014143 -0.003513 0.038346
#
#
# Mechanical properties :
#
#
# Convention : Reuss Voigt Hill
#
# Bulk Modulus (GPa) = 48.47399 61.37259 54.92329
# Shear Modulus (GPa) = 29.12880 38.90437 34.01659
#
# Velocity S-wave (km/s) = 3.47467 4.01561 3.75489
# Velocity P-wave (km/s) = 6.01576 6.85113 6.44699
#
# Compressibility (1/GPa) = 0.02062962
#
# Stress axis : x y z
#
# Youngs Moduli (GPa) = 136.52726 66.58226 94.13622
#
# Poissons Ratio (x) = 0.11369 0.27765
# Poissons Ratio (y) = 0.23311 0.14229
# Poissons Ratio (z) = 0.40268 0.10064
#
# Static dielectric constant tensor:
#      x y z
#    x 1.900660 -0.027030 -0.020290 
#    y -0.027030 1.940460 0.074170 
#    z -0.020290 0.074170 1.977410 
# 
# From -- ./inp_files/25087.got.cif
#   From: 2010.05.17/outbox.cif.g08.bks.cpg/sg2_13_cif.got.tgz:25087.got - 2010.06.03 11:33:40.
