data_PCOD9027002
_publ_section_title
;
Structure prediction by ZEFSAII (Michael W. Deem and Ramdas Pophale) SiO2 
 PCOD9027002
Probable space group: P -1
;
_chemical_formula_sum "Si O2"
_cell_formula_units_Z 14
_cell_length_a 12.323533
_cell_length_b 9.486476
_cell_length_c 6.580945
_cell_angle_alpha 130.783515
_cell_angle_beta 100.033098
_cell_angle_gamma 99.122314
_cell_volume 534.000214
_symmetry_space_group_name_H-M "P -1"
_symmetry_group_IT_number 2
_symmetry_cell_setting 'triclinic'
loop_
_space_group_symop_operation_xyz
x,y,z
-x,-y,-z
loop_
_atom_site_type_symbol
_atom_site_label
_atom_site_fract_x
_atom_site_fract_y
_atom_site_fract_z
Si Si1 0.916724 0.722414 0.536225
Si Si2 0.927955 0.095423 0.713869
Si Si3 0.268093 0.445582 0.041128
Si Si4 0.402815 0.976380 0.120829
Si Si5 0.718197 0.935554 0.197340
Si Si6 0.900622 0.469988 0.681293
Si Si7 0.485885 0.734081 0.202397
O O1 0.822247 0.634482 0.245600
O O2 0.876323 0.565363 0.556811
O O3 0.917110 0.948386 0.764568
O O4 0.040263 0.694650 0.489627
O O5 0.805102 0.050543 0.516222
O O6 0.000000 0.000000 0.500000
O O7 0.997898 0.329154 0.999978
O O8 0.250223 0.261535 0.013828
O O9 0.220708 0.592864 0.289159
O O10 0.398732 0.520865 0.057854
O O11 0.457780 0.161742 0.467640
O O12 0.294367 0.972481 0.938072
O O13 0.500000 0.000000 0.000000
O O14 0.613139 0.202544 0.894358
O O15 0.591523 0.836234 0.174961
#
# Coordination Sequence:
#
# PCOD9027002 Si02
#       7
#     2   2   2   2   2   2   2
#     4  10  24  43  64 100 130 176 227 272 333 394
#     4  11  22  44  69  95 133 175 221 278 328 391
#     4  11  23  41  64  94 134 167 217 278 327 399
#     4   9  21  42  61  91 127 170 220 264 327 391
#     4  10  22  41  66  94 128 173 220 270 331 394
#     4  11  23  44  67  97 134 177 223 274 336 392
#     4  10  22  42  63  95 129 167 216 272 327 393
#
# _framework density 26.217220000000001
#
# number of rings (size 3 to 8) (size 9 to 14) (size 15 to 20)
#    0.000    1.714    2.857    1.286    0.000    8.571 
#    7.714    0.000    0.000    0.000    0.000    0.000 
#    0.000    0.000    0.000    0.000    0.000    0.000 
#
# Total GULP energy -78077.307331 kJ/mol
# GULP energy per Si atom -5576.950524 kJ/mol
# Density = 2.615755 g / cm^3
# Si number density = 26.217220 Si / 1000 Ang^3
#
#
#
# Elastic Constant Matrix: (Units=GPa)
#
#
# Indices 1 2 3 4 5 6 
#
# 1 110.3417 5.9848 16.7359 -12.0970 7.6303 11.6506
# 2 5.9848 101.0981 25.2734 -16.6223 29.7230 -16.0001
# 3 16.7359 25.2734 85.2939 -33.1147 24.3515 -16.9986
# 4 -12.0970 -16.6223 -33.1147 40.4941 -10.7230 6.0031
# 5 7.6303 29.7230 24.3515 -10.7230 43.0108 -10.0817
# 6 11.6506 -16.0001 -16.9986 6.0031 -10.0817 41.2334
#
#
#
# Elastic Compliance Matrix: (Units=1/GPa)
#
#
# Indices 1 2 3 4 5 6 
#
# 1 0.010056 -0.000168 -0.001685 0.001849 -0.001230 -0.004171
# 2 -0.000168 0.013062 0.000031 0.002896 -0.007626 0.002843
# 3 -0.001685 0.000031 0.020218 0.013526 -0.006567 0.005248
# 4 0.001849 0.002896 0.013526 0.037259 -0.000553 0.000617
# 5 -0.001230 -0.007626 -0.006567 -0.000553 0.032980 0.002826
# 6 -0.004171 0.002843 0.005248 0.000617 0.002826 0.029298
#
#
# Mechanical properties :
#
#
# Convention : Reuss Voigt Hill
#
# Bulk Modulus (GPa) = 25.19611 43.63578 34.41595
# Shear Modulus (GPa) = 31.29922 41.53031 36.41476
#
# Velocity S-wave (km/s) = 3.45895 3.98437 3.73092
# Velocity P-wave (km/s) = 5.05805 6.15200 5.63165
#
# Compressibility (1/GPa) = 0.03968866
#
# Stress axis : x y z
#
# Youngs Moduli (GPa) = 99.44543 76.56022 49.46157
#
# Poissons Ratio (x) = 0.01290 0.08336
# Poissons Ratio (y) = 0.01675 -0.00151
# Poissons Ratio (z) = 0.16760 -0.00234
#
# Static dielectric constant tensor:
#      x y z
#    x 2.319810 -0.113410 -0.074360 
#    y -0.113410 2.232820 0.047260 
#    z -0.074360 0.047260 2.060570 
# 
# From -- ./inp_files/95654.got.cif
#   From: 2010.05.17/outbox.cif.g08.bks.cpg/sg2_48_cif.got.tgz:95654.got - 2010.06.03 11:33:40.
