data_PCOD9027431
_publ_section_title
;
Structure prediction by ZEFSAII (Michael W. Deem and Ramdas Pophale) SiO2 
 PCOD9027431
Probable space group: P -1
;
_chemical_formula_sum "Si O2"
_cell_formula_units_Z 16
_cell_length_a 16.496722
_cell_length_b 6.862412
_cell_length_c 7.235338
_cell_angle_alpha 99.835633
_cell_angle_beta 119.585356
_cell_angle_gamma 99.127722
_cell_volume 673.022044
_symmetry_space_group_name_H-M "P -1"
_symmetry_group_IT_number 2
_symmetry_cell_setting 'triclinic'
loop_
_space_group_symop_operation_xyz
x,y,z
-x,-y,-z
loop_
_atom_site_type_symbol
_atom_site_label
_atom_site_fract_x
_atom_site_fract_y
_atom_site_fract_z
Si Si1 0.365458 0.985053 0.451083
Si Si2 0.592060 0.752203 0.101397
Si Si3 0.287645 0.546836 0.808335
Si Si4 0.235527 0.941183 0.873360
Si Si5 0.201220 0.619930 0.334177
Si Si6 0.042614 0.669427 0.414935
Si Si7 0.155173 0.280229 0.914044
Si Si8 0.489835 0.274077 0.374877
O O1 0.282491 0.755124 0.939864
O O2 0.257622 0.849985 0.362736
O O3 0.416351 0.152035 0.693795
O O4 0.575347 0.184050 0.523565
O O5 0.687616 0.917289 0.155806
O O6 0.617749 0.534529 0.089606
O O7 0.513535 0.741838 0.852564
O O8 0.262010 0.573808 0.570628
O O9 0.204343 0.372200 0.789684
O O10 0.194253 0.088341 0.982378
O O11 0.135569 0.830028 0.635308
O O12 0.389229 0.122809 0.316430
O O13 0.093321 0.588927 0.287522
O O14 0.192944 0.457865 0.135869
O O15 0.000000 0.500000 0.500000
O O16 0.958863 0.760818 0.257783
O O17 0.500000 0.500000 0.500000
#
# Coordination Sequence:
#
# PCOD9027431 Si02
#       8
#     2   2   2   2   2   2   2   2
#     4  11  26  48  72 104 144 180 231 290 347 424
#     4  11  24  45  75 101 137 192 225 279 367 411
#     4  10  23  43  67 102 140 181 233 285 335 411
#     4  10  22  41  68 100 137 188 228 283 343 411
#     4  11  24  44  71 104 140 184 238 283 344 418
#     4  11  20  43  69  98 149 183 235 292 338 405
#     4  11  23  40  70  99 143 193 229 292 344 398
#     4  11  29  47  72 108 140 178 232 296 348 424
#
# _framework density 23.773368000000001
#
# number of rings (size 3 to 8) (size 9 to 14) (size 15 to 20)
#    0.000    1.250    5.000    1.125    7.000    1.500 
#    0.000    0.625    0.000    0.000    0.000    0.000 
#    0.000    0.000    0.000    0.000    0.000    0.000 
#
# Total GULP energy -89425.215581 kJ/mol
# GULP energy per Si atom -5589.075974 kJ/mol
# Density = 2.371926 g / cm^3
# Si number density = 23.773368 Si / 1000 Ang^3
#
#
#
# Elastic Constant Matrix: (Units=GPa)
#
#
# Indices 1 2 3 4 5 6 
#
# 1 73.1632 40.1676 19.0797 -8.2648 0.4124 -18.5499
# 2 40.1676 105.6927 31.7867 1.1210 1.2485 -9.7157
# 3 19.0797 31.7867 90.1861 2.6281 -9.9141 -0.2679
# 4 -8.2648 1.1210 2.6281 40.8836 -4.7403 -7.6626
# 5 0.4124 1.2485 -9.9141 -4.7403 33.8897 1.4338
# 6 -18.5499 -9.7157 -0.2679 -7.6626 1.4338 56.9963
#
#
#
# Elastic Compliance Matrix: (Units=1/GPa)
#
#
# Indices 1 2 3 4 5 6 
#
# 1 0.019916 -0.006432 -0.002100 0.005470 -0.000113 0.006114
# 2 -0.006432 0.012935 -0.003326 -0.001642 -0.001597 -0.000085
# 3 -0.002100 -0.003326 0.013160 -0.000991 0.003919 -0.001420
# 4 0.005470 -0.001642 -0.000991 0.026998 0.003267 0.005043
# 5 -0.000113 -0.001597 0.003919 0.003267 0.031198 -0.000636
# 6 0.006114 -0.000085 -0.001420 0.005043 -0.000636 0.020208
#
#
# Mechanical properties :
#
#
# Convention : Reuss Voigt Hill
#
# Bulk Modulus (GPa) = 44.85451 50.12335 47.48893
# Shear Modulus (GPa) = 32.14150 38.22111 35.18131
#
# Velocity S-wave (km/s) = 3.68094 4.01400 3.85107
# Velocity P-wave (km/s) = 6.08065 6.52783 6.30820
#
# Compressibility (1/GPa) = 0.02229430
#
# Stress axis : x y z
#
# Youngs Moduli (GPa) = 50.21211 77.31209 75.98593
#
# Poissons Ratio (x) = 0.49726 0.15958
# Poissons Ratio (y) = 0.32296 0.25274
# Poissons Ratio (z) = 0.10545 0.25715
#
# Static dielectric constant tensor:
#      x y z
#    x 1.930360 -0.016390 0.015530 
#    y -0.016390 1.925530 0.012740 
#    z 0.015530 0.012740 1.937630 
# 
# From -- ./inp_files/117182.got.cif
#   From: 2010.05.17/outbox.cif.g08.bks.cpg/sg2_59_cif.got.tgz:117182.got - 2010.06.03 11:33:40.
