data_PCOD9027332
_publ_section_title
;
Structure prediction by ZEFSAII (Michael W. Deem and Ramdas Pophale) SiO2 
 PCOD9027332
Probable space group: P -1
;
_chemical_formula_sum "Si O2"
_cell_formula_units_Z 14
_cell_length_a 7.594827
_cell_length_b 12.563113
_cell_length_c 7.338986
_cell_angle_alpha 103.547071
_cell_angle_beta 71.349189
_cell_angle_gamma 60.823109
_cell_volume 510.822667
_symmetry_space_group_name_H-M "P -1"
_symmetry_group_IT_number 2
_symmetry_cell_setting 'triclinic'
loop_
_space_group_symop_operation_xyz
x,y,z
-x,-y,-z
loop_
_atom_site_type_symbol
_atom_site_label
_atom_site_fract_x
_atom_site_fract_y
_atom_site_fract_z
Si Si1 0.386596 0.989944 0.851469
Si Si2 0.950909 0.497302 0.804158
Si Si3 0.182007 0.685957 0.316923
Si Si4 0.023230 0.045513 0.263480
Si Si5 0.470171 0.621020 0.853787
Si Si6 0.398135 0.890334 0.373176
Si Si7 0.588284 0.693816 0.526710
O O1 0.431902 0.070187 0.719150
O O2 0.309376 0.387217 0.139110
O O3 0.131385 0.043613 0.034258
O O4 0.500000 0.000000 0.000000
O O5 0.460907 0.261934 0.650311
O O6 0.172163 0.462763 0.605037
O O7 0.984151 0.356595 0.690971
O O8 0.000000 0.500000 0.000000
O O9 0.416820 0.540935 0.257637
O O10 0.066275 0.814755 0.539097
O O11 0.262772 0.695322 0.094703
O O12 0.813233 0.033258 0.371165
O O13 0.247142 0.925206 0.257245
O O14 0.407983 0.688636 0.704544
O O15 0.550206 0.827482 0.680730
#
# Coordination Sequence:
#
# PCOD9027332 Si02
#       7
#     2   2   2   2   2   2   2
#     4  10  23  42  65 101 131 176 226 274 342 400
#     4  10  22  41  67  96 130 175 223 276 336 390
#     4   9  21  45  70  94 138 177 222 284 338 404
#     4  10  22  45  71  97 134 185 223 279 349 399
#     4   9  23  43  69  93 136 183 220 274 347 398
#     4  10  24  41  66 100 137 176 229 279 338 409
#     4  12  24  42  66 100 139 170 226 284 336 413
#
# _framework density 27.406773999999999
#
# number of rings (size 3 to 8) (size 9 to 14) (size 15 to 20)
#    0.857    1.143    0.000    2.571    8.000    0.571 
#    5.143    1.429    3.143    0.000    0.000    0.000 
#    0.000    0.000    0.000    0.000    0.000    0.000 
#
# Total GULP energy -78117.584103 kJ/mol
# GULP energy per Si atom -5579.827436 kJ/mol
# Density = 2.734440 g / cm^3
# Si number density = 27.406774 Si / 1000 Ang^3
#
#
#
# Elastic Constant Matrix: (Units=GPa)
#
#
# Indices 1 2 3 4 5 6 
#
# 1 95.0679 14.0783 30.5899 0.0430 -25.4964 14.6034
# 2 14.0783 115.8514 56.4284 -20.2439 -0.1843 23.5784
# 3 30.5899 56.4284 171.6927 -20.1348 -22.8416 13.4980
# 4 0.0430 -20.2439 -20.1348 65.8058 9.0299 -9.3572
# 5 -25.4964 -0.1843 -22.8416 9.0299 55.7020 -6.7338
# 6 14.6034 23.5784 13.4980 -9.3572 -6.7338 46.1358
#
#
#
# Elastic Compliance Matrix: (Units=1/GPa)
#
#
# Indices 1 2 3 4 5 6 
#
# 1 0.012922 -0.000593 -0.001378 -0.001759 0.005273 -0.002971
# 2 -0.000593 0.011738 -0.003463 0.002235 -0.002586 -0.004722
# 3 -0.001378 -0.003463 0.007601 0.001011 0.002375 0.000534
# 4 -0.001759 0.002235 0.001011 0.016890 -0.002864 0.002126
# 5 0.005273 -0.002586 0.002375 -0.002864 0.021988 0.001586
# 6 -0.002971 -0.004722 0.000534 0.002126 0.001586 0.025535
#
#
# Mechanical properties :
#
#
# Convention : Reuss Voigt Hill
#
# Bulk Modulus (GPa) = 46.74761 64.97833 55.86297
# Shear Modulus (GPa) = 43.60267 52.29641 47.94954
#
# Velocity S-wave (km/s) = 3.99299 4.37298 4.18730
# Velocity P-wave (km/s) = 6.19295 7.01838 6.61854
#
# Compressibility (1/GPa) = 0.02139147
#
# Stress axis : x y z
#
# Youngs Moduli (GPa) = 77.39011 85.19357 131.56894
#
# Poissons Ratio (x) = 0.05054 0.18135
# Poissons Ratio (y) = 0.04591 0.45559
# Poissons Ratio (z) = 0.10667 0.29500
#
# Static dielectric constant tensor:
#      x y z
#    x 2.346400 -0.008970 -0.012520 
#    y -0.008970 2.126850 -0.023460 
#    z -0.012520 -0.023460 2.190830 
# 
# From -- ./inp_files/180037.got.cif
#   From: 2010.05.17/outbox.cif.g08.bks.cpg/sg2_91_cif.got.tgz:180037.got - 2010.06.03 11:33:40.
