data_PCOD9027694
_publ_section_title
;
Structure prediction by ZEFSAII (Michael W. Deem and Ramdas Pophale) SiO2 
 PCOD9027694
Probable space group: P -1
;
_chemical_formula_sum "Si O2"
_cell_formula_units_Z 14
_cell_length_a 18.024005
_cell_length_b 9.676707
_cell_length_c 5.487899
_cell_angle_alpha 115.808316
_cell_angle_beta 107.108749
_cell_angle_gamma 44.330854
_cell_volume 601.923145
_symmetry_space_group_name_H-M "P -1"
_symmetry_group_IT_number 2
_symmetry_cell_setting 'triclinic'
loop_
_space_group_symop_operation_xyz
x,y,z
-x,-y,-z
loop_
_atom_site_type_symbol
_atom_site_label
_atom_site_fract_x
_atom_site_fract_y
_atom_site_fract_z
Si Si1 0.120321 0.898369 0.571795
Si Si2 0.228736 0.636737 0.975251
Si Si3 0.501494 0.143986 0.290623
Si Si4 0.364166 0.089549 0.345240
Si Si5 0.524722 0.614442 0.945363
Si Si6 0.053354 0.312689 0.716823
Si Si7 0.154011 0.421645 0.564968
O O1 0.172244 0.773323 0.778809
O O2 0.112805 0.092100 0.725977
O O3 0.183546 0.763892 0.284257
O O4 0.000000 0.000000 0.500000
O O5 0.353508 0.504748 0.978065
O O6 0.203011 0.490576 0.827608
O O7 0.412665 0.194078 0.426283
O O8 0.613557 0.983757 0.409026
O O9 0.478762 0.343439 0.318635
O O10 0.500000 0.000000 0.000000
O O11 0.239903 0.265412 0.320189
O O12 0.432216 0.863219 0.112903
O O13 0.500000 0.500000 0.000000
O O14 0.128556 0.307530 0.609973
O O15 0.956620 0.379148 0.509158
O O16 0.000000 0.500000 0.000000
#
# Coordination Sequence:
#
# PCOD9027694 Si02
#       7
#     2   2   2   2   2   2   2
#     4  12  27  49  78 112 154 197 255 313 379 456
#     4  12  28  48  79 110 151 207 246 311 389 443
#     4   9  19  39  64  93 134 175 235 294 351 432
#     4  10  22  41  69 100 138 189 243 302 364 447
#     4  11  27  44  69 106 150 193 250 307 374 458
#     4  11  27  45  73 107 150 190 254 317 376 451
#     4  11  25  44  74 108 142 198 254 309 380 450
#
# _framework density 23.258783999999999
#
# number of rings (size 3 to 8) (size 9 to 14) (size 15 to 20)
#    0.000    1.143    1.429    3.857   10.000    4.000 
#    0.000    0.000    0.000    0.000    0.000    0.000 
#    0.000    0.000    0.000    0.000    0.000    0.000 
#
# Total GULP energy -78118.876545 kJ/mol
# GULP energy per Si atom -5579.919753 kJ/mol
# Density = 2.320585 g / cm^3
# Si number density = 23.258784 Si / 1000 Ang^3
#
#
#
# Elastic Constant Matrix: (Units=GPa)
#
#
# Indices 1 2 3 4 5 6 
#
# 1 141.6359 68.4703 14.2704 4.8188 -13.6919 2.4503
# 2 68.4703 123.2923 17.4033 -7.6004 -18.0040 29.6331
# 3 14.2704 17.4033 75.9952 8.5159 -18.9799 -3.3920
# 4 4.8188 -7.6004 8.5159 47.9543 -2.2347 -6.7475
# 5 -13.6919 -18.0040 -18.9799 -2.2347 24.5108 1.2186
# 6 2.4503 29.6331 -3.3920 -6.7475 1.2186 48.8723
#
#
#
# Elastic Compliance Matrix: (Units=1/GPa)
#
#
# Indices 1 2 3 4 5 6 
#
# 1 0.010240 -0.006446 0.000053 -0.001581 0.000725 0.003162
# 2 -0.006446 0.015183 -0.001084 0.002349 0.007365 -0.008818
# 3 0.000053 -0.001084 0.016687 -0.002421 0.011875 0.001182
# 4 -0.001581 0.002349 -0.002421 0.022069 0.000905 0.001511
# 5 0.000725 0.007365 0.011875 0.000905 0.056137 -0.004953
# 6 0.003162 -0.008818 0.001182 0.001511 -0.004953 0.026064
#
#
# Mechanical properties :
#
#
# Convention : Reuss Voigt Hill
#
# Bulk Modulus (GPa) = 36.82488 60.13460 48.47974
# Shear Modulus (GPa) = 29.34490 40.31946 34.83218
#
# Velocity S-wave (km/s) = 3.55585 4.16807 3.87407
# Velocity P-wave (km/s) = 5.72065 7.00531 6.39532
#
# Compressibility (1/GPa) = 0.02715556
#
# Stress axis : x y z
#
# Youngs Moduli (GPa) = 97.65200 65.86198 59.92711
#
# Poissons Ratio (x) = 0.42456 -0.00315
# Poissons Ratio (y) = 0.62948 0.06496
# Poissons Ratio (z) = -0.00514 0.07139
#
# Static dielectric constant tensor:
#      x y z
#    x -1.005810 -1.354300 -3.312110 
#    y -1.354300 1.232240 -1.577900 
#    z -3.312110 -1.577900 -1.289620 
# 
# From -- ./inp_files/105636.got.cif
#   From: 2010.05.17/outbox.cif.g08.bks.cpg/sg2_53_cif.got.tgz:105636.got - 2010.06.03 11:33:40.
