data_PCOD9027252
_publ_section_title
;
Structure prediction by ZEFSAII (Michael W. Deem and Ramdas Pophale) SiO2 
 PCOD9027252
Probable space group: P -1
;
_chemical_formula_sum "Si O2"
_cell_formula_units_Z 14
_cell_length_a 13.752362
_cell_length_b 8.460677
_cell_length_c 12.086611
_cell_angle_alpha 118.078145
_cell_angle_beta 146.894083
_cell_angle_gamma 62.791282
_cell_volume 671.907885
_symmetry_space_group_name_H-M "P -1"
_symmetry_group_IT_number 2
_symmetry_cell_setting 'triclinic'
loop_
_space_group_symop_operation_xyz
x,y,z
-x,-y,-z
loop_
_atom_site_type_symbol
_atom_site_label
_atom_site_fract_x
_atom_site_fract_y
_atom_site_fract_z
Si Si1 0.491584 0.845571 0.535625
Si Si2 0.827074 0.606977 0.680540
Si Si3 0.224318 0.771803 0.599441
Si Si4 0.040541 0.869569 0.889565
Si Si5 0.601135 0.787359 0.861251
Si Si6 0.786254 0.383195 0.875362
Si Si7 0.092652 0.987863 0.736911
O O1 0.644774 0.684653 0.591247
O O2 0.541784 0.890228 0.723337
O O3 0.306917 0.754438 0.334862
O O4 0.500000 0.000000 0.500000
O O5 0.817112 0.416717 0.552756
O O6 0.873603 0.755559 0.684831
O O7 0.000527 0.602497 0.926012
O O8 0.430024 0.789498 0.777149
O O9 0.166796 0.804995 0.682751
O O10 0.097130 0.928219 0.465490
O O11 0.074358 0.967071 0.842933
O O12 0.207977 0.721407 0.035149
O O13 0.000000 0.000000 0.000000
O O14 0.676576 0.579601 0.836673
O O15 0.761408 0.876150 0.098550
#
# Coordination Sequence:
#
# PCOD9027252 Si02
#       7
#     2   2   2   2   2   2   2
#     4  12  25  39  65  99 130 167 213 264 325 379
#     4  10  23  41  63  92 131 167 207 264 315 382
#     4  11  25  43  67  90 128 178 215 255 318 381
#     4  10  22  41  67  93 130 164 207 271 319 370
#     4  12  24  41  66  93 129 166 217 266 314 384
#     4  10  23  40  60  96 131 161 210 258 326 379
#     4  11  24  45  65  93 128 171 218 263 312 379
#
# _framework density 20.836190999999999
#
# number of rings (size 3 to 8) (size 9 to 14) (size 15 to 20)
#    0.857    0.286    2.857    3.429    4.000    1.143 
#    0.000    0.714    0.000    0.000    0.000    0.000 
#    0.000    0.000    0.000    0.000    0.000    0.000 
#
# Total GULP energy -78117.526212 kJ/mol
# GULP energy per Si atom -5579.823301 kJ/mol
# Density = 2.078877 g / cm^3
# Si number density = 20.836191 Si / 1000 Ang^3
#
#
#
# Elastic Constant Matrix: (Units=GPa)
#
#
# Indices 1 2 3 4 5 6 
#
# 1 84.7663 44.9620 26.1269 -0.5053 -5.2036 -8.5113
# 2 44.9620 77.4087 8.3979 -3.4114 2.0799 -9.5043
# 3 26.1269 8.3979 66.4053 -7.1501 14.1758 -1.7521
# 4 -0.5053 -3.4114 -7.1501 26.6374 1.9181 3.4124
# 5 -5.2036 2.0799 14.1758 1.9181 27.5277 3.4364
# 6 -8.5113 -9.5043 -1.7521 3.4124 3.4364 21.5673
#
#
#
# Elastic Compliance Matrix: (Units=1/GPa)
#
#
# Indices 1 2 3 4 5 6 
#
# 1 0.021892 -0.011929 -0.009733 -0.004676 0.010164 0.001712
# 2 -0.011929 0.020367 0.004050 0.003295 -0.006752 0.005151
# 3 -0.009733 0.004050 0.022204 0.007205 -0.014191 0.000869
# 4 -0.004676 0.003295 0.007205 0.040978 -0.007053 -0.005168
# 5 0.010164 -0.006752 -0.014191 -0.007053 0.047375 -0.006550
# 6 0.001712 0.005151 0.000869 -0.005168 -0.006550 0.051244
#
#
# Mechanical properties :
#
#
# Convention : Reuss Voigt Hill
#
# Bulk Modulus (GPa) = 34.20025 43.06154 38.63089
# Shear Modulus (GPa) = 20.07771 25.08604 22.58187
#
# Velocity S-wave (km/s) = 3.10755 3.47358 3.29565
# Velocity P-wave (km/s) = 5.41529 6.06624 5.74998
#
# Compressibility (1/GPa) = 0.02923955
#
# Stress axis : x y z
#
# Youngs Moduli (GPa) = 45.67777 49.09893 45.03636
#
# Poissons Ratio (x) = 0.58570 0.43834
# Poissons Ratio (y) = 0.54489 -0.18239
# Poissons Ratio (z) = 0.44458 -0.19884
#
# Static dielectric constant tensor:
#      x y z
#    x 1.767670 0.026150 0.011490 
#    y 0.026150 1.770360 -0.012530 
#    z 0.011490 -0.012530 1.797030 
# 
# From -- ./inp_files/268076.got.cif
#   From: 2010.05.17/outbox.cif.g08.bks.cpg/sg2_135_cif.got.tgz:268076.got - 2010.06.03 11:33:40.
