data_PCOD9027255
_publ_section_title
;
Structure prediction by ZEFSAII (Michael W. Deem and Ramdas Pophale) SiO2 
 PCOD9027255
Probable space group: P -1
;
_chemical_formula_sum "Si O2"
_cell_formula_units_Z 16
_cell_length_a 16.565469
_cell_length_b 17.176334
_cell_length_c 6.665079
_cell_angle_alpha 110.411775
_cell_angle_beta 71.993042
_cell_angle_gamma 158.168240
_cell_volume 660.389125
_symmetry_space_group_name_H-M "P -1"
_symmetry_group_IT_number 2
_symmetry_cell_setting 'triclinic'
loop_
_space_group_symop_operation_xyz
x,y,z
-x,-y,-z
loop_
_atom_site_type_symbol
_atom_site_label
_atom_site_fract_x
_atom_site_fract_y
_atom_site_fract_z
Si Si1 0.581948 0.972949 0.135588
Si Si2 0.676609 0.340143 0.593494
Si Si3 0.716141 0.582275 0.324385
Si Si4 0.018004 0.267169 0.019257
Si Si5 0.797927 0.337878 0.157896
Si Si6 0.630916 0.693165 0.979667
Si Si7 0.398800 0.234296 0.547394
Si Si8 0.055691 0.972419 0.239688
O O1 0.457927 0.843098 0.322668
O O2 0.775203 0.081828 0.050781
O O3 0.703405 0.169951 0.185295
O O4 0.394386 0.800213 0.957771
O O5 0.830002 0.430892 0.398797
O O6 0.497168 0.233137 0.518017
O O7 0.824251 0.534365 0.790321
O O8 0.533975 0.410090 0.138423
O O9 0.603938 0.472515 0.522966
O O10 0.834543 0.777108 0.362472
O O11 0.878578 0.652124 0.211318
O O12 0.008392 0.160664 0.982720
O O13 0.000000 0.500000 0.000000
O O14 0.836310 0.861670 0.830925
O O15 0.500000 0.500000 0.000000
O O16 0.687146 0.803784 0.217825
O O17 0.221942 0.083767 0.374156
#
# Coordination Sequence:
#
# PCOD9027255 Si02
#       8
#     2   2   2   2   2   2   2   2
#     4  11  25  44  65  95 134 167 218 262 328 377
#     4  12  25  41  71  95 129 172 218 264 324 383
#     4   9  23  41  61  96 134 160 217 267 313 381
#     4  10  22  41  67  93 131 165 213 277 310 372
#     4  11  27  46  67  94 133 172 213 267 327 385
#     4  11  23  43  66  96 135 171 211 267 322 382
#     4  11  22  40  69  96 124 176 216 260 324 382
#     4   9  22  41  63  95 133 162 217 265 314 383
#
# _framework density 24.228141000000001
#
# number of rings (size 3 to 8) (size 9 to 14) (size 15 to 20)
#    0.750    0.750    1.250    2.625    5.250    9.500 
#    0.000    1.250    0.000    0.000    0.000    0.000 
#    0.000    0.000    0.000    0.000    0.000    0.000 
#
# Total GULP energy -89342.323907 kJ/mol
# GULP energy per Si atom -5583.895244 kJ/mol
# Density = 2.417300 g / cm^3
# Si number density = 24.228141 Si / 1000 Ang^3
#
#
#
# Elastic Constant Matrix: (Units=GPa)
#
#
# Indices 1 2 3 4 5 6 
#
# 1 65.6744 29.3232 38.7254 -12.8668 7.8060 2.0679
# 2 29.3232 123.2840 69.4031 -23.4032 7.4924 -10.1579
# 3 38.7254 69.4031 132.2370 -32.9237 -16.5598 -9.2191
# 4 -12.8668 -23.4032 -32.9237 37.3764 -3.7337 6.0096
# 5 7.8060 7.4924 -16.5598 -3.7337 38.4592 -7.6235
# 6 2.0679 -10.1579 -9.2191 6.0096 -7.6235 45.4557
#
#
#
# Elastic Compliance Matrix: (Units=1/GPa)
#
#
# Indices 1 2 3 4 5 6 
#
# 1 0.020697 -0.000926 -0.006661 0.000537 -0.007599 -0.003845
# 2 -0.000926 0.012640 -0.006653 0.001157 -0.004920 0.000539
# 3 -0.006661 -0.006653 0.016901 0.009092 0.011393 0.002953
# 4 0.000537 0.001157 0.009092 0.036614 0.006814 -0.001620
# 5 -0.007599 -0.004920 0.011393 0.006814 0.035376 0.006589
# 6 -0.003845 0.000539 0.002953 -0.001620 0.006589 0.024213
#
#
# Mechanical properties :
#
#
# Convention : Reuss Voigt Hill
#
# Bulk Modulus (GPa) = 45.96115 66.23320 56.09718
# Shear Modulus (GPa) = 27.44613 36.50784 31.97698
#
# Velocity S-wave (km/s) = 3.36939 3.88601 3.63689
# Velocity P-wave (km/s) = 5.84366 6.89430 6.39061
#
# Compressibility (1/GPa) = 0.02175750
#
# Stress axis : x y z
#
# Youngs Moduli (GPa) = 48.31559 79.11252 59.16753
#
# Poissons Ratio (x) = 0.07326 0.39412
# Poissons Ratio (y) = 0.04474 0.39366
# Poissons Ratio (z) = 0.32183 0.52637
#
# Static dielectric constant tensor:
#      x y z
#    x 1.979300 -0.013090 -0.026450 
#    y -0.013090 2.011110 -0.003870 
#    z -0.026450 -0.003870 1.896840 
# 
# From -- ./inp_files/120436.got.cif
#   From: 2010.05.17/outbox.cif.g08.bks.cpg/sg2_61_cif.got.tgz:120436.got - 2010.06.03 11:33:40.
