data_PCOD9027407
_publ_section_title
;
Structure prediction by ZEFSAII (Michael W. Deem and Ramdas Pophale) SiO2 
 PCOD9027407
Probable space group: P -1
;
_chemical_formula_sum "Si O2"
_cell_formula_units_Z 16
_cell_length_a 13.160188
_cell_length_b 8.147116
_cell_length_c 9.585936
_cell_angle_alpha 102.505576
_cell_angle_beta 135.387237
_cell_angle_gamma 90.557065
_cell_volume 684.275574
_symmetry_space_group_name_H-M "P -1"
_symmetry_group_IT_number 2
_symmetry_cell_setting 'triclinic'
loop_
_space_group_symop_operation_xyz
x,y,z
-x,-y,-z
loop_
_atom_site_type_symbol
_atom_site_label
_atom_site_fract_x
_atom_site_fract_y
_atom_site_fract_z
Si Si1 0.588757 0.893618 0.367599
Si Si2 0.417124 0.493215 0.770450
Si Si3 0.207703 0.013788 0.665549
Si Si4 0.888901 0.395836 0.484015
Si Si5 0.607827 0.626647 0.733085
Si Si6 0.296642 0.979924 0.208987
Si Si7 0.937685 0.977465 0.199590
Si Si8 0.067431 0.394378 0.935883
O O1 0.603124 0.697038 0.350376
O O2 0.686792 0.015261 0.605858
O O3 0.642641 0.951652 0.273632
O O4 0.420124 0.895613 0.243257
O O5 0.258544 0.534678 0.640329
O O6 0.518465 0.626474 0.788328
O O7 0.500000 0.500000 0.000000
O O8 0.160937 0.811126 0.620810
O O9 0.087149 0.059983 0.447141
O O10 0.181972 0.095549 0.804857
O O11 0.000000 0.500000 0.500000
O O12 0.985647 0.422814 0.721812
O O13 0.500000 0.500000 0.500000
O O14 0.654149 0.816869 0.747267
O O15 0.754162 0.553834 0.885477
O O16 0.137797 0.916674 0.964283
O O17 0.968654 0.813299 0.118136
O O18 0.000000 0.500000 0.000000
#
# Coordination Sequence:
#
# PCOD9027407 Si02
#       8
#     2   2   2   2   2   2   2   2
#     4  11  25  42  65  96 134 167 222 266 323 390
#     4  12  27  41  66 100 131 177 220 271 330 388
#     4  10  23  44  67  95 129 170 215 271 325 388
#     4  11  25  45  68  96 133 171 220 272 328 396
#     4  11  21  43  68  95 134 171 220 269 326 389
#     4  10  23  44  66  94 129 174 215 268 321 389
#     4   9  22  41  68  92 125 173 214 262 328 381
#     4  10  22  41  67  99 130 173 217 269 328 389
#
# _framework density 23.382391999999999
#
# number of rings (size 3 to 8) (size 9 to 14) (size 15 to 20)
#    0.000    1.500    1.250    2.250   12.250    2.000 
#    0.000    0.000    0.000    0.000    0.000    0.000 
#    0.000    0.000    0.000    0.000    0.000    0.000 
#
# Total GULP energy -89497.485599 kJ/mol
# GULP energy per Si atom -5593.592850 kJ/mol
# Density = 2.332917 g / cm^3
# Si number density = 23.382392 Si / 1000 Ang^3
#
#
#
# Elastic Constant Matrix: (Units=GPa)
#
#
# Indices 1 2 3 4 5 6 
#
# 1 137.5222 39.4597 9.6869 -7.7183 14.1936 -27.0335
# 2 39.4597 71.2572 6.0035 -4.4686 12.5193 -20.1813
# 3 9.6869 6.0035 85.2750 -20.7757 29.2175 -30.7350
# 4 -7.7183 -4.4686 -20.7757 32.2319 -10.8112 7.0524
# 5 14.1936 12.5193 29.2175 -10.8112 37.6249 -8.0025
# 6 -27.0335 -20.1813 -30.7350 7.0524 -8.0025 48.4845
#
#
#
# Elastic Compliance Matrix: (Units=1/GPa)
#
#
# Indices 1 2 3 4 5 6 
#
# 1 0.009349 -0.003585 0.001920 0.001168 -0.002565 0.004344
# 2 -0.003585 0.018893 0.004025 0.000640 -0.006327 0.007279
# 3 0.001920 0.004025 0.023277 0.007989 -0.014891 0.013881
# 4 0.001168 0.000640 0.007989 0.037700 0.004230 0.001197
# 5 -0.002565 -0.006327 -0.014891 0.004230 0.040862 -0.007374
# 6 0.004344 0.007279 0.013881 0.001197 -0.007374 0.033486
#
#
# Mechanical properties :
#
#
# Convention : Reuss Voigt Hill
#
# Bulk Modulus (GPa) = 17.78155 44.92827 31.35491
# Shear Modulus (GPa) = 28.15417 39.59520 33.87469
#
# Velocity S-wave (km/s) = 3.47374 4.11953 3.81034
# Velocity P-wave (km/s) = 4.86933 6.47176 5.72687
#
# Compressibility (1/GPa) = 0.05623808
#
# Stress axis : x y z
#
# Youngs Moduli (GPa) = 106.96113 52.92954 42.96096
#
# Poissons Ratio (x) = 0.18973 -0.08247
# Poissons Ratio (y) = 0.38342 -0.17290
# Poissons Ratio (z) = -0.20532 -0.21302
#
# Static dielectric constant tensor:
#      x y z
#    x 1.902570 -0.008410 -0.001400 
#    y -0.008410 1.910860 0.039880 
#    z -0.001400 0.039880 1.904330 
# 
# From -- ./inp_files/244792.got.cif
#   From: 2010.05.17/outbox.cif.g08.bks.cpg/sg2_123_cif.got.tgz:244792.got - 2010.06.03 11:33:40.
