data_PCOD9027352
_publ_section_title
;
Structure prediction by ZEFSAII (Michael W. Deem and Ramdas Pophale) SiO2 
 PCOD9027352
Probable space group: P -1
;
_chemical_formula_sum "Si O2"
_cell_formula_units_Z 16
_cell_length_a 9.315954
_cell_length_b 9.875469
_cell_length_c 7.530570
_cell_angle_alpha 87.702337
_cell_angle_beta 94.514781
_cell_angle_gamma 113.344815
_cell_volume 634.088767
_symmetry_space_group_name_H-M "P -1"
_symmetry_group_IT_number 2
_symmetry_cell_setting 'triclinic'
loop_
_space_group_symop_operation_xyz
x,y,z
-x,-y,-z
loop_
_atom_site_type_symbol
_atom_site_label
_atom_site_fract_x
_atom_site_fract_y
_atom_site_fract_z
Si Si1 0.106217 0.358430 0.599092
Si Si2 0.300904 0.291674 0.917461
Si Si3 0.639623 0.383205 0.991184
Si Si4 0.413819 0.850381 0.761415
Si Si5 0.219482 0.051225 0.211664
Si Si6 0.872374 0.164316 0.070030
Si Si7 0.086450 0.481516 0.235882
Si Si8 0.835217 0.069163 0.436711
O O1 0.215043 0.302308 0.729261
O O2 0.036898 0.453728 0.708692
O O3 0.171088 0.449841 0.419164
O O4 0.960301 0.219833 0.517289
O O5 0.338852 0.447955 0.006861
O O6 0.213583 0.172117 0.066103
O O7 0.469591 0.284851 0.898434
O O8 0.628080 0.323189 0.196314
O O9 0.786088 0.399589 0.882040
O O10 0.312326 0.865028 0.920512
O O11 0.324465 0.900936 0.599076
O O12 0.598332 0.927433 0.770109
O O13 0.115602 0.896302 0.116880
O O14 0.180185 0.054290 0.414627
O O15 0.989254 0.327618 0.131303
O O16 0.882573 0.057637 0.238378
#
# Coordination Sequence:
#
# PCOD9027352 Si02
#       8
#     2   2   2   2   2   2   2   2
#     4  10  22  42  63  97 130 161 219 270 320 377
#     4  10  24  41  63  93 133 170 206 263 320 401
#     4  10  22  42  65  94 129 166 213 265 330 371
#     4   9  20  39  63  93 125 160 219 274 306 373
#     4  11  21  41  62  89 132 179 203 256 331 383
#     4   9  21  38  59  98 122 165 216 268 307 381
#     4  10  22  41  67  97 124 167 216 275 316 373
#     4   9  22  38  61  97 124 167 216 269 313 375
#
# _framework density 25.233059000000001
#
# number of rings (size 3 to 8) (size 9 to 14) (size 15 to 20)
#    0.750    1.500    0.000    1.500    5.250    2.000 
#    2.250    1.250    0.000    0.000    0.000    0.000 
#    0.000    0.000    0.000    0.000    0.000    0.000 
#
# Total GULP energy -89347.140122 kJ/mol
# GULP energy per Si atom -5584.196258 kJ/mol
# Density = 2.517563 g / cm^3
# Si number density = 25.233059 Si / 1000 Ang^3
#
#
#
# Elastic Constant Matrix: (Units=GPa)
#
#
# Indices 1 2 3 4 5 6 
#
# 1 79.0864 9.4218 45.7462 0.7484 14.3815 12.4319
# 2 9.4218 74.0602 43.4981 -12.0099 -9.7050 4.2602
# 3 45.7462 43.4981 170.1270 -36.3402 5.9803 13.2748
# 4 0.7484 -12.0099 -36.3402 42.7798 -2.8200 -2.2576
# 5 14.3815 -9.7050 5.9803 -2.8200 51.4124 -7.4344
# 6 12.4319 4.2602 13.2748 -2.2576 -7.4344 28.7524
#
#
#
# Elastic Compliance Matrix: (Units=1/GPa)
#
#
# Indices 1 2 3 4 5 6 
#
# 1 0.017921 -0.000542 -0.005095 -0.005565 -0.005880 -0.007273
# 2 -0.000542 0.016633 -0.003959 0.001616 0.003948 0.000745
# 3 -0.005095 -0.003959 0.009936 0.007333 -0.000262 -0.001290
# 4 -0.005565 0.001616 0.007333 0.030453 0.002959 0.001938
# 5 -0.005880 0.003948 -0.000262 0.002959 0.023236 0.008319
# 6 -0.007273 0.000745 -0.001290 0.001938 0.008319 0.040713
#
#
# Mechanical properties :
#
#
# Convention : Reuss Voigt Hill
#
# Bulk Modulus (GPa) = 39.52677 57.84509 48.68593
# Shear Modulus (GPa) = 30.02683 39.56274 34.79479
#
# Velocity S-wave (km/s) = 3.45335 3.96396 3.71743
# Velocity P-wave (km/s) = 5.62135 6.62757 6.14509
#
# Compressibility (1/GPa) = 0.02529931
#
# Stress axis : x y z
#
# Youngs Moduli (GPa) = 55.79985 60.12076 100.64016
#
# Poissons Ratio (x) = 0.03259 0.51274
# Poissons Ratio (y) = 0.03025 0.39842
# Poissons Ratio (z) = 0.28429 0.23801
#
# Static dielectric constant tensor:
#      x y z
#    x 2.121250 -0.073000 0.062490 
#    y -0.073000 2.054560 -0.068090 
#    z 0.062490 -0.068090 1.981270 
# 
# From -- ./inp_files/268864.got.cif
#   From: 2010.05.17/outbox.cif.g08.bks.cpg/sg2_135_cif.got.tgz:268864.got - 2010.06.03 11:33:40.
