data_PCOD9027723
_publ_section_title
;
Structure prediction by ZEFSAII (Michael W. Deem and Ramdas Pophale) SiO2 
 PCOD9027723
Probable space group: P -1
;
_chemical_formula_sum "Si O2"
_cell_formula_units_Z 16
_cell_length_a 15.508790
_cell_length_b 8.705275
_cell_length_c 21.892489
_cell_angle_alpha 136.162564
_cell_angle_beta 20.671436
_cell_angle_gamma 135.225127
_cell_volume 715.210417
_symmetry_space_group_name_H-M "P -1"
_symmetry_group_IT_number 2
_symmetry_cell_setting 'triclinic'
loop_
_space_group_symop_operation_xyz
x,y,z
-x,-y,-z
loop_
_atom_site_type_symbol
_atom_site_label
_atom_site_fract_x
_atom_site_fract_y
_atom_site_fract_z
Si Si1 0.239560 0.853090 0.142001
Si Si2 0.684288 0.611800 0.301847
Si Si3 0.279638 0.652389 0.191648
Si Si4 0.380230 0.468156 0.867039
Si Si5 0.982046 0.197207 0.971525
Si Si6 0.466895 0.129845 0.804777
Si Si7 0.260027 0.039219 0.534622
Si Si8 0.253834 0.592157 0.489282
O O1 0.233422 0.747982 0.183115
O O2 0.226961 0.659410 0.043619
O O3 0.014468 0.986756 0.317704
O O4 0.500000 0.000000 0.000000
O O5 0.791591 0.378051 0.156778
O O6 0.417025 0.598818 0.444101
O O7 0.679928 0.725984 0.402925
O O8 0.877716 0.773213 0.177275
O O9 0.374579 0.849896 0.233226
O O10 0.025654 0.512989 0.344108
O O11 0.500000 0.500000 0.000000
O O12 0.490686 0.373044 0.827170
O O13 0.597929 0.542835 0.696309
O O14 0.194527 0.269477 0.901168
O O15 0.818093 0.958765 0.018243
O O16 0.563300 0.980354 0.645305
O O17 0.275352 0.837477 0.514242
#
# Coordination Sequence:
#
# PCOD9027723 Si02
#       8
#     2   2   2   2   2   2   2   2
#     4  12  27  43  71  99 138 181 226 280 339 406
#     4  10  22  42  70 100 134 181 223 280 337 395
#     4  12  27  47  68 100 133 181 228 279 342 403
#     4  10  22  47  68 102 135 183 220 278 341 398
#     4  10  22  41  69 102 137 175 229 278 332 399
#     4  11  26  42  69  98 138 179 229 277 337 403
#     4  11  25  44  67 105 135 180 225 280 339 397
#     4  10  25  44  73  98 139 176 226 278 336 407
#
# _framework density 22.371039
#
# number of rings (size 3 to 8) (size 9 to 14) (size 15 to 20)
#    0.000    1.250    2.500    1.500    7.000    3.000 
#    0.000    0.000    0.000    0.000    0.000    0.000 
#    0.000    0.000    0.000    0.000    0.000    0.000 
#
# Total GULP energy -89508.796854 kJ/mol
# GULP energy per Si atom -5594.299803 kJ/mol
# Density = 2.232012 g / cm^3
# Si number density = 22.371039 Si / 1000 Ang^3
#
#
#
# Elastic Constant Matrix: (Units=GPa)
#
#
# Indices 1 2 3 4 5 6 
#
# 1 92.6752 16.2219 38.0125 0.7255 -9.1919 8.1627
# 2 16.2219 30.4763 26.6578 -20.0110 10.2161 6.9402
# 3 38.0125 26.6578 109.8924 -19.1387 -11.3942 5.7227
# 4 0.7255 -20.0110 -19.1387 43.5808 1.9877 -2.6101
# 5 -9.1919 10.2161 -11.3942 1.9877 38.9987 9.0135
# 6 8.1627 6.9402 5.7227 -2.6101 9.0135 25.8945
#
#
#
# Elastic Compliance Matrix: (Units=1/GPa)
#
#
# Indices 1 2 3 4 5 6 
#
# 1 0.015196 -0.012379 -0.002596 -0.007672 0.007442 -0.004262
# 2 -0.012379 0.083781 -0.013111 0.034183 -0.030032 -0.001756
# 3 -0.002596 -0.013111 0.013948 -0.000257 0.007208 -0.001285
# 4 -0.007672 0.034183 -0.000257 0.039376 -0.013286 0.001907
# 5 0.007442 -0.030032 0.007208 -0.013286 0.040678 -0.011389
# 6 -0.004262 -0.001756 -0.001285 0.001907 -0.011389 0.044873
#
#
# Mechanical properties :
#
#
# Convention : Reuss Voigt Hill
#
# Bulk Modulus (GPa) = 17.62023 43.86981 30.74502
# Shear Modulus (GPa) = 15.97741 31.83824 23.90782
#
# Velocity S-wave (km/s) = 2.67535 3.77661 3.27264
# Velocity P-wave (km/s) = 4.17574 6.21850 5.29653
#
# Compressibility (1/GPa) = 0.05675295
#
# Stress axis : x y z
#
# Youngs Moduli (GPa) = 65.80869 11.93581 71.69684
#
# Poissons Ratio (x) = 0.14775 0.18611
# Poissons Ratio (y) = 0.81465 0.94001
# Poissons Ratio (z) = 0.17083 0.15649
#
# Static dielectric constant tensor:
#      x y z
#    x 1.822670 0.008050 0.019940 
#    y 0.008050 1.843950 0.030900 
#    z 0.019940 0.030900 1.792240 
# 
# From -- ./inp_files/299442.got.cif
#   From: 2010.05.17/outbox.cif.g08.bks.cpg/sg2_150_cif.got.tgz:299442.got - 2010.06.03 11:33:40.
