data_PCOD9027506
_publ_section_title
;
Structure prediction by ZEFSAII (Michael W. Deem and Ramdas Pophale) SiO2 
 PCOD9027506
Probable space group: P -1
;
_chemical_formula_sum "Si O2"
_cell_formula_units_Z 16
_cell_length_a 13.354095
_cell_length_b 9.402982
_cell_length_c 7.614026
_cell_angle_alpha 71.150461
_cell_angle_beta 46.397229
_cell_angle_gamma 68.584139
_cell_volume 640.920520
_symmetry_space_group_name_H-M "P -1"
_symmetry_group_IT_number 2
_symmetry_cell_setting 'triclinic'
loop_
_space_group_symop_operation_xyz
x,y,z
-x,-y,-z
loop_
_atom_site_type_symbol
_atom_site_label
_atom_site_fract_x
_atom_site_fract_y
_atom_site_fract_z
Si Si1 0.681830 0.685136 0.484313
Si Si2 0.672284 0.210965 0.543267
Si Si3 0.563882 0.239956 0.036093
Si Si4 0.032019 0.359234 0.649449
Si Si5 0.757412 0.475870 0.137703
Si Si6 0.249418 0.053960 0.919422
Si Si7 0.034201 0.018064 0.657404
Si Si8 0.623534 0.780118 0.021882
O O1 0.537272 0.651031 0.751527
O O2 0.808702 0.654910 0.478669
O O3 0.735784 0.579616 0.295206
O O4 0.677287 0.857238 0.348109
O O5 0.691798 0.332374 0.325532
O O6 0.519267 0.174318 0.707648
O O7 0.810128 0.076399 0.443232
O O8 0.647520 0.280754 0.746914
O O9 0.669785 0.117646 0.070036
O O10 0.441111 0.170431 0.109784
O O11 0.015430 0.196777 0.655325
O O12 0.000000 0.500000 0.500000
O O13 0.918804 0.409288 0.920661
O O14 0.680007 0.596383 0.037315
O O15 0.262482 0.139680 0.057121
O O16 0.087656 0.053030 0.070682
O O17 0.000000 0.000000 0.500000
#
# Coordination Sequence:
#
# PCOD9027506 Si02
#       8
#     2   2   2   2   2   2   2   2
#     4  11  26  42  73 106 152 196 250 301 370 440
#     4  10  24  43  76 106 155 185 253 299 373 427
#     4  10  22  41  68 111 141 200 245 299 362 437
#     4  12  30  49  78 106 149 200 248 300 381 447
#     4  11  24  48  70 109 150 200 244 314 359 440
#     4  11  23  44  70 108 150 192 249 305 367 435
#     4  12  27  47  75 112 143 188 249 313 365 434
#     4   9  22  43  74 105 146 197 245 296 371 437
#
# _framework density 24.964092000000001
#
# number of rings (size 3 to 8) (size 9 to 14) (size 15 to 20)
#    0.750    0.500    1.250    3.000    8.750    2.500 
#    6.750    0.000    0.000    0.000    0.000    0.000 
#    0.000    0.000    0.000    0.000    0.000    0.000 
#
# Total GULP energy -89473.342755 kJ/mol
# GULP energy per Si atom -5592.083922 kJ/mol
# Density = 2.490727 g / cm^3
# Si number density = 24.964092 Si / 1000 Ang^3
#
#
#
# Elastic Constant Matrix: (Units=GPa)
#
#
# Indices 1 2 3 4 5 6 
#
# 1 84.3262 27.0801 14.9965 -0.8247 -13.3869 -23.0942
# 2 27.0801 111.2067 42.7657 9.6072 -13.1578 -17.0066
# 3 14.9965 42.7657 129.4512 21.8927 -11.0670 -8.5414
# 4 -0.8247 9.6072 21.8927 38.7153 -7.6224 0.9450
# 5 -13.3869 -13.1578 -11.0670 -7.6224 33.1841 11.4274
# 6 -23.0942 -17.0066 -8.5414 0.9450 11.4274 32.0764
#
#
#
# Elastic Compliance Matrix: (Units=1/GPa)
#
#
# Indices 1 2 3 4 5 6 
#
# 1 0.015476 -0.002003 -0.000564 0.001415 0.002486 0.009003
# 2 -0.002003 0.011401 -0.003035 -0.000977 0.001321 0.003352
# 3 -0.000564 -0.003035 0.009654 -0.004621 0.000558 0.000493
# 4 0.001415 -0.000977 -0.004621 0.030192 0.006993 -0.004110
# 5 0.002486 0.001321 0.000558 0.006993 0.037177 -0.010812
# 6 0.009003 0.003352 0.000493 -0.004110 -0.010812 0.043539
#
#
# Mechanical properties :
#
#
# Convention : Reuss Voigt Hill
#
# Bulk Modulus (GPa) = 39.48249 54.96318 47.22283
# Shear Modulus (GPa) = 29.92467 36.80461 33.36464
#
# Velocity S-wave (km/s) = 3.46599 3.84383 3.65979
# Velocity P-wave (km/s) = 5.64513 6.46256 6.06763
#
# Compressibility (1/GPa) = 0.02532768
#
# Stress axis : x y z
#
# Youngs Moduli (GPa) = 64.61441 87.71519 103.57875
#
# Poissons Ratio (x) = 0.17571 0.05841
# Poissons Ratio (y) = 0.12943 0.31434
# Poissons Ratio (z) = 0.03644 0.26620
#
# Static dielectric constant tensor:
#      x y z
#    x 1.946340 0.046320 0.040530 
#    y 0.046320 2.017590 0.011540 
#    z 0.040530 0.011540 2.036610 
# 
# From -- ./inp_files/297753.got.cif
#   From: 2010.05.17/outbox.cif.g08.bks.cpg/sg2_149_cif.got.tgz:297753.got - 2010.06.03 11:33:40.
