data_PCOD9027283
_publ_section_title
;
Structure prediction by ZEFSAII (Michael W. Deem and Ramdas Pophale) SiO2 
 PCOD9027283
Probable space group: P -1
;
_chemical_formula_sum "Si O2"
_cell_formula_units_Z 14
_cell_length_a 11.828130
_cell_length_b 7.266022
_cell_length_c 9.439407
_cell_angle_alpha 105.054952
_cell_angle_beta 52.730019
_cell_angle_gamma 126.337462
_cell_volume 513.799549
_symmetry_space_group_name_H-M "P -1"
_symmetry_group_IT_number 2
_symmetry_cell_setting 'triclinic'
loop_
_space_group_symop_operation_xyz
x,y,z
-x,-y,-z
loop_
_atom_site_type_symbol
_atom_site_label
_atom_site_fract_x
_atom_site_fract_y
_atom_site_fract_z
Si Si1 0.698048 0.965570 0.459517
Si Si2 0.828703 0.925749 0.908142
Si Si3 0.489955 0.186556 0.725731
Si Si4 0.686527 0.421948 0.035740
Si Si5 0.114215 0.420174 0.824235
Si Si6 0.323536 0.274752 0.294327
Si Si7 0.991706 0.464260 0.332763
O O1 0.601332 0.079567 0.618188
O O2 0.889977 0.190103 0.327132
O O3 0.594681 0.841088 0.370449
O O4 0.707732 0.807620 0.536815
O O5 0.826743 0.887542 0.733674
O O6 0.006487 0.146986 0.870249
O O7 0.675579 0.954919 0.075018
O O8 0.761545 0.683227 0.982762
O O9 0.607865 0.458517 0.726964
O O10 0.487451 0.269469 0.122416
O O11 0.712796 0.441441 0.189557
O O12 0.815918 0.382664 0.846476
O O13 0.117389 0.470998 0.666690
O O14 0.000000 0.500000 0.000000
O O15 0.000000 0.500000 0.500000
#
# Coordination Sequence:
#
# PCOD9027283 Si02
#       7
#     2   2   2   2   2   2   2
#     4  11  25  42  68  97 138 179 217 277 338 399
#     4  11  23  44  69 101 131 174 227 280 331 395
#     4  10  23  42  68  97 136 171 229 274 332 397
#     4  10  23  43  69  95 131 177 221 278 327 402
#     4  10  22  41  67  94 132 174 223 263 331 405
#     4  11  25  44  72 101 134 176 229 280 333 393
#     4  11  25  42  63  99 137 172 221 274 339 398
#
# _framework density 27.247978
#
# number of rings (size 3 to 8) (size 9 to 14) (size 15 to 20)
#    0.000    1.429    0.000    5.143   12.000    1.714 
#    2.571    1.429    0.000    0.000    0.000    0.000 
#    0.000    0.000    0.000    0.000    0.000    0.000 
#
# Total GULP energy -78554.040917 kJ/mol
# GULP energy per Si atom -5611.002923 kJ/mol
# Density = 2.718596 g / cm^3
# Si number density = 27.247978 Si / 1000 Ang^3
#
#
#
# Elastic Constant Matrix: (Units=GPa)
#
#
# Indices 1 2 3 4 5 6 
#
# 1 97.3980 20.7940 31.8735 15.2570 26.5808 8.0361
# 2 20.7940 97.2333 9.8125 0.7482 22.0636 2.6285
# 3 31.8735 9.8125 109.0347 1.4776 10.5182 1.8083
# 4 15.2570 0.7482 1.4776 42.1979 4.8862 11.4991
# 5 26.5808 22.0636 10.5182 4.8862 60.2457 2.8157
# 6 8.0361 2.6285 1.8083 11.4991 2.8157 42.8668
#
#
#
# Elastic Compliance Matrix: (Units=1/GPa)
#
#
# Indices 1 2 3 4 5 6 
#
# 1 0.013614 -0.001495 -0.003340 -0.003998 -0.004507 -0.000951
# 2 -0.001495 0.011437 -0.000256 0.000868 -0.003535 -0.000411
# 3 -0.003340 -0.000256 0.010186 0.000891 -0.000283 -0.000008
# 4 -0.003998 0.000868 0.000891 0.026945 -0.000590 -0.006531
# 5 -0.004507 -0.003535 -0.000283 -0.000590 0.019983 -0.000081
# 6 -0.000951 -0.000411 -0.000008 -0.006531 -0.000081 0.025289
#
#
# Mechanical properties :
#
#
# Convention : Reuss Voigt Hill
#
# Bulk Modulus (GPa) = 39.91402 47.62512 43.76957
# Shear Modulus (GPa) = 39.68608 45.14116 42.41362
#
# Velocity S-wave (km/s) = 3.82052 4.07465 3.94963
# Velocity P-wave (km/s) = 5.84312 6.29709 6.07435
#
# Compressibility (1/GPa) = 0.02505386
#
# Stress axis : x y z
#
# Youngs Moduli (GPa) = 73.45206 87.43734 98.17139
#
# Poissons Ratio (x) = 0.13073 0.32794
# Poissons Ratio (y) = 0.10982 0.02514
# Poissons Ratio (z) = 0.24537 0.02239
#
# Static dielectric constant tensor:
#      x y z
#    x 2.143350 -0.075930 -0.065170 
#    y -0.075930 2.034410 0.028880 
#    z -0.065170 0.028880 2.190690 
# 
# From -- ./inp_files/225597.got.cif
#   From: 2010.05.17/outbox.cif.g08.bks.cpg/sg2_113_cif.got.tgz:225597.got - 2010.06.03 11:33:40.
