data_PCOD9027052
_publ_section_title
;
Structure prediction by ZEFSAII (Michael W. Deem and Ramdas Pophale) SiO2 
 PCOD9027052
Probable space group: P -1
;
_chemical_formula_sum "Si O2"
_cell_formula_units_Z 16
_cell_length_a 22.699557
_cell_length_b 28.759532
_cell_length_c 11.716279
_cell_angle_alpha 31.227877
_cell_angle_beta 30.475065
_cell_angle_gamma 11.033829
_cell_volume 739.087194
_symmetry_space_group_name_H-M "P -1"
_symmetry_group_IT_number 2
_symmetry_cell_setting 'triclinic'
loop_
_space_group_symop_operation_xyz
x,y,z
-x,-y,-z
loop_
_atom_site_type_symbol
_atom_site_label
_atom_site_fract_x
_atom_site_fract_y
_atom_site_fract_z
Si Si1 0.419760 0.040749 0.705095
Si Si2 0.323465 0.304430 0.315341
Si Si3 0.382474 0.590692 0.374529
Si Si4 0.648342 0.230588 0.562781
Si Si5 0.665053 0.156850 0.432829
Si Si6 0.690260 0.528509 0.853820
Si Si7 0.268124 0.354324 0.047425
Si Si8 0.422964 0.130701 0.946689
O O1 0.661966 0.801193 0.741753
O O2 0.521296 0.071332 0.464117
O O3 0.427154 0.005593 0.898357
O O4 0.066713 0.274928 0.757878
O O5 0.452813 0.287260 0.217897
O O6 0.245932 0.399249 0.121631
O O7 0.000000 0.500000 0.500000
O O8 0.500000 0.500000 0.500000
O O9 0.418884 0.469205 0.503661
O O10 0.599232 0.503343 0.123878
O O11 0.026220 0.884017 0.361080
O O12 0.643573 0.224416 0.447209
O O13 0.549071 0.205811 0.830964
O O14 0.000000 0.000000 0.500000
O O15 0.461475 0.353464 0.264460
O O16 0.534389 0.149471 0.684690
O O17 0.955766 0.595976 0.989911
O O18 0.500000 0.000000 0.000000
#
# Coordination Sequence:
#
# PCOD9027052 Si02
#       8
#     2   2   2   2   2   2   2   2
#     4  11  22  41  66 102 139 180 224 290 355 424
#     4  10  22  41  66  95 136 181 223 281 350 417
#     4  12  24  46  74  98 137 191 241 290 355 415
#     4  12  26  47  74 105 142 188 242 296 351 421
#     4  12  26  46  71 104 146 181 241 299 348 431
#     4  11  24  46  66 101 141 183 236 289 356 423
#     4  12  24  44  70 103 139 181 235 289 357 422
#     4  12  23  43  72 101 139 182 233 289 356 424
#
# _framework density 21.648325
#
# number of rings (size 3 to 8) (size 9 to 14) (size 15 to 20)
#    0.000    0.500    2.500    7.875    0.000    0.500 
#    2.250    0.000    0.000    0.000    0.000    0.000 
#    0.000    0.000    0.000    0.000    0.000    0.000 
#
# Total GULP energy -89539.670618 kJ/mol
# GULP energy per Si atom -5596.229414 kJ/mol
# Density = 2.159905 g / cm^3
# Si number density = 21.648325 Si / 1000 Ang^3
#
#
#
# Elastic Constant Matrix: (Units=GPa)
#
#
# Indices 1 2 3 4 5 6 
#
# 1 161.8730 36.0846 35.6622 -13.7797 25.1191 5.7369
# 2 36.0846 89.2096 2.6291 -7.8718 11.0001 -12.7702
# 3 35.6622 2.6291 82.7168 -9.6055 10.4399 -11.7096
# 4 -13.7797 -7.8718 -9.6055 30.0558 0.2787 -3.1193
# 5 25.1191 11.0001 10.4399 0.2787 49.5544 -9.3793
# 6 5.7369 -12.7702 -11.7096 -3.1193 -9.3793 41.3343
#
#
#
# Elastic Compliance Matrix: (Units=1/GPa)
#
#
# Indices 1 2 3 4 5 6 
#
# 1 0.008511 -0.003318 -0.003482 0.001550 -0.003589 -0.003890
# 2 -0.003318 0.013652 0.002250 0.003340 -0.000823 0.005381
# 3 -0.003482 0.002250 0.014915 0.004342 -0.000853 0.005538
# 4 0.001550 0.003340 0.004342 0.036719 -0.001814 0.004406
# 5 -0.003589 -0.000823 -0.000853 -0.001814 0.023349 0.005164
# 6 -0.003890 0.005381 0.005538 0.004406 0.005164 0.029468
#
#
# Mechanical properties :
#
#
# Convention : Reuss Voigt Hill
#
# Bulk Modulus (GPa) = 35.74150 53.61679 44.67915
# Shear Modulus (GPa) = 34.47363 41.48381 37.97872
#
# Velocity S-wave (km/s) = 3.99487 4.38226 4.19304
# Velocity P-wave (km/s) = 6.15016 7.10116 6.64270
#
# Compressibility (1/GPa) = 0.02797868
#
# Stress axis : x y z
#
# Youngs Moduli (GPa) = 117.49417 73.25163 67.04739
#
# Poissons Ratio (x) = 0.24301 0.23344
# Poissons Ratio (y) = 0.38979 -0.15084
# Poissons Ratio (z) = 0.40907 -0.16480
#
# Static dielectric constant tensor:
#      x y z
#    x 1.813390 0.054570 -0.009820 
#    y 0.054570 1.817810 -0.032640 
#    z -0.009820 -0.032640 1.778060 
# 
# From -- ./inp_files/475771.got.cif
#   From: 2010.05.17/outbox.cif.g08.bks.cpg/sg2_238_cif.got.tgz:475771.got - 2010.06.03 11:33:40.
