data_PCOD9027221
_publ_section_title
;
Structure prediction by ZEFSAII (Michael W. Deem and Ramdas Pophale) SiO2 
 PCOD9027221
Probable space group: P -1
;
_chemical_formula_sum "Si O2"
_cell_formula_units_Z 14
_cell_length_a 7.856619
_cell_length_b 5.239839
_cell_length_c 17.925663
_cell_angle_alpha 122.592216
_cell_angle_beta 79.927652
_cell_angle_gamma 91.476694
_cell_volume 610.075238
_symmetry_space_group_name_H-M "P -1"
_symmetry_group_IT_number 2
_symmetry_cell_setting 'triclinic'
loop_
_space_group_symop_operation_xyz
x,y,z
-x,-y,-z
loop_
_atom_site_type_symbol
_atom_site_label
_atom_site_fract_x
_atom_site_fract_y
_atom_site_fract_z
Si Si1 0.319562 0.358106 0.203056
Si Si2 0.533625 0.895495 0.205037
Si Si3 0.252656 0.817708 0.390895
Si Si4 0.816311 0.725600 0.955997
Si Si5 0.216496 0.613330 0.955846
Si Si6 0.070457 0.821301 0.562079
Si Si7 0.568170 0.200141 0.399973
O O1 0.421596 0.639258 0.209303
O O2 0.250056 0.476838 0.307782
O O3 0.187426 0.317122 0.139548
O O4 0.441474 0.060346 0.167426
O O5 0.709989 0.691332 0.140096
O O6 0.551165 0.161716 0.306348
O O7 0.170886 0.894036 0.489580
O O8 0.441132 0.946782 0.397335
O O9 0.105602 0.980960 0.374297
O O10 0.012714 0.687511 0.965785
O O11 0.738192 0.475347 0.975584
O O12 0.720079 0.064688 0.024576
O O13 0.225975 0.836003 0.609670
O O14 0.000000 0.500000 0.500000
O O15 0.500000 0.500000 0.500000
#
# Coordination Sequence:
#
# PCOD9027221 Si02
#       7
#     2   2   2   2   2   2   2
#     4  11  24  42  65  95 128 173 213 277 327 392
#     4  11  25  41  65  97 127 170 225 265 330 401
#     4  10  24  41  63  95 135 168 234 273 334 406
#     4  10  22  41  67  90 132 171 203 277 329 384
#     4  10  22  42  62  97 128 166 219 259 333 399
#     4  11  22  41  65  96 123 183 224 274 337 404
#     4  11  22  42  67  92 139 176 217 285 336 386
#
# _framework density 22.947987000000001
#
# number of rings (size 3 to 8) (size 9 to 14) (size 15 to 20)
#    0.000    1.429    1.429    3.000    4.000    4.571 
#    0.000    1.429    0.000    0.000    0.000    0.000 
#    0.000    0.000    0.000    0.000    0.000    0.000 
#
# Total GULP energy -77948.042605 kJ/mol
# GULP energy per Si atom -5567.717329 kJ/mol
# Density = 2.289576 g / cm^3
# Si number density = 22.947987 Si / 1000 Ang^3
#
#
#
# Elastic Constant Matrix: (Units=GPa)
#
#
# Indices 1 2 3 4 5 6 
#
# 1 88.8464 47.6539 5.0782 8.7421 16.3620 -15.5047
# 2 47.6539 115.3227 26.4158 14.0727 9.1585 -29.4249
# 3 5.0782 26.4158 91.6067 18.2338 9.3473 -21.5297
# 4 8.7421 14.0727 18.2338 30.7219 -12.0686 -4.2868
# 5 16.3620 9.1585 9.3473 -12.0686 35.0456 -0.1916
# 6 -15.5047 -29.4249 -21.5297 -4.2868 -0.1916 38.1810
#
#
#
# Elastic Compliance Matrix: (Units=1/GPa)
#
#
# Indices 1 2 3 4 5 6 
#
# 1 0.017477 -0.005080 0.004532 -0.009059 -0.011135 0.004664
# 2 -0.005080 0.013550 -0.000807 -0.004165 -0.002348 0.007445
# 3 0.004532 -0.000807 0.017025 -0.014175 -0.011277 0.009170
# 4 -0.009059 -0.004165 -0.014175 0.055294 0.028094 -0.008533
# 5 -0.011135 -0.002348 -0.011277 0.028094 0.046978 -0.009300
# 6 0.004664 0.007445 0.009170 -0.008533 -0.009300 0.037989
#
#
# Mechanical properties :
#
#
# Convention : Reuss Voigt Hill
#
# Bulk Modulus (GPa) = 22.05532 50.45240 36.25386
# Shear Modulus (GPa) = 24.25566 35.23157 29.74361
#
# Velocity S-wave (km/s) = 3.25466 3.92252 3.60409
# Velocity P-wave (km/s) = 4.87397 6.52289 5.75776
#
# Compressibility (1/GPa) = 0.04534053
#
# Stress axis : x y z
#
# Youngs Moduli (GPa) = 57.21771 73.80235 58.73710
#
# Poissons Ratio (x) = 0.37492 -0.26617
# Poissons Ratio (y) = 0.29067 0.04742
# Poissons Ratio (z) = -0.25929 0.05958
#
# Static dielectric constant tensor:
#      x y z
#    x 1.884880 -0.010290 -0.052300 
#    y -0.010290 2.098040 0.048250 
#    z -0.052300 0.048250 2.052460 
# 
# From -- ./inp_files/585042.got.cif
#   From: 2010.05.17/outbox.cif.g08.bks.cpg/sg2_293_cif.got.tgz:585042.got - 2010.06.03 11:33:40.
