data_PCOD9027257
_publ_section_title
;
Structure prediction by ZEFSAII (Michael W. Deem and Ramdas Pophale) SiO2 
 PCOD9027257
Probable space group: P -1
;
_chemical_formula_sum "Si O2"
_cell_formula_units_Z 14
_cell_length_a 7.193510
_cell_length_b 11.675523
_cell_length_c 11.699610
_cell_angle_alpha 75.470071
_cell_angle_beta 43.102289
_cell_angle_gamma 82.402721
_cell_volume 648.024492
_symmetry_space_group_name_H-M "P -1"
_symmetry_group_IT_number 2
_symmetry_cell_setting 'triclinic'
loop_
_space_group_symop_operation_xyz
x,y,z
-x,-y,-z
loop_
_atom_site_type_symbol
_atom_site_label
_atom_site_fract_x
_atom_site_fract_y
_atom_site_fract_z
Si Si1 0.972129 0.299776 0.654189
Si Si2 0.884228 0.819358 0.156490
Si Si3 0.442255 0.575608 0.619546
Si Si4 0.866269 0.874219 0.551185
Si Si5 0.015495 0.244953 0.241069
Si Si6 0.736880 0.065675 0.240248
Si Si7 0.393937 0.363029 0.845936
O O1 0.976778 0.259761 0.793258
O O2 0.266920 0.366466 0.483164
O O3 0.957752 0.183626 0.610413
O O4 0.715126 0.371958 0.724660
O O5 0.676121 0.736901 0.194481
O O6 0.744792 0.924602 0.258212
O O7 0.109480 0.878563 0.954558
O O8 0.500000 0.500000 0.500000
O O9 0.318171 0.486568 0.794845
O O10 0.240171 0.675020 0.654091
O O11 0.861031 0.787564 0.685053
O O12 0.566802 0.894055 0.633844
O O13 0.000000 0.000000 0.500000
O O14 0.904527 0.123475 0.257077
O O15 0.229620 0.316624 0.043073
#
# Coordination Sequence:
#
# PCOD9027257 Si02
#       7
#     2   2   2   2   2   2   2
#     4  12  24  41  67  97 131 166 220 268 325 374
#     4  10  22  41  67  93 131 174 214 265 325 388
#     4  12  24  45  68  95 132 171 220 270 321 375
#     4  12  25  39  67  99 134 167 217 267 326 386
#     4  11  25  45  65  96 133 173 216 264 325 390
#     4  10  22  42  64  95 132 171 215 266 326 386
#     4  11  24  44  67  95 131 174 219 263 321 388
#
# _framework density 21.604120999999999
#
# number of rings (size 3 to 8) (size 9 to 14) (size 15 to 20)
#    0.000    0.857    2.857    4.286    2.000    1.143 
#    0.000    7.143    0.000    0.000    0.000    0.000 
#    0.000    0.000    0.000    0.000    0.000    0.000 
#
# Total GULP energy -78375.562581 kJ/mol
# GULP energy per Si atom -5598.254470 kJ/mol
# Density = 2.155495 g / cm^3
# Si number density = 21.604121 Si / 1000 Ang^3
#
#
#
# Elastic Constant Matrix: (Units=GPa)
#
#
# Indices 1 2 3 4 5 6 
#
# 1 27.1153 -16.0320 -1.5959 -0.7970 11.1181 1.7202
# 2 -16.0320 54.0691 -1.0115 -2.6686 -0.2093 1.7043
# 3 -1.5959 -1.0115 46.6873 -3.1078 4.8424 3.1120
# 4 -0.7970 -2.6686 -3.1078 36.9629 -2.8467 0.8089
# 5 11.1181 -0.2093 4.8424 -2.8467 36.0758 -3.9567
# 6 1.7202 1.7043 3.1120 0.8089 -3.9567 29.6284
#
#
#
# Elastic Compliance Matrix: (Units=1/GPa)
#
#
# Indices 1 2 3 4 5 6 
#
# 1 0.054883 0.016590 0.004688 0.001536 -0.018104 -0.007093
# 2 0.016590 0.023627 0.001991 0.001883 -0.005458 -0.003312
# 3 0.004688 0.001991 0.022459 0.001848 -0.004677 -0.003421
# 4 0.001536 0.001883 0.001848 0.027504 0.001354 -0.000962
# 5 -0.018104 -0.005458 -0.004677 0.001354 0.034710 0.006455
# 6 -0.007093 -0.003312 -0.003421 -0.000962 0.006455 0.035601
#
#
# Mechanical properties :
#
#
# Convention : Reuss Voigt Hill
#
# Bulk Modulus (GPa) = 6.77930 10.06589 8.42260
# Shear Modulus (GPa) = 24.82451 30.30081 27.56266
#
# Velocity S-wave (km/s) = 3.39346 3.74912 3.57572
# Velocity P-wave (km/s) = 4.30103 4.83845 4.57763
#
# Compressibility (1/GPa) = 0.14750776
#
# Stress axis : x y z
#
# Youngs Moduli (GPa) = 18.22070 42.32365 44.52628
#
# Poissons Ratio (x) = -0.70216 -0.20875
# Poissons Ratio (y) = -0.30228 -0.08866
# Poissons Ratio (z) = -0.08542 -0.08427
#
# Static dielectric constant tensor:
#      x y z
#    x 1.744340 0.015860 0.003750 
#    y 0.015860 1.782800 -0.011430 
#    z 0.003750 -0.011430 1.778170 
# 
# From -- ./inp_files/25219.got.cif
#   From: 2010.05.17/outbox.cif.g08.bks.cpg/sg2_13_cif.got.tgz:25219.got - 2010.06.03 11:33:40.
