data_PCOD9027662
_publ_section_title
;
Structure prediction by ZEFSAII (Michael W. Deem and Ramdas Pophale) SiO2 
 PCOD9027662
Probable space group: P -1
;
_chemical_formula_sum "Si O2"
_cell_formula_units_Z 14
_cell_length_a 8.917941
_cell_length_b 24.029294
_cell_length_c 9.672244
_cell_angle_alpha 154.973237
_cell_angle_beta 45.642222
_cell_angle_gamma 136.297909
_cell_volume 598.883865
_symmetry_space_group_name_H-M "P -1"
_symmetry_group_IT_number 2
_symmetry_cell_setting 'triclinic'
loop_
_space_group_symop_operation_xyz
x,y,z
-x,-y,-z
loop_
_atom_site_type_symbol
_atom_site_label
_atom_site_fract_x
_atom_site_fract_y
_atom_site_fract_z
Si Si1 0.994977 0.371056 0.118613
Si Si2 0.039974 0.870997 0.763726
Si Si3 0.055357 0.120002 0.849634
Si Si4 0.500843 0.925321 0.480520
Si Si5 0.460279 0.371865 0.841112
Si Si6 0.697271 0.200387 0.124288
Si Si7 0.147463 0.435796 0.854765
O O1 0.000000 0.500000 0.500000
O O2 0.765686 0.265774 0.075351
O O3 0.201010 0.315478 0.900621
O O4 0.043097 0.418629 0.037684
O O5 0.254736 0.843986 0.497847
O O6 0.858453 0.720536 0.532953
O O7 0.063444 0.919424 0.015558
O O8 0.000000 0.000000 0.000000
O O9 0.312319 0.151575 0.794374
O O10 0.000000 0.000000 0.500000
O O11 0.930220 0.223428 0.103270
O O12 0.500000 0.000000 0.500000
O O13 0.570369 0.044506 0.820644
O O14 0.553882 0.264619 0.459365
O O15 0.500000 0.500000 0.000000
O O16 0.613857 0.449535 0.040788
O O17 0.000000 0.500000 0.000000
#
# Coordination Sequence:
#
# PCOD9027662 Si02
#       7
#     2   2   2   2   2   2   2
#     4  11  23  42  72  99 132 187 236 279 346 416
#     4  12  26  43  72 104 143 187 228 290 360 412
#     4  10  25  44  66  99 139 178 234 287 338 419
#     4  11  24  43  69 103 140 186 231 285 357 422
#     4  10  22  41  68  99 131 185 229 284 342 409
#     4  11  23  42  70 100 141 174 240 290 341 415
#     4  11  25  46  69 101 145 178 233 293 349 414
#
# _framework density 23.376819000000001
#
# number of rings (size 3 to 8) (size 9 to 14) (size 15 to 20)
#    0.000    1.143    4.286    1.714    6.000    4.571 
#    2.571    0.714    0.000    0.000    0.000    0.000 
#    0.000    0.000    0.000    0.000    0.000    0.000 
#
# Total GULP energy -78136.568894 kJ/mol
# GULP energy per Si atom -5581.183492 kJ/mol
# Density = 2.332361 g / cm^3
# Si number density = 23.376819 Si / 1000 Ang^3
#
#
#
# Elastic Constant Matrix: (Units=GPa)
#
#
# Indices 1 2 3 4 5 6 
#
# 1 109.3497 14.0084 36.0602 -16.2501 -7.3371 -11.4291
# 2 14.0084 71.7071 29.0331 -22.2809 6.3578 -1.4570
# 3 36.0602 29.0331 142.0004 -13.2030 -7.9227 0.7488
# 4 -16.2501 -22.2809 -13.2030 41.2081 3.9371 -0.2660
# 5 -7.3371 6.3578 -7.9227 3.9371 40.1493 -8.9028
# 6 -11.4291 -1.4570 0.7488 -0.2660 -8.9028 36.5452
#
#
#
# Elastic Compliance Matrix: (Units=1/GPa)
#
#
# Indices 1 2 3 4 5 6 
#
# 1 0.011002 -0.000310 -0.002329 0.003243 0.002176 0.004030
# 2 -0.000310 0.018573 -0.003103 0.009364 -0.004605 -0.000346
# 3 -0.002329 -0.003103 0.008353 -0.000075 0.001580 -0.000639
# 4 0.003243 0.009364 -0.000075 0.030951 -0.003787 0.000692
# 5 0.002176 -0.004605 0.001580 -0.003787 0.028345 0.007342
# 6 0.004030 -0.000346 -0.000639 0.000692 0.007342 0.030417
#
#
# Mechanical properties :
#
#
# Convention : Reuss Voigt Hill
#
# Bulk Modulus (GPa) = 37.81566 53.47340 45.64453
# Shear Modulus (GPa) = 33.79779 39.84421 36.82100
#
# Velocity S-wave (km/s) = 3.80647 4.13296 3.97307
# Velocity P-wave (km/s) = 5.96076 6.76013 6.37299
#
# Compressibility (1/GPa) = 0.02644407
#
# Stress axis : x y z
#
# Youngs Moduli (GPa) = 90.89509 53.84035 119.72246
#
# Poissons Ratio (x) = 0.01667 0.27881
# Poissons Ratio (y) = 0.02815 0.37154
# Poissons Ratio (z) = 0.21168 0.16708
#
# Static dielectric constant tensor:
#      x y z
#    x 1.962340 0.022330 -0.000750 
#    y 0.022330 1.926380 0.047990 
#    z -0.000750 0.047990 1.863580 
# 
# From -- ./inp_files/225704.got.cif
#   From: 2010.05.17/outbox.cif.g08.bks.cpg/sg2_113_cif.got.tgz:225704.got - 2010.06.03 11:33:40.
