data_PCOD9027186
_publ_section_title
;
Structure prediction by ZEFSAII (Michael W. Deem and Ramdas Pophale) SiO2 
 PCOD9027186
Probable space group: P -1
;
_chemical_formula_sum "Si O2"
_cell_formula_units_Z 14
_cell_length_a 11.647282
_cell_length_b 16.870295
_cell_length_c 17.676745
_cell_angle_alpha 19.233154
_cell_angle_beta 43.263210
_cell_angle_gamma 32.764724
_cell_volume 575.557711
_symmetry_space_group_name_H-M "P -1"
_symmetry_group_IT_number 2
_symmetry_cell_setting 'triclinic'
loop_
_space_group_symop_operation_xyz
x,y,z
-x,-y,-z
loop_
_atom_site_type_symbol
_atom_site_label
_atom_site_fract_x
_atom_site_fract_y
_atom_site_fract_z
Si Si1 0.006254 0.733328 0.839819
Si Si2 0.616063 0.486711 0.380482
Si Si3 0.848324 0.876998 0.253931
Si Si4 0.282982 0.759789 0.166261
Si Si5 0.605270 0.269847 0.349467
Si Si6 0.008381 0.475262 0.224921
Si Si7 0.302749 0.278500 0.397259
O O1 0.244179 0.638373 0.796670
O O2 0.793300 0.124486 0.582048
O O3 0.000000 0.500000 0.000000
O O4 0.999023 0.685248 0.976109
O O5 0.500000 0.500000 0.500000
O O6 0.412427 0.747566 0.185366
O O7 0.774838 0.556182 0.262698
O O8 0.703335 0.909820 0.362552
O O9 0.000000 0.500000 0.500000
O O10 0.035064 0.889923 0.180779
O O11 0.738710 0.057426 0.063519
O O12 0.458063 0.378415 0.397910
O O13 0.399486 0.440544 0.233381
O O14 0.793429 0.893958 0.571582
O O15 0.079436 0.488887 0.262483
O O16 0.500000 0.000000 0.500000
#
# Coordination Sequence:
#
# PCOD9027186 Si02
#       7
#     2   2   2   2   2   2   2
#     4  11  24  42  71 102 140 183 236 289 345 424
#     4  11  25  46  69 103 141 185 234 288 353 426
#     4  11  24  43  65 100 133 174 232 290 339 418
#     4  11  24  41  70  98 134 182 231 282 353 412
#     4  10  22  41  67 102 132 181 235 283 350 417
#     4  10  23  43  65 104 141 178 229 290 349 416
#     4  10  22  43  67  98 141 177 228 285 352 411
#
# _framework density 24.324233
#
# number of rings (size 3 to 8) (size 9 to 14) (size 15 to 20)
#    0.000    1.429    1.429    2.571    4.000    6.857 
#    5.143    0.000    0.000    0.000    0.000    0.000 
#    0.000    0.000    0.000    0.000    0.000    0.000 
#
# Total GULP energy -78198.284706 kJ/mol
# GULP energy per Si atom -5585.591765 kJ/mol
# Density = 2.426887 g / cm^3
# Si number density = 24.324233 Si / 1000 Ang^3
#
#
#
# Elastic Constant Matrix: (Units=GPa)
#
#
# Indices 1 2 3 4 5 6 
#
# 1 199.7599 44.2910 64.2510 1.6872 29.8724 -35.0474
# 2 44.2910 148.9184 30.1524 17.9493 9.3015 -26.2492
# 3 64.2510 30.1524 82.9233 9.8654 22.6061 -16.3873
# 4 1.6872 17.9493 9.8654 38.6000 9.8814 7.1825
# 5 29.8724 9.3015 22.6061 9.8814 44.6123 -8.4578
# 6 -35.0474 -26.2492 -16.3873 7.1825 -8.4578 45.5594
#
#
#
# Elastic Compliance Matrix: (Units=1/GPa)
#
#
# Indices 1 2 3 4 5 6 
#
# 1 0.007473 -0.000781 -0.004411 0.001169 -0.002276 0.003106
# 2 -0.000781 0.008584 -0.001358 -0.004887 0.001431 0.004893
# 3 -0.004411 -0.001358 0.018015 -0.002867 -0.004907 0.001845
# 4 0.001169 -0.004887 -0.002867 0.032481 -0.007292 -0.009422
# 5 -0.002276 0.001431 -0.004907 -0.007292 0.028451 0.003740
# 6 0.003106 0.004893 0.001845 -0.009422 0.003740 0.030001
#
#
# Mechanical properties :
#
#
# Convention : Reuss Voigt Hill
#
# Bulk Modulus (GPa) = 47.68422 78.77671 63.23046
# Shear Modulus (GPa) = 34.45964 45.28149 39.87056
#
# Velocity S-wave (km/s) = 3.76796 4.31928 4.05301
# Velocity P-wave (km/s) = 6.21097 7.57175 6.92487
#
# Compressibility (1/GPa) = 0.02097130
#
# Stress axis : x y z
#
# Youngs Moduli (GPa) = 133.80756 116.48920 55.51063
#
# Poissons Ratio (x) = 0.09095 0.24488
# Poissons Ratio (y) = 0.10448 0.07540
# Poissons Ratio (z) = 0.59029 0.15823
#
# Static dielectric constant tensor:
#      x y z
#    x 1.973630 0.005920 0.004540 
#    y 0.005920 1.942130 -0.078280 
#    z 0.004540 -0.078280 1.913030 
# 
# From -- ./inp_files/466535.got.cif
#   From: 2010.05.17/outbox.cif.g08.bks.cpg/sg2_234_cif.got.tgz:466535.got - 2010.06.03 11:33:40.
