data_PCOD9027762
_publ_section_title
;
Structure prediction by ZEFSAII (Michael W. Deem and Ramdas Pophale) SiO2 
 PCOD9027762
Probable space group: P -1
;
_chemical_formula_sum "Si O2"
_cell_formula_units_Z 13
_cell_length_a 9.350520
_cell_length_b 14.340439
_cell_length_c 7.854151
_cell_angle_alpha 61.049350
_cell_angle_beta 47.982805
_cell_angle_gamma 38.479537
_cell_volume 485.044450
_symmetry_space_group_name_H-M "P -1"
_symmetry_group_IT_number 2
_symmetry_cell_setting 'triclinic'
loop_
_space_group_symop_operation_xyz
x,y,z
-x,-y,-z
loop_
_atom_site_type_symbol
_atom_site_label
_atom_site_fract_x
_atom_site_fract_y
_atom_site_fract_z
Si Si1 0.401979 0.356966 0.113685
Si Si2 0.396085 0.444023 0.420800
Si Si3 0.056710 0.931133 0.205142
Si Si4 0.000000 0.000000 0.500000
Si Si5 0.560824 0.859522 0.509351
Si Si6 0.139048 0.335562 0.860119
Si Si7 0.070616 0.723219 0.660953
O O1 0.385761 0.427066 0.243682
O O2 0.362567 0.251552 0.304578
O O3 0.154979 0.493735 0.074757
O O4 0.693437 0.245086 0.890856
O O5 0.181186 0.611732 0.514589
O O6 0.691083 0.366785 0.308841
O O7 0.340576 0.355940 0.646881
O O8 0.159550 0.977039 0.222363
O O9 0.726418 0.067139 0.406089
O O10 0.000000 0.000000 0.000000
O O11 0.959315 0.141001 0.482665
O O12 0.792830 0.765557 0.266111
O O13 0.500000 0.000000 0.500000
O O14 0.159464 0.256403 0.081345
#
# Coordination Sequence:
#
# PCOD9027762 Si02
#       7
#     2   2   2   1   2   2   2
#     4  10  23  44  74 102 141 187 243 295 358 431
#     4  10  23  47  67 105 147 180 238 304 353 431
#     4  10  24  46  72  99 147 191 227 303 358 432
#     4  12  26  46  70 106 142 190 248 284 368 436
#     4  10  22  41  69 105 148 184 239 301 359 430
#     4  11  24  45  73 108 139 190 242 297 360 432
#     4  11  26  44  72 101 146 189 234 304 362 427
#
# _framework density 26.801670000000001
#
# number of rings (size 3 to 8) (size 9 to 14) (size 15 to 20)
#    0.000    1.538    0.000    5.077   10.769    3.077 
#    2.769    3.077    0.000    0.000    0.000    0.000 
#    0.000    0.000    0.000    0.000    0.000    0.000 
#
# Total GULP energy -72446.945346 kJ/mol
# GULP energy per Si atom -5572.841950 kJ/mol
# Density = 2.674067 g / cm^3
# Si number density = 26.801670 Si / 1000 Ang^3
#
#
#
# Elastic Constant Matrix: (Units=GPa)
#
#
# Indices 1 2 3 4 5 6 
#
# 1 37.9793 27.1416 13.9950 18.7486 -3.0568 0.7380
# 2 27.1416 161.1407 44.8906 11.4852 -3.6706 29.2502
# 3 13.9950 44.8906 95.2511 16.2426 9.5019 6.7599
# 4 18.7486 11.4852 16.2426 42.5227 13.6434 2.5212
# 5 -3.0568 -3.6706 9.5019 13.6434 34.7170 17.2310
# 6 0.7380 29.2502 6.7599 2.5212 17.2310 59.2138
#
#
#
# Elastic Compliance Matrix: (Units=1/GPa)
#
#
# Indices 1 2 3 4 5 6 
#
# 1 0.041051 -0.004697 -0.001539 -0.019950 0.011657 -0.000558
# 2 -0.004697 0.009038 -0.003611 -0.000001 0.004106 -0.005189
# 3 -0.001539 -0.003611 0.013083 -0.002141 -0.004039 0.001576
# 4 -0.019950 -0.000001 -0.002141 0.038825 -0.018529 0.004232
# 5 0.011657 0.004106 -0.004039 -0.018529 0.045713 -0.014226
# 6 -0.000558 -0.005189 0.001576 0.004232 -0.014226 0.023238
#
#
# Mechanical properties :
#
#
# Convention : Reuss Voigt Hill
#
# Bulk Modulus (GPa) = 22.99982 51.82509 37.41245
# Shear Modulus (GPa) = 24.37433 41.18029 32.77731
#
# Velocity S-wave (km/s) = 3.01895 3.92405 3.50088
# Velocity P-wave (km/s) = 4.55546 6.31739 5.50734
#
# Compressibility (1/GPa) = 0.04347860
#
# Stress axis : x y z
#
# Youngs Moduli (GPa) = 24.35969 110.64198 76.43786
#
# Poissons Ratio (x) = 0.51967 0.11765
# Poissons Ratio (y) = 0.11441 0.27599
# Poissons Ratio (z) = 0.03749 0.39949
#
# Static dielectric constant tensor:
#      x y z
#    x 3.477260 -0.488010 2.000410 
#    y -0.488010 2.238870 -0.731330 
#    z 2.000410 -0.731330 4.835810 
# 
# From -- ./inp_files/267001.got.cif
#   From: 2010.05.17/outbox.cif.g08.bks.cpg/sg2_134_cif.got.tgz:267001.got - 2010.06.03 11:33:40.
