data_PCOD9027143
_publ_section_title
;
Structure prediction by ZEFSAII (Michael W. Deem and Ramdas Pophale) SiO2 
 PCOD9027143
Probable space group: P -1
;
_chemical_formula_sum "Si O2"
_cell_formula_units_Z 16
_cell_length_a 11.654886
_cell_length_b 8.097709
_cell_length_c 13.307880
_cell_angle_alpha 107.692161
_cell_angle_beta 56.692323
_cell_angle_gamma 143.059359
_cell_volume 607.616775
_symmetry_space_group_name_H-M "P -1"
_symmetry_group_IT_number 2
_symmetry_cell_setting 'triclinic'
loop_
_space_group_symop_operation_xyz
x,y,z
-x,-y,-z
loop_
_atom_site_type_symbol
_atom_site_label
_atom_site_fract_x
_atom_site_fract_y
_atom_site_fract_z
Si Si1 0.080361 0.308732 0.234014
Si Si2 0.513085 0.081949 0.758865
Si Si3 0.999102 0.885416 0.310963
Si Si4 0.936324 0.190585 0.064158
Si Si5 0.217414 0.820403 0.499040
Si Si6 0.305433 0.272788 0.429215
Si Si7 0.677902 0.599198 0.158462
Si Si8 0.630292 0.984631 0.870551
O O1 0.314734 0.594248 0.228540
O O2 0.085243 0.356084 0.123560
O O3 0.872936 0.218952 0.356337
O O4 0.022906 0.054689 0.244928
O O5 0.573190 0.089247 0.617559
O O6 0.253982 0.857716 0.866449
O O7 0.595479 0.009980 0.777580
O O8 0.760848 0.646001 0.442278
O O9 0.151297 0.113966 0.373302
O O10 0.109569 0.815032 0.209596
O O11 0.783370 0.869339 0.102966
O O12 0.116266 0.330733 0.917691
O O13 0.000000 0.500000 0.500000
O O14 0.255338 0.044294 0.469530
O O15 0.552460 0.524710 0.307433
O O16 0.500590 0.328592 0.119399
O O17 0.500000 0.000000 0.000000
#
# Coordination Sequence:
#
# PCOD9027143 Si02
#       8
#     2   2   2   2   2   2   2   2
#     4  10  22  41  66  99 129 170 234 267 321 402
#     4  11  21  40  66  96 134 177 209 273 344 383
#     4   9  18  35  65  94 125 167 212 271 318 386
#     4  11  25  42  64  94 133 181 224 269 324 396
#     4   9  18  35  65  97 132 170 210 274 336 393
#     4   9  16  36  65  92 123 168 223 263 328 385
#     4  10  22  43  62  87 133 176 219 273 321 388
#     4  11  22  38  66 101 132 168 222 271 332 402
#
# _framework density 26.332387000000001
#
# number of rings (size 3 to 8) (size 9 to 14) (size 15 to 20)
#    0.000    2.000    2.500    2.250    0.000    4.000 
#    0.000   10.000    2.750    0.000    0.000    0.000 
#    0.000    0.000    0.000    0.000    0.000    0.000 
#
# Total GULP energy -89396.468366 kJ/mol
# GULP energy per Si atom -5587.279273 kJ/mol
# Density = 2.627245 g / cm^3
# Si number density = 26.332387 Si / 1000 Ang^3
#
#
#
# Elastic Constant Matrix: (Units=GPa)
#
#
# Indices 1 2 3 4 5 6 
#
# 1 88.7220 12.5565 42.8856 -1.9327 -23.5718 8.8203
# 2 12.5565 61.5500 22.7870 -6.2260 -3.5374 -10.2748
# 3 42.8856 22.7870 190.4598 -1.8825 -56.8890 12.2516
# 4 -1.9327 -6.2260 -1.8825 42.6504 -0.2973 0.5580
# 5 -23.5718 -3.5374 -56.8890 -0.2973 52.3465 -0.2352
# 6 8.8203 -10.2748 12.2516 0.5580 -0.2352 27.6445
#
#
#
# Elastic Compliance Matrix: (Units=1/GPa)
#
#
# Indices 1 2 3 4 5 6 
#
# 1 0.014022 -0.003054 -0.000948 0.000250 0.005056 -0.005151
# 2 -0.003054 0.019781 -0.003369 0.002448 -0.003642 0.009739
# 3 -0.000948 -0.003369 0.008844 -0.000019 0.008935 -0.004793
# 4 0.000250 0.002448 -0.000019 0.023812 0.000394 0.000361
# 5 0.005056 -0.003642 0.008935 0.000394 0.030817 -0.006673
# 6 -0.005151 0.009739 -0.004793 0.000361 -0.006673 0.043497
#
#
# Mechanical properties :
#
#
# Convention : Reuss Voigt Hill
#
# Bulk Modulus (GPa) = 35.83489 55.24332 45.53910
# Shear Modulus (GPa) = 30.33648 42.02845 36.18247
#
# Velocity S-wave (km/s) = 3.39788 3.99942 3.71086
# Velocity P-wave (km/s) = 5.38817 6.50784 5.97429
#
# Compressibility (1/GPa) = 0.02790577
#
# Stress axis : x y z
#
# Youngs Moduli (GPa) = 71.31457 50.55257 113.07001
#
# Poissons Ratio (x) = 0.15436 0.10720
# Poissons Ratio (y) = 0.21776 0.38098
# Poissons Ratio (z) = 0.06761 0.17033
#
# Static dielectric constant tensor:
#      x y z
#    x 2.091480 0.016030 -0.098100 
#    y 0.016030 2.155370 0.008850 
#    z -0.098100 0.008850 2.159320 
# 
# From -- ./inp_files/514433.got.cif
#   From: 2010.05.17/outbox.cif.g08.bks.cpg/sg2_258_cif.got.tgz:514433.got - 2010.06.03 11:33:40.
