data_PCOD9027042
_publ_section_title
;
Structure prediction by ZEFSAII (Michael W. Deem and Ramdas Pophale) SiO2 
 PCOD9027042
Probable space group: P -1
;
_chemical_formula_sum "Si O2"
_cell_formula_units_Z 14
_cell_length_a 16.737025
_cell_length_b 12.750049
_cell_length_c 9.850470
_cell_angle_alpha 120.923002
_cell_angle_beta 128.174133
_cell_angle_gamma 23.695881
_cell_volume 655.036343
_symmetry_space_group_name_H-M "P -1"
_symmetry_group_IT_number 2
_symmetry_cell_setting 'triclinic'
loop_
_space_group_symop_operation_xyz
x,y,z
-x,-y,-z
loop_
_atom_site_type_symbol
_atom_site_label
_atom_site_fract_x
_atom_site_fract_y
_atom_site_fract_z
Si Si1 0.210579 0.041064 0.847813
Si Si2 0.352098 0.757036 0.432369
Si Si3 0.943710 0.184847 0.486670
Si Si4 0.463067 0.520750 0.818072
Si Si5 0.211203 0.220491 0.224752
Si Si6 0.718031 0.823700 0.176821
Si Si7 0.550842 0.075539 0.439667
O O1 0.294576 0.029097 0.802479
O O2 0.973167 0.251875 0.681895
O O3 0.349173 0.769790 0.822945
O O4 0.224921 0.108836 0.041351
O O5 0.500000 0.500000 0.500000
O O6 0.342303 0.713593 0.239549
O O7 0.459883 0.776323 0.536669
O O8 0.120068 0.014949 0.438251
O O9 0.704689 0.414524 0.329702
O O10 0.000000 0.000000 0.500000
O O11 0.500000 0.500000 0.000000
O O12 0.339794 0.210443 0.320613
O O13 0.952050 0.519941 0.175156
O O14 0.329069 0.046512 0.369511
O O15 0.702053 0.842564 0.334180
O O16 0.500000 0.000000 0.000000
#
# Coordination Sequence:
#
# PCOD9027042 Si02
#       7
#     2   2   2   2   2   2   2
#     4  11  22  45  64  98 133 174 231 269 332 408
#     4  12  22  42  73 101 133 184 226 278 339 402
#     4  10  22  41  66  95 133 173 229 272 332 400
#     4  11  25  44  66 101 139 175 221 281 344 406
#     4  11  26  45  67 101 142 183 222 286 349 400
#     4  12  24  43  67 100 131 180 235 278 333 406
#     4  11  25  44  69 102 142 180 227 280 350 406
#
# _framework density 21.372858000000001
#
# number of rings (size 3 to 8) (size 9 to 14) (size 15 to 20)
#    0.000    0.857    5.714    1.714    2.000    0.571 
#    7.714    0.000    0.000    0.000    0.000    0.000 
#    0.000    0.000    0.000    0.000    0.000    0.000 
#
# Total GULP energy -78058.568281 kJ/mol
# GULP energy per Si atom -5575.612020 kJ/mol
# Density = 2.132421 g / cm^3
# Si number density = 21.372858 Si / 1000 Ang^3
#
#
#
# Elastic Constant Matrix: (Units=GPa)
#
#
# Indices 1 2 3 4 5 6 
#
# 1 119.5388 43.0888 50.7662 4.0255 8.9334 -3.8576
# 2 43.0888 88.8083 38.1190 14.1671 3.3320 -17.5388
# 3 50.7662 38.1190 185.4822 13.3765 -9.4843 -16.1172
# 4 4.0255 14.1671 13.3765 25.9808 -12.5907 -1.4967
# 5 8.9334 3.3320 -9.4843 -12.5907 43.9294 10.8865
# 6 -3.8576 -17.5388 -16.1172 -1.4967 10.8865 38.1165
#
#
#
# Elastic Compliance Matrix: (Units=1/GPa)
#
#
# Indices 1 2 3 4 5 6 
#
# 1 0.011147 -0.004836 -0.002368 0.001230 -0.001669 -0.001574
# 2 -0.004836 0.017634 -0.001101 -0.010578 -0.005698 0.008371
# 3 -0.002368 -0.001101 0.006596 -0.001822 0.001053 0.001670
# 4 0.001230 -0.010578 -0.001822 0.052965 0.017424 -0.008410
# 5 -0.001669 -0.005698 0.001053 0.017424 0.031390 -0.010627
# 6 -0.001574 0.008371 0.001670 -0.008410 -0.010627 0.033339
#
#
# Mechanical properties :
#
#
# Convention : Reuss Voigt Hill
#
# Bulk Modulus (GPa) = 53.28776 73.08638 63.18707
# Shear Modulus (GPa) = 28.41921 39.06236 33.74079
#
# Velocity S-wave (km/s) = 3.65044 4.27975 3.97756
# Velocity P-wave (km/s) = 6.53867 7.66106 7.12201
#
# Compressibility (1/GPa) = 0.01876604
#
# Stress axis : x y z
#
# Youngs Moduli (GPa) = 89.71167 56.70866 151.60390
#
# Poissons Ratio (x) = 0.27426 0.35895
# Poissons Ratio (y) = 0.43388 0.16698
# Poissons Ratio (z) = 0.21241 0.06246
#
# Static dielectric constant tensor:
#      x y z
#    x 2.143660 0.023040 0.261330 
#    y 0.023040 1.856550 -0.035210 
#    z 0.261330 -0.035210 2.036430 
# 
# From -- ./inp_files/308383.got.cif
#   From: 2010.05.17/outbox.cif.g08.bks.cpg/sg2_155_cif.got.tgz:308383.got - 2010.06.03 11:33:40.
