data_PCOD9027829
_publ_section_title
;
Structure prediction by ZEFSAII (Michael W. Deem and Ramdas Pophale) SiO2 
 PCOD9027829
Probable space group: P -1
;
_chemical_formula_sum "Si O2"
_cell_formula_units_Z 16
_cell_length_a 17.510493
_cell_length_b 5.612406
_cell_length_c 14.302610
_cell_angle_alpha 62.835319
_cell_angle_beta 37.155592
_cell_angle_gamma 82.500143
_cell_volume 680.385891
_symmetry_space_group_name_H-M "P -1"
_symmetry_group_IT_number 2
_symmetry_cell_setting 'triclinic'
loop_
_space_group_symop_operation_xyz
x,y,z
-x,-y,-z
loop_
_atom_site_type_symbol
_atom_site_label
_atom_site_fract_x
_atom_site_fract_y
_atom_site_fract_z
Si Si1 0.820132 0.201165 0.986757
Si Si2 0.722757 0.742098 0.472703
Si Si3 0.146415 0.257004 0.846419
Si Si4 0.089841 0.713409 0.727677
Si Si5 0.362138 0.872763 0.304064
Si Si6 0.844264 0.367130 0.716369
Si Si7 0.457777 0.799209 0.772029
Si Si8 0.689403 0.763280 0.856217
O O1 0.840501 0.260750 0.846060
O O2 0.944568 0.480868 0.867465
O O3 0.668399 0.184223 0.163480
O O4 0.816958 0.886965 0.075043
O O5 0.744116 0.684534 0.355033
O O6 0.668905 0.452046 0.642761
O O7 0.601892 0.852425 0.572476
O O8 0.875787 0.964834 0.322822
O O9 0.125507 0.554649 0.810032
O O10 0.000000 0.000000 0.000000
O O11 0.213439 0.801390 0.513580
O O12 0.488311 0.964795 0.238015
O O13 0.395596 0.145229 0.154046
O O14 0.783677 0.617493 0.739457
O O15 0.000000 0.500000 0.500000
O O16 0.765021 0.077410 0.780765
O O17 0.394869 0.480828 0.941148
#
# Coordination Sequence:
#
# PCOD9027829 Si02
#       8
#     2   2   2   2   2   2   2   2
#     4  10  22  44  66  98 142 175 224 298 352 413
#     4  10  22  41  69  96 134 180 234 289 340 426
#     4   9  20  42  65  99 130 176 235 286 349 417
#     4   9  20  42  66 101 125 175 237 280 348 415
#     4  10  22  43  68  95 136 180 235 281 339 413
#     4  11  25  46  68 107 147 181 234 284 358 413
#     4  10  24  42  63 102 140 178 232 280 355 416
#     4  11  25  43  70 103 138 191 234 286 342 422
#
# _framework density 23.516065000000001
#
# number of rings (size 3 to 8) (size 9 to 14) (size 15 to 20)
#    0.000    2.000    0.000    1.500    7.000    4.000 
#   18.000    5.625    0.000    0.000    0.000    0.000 
#    0.000    0.000    0.000    0.000    0.000    0.000 
#
# Total GULP energy -89282.475557 kJ/mol
# GULP energy per Si atom -5580.154722 kJ/mol
# Density = 2.346254 g / cm^3
# Si number density = 23.516065 Si / 1000 Ang^3
#
#
#
# Elastic Constant Matrix: (Units=GPa)
#
#
# Indices 1 2 3 4 5 6 
#
# 1 73.6158 20.5272 11.6780 -6.7720 -14.2368 -10.3511
# 2 20.5272 92.8917 20.8997 -8.0175 -10.8082 8.7574
# 3 11.6780 20.8997 64.3704 3.2740 -17.3429 -5.2637
# 4 -6.7720 -8.0175 3.2740 52.0408 0.9697 1.4038
# 5 -14.2368 -10.8082 -17.3429 0.9697 36.4090 -13.3612
# 6 -10.3511 8.7574 -5.2637 1.4038 -13.3612 29.9830
#
#
#
# Elastic Compliance Matrix: (Units=1/GPa)
#
#
# Indices 1 2 3 4 5 6 
#
# 1 0.018791 -0.004464 0.002352 0.001019 0.012085 0.013542
# 2 -0.004464 0.013471 -0.005166 0.002091 -0.003158 -0.007888
# 3 0.002352 -0.005166 0.021878 -0.002482 0.014558 0.012765
# 4 0.001019 0.002091 -0.002482 0.019918 -0.001543 -0.002315
# 5 0.012085 -0.003158 0.014558 -0.001543 0.049092 0.029599
# 6 0.013542 -0.007888 0.012765 -0.002315 0.029599 0.055870
#
#
# Mechanical properties :
#
#
# Convention : Reuss Voigt Hill
#
# Bulk Modulus (GPa) = 25.26319 37.45418 31.35869
# Shear Modulus (GPa) = 24.18151 35.53810 29.85980
#
# Velocity S-wave (km/s) = 3.21019 3.89167 3.56724
# Velocity P-wave (km/s) = 4.95042 6.01291 5.50735
#
# Compressibility (1/GPa) = 0.03958328
#
# Stress axis : x y z
#
# Youngs Moduli (GPa) = 53.21772 74.23558 45.70806
#
# Poissons Ratio (x) = 0.33139 -0.10750
# Poissons Ratio (y) = 0.23757 0.23612
# Poissons Ratio (z) = -0.12516 0.38349
#
# Static dielectric constant tensor:
#      x y z
#    x 1.900550 0.004780 0.004710 
#    y 0.004780 2.029410 0.029830 
#    z 0.004710 0.029830 1.906610 
# 
# From -- ./inp_files/536151.got.cif
#   From: 2010.05.17/outbox.cif.g08.bks.cpg/sg2_269_cif.got.tgz:536151.got - 2010.06.03 11:33:40.
