data_PCOD9027140
_publ_section_title
;
Structure prediction by ZEFSAII (Michael W. Deem and Ramdas Pophale) SiO2 
 PCOD9027140
Probable space group: P -1
;
_chemical_formula_sum "Si O2"
_cell_formula_units_Z 16
_cell_length_a 9.476016
_cell_length_b 15.683802
_cell_length_c 12.396598
_cell_angle_alpha 25.521514
_cell_angle_beta 117.061951
_cell_angle_gamma 111.942357
_cell_volume 703.607693
_symmetry_space_group_name_H-M "P -1"
_symmetry_group_IT_number 2
_symmetry_cell_setting 'triclinic'
loop_
_space_group_symop_operation_xyz
x,y,z
-x,-y,-z
loop_
_atom_site_type_symbol
_atom_site_label
_atom_site_fract_x
_atom_site_fract_y
_atom_site_fract_z
Si Si1 0.745295 0.056038 0.316306
Si Si2 0.808740 0.787592 0.853887
Si Si3 0.599946 0.703833 0.076242
Si Si4 0.755452 0.805210 0.389194
Si Si5 0.052065 0.580184 0.038842
Si Si6 0.560442 0.337899 0.615517
Si Si7 0.108144 0.267142 0.700887
Si Si8 0.088164 0.749917 0.149366
O O1 0.753486 0.938458 0.566929
O O2 0.773737 0.915259 0.382590
O O3 0.571896 0.177072 0.107134
O O4 0.880046 0.208028 0.189793
O O5 0.671503 0.736041 0.946226
O O6 0.896487 0.598249 0.038869
O O7 0.953226 0.849334 0.909379
O O8 0.590259 0.472838 0.367222
O O9 0.729415 0.774121 0.125913
O O10 0.573086 0.805803 0.290298
O O11 0.864928 0.836408 0.286930
O O12 0.807295 0.571707 0.695450
O O13 0.084170 0.508717 0.407295
O O14 0.000000 0.500000 0.000000
O O15 0.500000 0.500000 0.500000
O O16 0.728250 0.224795 0.838617
O O17 0.964662 0.212105 0.789070
#
# Coordination Sequence:
#
# PCOD9027140 Si02
#       8
#     2   2   2   2   2   2   2   2
#     4  12  27  44  68 103 137 177 227 281 335 410
#     4  11  22  42  68  97 138 182 221 285 329 395
#     4  10  22  41  66  98 142 179 223 277 339 396
#     4  12  23  41  71 103 135 177 227 277 349 390
#     4  12  25  47  69 100 134 179 231 275 336 409
#     4  11  19  39  67 101 132 179 224 279 331 395
#     4   9  18  36  63 102 132 179 218 281 334 396
#     4   9  18  34  67  98 134 175 230 271 333 395
#
# _framework density 22.739944000000001
#
# number of rings (size 3 to 8) (size 9 to 14) (size 15 to 20)
#    0.000    1.250    6.250    1.500    0.000    0.500 
#    0.000    5.000    0.000    3.000    3.250    0.000 
#    0.000    0.000    0.000    0.000    0.000    0.000 
#
# Total GULP energy -89524.317854 kJ/mol
# GULP energy per Si atom -5595.269866 kJ/mol
# Density = 2.268819 g / cm^3
# Si number density = 22.739944 Si / 1000 Ang^3
#
#
#
# Elastic Constant Matrix: (Units=GPa)
#
#
# Indices 1 2 3 4 5 6 
#
# 1 126.4730 49.7831 26.8787 8.4036 -12.5541 -20.7957
# 2 49.7831 133.9905 22.4863 7.9552 -18.9633 -23.7926
# 3 26.8787 22.4863 115.1018 14.2976 -1.8762 -12.1527
# 4 8.4036 7.9552 14.2976 32.6942 -5.9038 -2.0014
# 5 -12.5541 -18.9633 -1.8762 -5.9038 44.5904 8.3580
# 6 -20.7957 -23.7926 -12.1527 -2.0014 8.3580 41.1532
#
#
#
# Elastic Compliance Matrix: (Units=1/GPa)
#
#
# Indices 1 2 3 4 5 6 
#
# 1 0.009892 -0.002774 -0.001343 -0.000947 0.000904 0.002768
# 2 -0.002774 0.009622 -0.000754 -0.000628 0.002561 0.003388
# 3 -0.001343 -0.000754 0.009801 -0.003851 -0.001138 0.001823
# 4 -0.000947 -0.000628 -0.003851 0.033306 0.003931 -0.001158
# 5 0.000904 0.002561 -0.001138 0.003931 0.024853 -0.003255
# 6 0.002768 0.003388 0.001823 -0.001158 -0.003255 0.028800
#
#
# Mechanical properties :
#
#
# Convention : Reuss Voigt Hill
#
# Bulk Modulus (GPa) = 51.09437 63.76239 57.42838
# Shear Modulus (GPa) = 37.72390 42.11537 39.91963
#
# Velocity S-wave (km/s) = 4.07741 4.30821 4.19440
# Velocity P-wave (km/s) = 6.68467 7.26968 6.98330
#
# Compressibility (1/GPa) = 0.01957163
#
# Stress axis : x y z
#
# Youngs Moduli (GPa) = 101.08950 103.93076 102.02618
#
# Poissons Ratio (x) = 0.28831 0.13706
# Poissons Ratio (y) = 0.28043 0.07697
# Poissons Ratio (z) = 0.13580 0.07841
#
# Static dielectric constant tensor:
#      x y z
#    x 1.855550 0.016720 -0.035100 
#    y 0.016720 1.846490 -0.024010 
#    z -0.035100 -0.024010 1.916990 
# 
# From -- ./inp_files/397661.got.cif
#   From: 2010.05.17/outbox.cif.g08.bks.cpg/sg2_199_cif.got.tgz:397661.got - 2010.06.03 11:33:40.
