data_PCOD9027063
_publ_section_title
;
Structure prediction by ZEFSAII (Michael W. Deem and Ramdas Pophale) SiO2 
 PCOD9027063
Probable space group: P -1
;
_chemical_formula_sum "Si O2"
_cell_formula_units_Z 16
_cell_length_a 18.094701
_cell_length_b 12.872133
_cell_length_c 6.473796
_cell_angle_alpha 45.798815
_cell_angle_beta 52.949398
_cell_angle_gamma 42.247018
_cell_volume 714.992236
_symmetry_space_group_name_H-M "P -1"
_symmetry_group_IT_number 2
_symmetry_cell_setting 'triclinic'
loop_
_space_group_symop_operation_xyz
x,y,z
-x,-y,-z
loop_
_atom_site_type_symbol
_atom_site_label
_atom_site_fract_x
_atom_site_fract_y
_atom_site_fract_z
Si Si1 0.095222 0.146707 0.621000
Si Si2 0.998052 0.975963 0.774547
Si Si3 0.519680 0.124625 0.158833
Si Si4 0.242672 0.132220 0.047024
Si Si5 0.663472 0.669343 0.149678
Si Si6 0.202703 0.593193 0.085843
Si Si7 0.062683 0.473544 0.710471
Si Si8 0.591466 0.539165 0.830387
O O1 0.197503 0.078613 0.389475
O O2 0.041723 0.353060 0.473392
O O3 0.009862 0.121425 0.662558
O O4 0.104455 0.031771 0.958936
O O5 0.105747 0.783206 0.910004
O O6 0.000000 0.000000 0.500000
O O7 0.468804 0.293866 0.150183
O O8 0.500000 0.000000 0.500000
O O9 0.446375 0.182321 0.994172
O O10 0.649753 0.027211 0.023244
O O11 0.282003 0.247673 0.929198
O O12 0.141949 0.261279 0.879829
O O13 0.628927 0.578328 0.498520
O O14 0.746492 0.534094 0.022224
O O15 0.154769 0.514030 0.434383
O O16 0.297838 0.598699 0.037310
O O17 0.000000 0.500000 0.000000
O O18 0.500000 0.500000 0.000000
#
# Coordination Sequence:
#
# PCOD9027063 Si02
#       8
#     2   2   2   2   2   2   2   2
#     4   9  22  40  61  92 127 161 218 265 315 391
#     4  10  22  42  62  89 131 171 210 265 325 393
#     4  11  23  43  64  97 133 167 221 271 323 399
#     4  11  20  39  67  93 127 169 209 274 330 376
#     4  11  23  40  68  94 130 171 216 270 335 383
#     4  10  22  41  66  96 130 172 218 267 326 396
#     4   9  18  39  64  91 127 163 208 271 317 381
#     4  11  25  44  68  96 133 175 221 274 329 393
#
# _framework density 22.377865
#
# number of rings (size 3 to 8) (size 9 to 14) (size 15 to 20)
#    0.000    1.750    2.500    1.125    1.750    5.000 
#    6.750    1.875    0.000    0.000    0.000    0.000 
#    0.000    0.000    0.000    0.000    0.000    0.000 
#
# Total GULP energy -89232.884244 kJ/mol
# GULP energy per Si atom -5577.055265 kJ/mol
# Density = 2.232693 g / cm^3
# Si number density = 22.377865 Si / 1000 Ang^3
#
#
#
# Elastic Constant Matrix: (Units=GPa)
#
#
# Indices 1 2 3 4 5 6 
#
# 1 53.9091 10.6078 43.7324 4.8364 0.6792 2.3469
# 2 10.6078 101.5417 33.4147 12.4828 7.0826 -22.8650
# 3 43.7324 33.4147 173.5825 21.0860 -4.2164 -11.0397
# 4 4.8364 12.4828 21.0860 30.4932 -10.0598 -7.2839
# 5 0.6792 7.0826 -4.2164 -10.0598 42.4912 0.3299
# 6 2.3469 -22.8650 -11.0397 -7.2839 0.3299 37.9441
#
#
#
# Elastic Compliance Matrix: (Units=1/GPa)
#
#
# Indices 1 2 3 4 5 6 
#
# 1 0.023902 -0.001347 -0.006002 -0.000331 -0.000800 -0.004093
# 2 -0.001347 0.012551 -0.001311 -0.003446 -0.003068 0.006630
# 3 -0.006002 -0.001311 0.008060 -0.003722 0.000224 0.001210
# 4 -0.000331 -0.003446 -0.003722 0.041229 0.009935 0.004689
# 5 -0.000800 -0.003068 0.000224 0.009935 0.026433 -0.000057
# 6 -0.004093 0.006630 0.001210 0.004689 -0.000057 0.031856
#
#
# Mechanical properties :
#
#
# Convention : Reuss Voigt Hill
#
# Bulk Modulus (GPa) = 36.77481 56.06037 46.41759
# Shear Modulus (GPa) = 29.34025 38.27092 33.80558
#
# Velocity S-wave (km/s) = 3.62488 4.13996 3.89095
# Velocity P-wave (km/s) = 5.83000 6.92520 6.40107
#
# Compressibility (1/GPa) = 0.02719253
#
# Stress axis : x y z
#
# Youngs Moduli (GPa) = 41.83796 79.67571 124.06968
#
# Poissons Ratio (x) = 0.10733 0.74468
# Poissons Ratio (y) = 0.05636 0.16264
# Poissons Ratio (z) = 0.25111 0.10445
#
# Static dielectric constant tensor:
#      x y z
#    x 1.926840 -0.011260 0.008720 
#    y -0.011260 1.846780 0.013660 
#    z 0.008720 0.013660 1.853170 
# 
# From -- ./inp_files/109462.got.cif
#   From: 2010.05.17/outbox.cif.g08.bks.cpg/sg2_55_cif.got.tgz:109462.got - 2010.06.03 11:33:40.
