data_PCOD9027209
_publ_section_title
;
Structure prediction by ZEFSAII (Michael W. Deem and Ramdas Pophale) SiO2 
 PCOD9027209
Probable space group: P -1
;
_chemical_formula_sum "Si O2"
_cell_formula_units_Z 12
_cell_length_a 12.623279
_cell_length_b 5.412114
_cell_length_c 8.858861
_cell_angle_alpha 111.414962
_cell_angle_beta 87.682082
_cell_angle_gamma 71.075905
_cell_volume 524.242773
_symmetry_space_group_name_H-M "P -1"
_symmetry_group_IT_number 2
_symmetry_cell_setting 'triclinic'
loop_
_space_group_symop_operation_xyz
x,y,z
-x,-y,-z
loop_
_atom_site_type_symbol
_atom_site_label
_atom_site_fract_x
_atom_site_fract_y
_atom_site_fract_z
Si Si1 0.571565 0.201959 0.012297
Si Si2 0.332751 0.665293 0.414521
Si Si3 0.995947 0.318627 0.107660
Si Si4 0.222762 0.266272 0.258654
Si Si5 0.430484 0.396197 0.650712
Si Si6 0.777838 0.749225 0.380494
O O1 0.683712 0.022197 0.873967
O O2 0.500000 0.500000 0.000000
O O3 0.599622 0.305497 0.195357
O O4 0.500000 0.000000 0.000000
O O5 0.272691 0.514597 0.273535
O O6 0.403138 0.437412 0.484193
O O7 0.434274 0.761153 0.368002
O O8 0.237027 0.921569 0.562972
O O9 0.103911 0.303043 0.199004
O O10 0.881489 0.507093 0.243575
O O11 0.000000 0.500000 0.000000
O O12 0.000000 0.000000 0.000000
O O13 0.211661 0.279779 0.444055
O O14 0.339675 0.264894 0.681419
#
# Coordination Sequence:
#
# PCOD9027209 Si02
#       6
#     2   2   2   2   2   2
#     4  12  26  42  70 106 149 191 236 294 361 430
#     4  10  22  41  72 105 143 192 236 300 359 437
#     4  12  31  52  77 106 144 195 249 310 368 431
#     4  11  26  46  73 110 146 192 251 298 366 435
#     4  10  22  41  67 107 148 187 244 285 369 426
#     4  11  25  45  75 101 148 192 247 300 366 434
#
# _framework density 22.890160999999999
#
# number of rings (size 3 to 8) (size 9 to 14) (size 15 to 20)
#    0.000    1.000    1.667    3.000   11.667    0.667 
#    0.000    0.000    0.000    0.000    0.000    0.000 
#    0.000    0.000    0.000    0.000    0.000    0.000 
#
# Total GULP energy -67041.880894 kJ/mol
# GULP energy per Si atom -5586.823408 kJ/mol
# Density = 2.283806 g / cm^3
# Si number density = 22.890161 Si / 1000 Ang^3
#
#
#
# Elastic Constant Matrix: (Units=GPa)
#
#
# Indices 1 2 3 4 5 6 
#
# 1 148.6676 53.7214 65.1649 28.8712 16.3300 -2.5814
# 2 53.7214 100.7502 40.4569 27.0935 -0.9207 7.2011
# 3 65.1649 40.4569 147.8609 36.0863 -10.9129 -1.5311
# 4 28.8712 27.0935 36.0863 56.3919 -6.0470 -2.9621
# 5 16.3300 -0.9207 -10.9129 -6.0470 56.3222 11.8034
# 6 -2.5814 7.2011 -1.5311 -2.9621 11.8034 23.1284
#
#
#
# Elastic Compliance Matrix: (Units=1/GPa)
#
#
# Indices 1 2 3 4 5 6 
#
# 1 0.010737 -0.004296 -0.003518 -0.001473 -0.005001 0.004667
# 2 -0.004296 0.014181 -0.000874 -0.004162 0.002252 -0.006635
# 3 -0.003518 -0.000874 0.009653 -0.003732 0.002762 -0.001369
# 4 -0.001473 -0.004162 -0.003732 0.023196 0.001476 0.003102
# 5 -0.005001 0.002252 0.002762 0.001476 0.022531 -0.012386
# 6 0.004667 -0.006635 -0.001369 0.003102 -0.012386 0.052451
#
#
# Mechanical properties :
#
#
# Convention : Reuss Voigt Hill
#
# Bulk Modulus (GPa) = 58.15105 79.55166 68.85136
# Shear Modulus (GPa) = 32.08078 43.03087 37.55582
#
# Velocity S-wave (km/s) = 3.74774 4.34047 4.05495
# Velocity P-wave (km/s) = 6.64732 7.74265 7.21580
#
# Compressibility (1/GPa) = 0.01719659
#
# Stress axis : x y z
#
# Youngs Moduli (GPa) = 93.13495 70.51758 103.59351
#
# Poissons Ratio (x) = 0.30291 0.36443
# Poissons Ratio (y) = 0.40007 0.09051
# Poissons Ratio (z) = 0.32764 0.06161
#
# Static dielectric constant tensor:
#      x y z
#    x 1.875740 0.085030 -0.029470 
#    y 0.085030 1.964500 -0.052000 
#    z -0.029470 -0.052000 1.889980 
# 
# From -- ./inp_files/23330.got.cif
#   From: 2010.05.17/outbox.cif.g08.bks.cpg/sg2_12_cif.got.tgz:23330.got - 2010.06.03 11:33:40.
