data_PCOD9027156
_publ_section_title
;
Structure prediction by ZEFSAII (Michael W. Deem and Ramdas Pophale) SiO2 
 PCOD9027156
Probable space group: P -1
;
_chemical_formula_sum "Si O2"
_cell_formula_units_Z 16
_cell_length_a 10.927003
_cell_length_b 11.606930
_cell_length_c 15.314485
_cell_angle_alpha 150.711251
_cell_angle_beta 121.694741
_cell_angle_gamma 75.055096
_cell_volume 708.688433
_symmetry_space_group_name_H-M "P -1"
_symmetry_group_IT_number 2
_symmetry_cell_setting 'triclinic'
loop_
_space_group_symop_operation_xyz
x,y,z
-x,-y,-z
loop_
_atom_site_type_symbol
_atom_site_label
_atom_site_fract_x
_atom_site_fract_y
_atom_site_fract_z
Si Si1 0.889567 0.197527 0.524251
Si Si2 0.068901 0.405142 0.547869
Si Si3 0.555952 0.306902 0.697557
Si Si4 0.868601 0.860592 0.749326
Si Si5 0.514125 0.772930 0.585379
Si Si6 0.227014 0.388641 0.875024
Si Si7 0.603548 0.323805 0.047153
Si Si8 0.797000 0.625873 0.739811
O O1 0.822391 0.401891 0.649369
O O2 0.948146 0.239846 0.472681
O O3 0.047252 0.300963 0.713814
O O4 0.770284 0.890862 0.299644
O O5 0.132402 0.218188 0.401769
O O6 0.233539 0.626516 0.803973
O O7 0.000000 0.500000 0.500000
O O8 0.540056 0.279897 0.570485
O O9 0.465819 0.482304 0.811521
O O10 0.500000 0.000000 0.500000
O O11 0.728316 0.470814 0.921633
O O12 0.712796 0.899922 0.738994
O O13 0.831292 0.625193 0.649388
O O14 0.053824 0.091324 0.988804
O O15 0.392298 0.472845 0.378792
O O16 0.495528 0.000353 0.784442
O O17 0.346158 0.575295 0.967171
#
# Coordination Sequence:
#
# PCOD9027156 Si02
#       8
#     2   2   2   2   2   2   2   2
#     4  10  22  41  67 100 142 185 238 291 351 428
#     4  11  22  43  71 102 139 191 238 295 362 419
#     4  12  25  41  67 102 140 185 238 285 350 424
#     4  11  24  47  70 102 145 184 238 298 360 421
#     4  12  26  47  71 107 141 187 241 290 359 426
#     4  10  22  41  66  99 140 190 232 284 358 413
#     4  11  24  45  70  98 148 189 228 300 357 415
#     4  11  25  43  72  99 141 188 234 299 357 418
#
# _framework density 22.576917999999999
#
# number of rings (size 3 to 8) (size 9 to 14) (size 15 to 20)
#    0.000    1.000    3.750    3.000    5.250    0.000 
#    0.000    1.250    0.000    0.000    0.000    0.000 
#    0.000    0.000    0.000    0.000    0.000    0.000 
#
# Total GULP energy -89087.292423 kJ/mol
# GULP energy per Si atom -5567.955776 kJ/mol
# Density = 2.252553 g / cm^3
# Si number density = 22.576918 Si / 1000 Ang^3
#
#
#
# Elastic Constant Matrix: (Units=GPa)
#
#
# Indices 1 2 3 4 5 6 
#
# 1 67.5448 12.5187 29.7503 -4.7882 5.1163 -3.4669
# 2 12.5187 85.8295 37.9893 -17.9818 16.9394 -14.1935
# 3 29.7503 37.9893 111.2422 -8.6765 7.8858 7.6668
# 4 -4.7882 -17.9818 -8.6765 38.9971 4.1939 -0.9559
# 5 5.1163 16.9394 7.8858 4.1939 33.5371 5.4898
# 6 -3.4669 -14.1935 7.6668 -0.9559 5.4898 25.9685
#
#
#
# Elastic Compliance Matrix: (Units=1/GPa)
#
#
# Indices 1 2 3 4 5 6 
#
# 1 0.017536 0.002023 -0.005333 0.002443 -0.003713 0.005896
# 2 0.002023 0.023162 -0.007830 0.011220 -0.014639 0.018749
# 3 -0.005333 -0.007830 0.013367 -0.001902 0.003457 -0.009739
# 4 0.002443 0.011220 -0.001902 0.032174 -0.011352 0.010604
# 5 -0.003713 -0.014639 0.003457 -0.011352 0.041445 -0.018697
# 6 0.005896 0.018749 -0.009739 0.010604 -0.018697 0.056761
#
#
# Mechanical properties :
#
#
# Convention : Reuss Voigt Hill
#
# Bulk Modulus (GPa) = 31.46203 47.23700 39.34951
# Shear Modulus (GPa) = 23.00728 31.99109 27.49918
#
# Velocity S-wave (km/s) = 3.19574 3.76837 3.49380
# Velocity P-wave (km/s) = 5.25193 6.31682 5.80883
#
# Compressibility (1/GPa) = 0.03178435
#
# Stress axis : x y z
#
# Youngs Moduli (GPa) = 57.02487 43.17420 74.80869
#
# Poissons Ratio (x) = -0.08732 0.39896
# Poissons Ratio (y) = -0.11533 0.58576
# Poissons Ratio (z) = 0.30412 0.33806
#
# Static dielectric constant tensor:
#      x y z
#    x 2.005750 -0.119490 0.006410 
#    y -0.119490 1.915630 -0.021420 
#    z 0.006410 -0.021420 1.860790 
# 
# From -- ./inp_files/519972.got.cif
#   From: 2010.05.17/outbox.cif.g08.bks.cpg/sg2_260_cif.got.tgz:519972.got - 2010.06.03 11:33:40.
