data_PCOD9027232
_publ_section_title
;
Structure prediction by ZEFSAII (Michael W. Deem and Ramdas Pophale) SiO2 
 PCOD9027232
Probable space group: P -1
;
_chemical_formula_sum "Si O2"
_cell_formula_units_Z 14
_cell_length_a 9.800960
_cell_length_b 10.962403
_cell_length_c 11.642548
_cell_angle_alpha 122.636509
_cell_angle_beta 141.416328
_cell_angle_gamma 43.551739
_cell_volume 536.437908
_symmetry_space_group_name_H-M "P -1"
_symmetry_group_IT_number 2
_symmetry_cell_setting 'triclinic'
loop_
_space_group_symop_operation_xyz
x,y,z
-x,-y,-z
loop_
_atom_site_type_symbol
_atom_site_label
_atom_site_fract_x
_atom_site_fract_y
_atom_site_fract_z
Si Si1 0.487520 0.023442 0.774060
Si Si2 0.217062 0.788847 0.951475
Si Si3 0.867972 0.969976 0.290120
Si Si4 0.180810 0.445701 0.477828
Si Si5 0.727526 0.076985 0.627865
Si Si6 0.450613 0.631477 0.795692
Si Si7 0.987089 0.352638 0.080999
O O1 0.290470 0.100425 0.792751
O O2 0.338029 0.018134 0.561043
O O3 0.724386 0.817433 0.853442
O O4 0.616870 0.127763 0.887964
O O5 0.372381 0.637087 0.880997
O O6 0.160613 0.730448 0.002377
O O7 0.924688 0.932787 0.777298
O O8 0.667205 0.166999 0.207814
O O9 0.000000 0.000000 0.500000
O O10 0.097803 0.865708 0.293516
O O11 0.445943 0.246778 0.567705
O O12 0.287842 0.567932 0.591871
O O13 0.000000 0.500000 0.500000
O O14 0.037103 0.440937 0.266634
O O15 0.768912 0.499910 0.925873
#
# Coordination Sequence:
#
# PCOD9027232 Si02
#       7
#     2   2   2   2   2   2   2
#     4  10  22  41  67  92 126 173 213 260 315 370
#     4  11  22  39  63  98 129 166 211 263 313 380
#     4   9  21  46  66  92 125 167 223 260 307 378
#     4  11  23  42  64  94 133 170 202 259 327 382
#     4   9  22  41  64  92 128 166 214 261 310 373
#     4  11  24  41  64  93 134 166 208 266 316 375
#     4  11  24  41  61 101 133 164 211 260 323 382
#
# _framework density 26.098081000000001
#
# number of rings (size 3 to 8) (size 9 to 14) (size 15 to 20)
#    0.000    1.714    1.429    1.714    0.000    9.714 
#    2.571    9.286    0.000    0.000    0.000    0.000 
#    0.000    0.000    0.000    0.000    0.000    0.000 
#
# Total GULP energy -78530.055350 kJ/mol
# GULP energy per Si atom -5609.289668 kJ/mol
# Density = 2.603868 g / cm^3
# Si number density = 26.098081 Si / 1000 Ang^3
#
#
#
# Elastic Constant Matrix: (Units=GPa)
#
#
# Indices 1 2 3 4 5 6 
#
# 1 109.8435 24.5153 25.5382 -8.9637 24.9976 -15.3617
# 2 24.5153 72.9808 36.8680 -15.9538 14.7706 -17.7607
# 3 25.5382 36.8680 152.7974 10.9372 19.9059 6.1538
# 4 -8.9637 -15.9538 10.9372 51.5065 0.8575 1.5749
# 5 24.9976 14.7706 19.9059 0.8575 32.0968 -1.4096
# 6 -15.3617 -17.7607 6.1538 1.5749 -1.4096 27.5832
#
#
#
# Elastic Compliance Matrix: (Units=1/GPa)
#
#
# Indices 1 2 3 4 5 6 
#
# 1 0.012562 0.000727 -0.001601 0.002679 -0.008881 0.007215
# 2 0.000727 0.023869 -0.006203 0.008459 -0.007213 0.016307
# 3 -0.001601 -0.006203 0.009086 -0.003893 -0.001727 -0.006779
# 4 0.002679 0.008459 -0.003893 0.023201 -0.003908 0.006282
# 5 -0.008881 -0.007213 -0.001727 -0.003908 0.042268 -0.006822
# 6 0.007215 0.016307 -0.006779 0.006282 -0.006822 0.051577
#
#
# Mechanical properties :
#
#
# Convention : Reuss Voigt Hill
#
# Bulk Modulus (GPa) = 31.88365 56.60718 44.24541
# Shear Modulus (GPa) = 26.71371 38.81732 32.76552
#
# Velocity S-wave (km/s) = 3.20283 3.86082 3.54711
# Velocity P-wave (km/s) = 5.09125 6.45072 5.81088
#
# Compressibility (1/GPa) = 0.03136404
#
# Stress axis : x y z
#
# Youngs Moduli (GPa) = 79.60389 41.89514 110.06421
#
# Poissons Ratio (x) = -0.03048 0.17616
# Poissons Ratio (y) = -0.05791 0.68277
# Poissons Ratio (z) = 0.12741 0.25989
#
# Static dielectric constant tensor:
#      x y z
#    x 2.067070 -0.018800 -0.000220 
#    y -0.018800 2.055250 0.016270 
#    z -0.000220 0.016270 2.061890 
# 
# From -- ./inp_files/519159.got.cif
#   From: 2010.05.17/outbox.cif.g08.bks.cpg/sg2_260_cif.got.tgz:519159.got - 2010.06.03 11:33:40.
