data_PCOD9027276
_publ_section_title
;
Structure prediction by ZEFSAII (Michael W. Deem and Ramdas Pophale) SiO2 
 PCOD9027276
Probable space group: P -1
;
_chemical_formula_sum "Si O2"
_cell_formula_units_Z 14
_cell_length_a 10.638203
_cell_length_b 9.780272
_cell_length_c 9.747346
_cell_angle_alpha 135.219571
_cell_angle_beta 69.477676
_cell_angle_gamma 97.797143
_cell_volume 659.108988
_symmetry_space_group_name_H-M "P -1"
_symmetry_group_IT_number 2
_symmetry_cell_setting 'triclinic'
loop_
_space_group_symop_operation_xyz
x,y,z
-x,-y,-z
loop_
_atom_site_type_symbol
_atom_site_label
_atom_site_fract_x
_atom_site_fract_y
_atom_site_fract_z
Si Si1 0.889774 0.548355 0.453363
Si Si2 0.602237 0.671620 0.004133
Si Si3 0.901685 0.151099 0.049819
Si Si4 0.308422 0.917517 0.701295
Si Si5 0.116890 0.020126 0.360843
Si Si6 0.580752 0.491038 0.603778
Si Si7 0.688277 0.234006 0.695058
O O1 0.932273 0.369064 0.205464
O O2 0.737134 0.529069 0.549829
O O3 0.000000 0.500000 0.500000
O O4 0.883429 0.755799 0.527776
O O5 0.475256 0.727803 0.195434
O O6 0.673301 0.861580 0.123035
O O7 0.539039 0.633652 0.851227
O O8 0.704564 0.465325 0.849136
O O9 0.761337 0.142939 0.176688
O O10 0.903920 0.085899 0.848385
O O11 0.000000 0.000000 0.000000
O O12 0.430790 0.733060 0.508144
O O13 0.246418 0.881102 0.549004
O O14 0.250744 0.901413 0.298629
O O15 0.000000 0.000000 0.500000
O O16 0.500000 0.500000 0.500000
#
# Coordination Sequence:
#
# PCOD9027276 Si02
#       7
#     2   2   2   2   2   2   2
#     4  11  25  45  71  99 140 183 227 282 342 410
#     4  10  22  41  68  90 137 183 220 285 350 402
#     4  11  23  42  69  95 128 176 230 275 340 409
#     4  10  22  41  67  94 130 179 223 279 343 410
#     4  12  27  43  68 101 139 176 233 289 337 412
#     4  10  24  41  67 105 133 173 237 284 335 412
#     4  10  24  41  62 100 135 174 232 283 342 409
#
# _framework density 21.240796
#
# number of rings (size 3 to 8) (size 9 to 14) (size 15 to 20)
#    0.000    1.429    1.429    2.143   10.000    2.286 
#    0.000    0.000    0.000    0.000    0.000    0.000 
#    0.000    0.000    0.000    0.000    0.000    0.000 
#
# Total GULP energy -77938.849851 kJ/mol
# GULP energy per Si atom -5567.060704 kJ/mol
# Density = 2.119245 g / cm^3
# Si number density = 21.240796 Si / 1000 Ang^3
#
#
#
# Elastic Constant Matrix: (Units=GPa)
#
#
# Indices 1 2 3 4 5 6 
#
# 1 61.4284 46.6258 37.0369 0.4449 6.1838 -14.2020
# 2 46.6258 164.0673 91.8261 18.7423 24.7243 -15.6499
# 3 37.0369 91.8261 184.6365 4.9541 27.9491 -2.4770
# 4 0.4449 18.7423 4.9541 60.6591 8.6057 8.0838
# 5 6.1838 24.7243 27.9491 8.6057 28.7409 -6.4265
# 6 -14.2020 -15.6499 -2.4770 8.0838 -6.4265 39.4121
#
#
#
# Elastic Compliance Matrix: (Units=1/GPa)
#
#
# Indices 1 2 3 4 5 6 
#
# 1 0.022729 -0.004943 -0.002502 0.000241 0.003185 0.006540
# 2 -0.004943 0.010564 -0.003688 -0.002786 -0.003101 0.002248
# 3 -0.002502 -0.003688 0.008543 0.001700 -0.005805 -0.003124
# 4 0.000241 -0.002786 0.001700 0.018866 -0.006255 -0.005802
# 5 0.003185 -0.003101 -0.005805 -0.006255 0.046163 0.008362
# 6 0.006540 0.002248 -0.003124 -0.005802 0.008362 0.030979
#
#
# Mechanical properties :
#
#
# Convention : Reuss Voigt Hill
#
# Bulk Modulus (GPa) = 51.09657 84.56774 67.83216
# Shear Modulus (GPa) = 30.00601 41.40530 35.70565
#
# Velocity S-wave (km/s) = 3.76261 4.41991 4.10444
# Velocity P-wave (km/s) = 6.55625 8.12082 7.38011
#
# Compressibility (1/GPa) = 0.01957079
#
# Stress axis : x y z
#
# Youngs Moduli (GPa) = 43.99686 94.66343 117.05193
#
# Poissons Ratio (x) = 0.46788 0.29286
# Poissons Ratio (y) = 0.21746 0.43168
# Poissons Ratio (z) = 0.11008 0.34912
#
# Static dielectric constant tensor:
#      x y z
#    x 1.884100 -0.079370 0.046480 
#    y -0.079370 1.904720 0.019800 
#    z 0.046480 0.019800 1.766770 
# 
# From -- ./inp_files/177272.got.cif
#   From: 2010.05.17/outbox.cif.g08.bks.cpg/sg2_89_cif.got.tgz:177272.got - 2010.06.03 11:33:40.
