data_PCOD9027789
_publ_section_title
;
Structure prediction by ZEFSAII (Michael W. Deem and Ramdas Pophale) SiO2 
 PCOD9027789
Probable space group: P -1
;
_chemical_formula_sum "Si O2"
_cell_formula_units_Z 16
_cell_length_a 15.087152
_cell_length_b 12.958056
_cell_length_c 8.944921
_cell_angle_alpha 74.979287
_cell_angle_beta 120.417134
_cell_angle_gamma 54.658606
_cell_volume 762.451790
_symmetry_space_group_name_H-M "P -1"
_symmetry_group_IT_number 2
_symmetry_cell_setting 'triclinic'
loop_
_space_group_symop_operation_xyz
x,y,z
-x,-y,-z
loop_
_atom_site_type_symbol
_atom_site_label
_atom_site_fract_x
_atom_site_fract_y
_atom_site_fract_z
Si Si1 0.612394 0.497697 0.181118
Si Si2 0.656516 0.662844 0.963282
Si Si3 0.154248 0.281036 0.849962
Si Si4 0.096498 0.222211 0.502157
Si Si5 0.576489 0.331561 0.719692
Si Si6 0.048356 0.043920 0.648795
Si Si7 0.471149 0.849735 0.417776
Si Si8 0.157157 0.359289 0.321855
O O1 0.539830 0.569200 0.260999
O O2 0.500000 0.500000 0.000000
O O3 0.580541 0.639554 0.018755
O O4 0.844820 0.266881 0.458986
O O5 0.717201 0.724824 0.055822
O O6 0.519743 0.799963 0.652424
O O7 0.869047 0.428382 0.178838
O O8 0.278265 0.088610 0.127070
O O9 0.112693 0.265969 0.660326
O O10 0.956782 0.484991 0.694951
O O11 0.207227 0.195632 0.484797
O O12 0.150213 0.053500 0.646987
O O13 0.500000 0.500000 0.500000
O O14 0.546405 0.251667 0.628593
O O15 0.804622 0.133276 0.036867
O O16 0.000000 0.000000 0.500000
O O17 0.651203 0.750107 0.527662
O O18 0.000000 0.500000 0.000000
#
# Coordination Sequence:
#
# PCOD9027789 Si02
#       8
#     2   2   2   2   2   2   2   2
#     4  11  24  46  73  98 129 180 230 274 341 402
#     4  10  22  41  69  92 138 180 212 273 333 398
#     4  11  23  43  64  98 137 171 223 272 330 397
#     4  10  22  42  67  97 135 174 219 275 329 398
#     4  12  28  46  69 102 136 174 228 287 338 402
#     4  11  24  47  72  97 133 178 230 278 337 404
#     4  12  25  42  65 101 136 174 224 274 333 400
#     4  11  23  40  66  98 136 180 217 265 339 392
#
# _framework density 20.984933999999999
#
# number of rings (size 3 to 8) (size 9 to 14) (size 15 to 20)
#    0.000    1.000    5.000    2.625    7.000    2.000 
#    0.000    1.250    0.000    0.000    0.000    0.000 
#    0.000    0.000    0.000    0.000    0.000    0.000 
#
# Total GULP energy -89515.679957 kJ/mol
# GULP energy per Si atom -5594.729997 kJ/mol
# Density = 2.093717 g / cm^3
# Si number density = 20.984934 Si / 1000 Ang^3
#
#
#
# Elastic Constant Matrix: (Units=GPa)
#
#
# Indices 1 2 3 4 5 6 
#
# 1 126.4645 47.3145 45.9612 -6.4949 -28.7164 6.9424
# 2 47.3145 94.3581 26.8414 5.5926 -11.8677 13.9616
# 3 45.9612 26.8414 143.7207 -8.5529 -26.3800 -0.4142
# 4 -6.4949 5.5926 -8.5529 37.0808 -0.4976 -1.5465
# 5 -28.7164 -11.8677 -26.3800 -0.4976 41.4289 -9.1310
# 6 6.9424 13.9616 -0.4142 -1.5465 -9.1310 36.4934
#
#
#
# Elastic Compliance Matrix: (Units=1/GPa)
#
#
# Indices 1 2 3 4 5 6 
#
# 1 0.011806 -0.005061 -0.001559 0.002607 0.006058 0.001299
# 2 -0.005061 0.014359 -0.001583 -0.003651 -0.001570 -0.005096
# 3 -0.001559 -0.001583 0.008717 0.002130 0.004533 0.002226
# 4 0.002607 -0.003651 0.002130 0.028630 0.003104 0.002915
# 5 0.006058 -0.001570 0.004533 0.003104 0.032523 0.007769
# 6 0.001299 -0.005096 0.002226 0.002915 0.007769 0.031197
#
#
# Mechanical properties :
#
#
# Convention : Reuss Voigt Hill
#
# Bulk Modulus (GPa) = 54.12784 67.19749 60.66266
# Shear Modulus (GPa) = 33.37823 39.29569 36.33696
#
# Velocity S-wave (km/s) = 3.99253 4.33201 4.16573
# Velocity P-wave (km/s) = 6.86319 7.55732 7.21860
#
# Compressibility (1/GPa) = 0.01847478
#
# Stress axis : x y z
#
# Youngs Moduli (GPa) = 84.70445 69.64231 114.71228
#
# Poissons Ratio (x) = 0.35246 0.17888
# Poissons Ratio (y) = 0.42869 0.18163
# Poissons Ratio (z) = 0.13209 0.11027
#
# Static dielectric constant tensor:
#      x y z
#    x 1.768400 0.013540 0.011020 
#    y 0.013540 1.725560 -0.029500 
#    z 0.011020 -0.029500 1.751990 
# 
# From -- ./inp_files/242147.got.cif
#   From: 2010.05.17/outbox.cif.g08.bks.cpg/sg2_122_cif.got.tgz:242147.got - 2010.06.03 11:33:40.
