data_PCOD9027877
_publ_section_title
;
Structure prediction by ZEFSAII (Michael W. Deem and Ramdas Pophale) SiO2 
 PCOD9027877
Probable space group: P -1
;
_chemical_formula_sum "Si O2"
_cell_formula_units_Z 15
_cell_length_a 7.485026
_cell_length_b 9.045108
_cell_length_c 11.907037
_cell_angle_alpha 126.439501
_cell_angle_beta 114.000174
_cell_angle_gamma 69.243005
_cell_volume 585.437109
_symmetry_space_group_name_H-M "P -1"
_symmetry_group_IT_number 2
_symmetry_cell_setting 'triclinic'
loop_
_space_group_symop_operation_xyz
x,y,z
-x,-y,-z
loop_
_atom_site_type_symbol
_atom_site_label
_atom_site_fract_x
_atom_site_fract_y
_atom_site_fract_z
Si Si1 0.871018 0.718834 0.782051
Si Si2 0.181644 0.781334 0.711750
Si Si3 0.280629 0.653779 0.439410
Si Si4 0.187013 0.646582 0.010268
Si Si5 0.500000 0.000000 0.000000
Si Si6 0.877193 0.112261 0.684393
Si Si7 0.561749 0.926926 0.639805
Si Si8 0.619034 0.755647 0.124969
O O1 0.756427 0.547340 0.698965
O O2 0.704220 0.883933 0.768835
O O3 0.031240 0.686880 0.708048
O O4 0.006713 0.750492 0.936653
O O5 0.259422 0.659147 0.569983
O O6 0.054515 0.963204 0.705433
O O7 0.356022 0.845281 0.856537
O O8 0.122975 0.802900 0.400335
O O9 0.482316 0.736851 0.504105
O O10 0.217970 0.424985 0.901004
O O11 0.154122 0.714283 0.159374
O O12 0.399908 0.698377 0.054387
O O13 0.625500 0.848136 0.047912
O O14 0.689333 0.005988 0.612956
O O15 0.388354 0.085117 0.710113
#
# Coordination Sequence:
#
# PCOD9027877 Si02
#       8
#     2   2   2   2   1   2   2   2
#     4  11  25  43  69  99 139 172 221 286 321 396
#     4  11  25  44  67 102 133 179 223 269 342 391
#     4  12  24  44  66  97 136 181 225 268 330 402
#     4  10  23  44  66 103 133 166 224 270 346 377
#     4  12  22  40  72  98 132 170 228 274 330 398
#     4  10  25  43  70  98 137 174 220 285 324 397
#     4  10  23  45  68  98 131 177 226 269 343 387
#     4  10  22  41  69  99 130 174 212 280 329 402
#
# _framework density 25.621881999999999
#
# number of rings (size 3 to 8) (size 9 to 14) (size 15 to 20)
#    0.000    1.333    2.667    1.600    3.733    4.267 
#    2.400    2.667    0.000    0.000    0.000    0.000 
#    0.000    0.000    0.000    0.000    0.000    0.000 
#
# Total GULP energy -83755.366937 kJ/mol
# GULP energy per Si atom -5583.691129 kJ/mol
# Density = 2.556357 g / cm^3
# Si number density = 25.621882 Si / 1000 Ang^3
#
#
#
# Elastic Constant Matrix: (Units=GPa)
#
#
# Indices 1 2 3 4 5 6 
#
# 1 89.6101 6.2837 35.1040 11.5248 23.0937 20.0260
# 2 6.2837 86.3481 18.2957 -0.8650 0.0840 21.4894
# 3 35.1040 18.2957 93.1260 0.7985 25.6963 5.0137
# 4 11.5248 -0.8650 0.7985 39.3120 0.0830 4.3076
# 5 23.0937 0.0840 25.6963 0.0830 32.7117 -0.3485
# 6 20.0260 21.4894 5.0137 4.3076 -0.3485 22.6516
#
#
#
# Elastic Compliance Matrix: (Units=1/GPa)
#
#
# Indices 1 2 3 4 5 6 
#
# 1 0.020702 0.004703 -0.004411 -0.003519 -0.011380 -0.021294
# 2 0.004703 0.016968 -0.003924 0.001226 -0.000494 -0.019627
# 3 -0.004411 -0.003924 0.015423 0.000476 -0.008950 0.003980
# 4 -0.003519 0.001226 0.000476 0.026836 0.002004 -0.003230
# 5 -0.011380 -0.000494 -0.008950 0.002004 0.045768 0.012833
# 6 -0.021294 -0.019627 0.003980 -0.003230 0.012833 0.081523
#
#
# Mechanical properties :
#
#
# Convention : Reuss Voigt Hill
#
# Bulk Modulus (GPa) = 21.82025 43.16122 32.49073
# Shear Modulus (GPa) = 21.76198 32.89513 27.32856
#
# Velocity S-wave (km/s) = 2.91752 3.58700 3.26944
# Velocity P-wave (km/s) = 4.45915 5.83416 5.19237
#
# Compressibility (1/GPa) = 0.04582899
#
# Stress axis : x y z
#
# Youngs Moduli (GPa) = 48.30557 58.93584 64.83843
#
# Poissons Ratio (x) = -0.27719 0.28599
# Poissons Ratio (y) = -0.22719 0.25442
# Poissons Ratio (z) = 0.21307 0.23126
#
# Static dielectric constant tensor:
#      x y z
#    x 2.063700 0.024490 0.017370 
#    y 0.024490 1.970330 -0.004670 
#    z 0.017370 -0.004670 2.028460 
# 
# From -- ./inp_files/383632.got.cif
#   From: 2010.05.17/outbox.cif.g08.bks.cpg/sg2_192_cif.got.tgz:383632.got - 2010.06.03 11:33:40.
