data_PCOD9027405
_publ_section_title
;
Structure prediction by ZEFSAII (Michael W. Deem and Ramdas Pophale) SiO2 
 PCOD9027405
Probable space group: P -1
;
_chemical_formula_sum "Si O2"
_cell_formula_units_Z 15
_cell_length_a 7.323495
_cell_length_b 13.630628
_cell_length_c 6.507915
_cell_angle_alpha 93.294298
_cell_angle_beta 87.515280
_cell_angle_gamma 75.562100
_cell_volume 626.969841
_symmetry_space_group_name_H-M "P -1"
_symmetry_group_IT_number 2
_symmetry_cell_setting 'triclinic'
loop_
_space_group_symop_operation_xyz
x,y,z
-x,-y,-z
loop_
_atom_site_type_symbol
_atom_site_label
_atom_site_fract_x
_atom_site_fract_y
_atom_site_fract_z
Si Si1 0.240715 0.062144 0.418216
Si Si2 0.029561 0.616288 0.661336
Si Si3 0.207902 0.874814 0.633452
Si Si4 0.743244 0.812560 0.210345
Si Si5 0.500000 0.000000 0.000000
Si Si6 0.752716 0.600388 0.336807
Si Si7 0.325625 0.668800 0.354278
Si Si8 0.128455 0.771918 0.991872
O O1 0.292748 0.153338 0.547396
O O2 0.016908 0.094498 0.390788
O O3 0.280501 0.970131 0.570576
O O4 0.350299 0.028961 0.202052
O O5 0.114644 0.507664 0.748138
O O6 0.170665 0.622087 0.465208
O O7 0.045241 0.706865 0.820949
O O8 0.832939 0.621506 0.559321
O O9 0.305170 0.776304 0.485039
O O10 0.225519 0.846730 0.869542
O O11 0.592646 0.885668 0.085249
O O12 0.759298 0.693020 0.195912
O O13 0.949373 0.828530 0.142384
O O14 0.534931 0.600271 0.359043
O O15 0.270946 0.697506 0.126081
#
# Coordination Sequence:
#
# PCOD9027405 Si02
#       8
#     2   2   2   2   1   2   2   2
#     4  11  23  42  66  94 141 187 247 295 354 427
#     4  10  24  47  69 105 145 189 238 307 358 429
#     4  10  22  41  67  98 137 194 237 295 360 424
#     4  12  24  44  65 101 144 189 238 300 352 433
#     4  12  26  40  64  98 134 184 236 296 350 420
#     4  11  24  45  73 102 145 190 242 301 363 423
#     4  11  22  45  70 104 141 187 244 298 355 438
#     4  11  22  44  73  98 150 191 237 296 367 423
#
# _framework density 23.924599000000001
#
# number of rings (size 3 to 8) (size 9 to 14) (size 15 to 20)
#    0.000    1.067    4.000    2.400    0.000    3.733 
#    4.800    1.333    0.000    0.000    0.000    0.000 
#    0.000    0.000    0.000    0.000    0.000    0.000 
#
# Total GULP energy -83763.330713 kJ/mol
# GULP energy per Si atom -5584.222048 kJ/mol
# Density = 2.387015 g / cm^3
# Si number density = 23.924599 Si / 1000 Ang^3
#
#
#
# Elastic Constant Matrix: (Units=GPa)
#
#
# Indices 1 2 3 4 5 6 
#
# 1 50.9788 -13.6424 25.3174 3.0166 18.0272 -14.6079
# 2 -13.6424 115.8961 19.5318 -21.0857 0.7361 -1.9073
# 3 25.3174 19.5318 86.7483 -8.4858 -10.6700 1.7745
# 4 3.0166 -21.0857 -8.4858 32.8147 -6.5938 -1.3019
# 5 18.0272 0.7361 -10.6700 -6.5938 30.2940 -12.5268
# 6 -14.6079 -1.9073 1.7745 -1.3019 -12.5268 35.3400
#
#
#
# Elastic Compliance Matrix: (Units=1/GPa)
#
#
# Indices 1 2 3 4 5 6 
#
# 1 0.047631 0.007384 -0.021218 -0.011860 -0.035167 0.008250
# 2 0.007384 0.011198 -0.004822 0.004497 -0.004341 0.002525
# 3 -0.021218 -0.004822 0.022389 0.008914 0.021684 -0.002140
# 4 -0.011860 0.004497 0.008914 0.041034 0.020544 0.003686
# 5 -0.035167 -0.004341 0.021684 0.020544 0.070195 0.009779
# 6 0.008250 0.002525 -0.002140 0.003686 0.009779 0.035553
#
#
# Mechanical properties :
#
#
# Convention : Reuss Voigt Hill
#
# Bulk Modulus (GPa) = 22.77624 35.11517 28.94571
# Shear Modulus (GPa) = 17.86064 34.51750 26.18907
#
# Velocity S-wave (km/s) = 2.73525 3.80249 3.31214
# Velocity P-wave (km/s) = 4.41771 5.82991 5.17223
#
# Compressibility (1/GPa) = 0.04390540
#
# Stress axis : x y z
#
# Youngs Moduli (GPa) = 20.99480 89.30486 44.66557
#
# Poissons Ratio (x) = -0.65942 0.94771
# Poissons Ratio (y) = -0.15503 0.21537
# Poissons Ratio (z) = 0.44547 0.43062
#
# Static dielectric constant tensor:
#      x y z
#    x 1.910410 -0.022330 0.140770 
#    y -0.022330 1.809280 0.195440 
#    z 0.140770 0.195440 1.495360 
# 
# From -- ./inp_files/35509.got.cif
#   From: 2010.05.17/outbox.cif.g08.bks.cpg/sg2_18_cif.got.tgz:35509.got - 2010.06.03 11:33:40.
