data_PCOD9027896
_publ_section_title
;
Structure prediction by ZEFSAII (Michael W. Deem and Ramdas Pophale) SiO2 
 PCOD9027896
Probable space group: P -1
;
_chemical_formula_sum "Si O2"
_cell_formula_units_Z 15
_cell_length_a 13.972653
_cell_length_b 30.336480
_cell_length_c 9.307270
_cell_angle_alpha 30.671654
_cell_angle_beta 28.892766
_cell_angle_gamma 18.758663
_cell_volume 600.607093
_symmetry_space_group_name_H-M "P -1"
_symmetry_group_IT_number 2
_symmetry_cell_setting 'triclinic'
loop_
_space_group_symop_operation_xyz
x,y,z
-x,-y,-z
loop_
_atom_site_type_symbol
_atom_site_label
_atom_site_fract_x
_atom_site_fract_y
_atom_site_fract_z
Si Si1 0.000000 0.500000 0.500000
Si Si2 0.136514 0.830361 0.293062
Si Si3 0.015983 0.076933 0.094112
Si Si4 0.884967 0.346079 0.293099
Si Si5 0.622281 0.937734 0.854869
Si Si6 0.527089 0.210255 0.773296
Si Si7 0.313310 0.648095 0.150671
Si Si8 0.879743 0.374791 0.818070
O O1 0.340242 0.344733 0.551373
O O2 0.002738 0.572590 0.430307
O O3 0.242879 0.695324 0.500569
O O4 0.393787 0.785482 0.182466
O O5 0.048988 0.894622 0.070967
O O6 0.820775 0.940429 0.498742
O O7 0.743235 0.231011 0.089029
O O8 0.321798 0.020368 0.918210
O O9 0.151502 0.932534 0.331573
O O10 0.696834 0.494977 0.061780
O O11 0.805676 0.357819 0.530330
O O12 0.259319 0.228297 0.103422
O O13 0.879789 0.772893 0.002278
O O14 0.500000 0.000000 0.000000
O O15 0.124590 0.663659 0.229496
O O16 0.500000 0.500000 0.000000
#
# Coordination Sequence:
#
# PCOD9027896 Si02
#       8
#     1   2   2   2   2   2   2   2
#     4  12  24  40  66  96 130 170 228 266 332 400
#     4  11  24  44  73 100 136 178 232 274 337 408
#     4  11  23  44  69 101 138 178 223 281 340 399
#     4  10  22  44  71  98 133 176 228 279 338 397
#     4  12  23  43  71 102 136 179 222 278 345 399
#     4  12  24  43  72  99 131 183 227 277 337 405
#     4  10  22  41  70 100 135 176 222 283 337 399
#     4  12  24  43  68  95 134 180 225 272 337 404
#
# _framework density 24.974730000000001
#
# number of rings (size 3 to 8) (size 9 to 14) (size 15 to 20)
#    0.000    0.800    4.000    4.000    1.867    0.000 
#    0.000   16.667    0.000    0.000    0.000    0.000 
#    0.000    0.000    0.000    0.000    0.000    0.000 
#
# Total GULP energy -83571.478175 kJ/mol
# GULP energy per Si atom -5571.431878 kJ/mol
# Density = 2.491789 g / cm^3
# Si number density = 24.974730 Si / 1000 Ang^3
#
#
#
# Elastic Constant Matrix: (Units=GPa)
#
#
# Indices 1 2 3 4 5 6 
#
# 1 236.8986 64.0670 41.2199 -9.5605 -2.2014 4.3990
# 2 64.0670 159.4731 37.9118 -34.1673 4.0452 1.5672
# 3 41.2199 37.9118 35.1902 -18.0699 6.4010 5.6466
# 4 -9.5605 -34.1673 -18.0699 47.6992 0.9601 -3.0931
# 5 -2.2014 4.0452 6.4010 0.9601 41.2649 2.0620
# 6 4.3990 1.5672 5.6466 -3.0931 2.0620 45.0664
#
#
#
# Elastic Compliance Matrix: (Units=1/GPa)
#
#
# Indices 1 2 3 4 5 6 
#
# 1 0.005648 -0.001183 -0.006832 -0.002327 0.001525 0.000116
# 2 -0.001183 0.009137 -0.006604 0.003865 -0.000069 0.000894
# 3 -0.006832 -0.006604 0.052764 0.013765 -0.008002 -0.004404
# 4 -0.002327 0.003865 0.013765 0.028580 -0.003327 0.000482
# 5 0.001525 -0.000069 -0.008002 -0.003327 0.025668 -0.000547
# 6 0.000116 0.000894 -0.004404 0.000482 -0.000547 0.022757
#
#
# Mechanical properties :
#
#
# Convention : Reuss Voigt Hill
#
# Bulk Modulus (GPa) = 26.10186 79.77326 52.93756
# Shear Modulus (GPa) = 26.80067 46.03032 36.41549
#
# Velocity S-wave (km/s) = 3.27939 4.29776 3.82264
# Velocity P-wave (km/s) = 4.98129 7.52586 6.38169
#
# Compressibility (1/GPa) = 0.03831144
#
# Stress axis : x y z
#
# Youngs Moduli (GPa) = 177.05107 109.44430 18.95220
#
# Poissons Ratio (x) = 0.12950 0.12948
# Poissons Ratio (y) = 0.20949 0.12515
# Poissons Ratio (z) = 1.20963 0.72274
#
# Static dielectric constant tensor:
#      x y z
#    x 1.973450 0.068490 0.009260 
#    y 0.068490 1.977760 -0.105980 
#    z 0.009260 -0.105980 1.805480 
# 
# From -- ./inp_files/285797.got.cif
#   From: 2010.05.17/outbox.cif.g08.bks.cpg/sg2_143_cif.got.tgz:285797.got - 2010.06.03 11:33:40.
