data_PCOD9027270
_publ_section_title
;
Structure prediction by ZEFSAII (Michael W. Deem and Ramdas Pophale) SiO2 
 PCOD9027270
Probable space group: P -1
;
_chemical_formula_sum "Si O2"
_cell_formula_units_Z 16
_cell_length_a 9.349578
_cell_length_b 9.103041
_cell_length_c 16.857155
_cell_angle_alpha 66.808390
_cell_angle_beta 142.689845
_cell_angle_gamma 95.598333
_cell_volume 737.030662
_symmetry_space_group_name_H-M "P -1"
_symmetry_group_IT_number 2
_symmetry_cell_setting 'triclinic'
loop_
_space_group_symop_operation_xyz
x,y,z
-x,-y,-z
loop_
_atom_site_type_symbol
_atom_site_label
_atom_site_fract_x
_atom_site_fract_y
_atom_site_fract_z
Si Si1 0.271468 0.342974 0.150979
Si Si2 0.488153 0.297417 0.728072
Si Si3 0.531875 0.981630 0.924394
Si Si4 0.983564 0.045049 0.611968
Si Si5 0.958251 0.823780 0.034869
Si Si6 0.504960 0.189959 0.455775
Si Si7 0.802372 0.739111 0.544221
Si Si8 0.232297 0.611406 0.656282
O O1 0.372526 0.274472 0.297266
O O2 0.489263 0.395159 0.196208
O O3 0.222046 0.198771 0.108391
O O4 0.000000 0.500000 0.000000
O O5 0.529526 0.158237 0.845807
O O6 0.386218 0.234042 0.619144
O O7 0.287826 0.474375 0.638836
O O8 0.752805 0.315572 0.817197
O O9 0.280465 0.960835 0.782543
O O10 0.500000 0.000000 0.000000
O O11 0.800130 0.838538 0.042404
O O12 0.806367 0.146577 0.586840
O O13 0.924595 0.196410 0.488864
O O14 0.878867 0.901706 0.565924
O O15 0.000000 0.000000 0.000000
O O16 0.345554 0.293411 0.438338
O O17 0.500000 0.000000 0.500000
O O18 0.065863 0.591477 0.660202
#
# Coordination Sequence:
#
# PCOD9027270 Si02
#       8
#     2   2   2   2   2   2   2   2
#     4  11  22  45  65  94 132 170 215 259 331 384
#     4  11  24  41  63  97 126 174 205 267 325 379
#     4  11  25  42  64  95 130 166 218 267 315 383
#     4  10  22  41  67  94 123 169 215 264 316 378
#     4  10  24  40  67  91 127 171 216 256 326 387
#     4   9  23  38  67  96 126 167 218 271 305 385
#     4  11  22  39  67  96 127 162 223 259 319 376
#     4  11  22  41  67  92 129 169 210 266 318 387
#
# _framework density 21.708729000000002
#
# number of rings (size 3 to 8) (size 9 to 14) (size 15 to 20)
#    0.000    1.500    2.500    1.500   12.250    3.000 
#    2.250    3.125    0.000    0.000    0.000    0.000 
#    0.000    0.000    0.000    0.000    0.000    0.000 
#
# Total GULP energy -89310.851696 kJ/mol
# GULP energy per Si atom -5581.928231 kJ/mol
# Density = 2.165932 g / cm^3
# Si number density = 21.708729 Si / 1000 Ang^3
#
#
#
# Elastic Constant Matrix: (Units=GPa)
#
#
# Indices 1 2 3 4 5 6 
#
# 1 181.6042 29.3801 54.1999 7.8537 23.7648 -50.1568
# 2 29.3801 65.2790 24.5089 16.6336 0.2038 -20.7163
# 3 54.1999 24.5089 85.8482 12.6713 22.8746 -15.3117
# 4 7.8537 16.6336 12.6713 30.2816 -2.9944 2.6265
# 5 23.7648 0.2038 22.8746 -2.9944 39.0106 -4.0485
# 6 -50.1568 -20.7163 -15.3117 2.6265 -4.0485 39.6664
#
#
#
# Elastic Compliance Matrix: (Units=1/GPa)
#
#
# Indices 1 2 3 4 5 6 
#
# 1 0.010240 0.001424 -0.003283 -0.003460 -0.003308 0.012316
# 2 0.001424 0.023729 -0.003762 -0.012860 0.001655 0.013762
# 3 -0.003283 -0.003762 0.018058 -0.005551 -0.008963 0.000307
# 4 -0.003460 -0.012860 -0.005551 0.045373 0.007305 -0.015493
# 5 -0.003308 0.001655 -0.008963 0.007305 0.033053 -0.003888
# 6 0.012316 0.013762 0.000307 -0.015493 -0.003888 0.048719
#
#
# Mechanical properties :
#
#
# Convention : Reuss Voigt Hill
#
# Bulk Modulus (GPa) = 24.51852 60.98991 42.75421
# Shear Modulus (GPa) = 24.50874 36.76788 30.63831
#
# Velocity S-wave (km/s) = 3.36368 4.11991 3.76085
# Velocity P-wave (km/s) = 5.13854 7.12651 6.21256
#
# Compressibility (1/GPa) = 0.04078550
#
# Stress axis : x y z
#
# Youngs Moduli (GPa) = 97.65757 42.14195 55.37854
#
# Poissons Ratio (x) = -0.06002 0.18179
# Poissons Ratio (y) = -0.13910 0.20834
# Poissons Ratio (z) = 0.32058 0.15855
#
# Static dielectric constant tensor:
#      x y z
#    x 1.848810 -0.043980 0.050980 
#    y -0.043980 1.853950 -0.019200 
#    z 0.050980 -0.019200 1.794440 
# 
# From -- ./inp_files/495086.got.cif
#   From: 2010.05.17/outbox.cif.g08.bks.cpg/sg2_248_cif.got.tgz:495086.got - 2010.06.03 11:33:40.
