data_PCOD9027033
_publ_section_title
;
Structure prediction by ZEFSAII (Michael W. Deem and Ramdas Pophale) SiO2 
 PCOD9027033
Probable space group: P -1
;
_chemical_formula_sum "Si O2"
_cell_formula_units_Z 16
_cell_length_a 18.773747
_cell_length_b 9.949416
_cell_length_c 4.941259
_cell_angle_alpha 85.204327
_cell_angle_beta 84.735530
_cell_angle_gamma 46.108533
_cell_volume 662.077452
_symmetry_space_group_name_H-M "P -1"
_symmetry_group_IT_number 2
_symmetry_cell_setting 'triclinic'
loop_
_space_group_symop_operation_xyz
x,y,z
-x,-y,-z
loop_
_atom_site_type_symbol
_atom_site_label
_atom_site_fract_x
_atom_site_fract_y
_atom_site_fract_z
Si Si1 0.021017 0.159019 0.731192
Si Si2 0.115748 0.156155 0.217873
Si Si3 0.709798 0.270068 0.832829
Si Si4 0.574221 0.210497 0.990575
Si Si5 0.260505 0.202674 0.234750
Si Si6 0.718917 0.647544 0.297255
Si Si7 0.439519 0.358576 0.517390
Si Si8 0.853083 0.263812 0.134920
O O1 0.027386 0.229907 0.436523
O O2 0.076140 0.942363 0.728316
O O3 0.083463 0.166532 0.923055
O O4 0.918635 0.259089 0.895494
O O5 0.161285 0.244430 0.221947
O O6 0.204676 0.935144 0.291610
O O7 0.639935 0.256100 0.016657
O O8 0.641895 0.434766 0.613447
O O9 0.764345 0.303504 0.003996
O O10 0.492748 0.345568 0.766662
O O11 0.648335 0.007161 0.862996
O O12 0.519926 0.232465 0.274606
O O13 0.269448 0.240652 0.530753
O O14 0.267537 0.322791 0.019522
O O15 0.615817 0.707402 0.375680
O O16 0.804541 0.425152 0.342885
#
# Coordination Sequence:
#
# PCOD9027033 Si02
#       8
#     2   2   2   2   2   2   2   2
#     4  10  22  41  69  98 126 156 205 259 313 376
#     4  10  22  42  66  93 126 167 207 253 311 370
#     4  10  22  41  66  95 129 161 204 261 321 371
#     4  11  25  42  64  92 125 167 212 259 308 366
#     4  11  25  44  64  88 127 173 212 252 304 370
#     4  12  25  42  63  90 127 168 211 255 308 369
#     4  12  24  40  64  95 126 161 210 265 315 364
#     4  10  23  42  67  98 128 162 201 257 320 372
#
# _framework density 24.166356
#
# number of rings (size 3 to 8) (size 9 to 14) (size 15 to 20)
#    0.000    1.250    0.000    5.250    0.000   17.500 
#    0.000    3.750    0.000    0.000    0.000    0.000 
#    0.000    0.000    0.000    0.000    0.000    0.000 
#
# Total GULP energy -89712.826681 kJ/mol
# GULP energy per Si atom -5607.051668 kJ/mol
# Density = 2.411135 g / cm^3
# Si number density = 24.166356 Si / 1000 Ang^3
#
#
#
# Elastic Constant Matrix: (Units=GPa)
#
#
# Indices 1 2 3 4 5 6 
#
# 1 132.7077 36.5858 11.7865 10.7201 -14.0036 -6.9992
# 2 36.5858 47.2159 10.2282 17.3082 -1.8982 -3.4316
# 3 11.7865 10.2282 77.0591 8.6643 -16.7655 -10.6143
# 4 10.7201 17.3082 8.6643 31.7924 0.2420 -0.4089
# 5 -14.0036 -1.8982 -16.7655 0.2420 36.1201 -6.3481
# 6 -6.9992 -3.4316 -10.6143 -0.4089 -6.3481 18.7808
#
#
#
# Elastic Compliance Matrix: (Units=1/GPa)
#
#
# Indices 1 2 3 4 5 6 
#
# 1 0.010346 -0.007915 0.001138 0.000534 0.004953 0.004738
# 2 -0.007915 0.033157 -0.001756 -0.014875 -0.001836 0.001172
# 3 0.001138 -0.001756 0.017823 -0.004192 0.011081 0.013831
# 4 0.000534 -0.014875 -0.004192 0.040475 -0.003717 -0.005263
# 5 0.004953 -0.001836 0.011081 -0.003717 0.038304 0.020639
# 6 0.004738 0.001172 0.013831 -0.005263 0.020639 0.069904
#
#
# Mechanical properties :
#
#
# Convention : Reuss Voigt Hill
#
# Bulk Modulus (GPa) = 22.59354 41.57599 32.08476
# Shear Modulus (GPa) = 20.67580 30.56412 25.61996
#
# Velocity S-wave (km/s) = 2.92817 3.56017 3.25953
# Velocity P-wave (km/s) = 4.56089 5.84305 5.24132
#
# Compressibility (1/GPa) = 0.04426043
#
# Stress axis : x y z
#
# Youngs Moduli (GPa) = 96.65733 30.15955 56.10682
#
# Poissons Ratio (x) = 0.23872 -0.06387
# Poissons Ratio (y) = 0.76508 0.09851
# Poissons Ratio (z) = -0.11003 0.05295
#
# Static dielectric constant tensor:
#      x y z
#    x 1.890680 -0.009180 -0.011790 
#    y -0.009180 1.959980 -0.004520 
#    z -0.011790 -0.004520 1.861100 
# 
# From -- ./inp_files/106884.got.cif
#   From: 2010.05.17/outbox.cif.g08.bks.cpg/sg2_54_cif.got.tgz:106884.got - 2010.06.03 11:33:40.
