data_PCOD9027524
_publ_section_title
;
Structure prediction by ZEFSAII (Michael W. Deem and Ramdas Pophale) SiO2 
 PCOD9027524
Probable space group: P -1
;
_chemical_formula_sum "Si O2"
_cell_formula_units_Z 16
_cell_length_a 8.975664
_cell_length_b 12.460919
_cell_length_c 8.469961
_cell_angle_alpha 112.242670
_cell_angle_beta 68.758410
_cell_angle_gamma 127.964034
_cell_volume 680.328927
_symmetry_space_group_name_H-M "P -1"
_symmetry_group_IT_number 2
_symmetry_cell_setting 'triclinic'
loop_
_space_group_symop_operation_xyz
x,y,z
-x,-y,-z
loop_
_atom_site_type_symbol
_atom_site_label
_atom_site_fract_x
_atom_site_fract_y
_atom_site_fract_z
Si Si1 0.208231 0.591997 0.309284
Si Si2 0.961277 0.293213 0.741107
Si Si3 0.776416 0.772707 0.241428
Si Si4 0.368809 0.850004 0.623376
Si Si5 0.607930 0.165124 0.044966
Si Si6 0.799971 0.035311 0.445571
Si Si7 0.540798 0.681014 0.980325
Si Si8 0.572429 0.477805 0.626208
O O1 0.029306 0.577698 0.275541
O O2 0.292014 0.738367 0.449648
O O3 0.222548 0.497606 0.385521
O O4 0.354340 0.609233 0.126116
O O5 0.122826 0.307458 0.800529
O O6 0.942042 0.180549 0.559071
O O7 0.774478 0.224264 0.884723
O O8 0.872526 0.933617 0.339385
O O9 0.579529 0.684787 0.367806
O O10 0.719331 0.755407 0.071532
O O11 0.318835 0.783016 0.777155
O O12 0.598627 0.953829 0.574900
O O13 0.269182 0.934193 0.675268
O O14 0.470050 0.212148 0.067633
O O15 0.500000 0.000000 0.000000
O O16 0.544425 0.569461 0.811467
O O17 0.500000 0.500000 0.500000
#
# Coordination Sequence:
#
# PCOD9027524 Si02
#       8
#     2   2   2   2   2   2   2   2
#     4   9  18  37  56  80 111 147 190 225 276 339
#     4  10  22  35  56  85 118 154 183 225 290 336
#     4  11  21  39  56  82 118 151 185 233 286 336
#     4  10  17  31  58  84 108 147 194 232 262 325
#     4  11  20  34  57  85 113 146 190 234 268 332
#     4  10  18  33  57  85 114 151 187 225 282 336
#     4  10  21  36  58  83 109 149 192 230 278 338
#     4  11  22  38  61  86 105 143 198 240 276 329
#
# _framework density 23.518032999999999
#
# number of rings (size 3 to 8) (size 9 to 14) (size 15 to 20)
#    0.000    1.750    3.750    3.375    0.000    0.000 
#    0.000   11.250    0.000    0.000    0.000    0.000 
#    0.000    0.000    0.000    0.000    0.000    0.000 
#
# Total GULP energy -89288.089854 kJ/mol
# GULP energy per Si atom -5580.505616 kJ/mol
# Density = 2.346450 g / cm^3
# Si number density = 23.518033 Si / 1000 Ang^3
#
#
#
# Elastic Constant Matrix: (Units=GPa)
#
#
# Indices 1 2 3 4 5 6 
#
# 1 119.8284 37.3134 17.4454 -7.0840 11.6087 -67.4539
# 2 37.3134 75.3692 30.4196 -4.9938 5.3016 -40.1131
# 3 17.4454 30.4196 107.6257 -4.9763 17.6861 -22.5799
# 4 -7.0840 -4.9938 -4.9763 32.5531 -9.1668 5.5121
# 5 11.6087 5.3016 17.6861 -9.1668 26.3988 -9.5640
# 6 -67.4539 -40.1131 -22.5799 5.5121 -9.5640 49.3460
#
#
#
# Elastic Compliance Matrix: (Units=1/GPa)
#
#
# Indices 1 2 3 4 5 6 
#
# 1 0.051001 0.019901 0.004173 0.000684 0.003012 0.088310
# 2 0.019901 0.032501 -0.002083 0.001636 0.006131 0.053676
# 3 0.004173 -0.002083 0.012016 -0.000885 -0.006768 0.008296
# 4 0.000684 0.001636 -0.000885 0.034304 0.012004 0.000355
# 5 0.003012 0.006131 -0.006768 0.012004 0.049170 0.014193
# 6 0.088310 0.053676 0.008296 0.000355 0.014193 0.191121
#
#
# Mechanical properties :
#
#
# Convention : Reuss Voigt Hill
#
# Bulk Modulus (GPa) = 7.16853 52.57554 29.87203
# Shear Modulus (GPa) = 13.41812 36.16926 24.79369
#
# Velocity S-wave (km/s) = 2.39120 3.92591 3.25043
# Velocity P-wave (km/s) = 3.26780 6.55395 5.17846
#
# Compressibility (1/GPa) = 0.13949869
#
# Stress axis : x y z
#
# Youngs Moduli (GPa) = 19.60733 30.76862 83.22547
#
# Poissons Ratio (x) = -0.61231 -0.34726
# Poissons Ratio (y) = -0.39020 0.17332
# Poissons Ratio (z) = -0.08181 0.06408
#
# Static dielectric constant tensor:
#      x y z
#    x 2.042960 -0.022520 0.021570 
#    y -0.022520 1.908820 -0.015520 
#    z 0.021570 -0.015520 1.875050 
# 
# From -- ./inp_files/176636.got.cif
#   From: 2010.05.17/outbox.cif.g08.bks.cpg/sg2_89_cif.got.tgz:176636.got - 2010.06.03 11:33:40.
