data_PCOD9027324
_publ_section_title
;
Structure prediction by ZEFSAII (Michael W. Deem and Ramdas Pophale) SiO2 
 PCOD9027324
Probable space group: P -1
;
_chemical_formula_sum "Si O2"
_cell_formula_units_Z 16
_cell_length_a 10.018728
_cell_length_b 14.610549
_cell_length_c 9.083506
_cell_angle_alpha 140.012965
_cell_angle_beta 129.631356
_cell_angle_gamma 52.484544
_cell_volume 638.336971
_symmetry_space_group_name_H-M "P -1"
_symmetry_group_IT_number 2
_symmetry_cell_setting 'triclinic'
loop_
_space_group_symop_operation_xyz
x,y,z
-x,-y,-z
loop_
_atom_site_type_symbol
_atom_site_label
_atom_site_fract_x
_atom_site_fract_y
_atom_site_fract_z
Si Si1 0.536509 0.318871 0.958377
Si Si2 0.789711 0.798656 0.328540
Si Si3 0.400087 0.002304 0.778875
Si Si4 0.274383 0.996478 0.194551
Si Si5 0.253481 0.740925 0.260372
Si Si6 0.759572 0.507809 0.474466
Si Si7 0.861516 0.409558 0.736656
Si Si8 0.956219 0.740877 0.810270
O O1 0.335652 0.303785 0.824863
O O2 0.592379 0.303466 0.808630
O O3 0.668394 0.179467 0.964660
O O4 0.590881 0.461466 0.231594
O O5 0.743875 0.939597 0.575516
O O6 0.999825 0.735782 0.404998
O O7 0.725638 0.843591 0.173433
O O8 0.555824 0.969892 0.726737
O O9 0.281408 0.885906 0.538172
O O10 0.500000 0.000000 0.000000
O O11 0.111596 0.099814 0.116748
O O12 0.240725 0.632128 0.248944
O O13 0.075588 0.755918 0.054288
O O14 0.752676 0.491266 0.624315
O O15 0.924095 0.380427 0.365386
O O16 0.797894 0.663196 0.648727
O O17 0.000000 0.500000 0.000000
#
# Coordination Sequence:
#
# PCOD9027324 Si02
#       8
#     2   2   2   2   2   2   2   2
#     4  10  22  44  70  98 132 176 234 275 327 415
#     4  11  23  46  67  97 135 183 221 279 339 406
#     4  11  25  42  66 102 142 171 221 287 345 401
#     4  11  21  44  71  98 134 179 225 282 333 402
#     4  11  23  42  67  98 135 172 226 277 338 399
#     4  10  22  42  63  98 134 181 228 274 334 403
#     4  12  26  44  65  97 141 175 221 289 342 394
#     4  10  22  41  67  95 135 179 230 275 329 407
#
# _framework density 25.065131000000001
#
# number of rings (size 3 to 8) (size 9 to 14) (size 15 to 20)
#    0.000    1.250    5.000    0.750    5.250    3.500 
#    2.250    1.875    0.000    0.000    0.000    0.000 
#    0.000    0.000    0.000    0.000    0.000    0.000 
#
# Total GULP energy -89575.282327 kJ/mol
# GULP energy per Si atom -5598.455145 kJ/mol
# Density = 2.500808 g / cm^3
# Si number density = 25.065131 Si / 1000 Ang^3
#
#
#
# Elastic Constant Matrix: (Units=GPa)
#
#
# Indices 1 2 3 4 5 6 
#
# 1 111.3948 63.2895 29.5450 5.9070 12.2014 34.7240
# 2 63.2895 132.6655 35.7103 -5.4722 -5.2696 17.7927
# 3 29.5450 35.7103 123.6831 -5.4728 13.5874 24.3050
# 4 5.9070 -5.4722 -5.4728 29.1339 13.9719 -3.4977
# 5 12.2014 -5.2696 13.5874 13.9719 33.1554 5.9578
# 6 34.7240 17.7927 24.3050 -3.4977 5.9578 44.8596
#
#
#
# Elastic Compliance Matrix: (Units=1/GPa)
#
#
# Indices 1 2 3 4 5 6 
#
# 1 0.016640 -0.006978 0.000262 -0.003997 -0.003849 -0.010055
# 2 -0.006978 0.011538 -0.002446 0.001083 0.004657 0.001616
# 3 0.000262 -0.002446 0.010235 0.003607 -0.005523 -0.003763
# 4 -0.003997 0.001083 0.003607 0.046884 -0.020875 0.007138
# 5 -0.003849 0.004657 -0.005523 -0.020875 0.043979 -0.003344
# 6 -0.010055 0.001616 -0.003763 0.007138 -0.003344 0.032473
#
#
# Mechanical properties :
#
#
# Convention : Reuss Voigt Hill
#
# Bulk Modulus (GPa) = 49.77936 69.42591 59.60263
# Shear Modulus (GPa) = 26.77111 37.37635 32.07373
#
# Velocity S-wave (km/s) = 3.27167 3.86575 3.58105
# Velocity P-wave (km/s) = 5.84593 6.90534 6.39760
#
# Compressibility (1/GPa) = 0.02008865
#
# Stress axis : x y z
#
# Youngs Moduli (GPa) = 60.09573 86.67078 97.70779
#
# Poissons Ratio (x) = 0.60479 -0.02557
# Poissons Ratio (y) = 0.41935 0.23896
# Poissons Ratio (z) = -0.01572 0.21197
#
# Static dielectric constant tensor:
#      x y z
#    x 1.985410 -0.095100 -0.018700 
#    y -0.095100 2.141810 0.055130 
#    z -0.018700 0.055130 1.952890 
# 
# From -- ./inp_files/274757.got.cif
#   From: 2010.05.17/outbox.cif.g08.bks.cpg/sg2_138_cif.got.tgz:274757.got - 2010.06.03 11:33:40.
