data_PCOD9027069
_publ_section_title
;
Structure prediction by ZEFSAII (Michael W. Deem and Ramdas Pophale) SiO2 
 PCOD9027069
Probable space group: P -1
;
_chemical_formula_sum "Si O2"
_cell_formula_units_Z 12
_cell_length_a 5.451161
_cell_length_b 7.729731
_cell_length_c 14.268033
_cell_angle_alpha 62.638208
_cell_angle_beta 55.987980
_cell_angle_gamma 62.343577
_cell_volume 424.720999
_symmetry_space_group_name_H-M "P -1"
_symmetry_group_IT_number 2
_symmetry_cell_setting 'triclinic'
loop_
_space_group_symop_operation_xyz
x,y,z
-x,-y,-z
loop_
_atom_site_type_symbol
_atom_site_label
_atom_site_fract_x
_atom_site_fract_y
_atom_site_fract_z
Si Si1 0.976963 0.758706 0.485241
Si Si2 0.243682 0.835053 0.794443
Si Si3 0.663837 0.234132 0.423124
Si Si4 0.762648 0.218011 0.768368
Si Si5 0.147384 0.180910 0.953708
Si Si6 0.718285 0.530044 0.860052
O O1 0.705637 0.674950 0.521515
O O2 0.147322 0.672454 0.566450
O O3 0.221215 0.756711 0.352025
O O4 0.773738 0.994377 0.487790
O O5 0.568135 0.759396 0.798720
O O6 0.101967 0.076464 0.758089
O O7 0.997650 0.759765 0.927436
O O8 0.000000 0.000000 0.000000
O O9 0.752613 0.237174 0.294879
O O10 0.510359 0.107451 0.881404
O O11 0.675679 0.414057 0.802791
O O12 0.040696 0.385392 0.863512
O O13 0.500000 0.500000 0.000000
#
# Coordination Sequence:
#
# PCOD9027069 Si02
#       6
#     2   2   2   2   2   2
#     4   9  20  37  68  91 133 175 226 274 337 393
#     4  10  22  41  66  96 131 175 221 276 336 399
#     4   9  19  39  61 100 125 176 229 275 326 406
#     4  11  23  42  67  96 133 176 221 279 338 402
#     4  11  23  41  67  96 131 175 221 274 341 405
#     4  10  24  43  62  98 133 174 220 277 335 409
#
# _framework density 28.253838999999999
#
# number of rings (size 3 to 8) (size 9 to 14) (size 15 to 20)
#    0.000    2.000    1.667    0.500    2.333    6.667 
#    9.000    1.667    0.000    0.000    0.000    0.000 
#    0.000    0.000    0.000    0.000    0.000    0.000 
#
# Total GULP energy -67155.353388 kJ/mol
# GULP energy per Si atom -5596.279449 kJ/mol
# Density = 2.818953 g / cm^3
# Si number density = 28.253839 Si / 1000 Ang^3
#
#
#
# Elastic Constant Matrix: (Units=GPa)
#
#
# Indices 1 2 3 4 5 6 
#
# 1 135.7041 27.4957 76.8025 -5.5704 5.3289 -28.7596
# 2 27.4957 108.8156 2.4386 -7.6358 7.8775 -18.3786
# 3 76.8025 2.4386 189.9066 19.0754 9.1883 -16.5728
# 4 -5.5704 -7.6358 19.0754 43.5196 -7.7917 12.3315
# 5 5.3289 7.8775 9.1883 -7.7917 46.9956 -12.9665
# 6 -28.7596 -18.3786 -16.5728 12.3315 -12.9665 50.5044
#
#
#
# Elastic Compliance Matrix: (Units=1/GPa)
#
#
# Indices 1 2 3 4 5 6 
#
# 1 0.011156 -0.001993 -0.004417 0.002125 0.001393 0.004017
# 2 -0.001993 0.010192 0.000921 0.000234 -0.000910 0.002585
# 3 -0.004417 0.000921 0.007635 -0.004310 -0.001594 0.000969
# 4 0.002125 0.000234 -0.004310 0.027486 0.003482 -0.005936
# 5 0.001393 -0.000910 -0.001594 0.003482 0.023581 0.005143
# 6 0.004017 0.002585 0.000969 -0.005936 0.005143 0.026116
#
#
# Mechanical properties :
#
#
# Convention : Reuss Voigt Hill
#
# Bulk Modulus (GPa) = 55.53727 71.98890 63.76309
# Shear Modulus (GPa) = 40.60264 50.04989 45.32626
#
# Velocity S-wave (km/s) = 3.79498 4.21341 4.00966
# Velocity P-wave (km/s) = 6.23712 7.01463 6.63727
#
# Compressibility (1/GPa) = 0.01800593
#
# Stress axis : x y z
#
# Youngs Moduli (GPa) = 89.63546 98.11780 130.98195
#
# Poissons Ratio (x) = 0.19558 0.57849
# Poissons Ratio (y) = 0.17867 -0.12069
# Poissons Ratio (z) = 0.39588 -0.09041
#
# Static dielectric constant tensor:
#      x y z
#    x 2.234220 0.052750 -0.005460 
#    y 0.052750 2.251540 -0.025540 
#    z -0.005460 -0.025540 2.153550 
# 
# From -- ./inp_files/31435.got.cif
#   From: 2010.05.17/outbox.cif.g08.bks.cpg/sg2_16_cif.got.tgz:31435.got - 2010.06.03 11:33:40.
