data_PCOD9027726
_publ_section_title
;
Structure prediction by ZEFSAII (Michael W. Deem and Ramdas Pophale) SiO2 
 PCOD9027726
Probable space group: P -1
;
_chemical_formula_sum "Si O2"
_cell_formula_units_Z 12
_cell_length_a 15.251778
_cell_length_b 5.457893
_cell_length_c 10.227121
_cell_angle_alpha 77.110167
_cell_angle_beta 37.283436
_cell_angle_gamma 85.520787
_cell_volume 495.533509
_symmetry_space_group_name_H-M "P -1"
_symmetry_group_IT_number 2
_symmetry_cell_setting 'triclinic'
loop_
_space_group_symop_operation_xyz
x,y,z
-x,-y,-z
loop_
_atom_site_type_symbol
_atom_site_label
_atom_site_fract_x
_atom_site_fract_y
_atom_site_fract_z
Si Si1 0.202186 0.182215 0.153314
Si Si2 0.488823 0.712080 0.100790
Si Si3 0.988493 0.739771 0.396639
Si Si4 0.659301 0.942798 0.343000
Si Si5 0.192357 0.483279 0.892988
Si Si6 0.786214 0.608114 0.409651
O O1 0.127156 0.138409 0.390463
O O2 0.371876 0.282218 0.969049
O O3 0.128806 0.365659 0.120083
O O4 0.149064 0.909411 0.182736
O O5 0.333671 0.622906 0.367980
O O6 0.500000 0.500000 0.000000
O O7 0.500000 0.000000 0.000000
O O8 0.909412 0.696425 0.358169
O O9 0.000000 0.500000 0.500000
O O10 0.686335 0.708682 0.245623
O O11 0.692561 0.829659 0.458126
O O12 0.500000 0.000000 0.500000
O O13 0.759741 0.217957 0.180817
O O14 0.138422 0.445933 0.810800
#
# Coordination Sequence:
#
# PCOD9027726 Si02
#       6
#     2   2   2   2   2   2
#     4  11  26  44  69 104 136 190 233 290 351 418
#     4  12  26  42  72 106 140 178 234 290 351 417
#     4  11  25  48  70  98 144 188 239 288 348 417
#     4  10  22  41  69 102 142 178 223 288 351 414
#     4  10  25  41  71  99 140 177 231 281 353 409
#     4  10  25  44  71 105 141 179 234 288 350 414
#
# _framework density 24.216322000000002
#
# number of rings (size 3 to 8) (size 9 to 14) (size 15 to 20)
#    1.000    0.333    1.667    2.500    7.000    3.333 
#    0.000    1.667    0.000    0.000    0.000    0.000 
#    0.000    0.000    0.000    0.000    0.000    0.000 
#
# Total GULP energy -66924.664953 kJ/mol
# GULP energy per Si atom -5577.055413 kJ/mol
# Density = 2.416120 g / cm^3
# Si number density = 24.216322 Si / 1000 Ang^3
#
#
#
# Elastic Constant Matrix: (Units=GPa)
#
#
# Indices 1 2 3 4 5 6 
#
# 1 196.7014 58.2704 59.1882 1.5049 15.9665 41.2832
# 2 58.2704 120.8081 36.5227 -18.3830 10.9708 -3.1759
# 3 59.1882 36.5227 77.6679 -11.6802 13.2071 10.9315
# 4 1.5049 -18.3830 -11.6802 58.8748 -5.1171 4.6250
# 5 15.9665 10.9708 13.2071 -5.1171 44.7268 -4.1975
# 6 41.2832 -3.1759 10.9315 4.6250 -4.1975 41.2100
#
#
#
# Elastic Compliance Matrix: (Units=1/GPa)
#
#
# Indices 1 2 3 4 5 6 
#
# 1 0.009389 -0.003556 -0.004139 -0.001691 -0.002260 -0.008622
# 2 -0.003556 0.011419 -0.002971 0.002689 0.000117 0.004940
# 3 -0.004139 -0.002971 0.018599 0.002725 -0.003128 -0.001641
# 4 -0.001691 0.002689 0.002725 0.018574 0.001191 -0.000785
# 5 -0.002260 0.000117 -0.003128 0.001191 0.024711 0.005486
# 6 -0.008622 0.004940 -0.001641 -0.000785 0.005486 0.034366
#
#
# Mechanical properties :
#
#
# Convention : Reuss Voigt Hill
#
# Bulk Modulus (GPa) = 55.32347 78.12666 66.72507
# Shear Modulus (GPa) = 34.62260 45.04204 39.83232
#
# Velocity S-wave (km/s) = 3.78527 4.31744 4.06008
# Velocity P-wave (km/s) = 6.48070 7.56212 7.04220
#
# Compressibility (1/GPa) = 0.01807551
#
# Stress axis : x y z
#
# Youngs Moduli (GPa) = 106.51263 87.57097 53.76547
#
# Poissons Ratio (x) = 0.31139 0.22254
# Poissons Ratio (y) = 0.37874 0.15973
# Poissons Ratio (z) = 0.44087 0.26016
#
# Static dielectric constant tensor:
#      x y z
#    x 1.972670 0.066900 0.095620 
#    y 0.066900 2.055290 0.104360 
#    z 0.095620 0.104360 2.051720 
# 
# From -- ./inp_files/459067.got.cif
#   From: 2010.05.17/outbox.cif.g08.bks.cpg/sg2_230_cif.got.tgz:459067.got - 2010.06.03 11:33:40.
