data_PCOD9027518
_publ_section_title
;
Structure prediction by ZEFSAII (Michael W. Deem and Ramdas Pophale) SiO2 
 PCOD9027518
Probable space group: P -1
;
_chemical_formula_sum "Si O2"
_cell_formula_units_Z 16
_cell_length_a 14.176249
_cell_length_b 8.642061
_cell_length_c 20.458009
_cell_angle_alpha 124.981521
_cell_angle_beta 159.225719
_cell_angle_gamma 64.842325
_cell_volume 673.217181
_symmetry_space_group_name_H-M "P -1"
_symmetry_group_IT_number 2
_symmetry_cell_setting 'triclinic'
loop_
_space_group_symop_operation_xyz
x,y,z
-x,-y,-z
loop_
_atom_site_type_symbol
_atom_site_label
_atom_site_fract_x
_atom_site_fract_y
_atom_site_fract_z
Si Si1 0.236145 0.335546 0.473215
Si Si2 0.821825 0.548562 0.954577
Si Si3 0.943296 0.965224 0.532106
Si Si4 0.699070 0.067529 0.581334
Si Si5 0.267882 0.769143 0.784939
Si Si6 0.656985 0.589981 0.054770
Si Si7 0.312428 0.280753 0.355072
Si Si8 0.272283 0.751428 0.061900
O O1 0.509501 0.526875 0.721848
O O2 0.277646 0.316597 0.418515
O O3 0.937777 0.318557 0.306492
O O4 0.251617 0.125411 0.460077
O O5 0.775605 0.367043 0.930446
O O6 0.000000 0.500000 0.000000
O O7 0.008084 0.757656 0.161891
O O8 0.602062 0.894298 0.302018
O O9 0.071380 0.802512 0.606746
O O10 0.000000 0.000000 0.500000
O O11 0.107907 0.185096 0.725338
O O12 0.508181 0.153288 0.435143
O O13 0.500000 0.000000 0.500000
O O14 0.451485 0.624530 0.872791
O O15 0.500000 0.000000 0.000000
O O16 0.500000 0.500000 0.000000
O O17 0.782608 0.428861 0.070863
O O18 0.500000 0.500000 0.500000
O O19 0.985355 0.170786 0.093179
#
# Coordination Sequence:
#
# PCOD9027518 Si02
#       8
#     2   2   2   2   2   2   2   2
#     4  11  23  44  68  94 133 174 224 277 337 398
#     4  12  22  42  69  96 133 173 226 279 325 401
#     4  11  24  46  68 100 138 175 229 289 328 404
#     4  10  22  41  68  90 130 174 219 272 337 390
#     4  10  24  42  70  99 134 179 226 275 337 410
#     4  11  24  47  70  99 140 182 223 278 343 405
#     4  11  22  41  66  96 130 177 220 277 338 401
#     4  12  25  43  69  97 140 179 217 282 346 389
#
# _framework density 23.766473999999999
#
# number of rings (size 3 to 8) (size 9 to 14) (size 15 to 20)
#    0.000    1.000    6.250    0.750    5.250    0.500 
#    0.000    6.875    0.000    0.000    0.000    0.000 
#    0.000    0.000    0.000    0.000    0.000    0.000 
#
# Total GULP energy -89451.929867 kJ/mol
# GULP energy per Si atom -5590.745617 kJ/mol
# Density = 2.371238 g / cm^3
# Si number density = 23.766474 Si / 1000 Ang^3
#
#
#
# Elastic Constant Matrix: (Units=GPa)
#
#
# Indices 1 2 3 4 5 6 
#
# 1 111.8057 3.5775 26.3660 1.0030 12.3890 21.8134
# 2 3.5775 83.0119 36.3589 -9.8898 4.0327 -0.0293
# 3 26.3660 36.3589 178.6431 10.1278 13.6293 3.9034
# 4 1.0030 -9.8898 10.1278 37.4400 4.2718 2.7039
# 5 12.3890 4.0327 13.6293 4.2718 38.7837 3.9033
# 6 21.8134 -0.0293 3.9034 2.7039 3.9033 41.5645
#
#
#
# Elastic Compliance Matrix: (Units=1/GPa)
#
#
# Indices 1 2 3 4 5 6 
#
# 1 0.010545 0.000368 -0.001375 0.000848 -0.002491 -0.005226
# 2 0.000368 0.013983 -0.003086 0.004638 -0.000988 -0.000103
# 3 -0.001375 -0.003086 0.006662 -0.002454 -0.001349 0.000380
# 4 0.000848 0.004638 -0.002454 0.029039 -0.002905 -0.001828
# 5 -0.002491 -0.000988 -0.001349 -0.002905 0.027574 -0.000967
# 6 -0.005226 -0.000103 0.000380 -0.001828 -0.000967 0.026975
#
#
# Mechanical properties :
#
#
# Convention : Reuss Voigt Hill
#
# Bulk Modulus (GPa) = 43.46972 56.22950 49.84961
# Shear Modulus (GPa) = 38.27564 44.03487 41.15525
#
# Velocity S-wave (km/s) = 4.01744 4.30910 4.16583
# Velocity P-wave (km/s) = 6.31267 6.96192 6.64523
#
# Compressibility (1/GPa) = 0.02300452
#
# Stress axis : x y z
#
# Youngs Moduli (GPa) = 94.83591 71.51738 150.09502
#
# Poissons Ratio (x) = -0.02632 0.20639
# Poissons Ratio (y) = -0.03491 0.46313
# Poissons Ratio (z) = 0.13040 0.22067
#
# Static dielectric constant tensor:
#      x y z
#    x 27.083540 7.345160 -10.394580 
#    y 7.345160 4.011940 -3.063910 
#    z -10.394580 -3.063910 6.257810 
# 
# From -- ./inp_files/319434.got.cif
#   From: 2010.05.17/outbox.cif.g08.bks.cpg/sg2_160_cif.got.tgz:319434.got - 2010.06.03 11:33:40.
