data_PCOD9027912
_publ_section_title
;
Structure prediction by ZEFSAII (Michael W. Deem and Ramdas Pophale) SiO2 
 PCOD9027912
Probable space group: P -1
;
_chemical_formula_sum "Si O2"
_cell_formula_units_Z 14
_cell_length_a 9.372278
_cell_length_b 5.920445
_cell_length_c 14.195906
_cell_angle_alpha 114.700048
_cell_angle_beta 50.236336
_cell_angle_gamma 100.871056
_cell_volume 546.598386
_symmetry_space_group_name_H-M "P -1"
_symmetry_group_IT_number 2
_symmetry_cell_setting 'triclinic'
loop_
_space_group_symop_operation_xyz
x,y,z
-x,-y,-z
loop_
_atom_site_type_symbol
_atom_site_label
_atom_site_fract_x
_atom_site_fract_y
_atom_site_fract_z
Si Si1 0.600793 0.145412 0.903202
Si Si2 0.387145 0.276155 0.675760
Si Si3 0.299094 0.244780 0.907349
Si Si4 0.612622 0.219521 0.333135
Si Si5 0.958690 0.392284 0.828632
Si Si6 0.863849 0.859070 0.597720
Si Si7 0.089616 0.585406 0.624446
O O1 0.789118 0.227088 0.884821
O O2 0.687184 0.004480 0.747731
O O3 0.424804 0.301171 0.953108
O O4 0.500000 0.000000 0.000000
O O5 0.375578 0.374235 0.805403
O O6 0.454255 0.496125 0.622335
O O7 0.487761 0.990901 0.601129
O O8 0.169301 0.271309 0.737388
O O9 0.092617 0.366099 0.042042
O O10 0.686733 0.044482 0.182523
O O11 0.783498 0.267435 0.337377
O O12 0.950196 0.474059 0.737043
O O13 0.803977 0.647239 0.517182
O O14 0.985440 0.744966 0.614121
O O15 0.000000 0.000000 0.500000
#
# Coordination Sequence:
#
# PCOD9027912 Si02
#       7
#     2   2   2   2   2   2   2
#     4  12  26  43  69 103 148 183 227 297 366 414
#     4   9  21  39  66  97 142 182 238 283 340 418
#     4  10  24  39  62 103 146 181 225 294 360 416
#     4   9  21  39  65  99 138 180 231 289 348 409
#     4  11  21  42  67 102 140 189 236 289 347 423
#     4  11  23  44  70 101 135 183 243 288 343 423
#     4  10  22  41  70 101 130 183 245 293 332 417
#
# _framework density 25.612956000000001
#
# number of rings (size 3 to 8) (size 9 to 14) (size 15 to 20)
#    0.857    0.857    1.429    2.571    4.000    3.429 
#    0.000    0.714    0.000    6.000    0.000    0.000 
#    0.000    0.000    0.000    0.000    0.000    0.000 
#
# Total GULP energy -78099.329579 kJ/mol
# GULP energy per Si atom -5578.523541 kJ/mol
# Density = 2.555466 g / cm^3
# Si number density = 25.612956 Si / 1000 Ang^3
#
#
#
# Elastic Constant Matrix: (Units=GPa)
#
#
# Indices 1 2 3 4 5 6 
#
# 1 138.6271 56.8984 15.6904 -21.1187 7.9709 13.9360
# 2 56.8984 150.1756 38.5521 -20.0174 -5.9331 -17.7932
# 3 15.6904 38.5521 73.0346 -13.9627 -7.8104 10.2866
# 4 -21.1187 -20.0174 -13.9627 65.6826 -5.2406 16.3263
# 5 7.9709 -5.9331 -7.8104 -5.2406 45.3034 -3.1370
# 6 13.9360 -17.7932 10.2866 16.3263 -3.1370 44.5138
#
#
#
# Elastic Compliance Matrix: (Units=1/GPa)
#
#
# Indices 1 2 3 4 5 6 
#
# 1 0.010441 -0.004853 0.001842 0.003887 -0.002205 -0.007215
# 2 -0.004853 0.010808 -0.005832 -0.001309 0.001651 0.007784
# 3 0.001842 -0.005832 0.018882 0.005248 0.002148 -0.009045
# 4 0.003887 -0.001309 0.005248 0.019836 0.001644 -0.010113
# 5 -0.002205 0.001651 0.002148 0.001644 0.023370 0.001898
# 6 -0.007215 0.007784 -0.009045 -0.010113 0.001898 0.033768
#
#
# Mechanical properties :
#
#
# Convention : Reuss Voigt Hill
#
# Bulk Modulus (GPa) = 44.55363 64.90212 54.72788
# Shear Modulus (GPa) = 35.14377 47.81305 41.47841
#
# Velocity S-wave (km/s) = 3.70822 4.32528 4.02858
# Velocity P-wave (km/s) = 5.98057 7.09497 6.56147
#
# Compressibility (1/GPa) = 0.02244486
#
# Stress axis : x y z
#
# Youngs Moduli (GPa) = 95.77449 92.52694 52.95989
#
# Poissons Ratio (x) = 0.44900 -0.09755
# Poissons Ratio (y) = 0.46476 0.30889
# Poissons Ratio (z) = -0.17642 0.53966
#
# Static dielectric constant tensor:
#      x y z
#    x 2.067810 0.016190 -0.128360 
#    y 0.016190 2.162710 0.011920 
#    z -0.128360 0.011920 2.201270 
# 
# From -- ./inp_files/525093.got.cif
#   From: 2010.05.17/outbox.cif.g08.bks.cpg/sg2_263_cif.got.tgz:525093.got - 2010.06.03 11:33:40.
