data_PCOD9027501
_publ_section_title
;
Structure prediction by ZEFSAII (Michael W. Deem and Ramdas Pophale) SiO2 
 PCOD9027501
Probable space group: P -1
;
_chemical_formula_sum "Si O2"
_cell_formula_units_Z 12
_cell_length_a 9.592853
_cell_length_b 8.790953
_cell_length_c 16.363448
_cell_angle_alpha 44.172246
_cell_angle_beta 60.884436
_cell_angle_gamma 96.580469
_cell_volume 544.472835
_symmetry_space_group_name_H-M "P -1"
_symmetry_group_IT_number 2
_symmetry_cell_setting 'triclinic'
loop_
_space_group_symop_operation_xyz
x,y,z
-x,-y,-z
loop_
_atom_site_type_symbol
_atom_site_label
_atom_site_fract_x
_atom_site_fract_y
_atom_site_fract_z
Si Si1 0.838642 0.078985 0.937223
Si Si2 0.955528 0.377248 0.467041
Si Si3 0.381785 0.207648 0.584945
Si Si4 0.286903 0.313794 0.403511
Si Si5 0.010284 0.254311 0.998901
Si Si6 0.440962 0.048237 0.374883
O O1 0.911240 0.321557 0.751595
O O2 0.982612 0.001714 0.911808
O O3 0.915457 0.241097 0.943439
O O4 0.549584 0.709970 0.161682
O O5 0.000000 0.500000 0.500000
O O6 0.073736 0.262321 0.466093
O O7 0.668586 0.075387 0.638000
O O8 0.500000 0.500000 0.500000
O O9 0.272934 0.231463 0.533478
O O10 0.564076 0.211401 0.496672
O O11 0.177028 0.878962 0.825072
O O12 0.283989 0.078013 0.449336
O O13 0.283641 0.599431 0.815285
#
# Coordination Sequence:
#
# PCOD9027501 Si02
#       6
#     2   2   2   2   2   2
#     4  10  22  41  71  97 135 170 219 276 333 392
#     4  12  26  45  67  96 134 183 224 268 334 398
#     4  12  22  42  71 101 131 172 224 274 326 395
#     4  11  24  44  66 100 137 174 221 269 337 395
#     4  10  22  41  68 107 129 168 223 278 330 383
#     4  11  26  43  67 100 135 175 221 281 328 389
#
# _framework density 22.039667000000001
#
# number of rings (size 3 to 8) (size 9 to 14) (size 15 to 20)
#    0.000    1.000    1.667    5.000    7.000    0.000 
#    0.000    7.500    0.000    0.000    0.000    0.000 
#    0.000    0.000    0.000    0.000    0.000    0.000 
#
# Total GULP energy -67042.316722 kJ/mol
# GULP energy per Si atom -5586.859727 kJ/mol
# Density = 2.198950 g / cm^3
# Si number density = 22.039667 Si / 1000 Ang^3
#
#
#
# Elastic Constant Matrix: (Units=GPa)
#
#
# Indices 1 2 3 4 5 6 
#
# 1 127.1966 40.0796 34.1696 -3.1481 20.1112 8.4731
# 2 40.0796 105.0354 52.0386 -8.8509 16.4690 16.8720
# 3 34.1696 52.0386 79.5726 2.5931 13.7810 12.5642
# 4 -3.1481 -8.8509 2.5931 38.2121 8.1719 3.9372
# 5 20.1112 16.4690 13.7810 8.1719 40.7577 -0.2292
# 6 8.4731 16.8720 12.5642 3.9372 -0.2292 53.9474
#
#
#
# Elastic Compliance Matrix: (Units=1/GPa)
#
#
# Indices 1 2 3 4 5 6 
#
# 1 0.009680 -0.001779 -0.002340 0.001356 -0.003541 -0.000533
# 2 -0.001779 0.016084 -0.008791 0.005293 -0.003727 -0.003106
# 3 -0.002340 -0.008791 0.019867 -0.003148 -0.001387 -0.001286
# 4 0.001356 0.005293 -0.003148 0.029716 -0.007720 -0.003337
# 5 -0.003541 -0.003727 -0.001387 -0.007720 0.029821 0.002735
# 6 -0.000533 -0.003106 -0.001286 -0.003337 0.002735 0.020146
#
#
# Mechanical properties :
#
#
# Convention : Reuss Voigt Hill
#
# Bulk Modulus (GPa) = 50.47838 62.70893 56.59365
# Shear Modulus (GPa) = 31.69794 38.95121 35.32458
#
# Velocity S-wave (km/s) = 3.79650 4.20852 4.00781
# Velocity P-wave (km/s) = 6.49393 7.22011 6.86662
#
# Compressibility (1/GPa) = 0.01981046
#
# Stress axis : x y z
#
# Youngs Moduli (GPa) = 103.30503 62.17205 50.33462
#
# Poissons Ratio (x) = 0.11062 0.11778
# Poissons Ratio (y) = 0.18381 0.44251
# Poissons Ratio (z) = 0.24172 0.54658
#
# Static dielectric constant tensor:
#      x y z
#    x 1.662580 -0.019820 -0.052020 
#    y -0.019820 1.845530 -0.030380 
#    z -0.052020 -0.030380 1.850350 
# 
# From -- ./inp_files/146025.got.cif
#   From: 2010.05.17/outbox.cif.g08.bks.cpg/sg2_74_cif.got.tgz:146025.got - 2010.06.03 11:33:40.
