data_PCOD9027266
_publ_section_title
;
Structure prediction by ZEFSAII (Michael W. Deem and Ramdas Pophale) SiO2 
 PCOD9027266
Probable space group: P -1
;
_chemical_formula_sum "Si O2"
_cell_formula_units_Z 16
_cell_length_a 14.547547
_cell_length_b 11.486831
_cell_length_c 12.146259
_cell_angle_alpha 99.354090
_cell_angle_beta 57.768317
_cell_angle_gamma 148.034957
_cell_volume 692.716438
_symmetry_space_group_name_H-M "P -1"
_symmetry_group_IT_number 2
_symmetry_cell_setting 'triclinic'
loop_
_space_group_symop_operation_xyz
x,y,z
-x,-y,-z
loop_
_atom_site_type_symbol
_atom_site_label
_atom_site_fract_x
_atom_site_fract_y
_atom_site_fract_z
Si Si1 0.471478 0.655787 0.799806
Si Si2 0.824600 0.653665 0.268369
Si Si3 0.138135 0.591985 0.813916
Si Si4 0.929545 0.802608 0.466185
Si Si5 0.779350 0.750884 0.920113
Si Si6 0.645008 0.049197 0.658054
Si Si7 0.093169 0.326623 0.320386
Si Si8 0.236108 0.687394 0.174127
O O1 0.415382 0.557435 0.695343
O O2 0.441649 0.766406 0.818095
O O3 0.286731 0.392709 0.953040
O O4 0.769467 0.946636 0.701719
O O5 0.781690 0.646416 0.421639
O O6 0.889365 0.577521 0.212267
O O7 0.067786 0.975434 0.119896
O O8 0.004790 0.525445 0.786407
O O9 0.451693 0.927035 0.681594
O O10 0.000000 0.500000 0.000000
O O11 0.793494 0.596187 0.620696
O O12 0.000000 0.000000 0.500000
O O13 0.949825 0.836175 0.743241
O O14 0.500000 0.500000 0.000000
O O15 0.800058 0.280538 0.682133
O O16 0.834349 0.148301 0.485799
O O17 0.270457 0.585385 0.170228
O O18 0.500000 0.000000 0.000000
#
# Coordination Sequence:
#
# PCOD9027266 Si02
#       8
#     2   2   2   2   2   2   2   2
#     4  10  22  41  67  93 136 175 230 280 337 402
#     4  11  24  41  71  96 134 181 227 282 345 404
#     4  11  24  44  69 101 131 181 233 280 345 407
#     4  11  21  46  65  97 140 178 225 278 341 416
#     4  12  23  41  68 103 138 182 232 287 344 416
#     4  10  23  45  67  99 140 180 229 289 340 418
#     4  11  25  41  72 103 138 185 227 286 358 405
#     4  12  24  43  74  99 138 184 231 290 347 408
#
# _framework density 23.097476
#
# number of rings (size 3 to 8) (size 9 to 14) (size 15 to 20)
#    0.000    1.000    3.750    3.000    3.500    1.000 
#    2.250    2.500    2.750    0.000    0.000    0.000 
#    0.000    0.000    0.000    0.000    0.000    0.000 
#
# Total GULP energy -89341.491158 kJ/mol
# GULP energy per Si atom -5583.843197 kJ/mol
# Density = 2.304490 g / cm^3
# Si number density = 23.097476 Si / 1000 Ang^3
#
#
#
# Elastic Constant Matrix: (Units=GPa)
#
#
# Indices 1 2 3 4 5 6 
#
# 1 90.3267 36.9180 29.5417 16.1016 26.2489 7.4553
# 2 36.9180 108.2640 16.9658 29.1437 11.9951 18.1795
# 3 29.5417 16.9658 67.2773 14.9853 14.0251 4.7489
# 4 16.1016 29.1437 14.9853 34.2189 -8.5169 6.6778
# 5 26.2489 11.9951 14.0251 -8.5169 54.0063 -0.6044
# 6 7.4553 18.1795 4.7489 6.6778 -0.6044 51.7403
#
#
#
# Elastic Compliance Matrix: (Units=1/GPa)
#
#
# Indices 1 2 3 4 5 6 
#
# 1 0.016579 -0.002647 -0.003786 -0.005635 -0.007381 -0.000470
# 2 -0.002647 0.014072 0.001288 -0.011684 -0.004052 -0.003221
# 3 -0.003786 0.001288 0.019215 -0.008818 -0.004833 -0.000589
# 4 -0.005635 -0.011684 -0.008818 0.049629 0.015445 -0.000498
# 5 -0.007381 -0.004052 -0.004833 0.015445 0.026709 0.001250
# 6 -0.000470 -0.003221 -0.000589 -0.000498 0.001250 0.020660
#
#
# Mechanical properties :
#
#
# Convention : Reuss Voigt Hill
#
# Bulk Modulus (GPa) = 25.26685 48.07990 36.67337
# Shear Modulus (GPa) = 29.35236 40.15593 34.75415
#
# Velocity S-wave (km/s) = 3.56870 4.17411 3.88322
# Velocity P-wave (km/s) = 5.28619 6.64019 6.00150
#
# Compressibility (1/GPa) = 0.03957756
#
# Stress axis : x y z
#
# Youngs Moduli (GPa) = 60.31793 71.06141 52.04359
#
# Poissons Ratio (x) = 0.18807 0.19701
# Poissons Ratio (y) = 0.15964 -0.06703
# Poissons Ratio (z) = 0.22833 -0.09153
#
# Static dielectric constant tensor:
#      x y z
#    x 1.983510 -0.017440 -0.008610 
#    y -0.017440 1.888010 0.007090 
#    z -0.008610 0.007090 1.938020 
# 
# From -- ./inp_files/434248.got.cif
#   From: 2010.05.17/outbox.cif.g08.bks.cpg/sg2_218_cif.got.tgz:434248.got - 2010.06.03 11:33:40.
