data_PCOD9027945
_publ_section_title
;
Structure prediction by ZEFSAII (Michael W. Deem and Ramdas Pophale) SiO2 
 PCOD9027945
Probable space group: P -1
;
_chemical_formula_sum "Si O2"
_cell_formula_units_Z 16
_cell_length_a 5.363353
_cell_length_b 9.071841
_cell_length_c 13.954128
_cell_angle_alpha 84.681949
_cell_angle_beta 97.318827
_cell_angle_gamma 73.098614
_cell_volume 638.278531
_symmetry_space_group_name_H-M "P -1"
_symmetry_group_IT_number 2
_symmetry_cell_setting 'triclinic'
loop_
_space_group_symop_operation_xyz
x,y,z
-x,-y,-z
loop_
_atom_site_type_symbol
_atom_site_label
_atom_site_fract_x
_atom_site_fract_y
_atom_site_fract_z
Si Si1 0.869357 0.136989 0.061187
Si Si2 0.867340 0.659955 0.430982
Si Si3 0.921892 0.953777 0.377189
Si Si4 0.480566 0.762757 0.575541
Si Si5 0.889473 0.808426 0.739665
Si Si6 0.742256 0.278935 0.862418
Si Si7 0.676939 0.908365 0.176444
Si Si8 0.637394 0.477574 0.297097
O O1 0.072293 0.161048 0.149081
O O2 0.659280 0.069821 0.109998
O O3 0.764589 0.285649 0.978392
O O4 0.000000 0.000000 0.000000
O O5 0.046065 0.772547 0.418248
O O6 0.644403 0.756296 0.487926
O O7 0.763378 0.608658 0.331072
O O8 0.000000 0.500000 0.500000
O O9 0.706993 0.942750 0.287021
O O10 0.761512 0.078873 0.439238
O O11 0.101234 0.037310 0.325317
O O12 0.428309 0.599918 0.604191
O O13 0.654668 0.765034 0.679662
O O14 0.149133 0.665842 0.734213
O O15 0.552551 0.168556 0.847002
O O16 0.600357 0.437097 0.789615
O O17 0.034948 0.203769 0.837488
#
# Coordination Sequence:
#
# PCOD9027945 Si02
#       8
#     2   2   2   2   2   2   2   2
#     4   9  21  41  69 104 137 185 236 286 348 423
#     4  12  24  45  71  98 137 182 242 291 358 423
#     4  10  24  42  68 103 130 189 231 293 351 422
#     4  11  25  45  67  95 143 185 231 296 352 425
#     4  10  23  46  67  98 144 178 232 290 357 419
#     4  11  23  41  70 103 138 183 235 288 347 421
#     4  10  22  41  70 103 139 180 235 289 346 416
#     4  11  25  44  68  99 138 185 233 291 361 418
#
# _framework density 25.067426000000001
#
# number of rings (size 3 to 8) (size 9 to 14) (size 15 to 20)
#    0.000    1.500    2.500    1.125    8.750    1.000 
#    9.000    0.625    0.000    0.000    0.000    0.000 
#    0.000    0.000    0.000    0.000    0.000    0.000 
#
# Total GULP energy -89515.220342 kJ/mol
# GULP energy per Si atom -5594.701271 kJ/mol
# Density = 2.501037 g / cm^3
# Si number density = 25.067426 Si / 1000 Ang^3
#
#
#
# Elastic Constant Matrix: (Units=GPa)
#
#
# Indices 1 2 3 4 5 6 
#
# 1 95.9267 32.8662 10.0400 3.0438 9.7605 1.6796
# 2 32.8662 118.7335 49.4323 -28.7457 -4.3360 8.1451
# 3 10.0400 49.4323 105.8254 -6.2611 8.2123 -1.6843
# 4 3.0438 -28.7457 -6.2611 53.8741 2.2029 11.8766
# 5 9.7605 -4.3360 8.2123 2.2029 25.4688 1.9353
# 6 1.6796 8.1451 -1.6843 11.8766 1.9353 45.6063
#
#
#
# Elastic Compliance Matrix: (Units=1/GPa)
#
#
# Indices 1 2 3 4 5 6 
#
# 1 0.012830 -0.005436 0.001619 -0.003570 -0.006188 0.001750
# 2 -0.005436 0.015460 -0.006787 0.008679 0.006559 -0.005350
# 3 0.001619 -0.006787 0.012812 -0.002542 -0.005880 0.002537
# 4 -0.003570 0.008679 -0.002542 0.024788 0.002134 -0.008058
# 5 -0.006188 0.006559 -0.005880 0.002134 0.044738 -0.003615
# 6 0.001750 -0.005350 0.002537 -0.008058 -0.003615 0.025163
#
#
# Mechanical properties :
#
#
# Convention : Reuss Voigt Hill
#
# Bulk Modulus (GPa) = 50.26350 56.12919 53.19635
# Shear Modulus (GPa) = 30.55676 40.19966 35.37821
#
# Velocity S-wave (km/s) = 3.49518 4.00892 3.76083
# Velocity P-wave (km/s) = 6.03185 6.62333 6.33450
#
# Compressibility (1/GPa) = 0.01989515
#
# Stress axis : x y z
#
# Youngs Moduli (GPa) = 77.94313 64.68334 78.05023
#
# Poissons Ratio (x) = 0.35160 -0.12634
# Poissons Ratio (y) = 0.42367 0.52969
# Poissons Ratio (z) = -0.12617 0.43897
#
# Static dielectric constant tensor:
#      x y z
#    x 2.000790 -0.023400 0.056060 
#    y -0.023400 1.989040 -0.053400 
#    z 0.056060 -0.053400 2.059600 
# 
# From -- ./inp_files/56339.got.cif
#   From: 2010.05.17/outbox.cif.g08.bks.cpg/sg2_29_cif.got.tgz:56339.got - 2010.06.03 11:33:40.
