data_PCOD9027647
_publ_section_title
;
Structure prediction by ZEFSAII (Michael W. Deem and Ramdas Pophale) SiO2 
 PCOD9027647
Probable space group: P -1
;
_chemical_formula_sum "Si O2"
_cell_formula_units_Z 16
_cell_length_a 25.669312
_cell_length_b 12.218144
_cell_length_c 6.119690
_cell_angle_alpha 131.708377
_cell_angle_beta 50.747370
_cell_angle_gamma 152.442270
_cell_volume 657.768925
_symmetry_space_group_name_H-M "P -1"
_symmetry_group_IT_number 2
_symmetry_cell_setting 'triclinic'
loop_
_space_group_symop_operation_xyz
x,y,z
-x,-y,-z
loop_
_atom_site_type_symbol
_atom_site_label
_atom_site_fract_x
_atom_site_fract_y
_atom_site_fract_z
Si Si1 0.521146 0.466344 0.144706
Si Si2 0.632321 0.208621 0.886415
Si Si3 0.769949 0.953712 0.206715
Si Si4 0.088511 0.562949 0.712628
Si Si5 0.035703 0.839107 0.792089
Si Si6 0.840299 0.732755 0.269369
Si Si7 0.786278 0.463836 0.429696
Si Si8 0.315707 0.951591 0.156495
O O1 0.500000 0.500000 0.500000
O O2 0.655215 0.672147 0.068873
O O3 0.430343 0.177852 0.017603
O O4 0.500000 0.500000 0.000000
O O5 0.674008 0.292475 0.640131
O O6 0.654682 0.083876 0.748706
O O7 0.721180 0.472150 0.127396
O O8 0.500000 0.000000 0.000000
O O9 0.741483 0.995530 0.559670
O O10 0.803761 0.141813 0.199376
O O11 0.880152 0.051953 0.090751
O O12 0.120817 0.456418 0.566469
O O13 0.031933 0.423884 0.448306
O O14 0.000000 0.500000 0.000000
O O15 0.116782 0.041917 0.650890
O O16 0.942141 0.796996 0.036079
O O17 0.822465 0.675378 0.496779
O O18 0.763190 0.298478 0.093125
#
# Coordination Sequence:
#
# PCOD9027647 Si02
#       8
#     2   2   2   2   2   2   2   2
#     4  10  23  41  66 103 145 187 232 295 364 435
#     4  11  24  44  69  95 132 182 240 301 356 432
#     4  11  22  42  67 101 142 184 233 296 359 437
#     4  12  22  38  66 103 136 183 233 289 362 434
#     4  11  23  43  66 100 148 184 233 294 355 437
#     4  10  24  45  65  98 141 185 235 295 356 430
#     4  11  21  43  70  96 134 183 238 295 364 430
#     4  10  22  41  68  98 136 179 230 301 363 430
#
# _framework density 24.324652
#
# number of rings (size 3 to 8) (size 9 to 14) (size 15 to 20)
#    0.000    1.250    2.500    3.375    3.500    3.500 
#    2.250    3.750    0.000    0.000    0.000    0.000 
#    0.000    0.000    0.000    0.000    0.000    0.000 
#
# Total GULP energy -89315.822666 kJ/mol
# GULP energy per Si atom -5582.238917 kJ/mol
# Density = 2.426929 g / cm^3
# Si number density = 24.324652 Si / 1000 Ang^3
#
#
#
# Elastic Constant Matrix: (Units=GPa)
#
#
# Indices 1 2 3 4 5 6 
#
# 1 78.4126 18.1437 20.1954 -8.0825 11.4748 3.4578
# 2 18.1437 124.1119 10.6772 -17.8126 5.0660 0.6798
# 3 20.1954 10.6772 70.4247 -9.8840 -0.9506 9.3815
# 4 -8.0825 -17.8126 -9.8840 41.7935 -3.9593 8.3425
# 5 11.4748 5.0660 -0.9506 -3.9593 26.3487 -11.8852
# 6 3.4578 0.6798 9.3815 8.3425 -11.8852 56.0289
#
#
#
# Elastic Compliance Matrix: (Units=1/GPa)
#
#
# Indices 1 2 3 4 5 6 
#
# 1 0.015350 -0.001439 -0.003854 0.001154 -0.007276 -0.002000
# 2 -0.001439 0.008833 -0.000367 0.003448 -0.000861 -0.000653
# 3 -0.003854 -0.000367 0.016247 0.003631 0.001680 -0.002663
# 4 0.001154 0.003448 0.003631 0.027493 0.001023 -0.004598
# 5 -0.007276 -0.000861 0.001680 0.001023 0.045905 0.009764
# 6 -0.002000 -0.000653 -0.002663 -0.004598 0.009764 0.021181
#
#
# Mechanical properties :
#
#
# Convention : Reuss Voigt Hill
#
# Bulk Modulus (GPa) = 34.35134 41.22019 37.78576
# Shear Modulus (GPa) = 32.04437 39.76307 35.90372
#
# Velocity S-wave (km/s) = 3.63349 4.04751 3.84607
# Velocity P-wave (km/s) = 5.63521 6.23103 5.94060
#
# Compressibility (1/GPa) = 0.02911095
#
# Stress axis : x y z
#
# Youngs Moduli (GPa) = 65.14462 113.21418 61.54856
#
# Poissons Ratio (x) = 0.16291 0.23719
# Poissons Ratio (y) = 0.09374 0.02260
# Poissons Ratio (z) = 0.25105 0.04157
#
# Static dielectric constant tensor:
#      x y z
#    x 2.036460 -0.010270 0.068900 
#    y -0.010270 1.921780 -0.036920 
#    z 0.068900 -0.036920 1.988460 
# 
# From -- ./inp_files/78394.got.cif
#   From: 2010.05.17/outbox.cif.g08.bks.cpg/sg2_40_cif.got.tgz:78394.got - 2010.06.03 11:33:40.
