data_PCOD9027499
_publ_section_title
;
Structure prediction by ZEFSAII (Michael W. Deem and Ramdas Pophale) SiO2 
 PCOD9027499
Probable space group: P -1
;
_chemical_formula_sum "Si O2"
_cell_formula_units_Z 14
_cell_length_a 9.555496
_cell_length_b 8.835839
_cell_length_c 11.709215
_cell_angle_alpha 88.327469
_cell_angle_beta 130.985045
_cell_angle_gamma 119.094021
_cell_volume 585.856235
_symmetry_space_group_name_H-M "P -1"
_symmetry_group_IT_number 2
_symmetry_cell_setting 'triclinic'
loop_
_space_group_symop_operation_xyz
x,y,z
-x,-y,-z
loop_
_atom_site_type_symbol
_atom_site_label
_atom_site_fract_x
_atom_site_fract_y
_atom_site_fract_z
Si Si1 0.119862 0.144036 0.165613
Si Si2 0.591239 0.431240 0.289645
Si Si3 0.437996 0.132845 0.518247
Si Si4 0.115397 0.553355 0.360939
Si Si5 0.359612 0.198445 0.727710
Si Si6 0.660546 0.433964 0.084168
Si Si7 0.776529 0.101530 0.157966
O O1 0.345625 0.339261 0.224513
O O2 0.239211 0.104636 0.330965
O O3 0.908342 0.125707 0.111895
O O4 0.000000 0.000000 0.000000
O O5 0.744008 0.394942 0.448758
O O6 0.704728 0.656942 0.331719
O O7 0.568245 0.330263 0.160454
O O8 0.681524 0.350697 0.626481
O O9 0.378030 0.118986 0.619873
O O10 0.500000 0.000000 0.500000
O O11 0.939171 0.603475 0.244125
O O12 0.925371 0.323693 0.266533
O O13 0.800124 0.978778 0.266236
O O14 0.599601 0.330837 0.931333
O O15 0.500000 0.500000 0.000000
O O16 0.500000 0.000000 0.000000
#
# Coordination Sequence:
#
# PCOD9027499 Si02
#       7
#     2   2   2   2   2   2   2
#     4  11  26  47  74 102 149 189 244 302 362 432
#     4  10  23  45  74 106 139 191 244 299 366 426
#     4  11  28  47  71 108 141 193 247 304 364 425
#     4  11  24  45  72 100 150 188 242 299 366 428
#     4  11  24  45  69 104 147 181 249 290 364 430
#     4  10  22  41  68 106 143 188 238 296 358 431
#     4  12  26  45  73 108 146 193 242 296 367 435
#
# _framework density 23.896650999999999
#
# number of rings (size 3 to 8) (size 9 to 14) (size 15 to 20)
#    0.000    1.143    1.429    3.000    2.000   12.000 
#    0.000    0.000    0.000    0.000    0.000    0.000 
#    0.000    0.000    0.000    0.000    0.000    0.000 
#
# Total GULP energy -78083.361034 kJ/mol
# GULP energy per Si atom -5577.382931 kJ/mol
# Density = 2.384226 g / cm^3
# Si number density = 23.896651 Si / 1000 Ang^3
#
#
#
# Elastic Constant Matrix: (Units=GPa)
#
#
# Indices 1 2 3 4 5 6 
#
# 1 163.7765 23.2552 69.4260 1.7074 -17.7341 6.7558
# 2 23.2552 69.7800 8.8220 10.8654 -2.9955 8.6007
# 3 69.4260 8.8220 132.7270 0.9580 0.3729 11.7003
# 4 1.7074 10.8654 0.9580 25.0927 7.5367 0.9811
# 5 -17.7341 -2.9955 0.3729 7.5367 55.7887 0.1723
# 6 6.7558 8.6007 11.7003 0.9811 0.1723 32.7867
#
#
#
# Elastic Compliance Matrix: (Units=1/GPa)
#
#
# Indices 1 2 3 4 5 6 
#
# 1 0.008540 -0.002181 -0.004360 -0.000285 0.002664 0.000363
# 2 -0.002181 0.016667 0.000423 -0.007293 0.001196 -0.003862
# 3 -0.004360 0.000423 0.010035 0.000278 -0.001459 -0.002794
# 4 -0.000285 -0.007293 0.000278 0.044967 -0.006560 0.000561
# 5 0.002664 0.001196 -0.001459 -0.006560 0.019733 -0.000249
# 6 0.000363 -0.003862 -0.002794 0.000561 -0.000249 0.032420
#
#
# Mechanical properties :
#
#
# Convention : Reuss Voigt Hill
#
# Bulk Modulus (GPa) = 43.46605 63.25445 53.36025
# Shear Modulus (GPa) = 32.83712 40.38563 36.61138
#
# Velocity S-wave (km/s) = 3.71095 4.11544 3.91841
# Velocity P-wave (km/s) = 6.04898 7.00784 6.54599
#
# Compressibility (1/GPa) = 0.02300646
#
# Stress axis : x y z
#
# Youngs Moduli (GPa) = 117.09485 59.99861 99.65176
#
# Poissons Ratio (x) = 0.13086 0.43444
# Poissons Ratio (y) = 0.25538 -0.04212
# Poissons Ratio (z) = 0.51048 -0.02536
#
# Static dielectric constant tensor:
#      x y z
#    x 1.976900 -0.083540 0.087670 
#    y -0.083540 2.170570 -0.113190 
#    z 0.087670 -0.113190 2.040650 
# 
# From -- ./inp_files/385409.got.cif
#   From: 2010.05.17/outbox.cif.g08.bks.cpg/sg2_193_cif.got.tgz:385409.got - 2010.06.03 11:33:40.
