data_PCOD9027785
_publ_section_title
;
Structure prediction by ZEFSAII (Michael W. Deem and Ramdas Pophale) SiO2 
 PCOD9027785
Probable space group: P -1
;
_chemical_formula_sum "Si O2"
_cell_formula_units_Z 14
_cell_length_a 15.232911
_cell_length_b 8.867869
_cell_length_c 4.979509
_cell_angle_alpha 82.400744
_cell_angle_beta 93.541253
_cell_angle_gamma 88.271365
_cell_volume 664.968758
_symmetry_space_group_name_H-M "P -1"
_symmetry_group_IT_number 2
_symmetry_cell_setting 'triclinic'
loop_
_space_group_symop_operation_xyz
x,y,z
-x,-y,-z
loop_
_atom_site_type_symbol
_atom_site_label
_atom_site_fract_x
_atom_site_fract_y
_atom_site_fract_z
Si Si1 0.100469 0.503085 0.098609
Si Si2 0.534474 0.219558 0.458589
Si Si3 0.576031 0.389895 0.920887
Si Si4 0.205382 0.462298 0.632723
Si Si5 0.672669 0.006833 0.854499
Si Si6 0.334690 0.190874 0.570927
Si Si7 0.239630 0.704470 0.936152
O O1 0.144127 0.667793 0.039089
O O2 0.162822 0.412873 0.917683
O O3 0.126479 0.451899 0.410130
O O4 0.000000 0.500000 0.000000
O O5 0.556930 0.360657 0.616352
O O6 0.566774 0.244637 0.156604
O O7 0.589211 0.087473 0.660908
O O8 0.430342 0.212760 0.456659
O O9 0.500000 0.500000 0.000000
O O10 0.679705 0.416249 0.942458
O O11 0.284568 0.349772 0.587998
O O12 0.230366 0.640924 0.641426
O O13 0.715110 0.908420 0.639046
O O14 0.729909 0.137115 0.975229
O O15 0.650728 0.897212 0.123480
#
# Coordination Sequence:
#
# PCOD9027785 Si02
#       7
#     2   2   2   2   2   2   2
#     4  10  22  41  69  92 116 151 204 258 312 377
#     4  11  23  36  54  82 125 173 215 236 289 358
#     4  11  22  34  56  86 127 160 203 259 299 340
#     4  10  23  38  66  91 120 149 208 249 315 358
#     4  11  23  38  59  88 126 170 209 249 295 354
#     4  12  23  39  61  88 128 168 209 251 296 355
#     4   9  24  37  64  88 122 155 212 244 308 360
#
# _framework density 21.053619000000001
#
# number of rings (size 3 to 8) (size 9 to 14) (size 15 to 20)
#    0.857    0.571    0.000    6.000    8.000    0.000 
#    0.000    0.000    0.000    5.143    0.000    0.000 
#    0.000    0.000    0.000    0.000    0.000    0.000 
#
# Total GULP energy -77937.145149 kJ/mol
# GULP energy per Si atom -5566.938939 kJ/mol
# Density = 2.100570 g / cm^3
# Si number density = 21.053619 Si / 1000 Ang^3
#
#
#
# Elastic Constant Matrix: (Units=GPa)
#
#
# Indices 1 2 3 4 5 6 
#
# 1 86.6039 37.5781 20.6152 11.4720 14.1591 20.5644
# 2 37.5781 56.3498 37.2271 18.3243 6.9496 -4.9165
# 3 20.6152 37.2271 111.1494 13.2664 1.4861 0.8688
# 4 11.4720 18.3243 13.2664 38.0384 2.0683 -3.0414
# 5 14.1591 6.9496 1.4861 2.0683 36.0422 12.5250
# 6 20.5644 -4.9165 0.8688 -3.0414 12.5250 17.9831
#
#
#
# Elastic Compliance Matrix: (Units=1/GPa)
#
#
# Indices 1 2 3 4 5 6 
#
# 1 0.040525 -0.037820 0.005746 -0.002216 0.014759 -0.067614
# 2 -0.037820 0.063924 -0.013821 -0.007231 -0.022947 0.076153
# 3 0.005746 -0.013821 0.012721 -0.000954 0.005019 -0.014621
# 4 -0.002216 -0.007231 -0.000954 0.031474 -0.002060 0.007361
# 5 0.014759 -0.022947 0.005019 -0.002060 0.045561 -0.055475
# 6 -0.067614 0.076153 -0.014621 0.007361 -0.055475 0.194335
#
#
# Mechanical properties :
#
#
# Convention : Reuss Voigt Hill
#
# Bulk Modulus (GPa) = 39.39974 49.43820 44.41897
# Shear Modulus (GPa) = 10.22934 28.99160 19.61047
#
# Velocity S-wave (km/s) = 2.20664 3.71487 3.05528
# Velocity P-wave (km/s) = 5.02464 6.47560 5.79570
#
# Compressibility (1/GPa) = 0.02538088
#
# Stress axis : x y z
#
# Youngs Moduli (GPa) = 24.67604 15.64355 78.60983
#
# Poissons Ratio (x) = 0.59165 -0.45173
# Poissons Ratio (y) = 0.93326 1.08644
# Poissons Ratio (z) = -0.14180 0.21620
#
# Static dielectric constant tensor:
#      x y z
#    x 1.728270 0.017520 -0.010150 
#    y 0.017520 1.919150 0.026260 
#    z -0.010150 0.026260 1.816720 
# 
# From -- ./inp_files/105061.got.cif
#   From: 2010.05.17/outbox.cif.g08.bks.cpg/sg2_53_cif.got.tgz:105061.got - 2010.06.03 11:33:40.
