data_PCOD9027341
_publ_section_title
;
Structure prediction by ZEFSAII (Michael W. Deem and Ramdas Pophale) SiO2 
 PCOD9027341
Probable space group: P -1
;
_chemical_formula_sum "Si O2"
_cell_formula_units_Z 14
_cell_length_a 8.545768
_cell_length_b 20.290377
_cell_length_c 20.364585
_cell_angle_alpha 14.365094
_cell_angle_beta 42.749980
_cell_angle_gamma 42.450085
_cell_volume 587.273217
_symmetry_space_group_name_H-M "P -1"
_symmetry_group_IT_number 2
_symmetry_cell_setting 'triclinic'
loop_
_space_group_symop_operation_xyz
x,y,z
-x,-y,-z
loop_
_atom_site_type_symbol
_atom_site_label
_atom_site_fract_x
_atom_site_fract_y
_atom_site_fract_z
Si Si1 0.016951 0.961979 0.637728
Si Si2 0.545533 0.945294 0.733125
Si Si3 0.235780 0.126409 0.062353
Si Si4 0.670122 0.590213 0.915371
Si Si5 0.681492 0.167732 0.958824
Si Si6 0.152382 0.334225 0.537314
Si Si7 0.233737 0.580983 0.524768
O O1 0.154091 0.215095 0.353870
O O2 0.186448 0.686241 0.834008
O O3 0.802673 0.010158 0.606158
O O4 0.910182 0.907057 0.794904
O O5 0.352195 0.210256 0.543006
O O6 0.535057 0.772492 0.838297
O O7 0.484929 0.780033 0.975383
O O8 0.185145 0.413653 0.765626
O O9 0.511146 0.079581 0.041856
O O10 0.188255 0.897158 0.248398
O O11 0.500000 0.500000 0.000000
O O12 0.871789 0.928184 0.159514
O O13 0.758259 0.451734 0.649262
O O14 0.934825 0.471907 0.430731
O O15 0.500000 0.500000 0.500000
#
# Coordination Sequence:
#
# PCOD9027341 Si02
#       7
#     2   2   2   2   2   2   2
#     4  11  25  43  68  91 132 183 226 275 331 387
#     4   9  24  40  69  89 137 175 233 268 327 384
#     4  11  24  45  71  96 134 175 227 273 341 408
#     4  12  26  40  62 103 138 174 227 279 327 382
#     4   9  21  40  69  95 126 180 226 269 322 394
#     4  10  22  41  67  96 132 173 227 268 340 392
#     4  12  26  45  70 102 138 173 214 278 353 412
#
# _framework density 23.838992000000001
#
# number of rings (size 3 to 8) (size 9 to 14) (size 15 to 20)
#    0.857    0.571    0.000    4.286    8.000    1.143 
#    0.000    4.286    0.000    0.000    0.000    0.000 
#    0.000    0.000    0.000    0.000    0.000    0.000 
#
# Total GULP energy -78330.227156 kJ/mol
# GULP energy per Si atom -5595.016225 kJ/mol
# Density = 2.378473 g / cm^3
# Si number density = 23.838992 Si / 1000 Ang^3
#
#
#
# Elastic Constant Matrix: (Units=GPa)
#
#
# Indices 1 2 3 4 5 6 
#
# 1 96.6876 22.3269 38.1079 8.1474 -0.5677 -3.3511
# 2 22.3269 85.7972 22.2321 -8.8374 -2.0867 4.0268
# 3 38.1079 22.2321 125.8499 4.9983 -11.1916 -7.7150
# 4 8.1474 -8.8374 4.9983 31.2040 5.9273 7.8062
# 5 -0.5677 -2.0867 -11.1916 5.9273 38.0319 -11.1481
# 6 -3.3511 4.0268 -7.7150 7.8062 -11.1481 31.8745
#
#
#
# Elastic Compliance Matrix: (Units=1/GPa)
#
#
# Indices 1 2 3 4 5 6 
#
# 1 0.012658 -0.003077 -0.002934 -0.004364 0.000497 0.002252
# 2 -0.003077 0.013970 -0.002368 0.006954 -0.002607 -0.005276
# 3 -0.002934 -0.002368 0.010144 -0.003722 0.004876 0.005063
# 4 -0.004364 0.006954 -0.003722 0.042328 -0.012335 -0.016919
# 5 0.000497 -0.002607 0.004876 -0.012335 0.034384 0.016608
# 6 0.002252 -0.005276 0.005063 -0.016919 0.016608 0.043454
#
#
# Mechanical properties :
#
#
# Convention : Reuss Voigt Hill
#
# Bulk Modulus (GPa) = 49.96012 52.62983 51.29497
# Shear Modulus (GPa) = 27.72117 35.26659 31.49388
#
# Velocity S-wave (km/s) = 3.41376 3.85043 3.63865
# Velocity P-wave (km/s) = 6.04493 6.47247 6.26235
#
# Compressibility (1/GPa) = 0.02001597
#
# Stress axis : x y z
#
# Youngs Moduli (GPa) = 79.00048 71.58106 98.57684
#
# Poissons Ratio (x) = 0.22025 0.28920
# Poissons Ratio (y) = 0.24308 0.23339
# Poissons Ratio (z) = 0.23177 0.16948
#
# Static dielectric constant tensor:
#      x y z
#    x 1.826810 -0.015610 -0.000730 
#    y -0.015610 1.988500 0.054190 
#    z -0.000730 0.054190 1.849610 
# 
# From -- ./inp_files/608715.got.cif
#   From: 2010.05.17/outbox.cif.g08.bks.cpg/sg2_305_cif.got.tgz:608715.got - 2010.06.03 11:33:40.
