data_PCOD9027891
_publ_section_title
;
Structure prediction by ZEFSAII (Michael W. Deem and Ramdas Pophale) SiO2 
 PCOD9027891
Probable space group: P -1
;
_chemical_formula_sum "Si O2"
_cell_formula_units_Z 16
_cell_length_a 10.465181
_cell_length_b 16.004867
_cell_length_c 11.804767
_cell_angle_alpha 28.144565
_cell_angle_beta 68.087656
_cell_angle_gamma 86.164337
_cell_volume 692.819648
_symmetry_space_group_name_H-M "P -1"
_symmetry_group_IT_number 2
_symmetry_cell_setting 'triclinic'
loop_
_space_group_symop_operation_xyz
x,y,z
-x,-y,-z
loop_
_atom_site_type_symbol
_atom_site_label
_atom_site_fract_x
_atom_site_fract_y
_atom_site_fract_z
Si Si1 0.256300 0.570525 0.248287
Si Si2 0.758925 0.109654 0.813901
Si Si3 0.723766 0.045885 0.160379
Si Si4 0.547704 0.796749 0.070990
Si Si5 0.204358 0.184278 0.215323
Si Si6 0.472640 0.296150 0.187789
Si Si7 0.769538 0.518729 0.304321
Si Si8 0.941952 0.875008 0.015686
O O1 0.407213 0.716842 0.116189
O O2 0.145965 0.318518 0.627606
O O3 0.173433 0.700522 0.132532
O O4 0.356247 0.615109 0.046158
O O5 0.830302 0.363817 0.485450
O O6 0.681327 0.024027 0.067737
O O7 0.633105 0.009326 0.867794
O O8 0.876731 0.026143 0.859311
O O9 0.570521 0.888345 0.485707
O O10 0.855850 0.985498 0.202161
O O11 0.425718 0.609920 0.429600
O O12 0.701489 0.832400 0.904280
O O13 0.311090 0.198733 0.270994
O O14 0.229309 0.411721 0.907387
O O15 0.000000 0.000000 0.500000
O O16 0.500000 0.500000 0.000000
O O17 0.885807 0.733331 0.088480
#
# Coordination Sequence:
#
# PCOD9027891 Si02
#       8
#     2   2   2   2   2   2   2   2
#     4  10  23  43  69  97 134 188 223 277 348 407
#     4  12  24  38  72 105 133 168 236 280 343 397
#     4  12  24  43  68  99 141 179 227 276 347 416
#     4  10  22  41  70 100 131 172 231 288 330 398
#     4  11  24  46  71  97 141 185 227 281 357 403
#     4  11  26  43  67 100 141 188 228 281 343 421
#     4  11  23  42  72  99 130 180 230 285 335 405
#     4  11  23  43  66 102 139 172 225 287 346 396
#
# _framework density 23.094033
#
# number of rings (size 3 to 8) (size 9 to 14) (size 15 to 20)
#    0.000    1.000    3.750    3.375    5.250    0.000 
#    0.000    0.625    0.000    0.000    0.000    0.000 
#    0.000    0.000    0.000    0.000    0.000    0.000 
#
# Total GULP energy -89296.794680 kJ/mol
# GULP energy per Si atom -5581.049668 kJ/mol
# Density = 2.304147 g / cm^3
# Si number density = 23.094033 Si / 1000 Ang^3
#
#
#
# Elastic Constant Matrix: (Units=GPa)
#
#
# Indices 1 2 3 4 5 6 
#
# 1 59.2107 22.0750 24.9369 2.6831 -0.4215 -15.0790
# 2 22.0750 110.1760 25.3643 -4.1445 4.1841 -1.5757
# 3 24.9369 25.3643 61.1232 8.2318 18.4159 -5.2546
# 4 2.6831 -4.1445 8.2318 31.8257 0.0470 3.7382
# 5 -0.4215 4.1841 18.4159 0.0470 41.8495 -3.4692
# 6 -15.0790 -1.5757 -5.2546 3.7382 -3.4692 43.9752
#
#
#
# Elastic Compliance Matrix: (Units=1/GPa)
#
#
# Indices 1 2 3 4 5 6 
#
# 1 0.023852 -0.002730 -0.009443 -0.000805 0.005286 0.007438
# 2 -0.002730 0.010592 -0.003920 0.002766 0.000534 -0.001218
# 3 -0.009443 -0.003920 0.026016 -0.006355 -0.011195 -0.000613
# 4 -0.000805 0.002766 -0.006355 0.033918 0.002171 -0.003648
# 5 0.005286 0.000534 -0.011195 0.002171 0.029034 0.002600
# 6 0.007438 -0.001218 -0.000613 -0.003648 0.002600 0.025689
#
#
# Mechanical properties :
#
#
# Convention : Reuss Voigt Hill
#
# Bulk Modulus (GPa) = 35.36769 41.69582 38.53175
# Shear Modulus (GPa) = 26.21761 34.07232 30.14496
#
# Velocity S-wave (km/s) = 3.37301 3.84523 3.61683
# Velocity P-wave (km/s) = 5.52426 6.14885 5.84490
#
# Compressibility (1/GPa) = 0.02827439
#
# Stress axis : x y z
#
# Youngs Moduli (GPa) = 41.92545 94.41028 38.43826
#
# Poissons Ratio (x) = 0.25771 0.36297
# Poissons Ratio (y) = 0.11444 0.15067
# Poissons Ratio (z) = 0.39590 0.37008
#
# Static dielectric constant tensor:
#      x y z
#    x 1.991260 -0.027510 0.056240 
#    y -0.027510 1.857660 -0.010970 
#    z 0.056240 -0.010970 1.901400 
# 
# From -- ./inp_files/417765.got.cif
#   From: 2010.05.17/outbox.cif.g08.bks.cpg/sg2_209_cif.got.tgz:417765.got - 2010.06.03 11:33:40.
