data_PCOD9027403
_publ_section_title
;
Structure prediction by ZEFSAII (Michael W. Deem and Ramdas Pophale) SiO2 
 PCOD9027403
Probable space group: P -1
;
_chemical_formula_sum "Si O2"
_cell_formula_units_Z 14
_cell_length_a 8.491379
_cell_length_b 9.204874
_cell_length_c 21.290377
_cell_angle_alpha 43.093636
_cell_angle_beta 40.978337
_cell_angle_gamma 74.646913
_cell_volume 573.139305
_symmetry_space_group_name_H-M "P -1"
_symmetry_group_IT_number 2
_symmetry_cell_setting 'triclinic'
loop_
_space_group_symop_operation_xyz
x,y,z
-x,-y,-z
loop_
_atom_site_type_symbol
_atom_site_label
_atom_site_fract_x
_atom_site_fract_y
_atom_site_fract_z
Si Si1 0.517728 0.395907 0.792955
Si Si2 0.832266 0.131729 0.782371
Si Si3 0.826187 0.307839 0.313748
Si Si4 0.732597 0.520164 0.559575
Si Si5 0.913765 0.833616 0.171345
Si Si6 0.778252 0.799018 0.688029
Si Si7 0.594653 0.315176 0.047803
O O1 0.754800 0.334884 0.754986
O O2 0.652331 0.580591 0.631249
O O3 0.504255 0.532410 0.814607
O O4 0.186666 0.108415 0.965679
O O5 0.115830 0.251474 0.611432
O O6 0.932544 0.086389 0.831300
O O7 0.533176 0.888650 0.909223
O O8 0.824260 0.540006 0.273071
O O9 0.027007 0.264708 0.311412
O O10 0.500000 0.000000 0.500000
O O11 0.029367 0.467898 0.138287
O O12 0.418098 0.240757 0.714549
O O13 0.000000 0.500000 0.500000
O O14 0.600770 0.842966 0.779843
O O15 0.000000 0.000000 0.500000
O O16 0.500000 0.500000 0.000000
#
# Coordination Sequence:
#
# PCOD9027403 Si02
#       7
#     2   2   2   2   2   2   2
#     4  11  22  43  69  97 134 176 225 278 341 404
#     4  11  21  42  69  98 130 172 230 282 329 407
#     4  11  25  43  66  99 137 184 228 276 339 405
#     4  10  25  41  61 100 135 170 216 286 348 393
#     4  12  22  42  71  97 132 176 234 281 330 407
#     4  11  24  45  69 100 141 183 220 277 346 408
#     4  10  22  41  67  98 137 178 226 275 339 404
#
# _framework density 24.426873000000001
#
# number of rings (size 3 to 8) (size 9 to 14) (size 15 to 20)
#    0.000    1.143    2.857    3.857    6.000    0.000 
#    2.571    0.714    0.000    0.000    0.000    0.000 
#    0.000    0.000    0.000    0.000    0.000    0.000 
#
# Total GULP energy -78174.070726 kJ/mol
# GULP energy per Si atom -5583.862195 kJ/mol
# Density = 2.437128 g / cm^3
# Si number density = 24.426873 Si / 1000 Ang^3
#
#
#
# Elastic Constant Matrix: (Units=GPa)
#
#
# Indices 1 2 3 4 5 6 
#
# 1 86.8718 28.7063 36.8439 15.3212 -6.2591 18.9941
# 2 28.7063 103.3072 36.9412 -4.8265 0.0549 18.6387
# 3 36.8439 36.9412 181.1292 8.2223 -11.8560 16.5635
# 4 15.3212 -4.8265 8.2223 28.7255 7.2308 1.2809
# 5 -6.2591 0.0549 -11.8560 7.2308 41.4609 -1.1214
# 6 18.9941 18.6387 16.5635 1.2809 -1.1214 35.7158
#
#
#
# Elastic Compliance Matrix: (Units=1/GPa)
#
#
# Indices 1 2 3 4 5 6 
#
# 1 0.016501 -0.003467 -0.001443 -0.009617 0.003602 -0.005839
# 2 -0.003467 0.012239 -0.001795 0.005112 -0.002052 -0.003959
# 3 -0.001443 -0.001795 0.006498 -0.001825 0.001929 -0.001183
# 4 -0.009617 0.005112 -0.001825 0.043665 -0.009557 0.001427
# 5 0.003602 -0.002052 0.001929 -0.009557 0.026869 -0.000553
# 6 -0.005839 -0.003959 -0.001183 0.001427 -0.000553 0.033650
#
#
# Mechanical properties :
#
#
# Convention : Reuss Voigt Hill
#
# Bulk Modulus (GPa) = 45.81360 64.03235 54.92298
# Shear Modulus (GPa) = 31.22865 39.10156 35.16510
#
# Velocity S-wave (km/s) = 3.57943 4.00529 3.79833
# Velocity P-wave (km/s) = 5.98992 6.90367 6.46296
#
# Compressibility (1/GPa) = 0.02182758
#
# Stress axis : x y z
#
# Youngs Moduli (GPa) = 60.60147 81.70334 153.89562
#
# Poissons Ratio (x) = 0.28326 0.22210
# Poissons Ratio (y) = 0.21010 0.27630
# Poissons Ratio (z) = 0.08746 0.14669
#
# Static dielectric constant tensor:
#      x y z
#    x 1.950210 0.005590 0.013530 
#    y 0.005590 2.004600 0.020260 
#    z 0.013530 0.020260 2.078220 
# 
# From -- ./inp_files/240705.got.cif
#   From: 2010.05.17/outbox.cif.g08.bks.cpg/sg2_121_cif.got.tgz:240705.got - 2010.06.03 11:33:40.
