data_PCOD9027700
_publ_section_title
;
Structure prediction by ZEFSAII (Michael W. Deem and Ramdas Pophale) SiO2 
 PCOD9027700
Probable space group: P -1
;
_chemical_formula_sum "Si O2"
_cell_formula_units_Z 14
_cell_length_a 16.093422
_cell_length_b 7.198399
_cell_length_c 9.109850
_cell_angle_alpha 80.247321
_cell_angle_beta 135.236394
_cell_angle_gamma 69.279801
_cell_volume 534.900616
_symmetry_space_group_name_H-M "P -1"
_symmetry_group_IT_number 2
_symmetry_cell_setting 'triclinic'
loop_
_space_group_symop_operation_xyz
x,y,z
-x,-y,-z
loop_
_atom_site_type_symbol
_atom_site_label
_atom_site_fract_x
_atom_site_fract_y
_atom_site_fract_z
Si Si1 0.869742 0.004654 0.910032
Si Si2 0.053038 0.657132 0.591178
Si Si3 0.571072 0.235667 0.300116
Si Si4 0.548506 0.811708 0.355072
Si Si5 0.839420 0.509532 0.551366
Si Si6 0.280630 0.958717 0.787319
Si Si7 0.698602 0.454688 0.867713
O O1 0.729960 0.106292 0.609758
O O2 0.789276 0.196553 0.921850
O O3 0.000000 0.000000 0.000000
O O4 0.980450 0.705418 0.130807
O O5 0.886516 0.947514 0.378054
O O6 0.000000 0.500000 0.500000
O O7 0.149793 0.613169 0.572527
O O8 0.170866 0.551788 0.890746
O O9 0.418259 0.494204 0.156950
O O10 0.538285 0.048120 0.302474
O O11 0.612336 0.237355 0.184171
O O12 0.702527 0.583494 0.478925
O O13 0.585549 0.689028 0.577919
O O14 0.387612 0.916279 0.061219
O O15 0.787483 0.778133 0.416642
#
# Coordination Sequence:
#
# PCOD9027700 Si02
#       7
#     2   2   2   2   2   2   2
#     4  12  26  45  65 100 141 182 225 274 338 408
#     4  10  22  41  69 101 133 171 225 279 333 394
#     4  11  24  41  70  96 136 181 224 279 334 395
#     4  11  23  42  74 102 134 172 231 284 334 391
#     4  10  22  41  69  92 139 171 224 271 340 384
#     4  10  22  42  71 105 132 172 229 283 335 391
#     4  12  25  44  69 102 140 177 224 276 340 407
#
# _framework density 26.173088
#
# number of rings (size 3 to 8) (size 9 to 14) (size 15 to 20)
#    0.000    1.143    1.429    6.000    6.000    1.714 
#    0.000    0.714    0.000    0.000    0.000    0.000 
#    0.000    0.000    0.000    0.000    0.000    0.000 
#
# Total GULP energy -78499.007479 kJ/mol
# GULP energy per Si atom -5607.071963 kJ/mol
# Density = 2.611352 g / cm^3
# Si number density = 26.173088 Si / 1000 Ang^3
#
#
#
# Elastic Constant Matrix: (Units=GPa)
#
#
# Indices 1 2 3 4 5 6 
#
# 1 128.8962 55.1403 33.2526 13.6572 4.4154 -34.3465
# 2 55.1403 146.6723 58.6251 -8.3758 11.4060 -22.7106
# 3 33.2526 58.6251 162.7340 29.3905 29.2076 1.1568
# 4 13.6572 -8.3758 29.3905 54.0763 -7.0776 1.5604
# 5 4.4154 11.4060 29.2076 -7.0776 39.3777 -0.7230
# 6 -34.3465 -22.7106 1.1568 1.5604 -0.7230 63.0737
#
#
#
# Elastic Compliance Matrix: (Units=1/GPa)
#
#
# Indices 1 2 3 4 5 6 
#
# 1 0.010948 -0.003365 -0.000382 -0.003279 -0.000470 0.004833
# 2 -0.003365 0.010165 -0.004094 0.004776 0.001361 0.001800
# 3 -0.000382 -0.004094 0.010406 -0.007164 -0.007810 -0.001785
# 4 -0.003279 0.004776 -0.007164 0.025119 0.008805 -0.000455
# 5 -0.000470 0.001361 -0.007810 0.008805 0.032439 0.000531
# 6 0.004833 0.001800 -0.001785 -0.000455 0.000531 0.019184
#
#
# Mechanical properties :
#
#
# Convention : Reuss Voigt Hill
#
# Bulk Modulus (GPa) = 63.14792 81.37095 72.25943
# Shear Modulus (GPa) = 38.69261 50.72452 44.70857
#
# Velocity S-wave (km/s) = 3.84908 4.40709 4.13751
# Velocity P-wave (km/s) = 6.62822 7.55339 7.10588
#
# Compressibility (1/GPa) = 0.01583583
#
# Stress axis : x y z
#
# Youngs Moduli (GPa) = 91.34304 98.37698 96.09534
#
# Poissons Ratio (x) = 0.33107 0.03676
# Poissons Ratio (y) = 0.30740 0.39340
# Poissons Ratio (z) = 0.03494 0.40274
#
# Static dielectric constant tensor:
#      x y z
#    x 2.127460 -0.000080 -0.047960 
#    y -0.000080 2.107340 -0.090790 
#    z -0.047960 -0.090790 2.035860 
# 
# From -- ./inp_files/237516.got.cif
#   From: 2010.05.17/outbox.cif.g08.bks.cpg/sg2_119_cif.got.tgz:237516.got - 2010.06.03 11:33:40.
