data_PCOD9027531
_publ_section_title
;
Structure prediction by ZEFSAII (Michael W. Deem and Ramdas Pophale) SiO2 
 PCOD9027531
Probable space group: P -1
;
_chemical_formula_sum "Si O2"
_cell_formula_units_Z 16
_cell_length_a 8.692321
_cell_length_b 8.958267
_cell_length_c 21.611174
_cell_angle_alpha 143.016487
_cell_angle_beta 120.767776
_cell_angle_gamma 48.660683
_cell_volume 759.610516
_symmetry_space_group_name_H-M "P -1"
_symmetry_group_IT_number 2
_symmetry_cell_setting 'triclinic'
loop_
_space_group_symop_operation_xyz
x,y,z
-x,-y,-z
loop_
_atom_site_type_symbol
_atom_site_label
_atom_site_fract_x
_atom_site_fract_y
_atom_site_fract_z
Si Si1 0.038460 0.742061 0.060414
Si Si2 0.748722 0.168664 0.750615
Si Si3 0.912717 0.731694 0.391120
Si Si4 0.173908 0.438653 0.464548
Si Si5 0.913427 0.332905 0.089468
Si Si6 0.289591 0.617622 0.812854
Si Si7 0.547795 0.226902 0.547225
Si Si8 0.859049 0.351084 0.717389
O O1 0.164158 0.817285 0.160389
O O2 0.152967 0.604975 0.974341
O O3 0.829554 0.040985 0.104472
O O4 0.000000 0.500000 0.000000
O O5 0.528807 0.450593 0.791873
O O6 0.898915 0.158194 0.722719
O O7 0.729236 0.888263 0.645701
O O8 0.829292 0.505461 0.293929
O O9 0.074104 0.628222 0.446527
O O10 0.003318 0.748149 0.349063
O O11 0.722832 0.027231 0.469408
O O12 0.352247 0.451665 0.543624
O O13 0.000000 0.500000 0.500000
O O14 0.742668 0.462427 0.150234
O O15 0.095284 0.403198 0.166932
O O16 0.000000 0.000000 0.000000
O O17 0.643845 0.379605 0.659392
O O18 0.500000 0.000000 0.500000
#
# Coordination Sequence:
#
# PCOD9027531 Si02
#       8
#     2   2   2   2   2   2   2   2
#     4  11  22  41  67  95 130 166 221 278 326 381
#     4  12  23  41  68  98 127 175 221 261 329 397
#     4  11  22  42  63  94 131 173 213 271 323 389
#     4  12  24  40  69  98 131 174 219 263 325 395
#     4   9  21  43  66  94 131 174 213 275 334 376
#     4  10  22  41  68  92 131 173 216 266 330 392
#     4  12  22  40  68  95 131 172 215 266 332 391
#     4  11  23  40  65  95 134 170 217 270 328 390
#
# _framework density 21.063427000000001
#
# number of rings (size 3 to 8) (size 9 to 14) (size 15 to 20)
#    0.000    1.000    6.250    0.375    0.000    1.500 
#    0.000    2.500    0.000    0.000    0.000    0.000 
#    0.000    0.000    0.000    0.000    0.000    0.000 
#
# Total GULP energy -89267.513651 kJ/mol
# GULP energy per Si atom -5579.219603 kJ/mol
# Density = 2.101549 g / cm^3
# Si number density = 21.063427 Si / 1000 Ang^3
#
#
#
# Elastic Constant Matrix: (Units=GPa)
#
#
# Indices 1 2 3 4 5 6 
#
# 1 79.0048 41.6907 33.0028 -13.7308 -10.7899 7.7374
# 2 41.6907 85.1520 31.3775 -16.4560 -17.3201 -5.7677
# 3 33.0028 31.3775 114.9276 -23.7261 3.7435 -0.5266
# 4 -13.7308 -16.4560 -23.7261 44.6238 10.8119 -4.5918
# 5 -10.7899 -17.3201 3.7435 10.8119 35.2186 -0.4987
# 6 7.7374 -5.7677 -0.5266 -4.5918 -0.4987 31.7484
#
#
#
# Elastic Compliance Matrix: (Units=1/GPa)
#
#
# Indices 1 2 3 4 5 6 
#
# 1 0.019298 -0.008177 -0.003423 -0.000067 0.002188 -0.006221
# 2 -0.008177 0.018786 -0.002531 0.002099 0.006440 0.005768
# 3 -0.003423 -0.002531 0.011719 0.005652 -0.005256 0.001304
# 4 -0.000067 0.002099 0.005652 0.028647 -0.008320 0.004504
# 5 0.002188 0.006440 -0.005256 -0.008320 0.035343 -0.000099
# 6 -0.006221 0.005768 0.001304 0.004504 -0.000099 0.034733
#
#
# Mechanical properties :
#
#
# Convention : Reuss Voigt Hill
#
# Bulk Modulus (GPa) = 46.42021 54.58072 50.50046
# Shear Modulus (GPa) = 27.17857 33.85241 30.51549
#
# Velocity S-wave (km/s) = 3.59600 4.01330 3.81036
# Velocity P-wave (km/s) = 6.27118 6.88797 6.58680
#
# Compressibility (1/GPa) = 0.02154234
#
# Stress axis : x y z
#
# Youngs Moduli (GPa) = 51.81750 53.23148 85.33117
#
# Poissons Ratio (x) = 0.43525 0.29210
# Poissons Ratio (y) = 0.42369 0.21596
# Poissons Ratio (z) = 0.17738 0.13472
#
# Static dielectric constant tensor:
#      x y z
#    x 1.770920 0.009500 0.038030 
#    y 0.009500 1.743920 0.002210 
#    z 0.038030 0.002210 1.723290 
# 
# From -- ./inp_files/217742.got.cif
#   From: 2010.05.17/outbox.cif.g08.bks.cpg/sg2_109_cif.got.tgz:217742.got - 2010.06.03 11:33:40.
