data_PCOD9027637
_publ_section_title
;
Structure prediction by ZEFSAII (Michael W. Deem and Ramdas Pophale) SiO2 
 PCOD9027637
Probable space group: P -1
;
_chemical_formula_sum "Si O2"
_cell_formula_units_Z 16
_cell_length_a 10.452434
_cell_length_b 8.203461
_cell_length_c 21.863858
_cell_angle_alpha 146.960471
_cell_angle_beta 132.473766
_cell_angle_gamma 58.098082
_cell_volume 750.616566
_symmetry_space_group_name_H-M "P -1"
_symmetry_group_IT_number 2
_symmetry_cell_setting 'triclinic'
loop_
_space_group_symop_operation_xyz
x,y,z
-x,-y,-z
loop_
_atom_site_type_symbol
_atom_site_label
_atom_site_fract_x
_atom_site_fract_y
_atom_site_fract_z
Si Si1 0.816054 0.320153 0.401024
Si Si2 0.481278 0.515905 0.297436
Si Si3 0.658153 0.816146 0.972243
Si Si4 0.983207 0.747272 0.256208
Si Si5 0.330521 0.856682 0.454619
Si Si6 0.024346 0.163327 0.168982
Si Si7 0.293956 0.521943 0.450402
Si Si8 0.125707 0.545887 0.996216
O O1 0.664075 0.378601 0.322708
O O2 0.752690 0.425421 0.479026
O O3 0.000000 0.500000 0.500000
O O4 0.844776 0.968660 0.302732
O O5 0.376221 0.339923 0.154371
O O6 0.390831 0.556022 0.347051
O O7 0.523114 0.869144 0.406535
O O8 0.694848 0.560781 0.953612
O O9 0.500000 0.000000 0.000000
O O10 0.835258 0.037584 0.093673
O O11 0.944329 0.660803 0.146964
O O12 0.172262 0.929268 0.383329
O O13 0.994973 0.445281 0.204771
O O14 0.258961 0.794579 0.479649
O O15 0.161245 0.257909 0.296900
O O16 0.110655 0.887420 0.077978
O O17 0.500000 0.500000 0.500000
O O18 0.000000 0.500000 0.000000
#
# Coordination Sequence:
#
# PCOD9027637 Si02
#       8
#     2   2   2   2   2   2   2   2
#     4  12  26  43  72 102 141 181 222 299 351 413
#     4  11  23  41  67  98 141 176 234 274 346 405
#     4  11  25  42  65 101 138 184 225 282 341 411
#     4  11  23  44  66 100 135 174 232 285 357 389
#     4  10  22  41  68  98 132 179 226 294 327 419
#     4  10  25  44  69  98 137 181 230 284 335 415
#     4  11  25  45  71 102 137 178 239 278 355 411
#     4  10  22  41  70  94 130 183 231 274 327 415
#
# _framework density 21.315808000000001
#
# number of rings (size 3 to 8) (size 9 to 14) (size 15 to 20)
#    0.000    1.250    2.500    2.625    7.000    4.000 
#    0.000    1.250    0.000    0.000    0.000    0.000 
#    0.000    0.000    0.000    0.000    0.000    0.000 
#
# Total GULP energy -89300.674583 kJ/mol
# GULP energy per Si atom -5581.292161 kJ/mol
# Density = 2.126729 g / cm^3
# Si number density = 21.315808 Si / 1000 Ang^3
#
#
#
# Elastic Constant Matrix: (Units=GPa)
#
#
# Indices 1 2 3 4 5 6 
#
# 1 98.1201 34.5834 50.1411 -8.3034 -3.7690 -9.3217
# 2 34.5834 120.9485 33.9687 -4.3767 -3.4974 -20.3472
# 3 50.1411 33.9687 127.6926 -21.6779 -4.2101 -2.1384
# 4 -8.3034 -4.3767 -21.6779 40.3721 2.3579 -2.4129
# 5 -3.7690 -3.4974 -4.2101 2.3579 30.8799 -4.6685
# 6 -9.3217 -20.3472 -2.1384 -2.4129 -4.6685 38.8412
#
#
#
# Elastic Compliance Matrix: (Units=1/GPa)
#
#
# Indices 1 2 3 4 5 6 
#
# 1 0.013591 -0.002208 -0.004663 0.000109 0.001065 0.001983
# 2 -0.002208 0.010253 -0.001743 -0.000067 0.001401 0.004909
# 3 -0.004663 -0.001743 0.010899 0.004626 0.000197 -0.001121
# 4 0.000109 -0.000067 0.004626 0.027446 -0.001186 0.001808
# 5 0.001065 0.001401 0.000197 -0.001186 0.033539 0.004958
# 6 0.001983 0.004909 -0.001121 0.001808 0.004958 0.029440
#
#
# Mechanical properties :
#
#
# Convention : Reuss Voigt Hill
#
# Bulk Modulus (GPa) = 57.09562 64.90528 61.00045
# Shear Modulus (GPa) = 33.73028 37.22318 35.47673
#
# Velocity S-wave (km/s) = 3.98226 4.18337 4.08406
# Velocity P-wave (km/s) = 6.92736 7.33823 7.13575
#
# Compressibility (1/GPa) = 0.01751448
#
# Stress axis : x y z
#
# Youngs Moduli (GPa) = 73.57756 97.53203 91.75198
#
# Poissons Ratio (x) = 0.21539 0.42780
# Poissons Ratio (y) = 0.16249 0.15995
# Poissons Ratio (z) = 0.34306 0.17003
#
# Static dielectric constant tensor:
#      x y z
#    x 1.854840 0.032410 0.041500 
#    y 0.032410 1.866780 0.016200 
#    z 0.041500 0.016200 1.786090 
# 
# From -- ./inp_files/609968.got.cif
#   From: 2010.05.17/outbox.cif.g08.bks.cpg/sg2_305_cif.got.tgz:609968.got - 2010.06.03 11:33:40.
