data_PCOD9027359
_publ_section_title
;
Structure prediction by ZEFSAII (Michael W. Deem and Ramdas Pophale) SiO2 
 PCOD9027359
Probable space group: P -1
;
_chemical_formula_sum "Si O2"
_cell_formula_units_Z 16
_cell_length_a 7.462751
_cell_length_b 16.047377
_cell_length_c 11.227975
_cell_angle_alpha 43.647018
_cell_angle_beta 96.452475
_cell_angle_gamma 63.324389
_cell_volume 584.887071
_symmetry_space_group_name_H-M "P -1"
_symmetry_group_IT_number 2
_symmetry_cell_setting 'triclinic'
loop_
_space_group_symop_operation_xyz
x,y,z
-x,-y,-z
loop_
_atom_site_type_symbol
_atom_site_label
_atom_site_fract_x
_atom_site_fract_y
_atom_site_fract_z
Si Si1 0.071902 0.709171 0.999107
Si Si2 0.598413 0.731880 0.119254
Si Si3 0.218360 0.764269 0.601007
Si Si4 0.833696 0.422584 0.615257
Si Si5 0.506129 0.639552 0.994622
Si Si6 0.823517 0.973869 0.045916
Si Si7 0.564446 0.120205 0.636606
Si Si8 0.213572 0.172762 0.375169
O O1 0.010584 0.675820 0.903194
O O2 0.252883 0.555921 0.276229
O O3 0.218733 0.757929 0.922145
O O4 0.780353 0.901408 0.839975
O O5 0.598923 0.609438 0.325356
O O6 0.640237 0.676231 0.042696
O O7 0.321632 0.947549 0.917351
O O8 0.881595 0.648481 0.269621
O O9 0.329256 0.573512 0.769090
O O10 0.284325 0.832471 0.438467
O O11 0.918981 0.880096 0.520511
O O12 0.414883 0.709557 0.781637
O O13 0.956744 0.246087 0.734757
O O14 0.562414 0.107845 0.791611
O O15 0.000000 0.000000 0.000000
O O16 0.286006 0.231781 0.422912
O O17 0.500000 0.000000 0.500000
#
# Coordination Sequence:
#
# PCOD9027359 Si02
#       8
#     2   2   2   2   2   2   2   2
#     4   9  20  41  60  95 130 164 225 272 329 411
#     4  11  24  43  70  95 132 187 217 285 345 391
#     4  10  23  43  65  99 137 167 223 279 329 411
#     4  10  24  42  65 100 134 171 233 280 334 409
#     4  10  23  42  63  96 131 173 221 273 336 401
#     4  11  25  45  65 101 134 175 232 277 337 408
#     4  10  22  41  67  97 128 178 215 277 346 386
#     4   9  20  39  64  97 131 169 216 272 335 400
#
# _framework density 27.355709000000001
#
# number of rings (size 3 to 8) (size 9 to 14) (size 15 to 20)
#    0.000    2.000    0.000    1.875    5.250    7.500 
#   11.250    1.875    0.000    0.000    0.000    0.000 
#    0.000    0.000    0.000    0.000    0.000    0.000 
#
# Total GULP energy -89546.312129 kJ/mol
# GULP energy per Si atom -5596.644508 kJ/mol
# Density = 2.729345 g / cm^3
# Si number density = 27.355709 Si / 1000 Ang^3
#
#
#
# Elastic Constant Matrix: (Units=GPa)
#
#
# Indices 1 2 3 4 5 6 
#
# 1 96.3520 24.6012 21.3050 3.8061 10.3897 7.0435
# 2 24.6012 130.9682 44.7156 9.9637 5.1467 6.6571
# 3 21.3050 44.7156 78.5238 20.7984 -15.6998 2.2871
# 4 3.8061 9.9637 20.7984 36.4725 -7.1262 -2.4964
# 5 10.3897 5.1467 -15.6998 -7.1262 38.2120 9.6134
# 6 7.0435 6.6571 2.2871 -2.4964 9.6134 43.0045
#
#
#
# Elastic Compliance Matrix: (Units=1/GPa)
#
#
# Indices 1 2 3 4 5 6 
#
# 1 0.011919 -0.000777 -0.003712 0.000169 -0.004473 -0.000625
# 2 -0.000777 0.010072 -0.006292 0.000190 -0.003625 -0.000276
# 3 -0.003712 -0.006292 0.021568 -0.008449 0.009702 -0.002224
# 4 0.000169 0.000190 -0.008449 0.032701 0.002097 0.001822
# 5 -0.004473 -0.003625 0.009702 0.002097 0.033933 -0.006686
# 6 -0.000625 -0.000276 -0.002224 0.001822 -0.006686 0.025117
#
#
# Mechanical properties :
#
#
# Convention : Reuss Voigt Hill
#
# Bulk Modulus (GPa) = 45.46152 54.12084 49.79118
# Shear Modulus (GPa) = 30.45003 37.88596 34.16799
#
# Velocity S-wave (km/s) = 3.33996 3.72551 3.53799
# Velocity P-wave (km/s) = 5.61502 6.19136 5.91022
#
# Compressibility (1/GPa) = 0.02199663
#
# Stress axis : x y z
#
# Youngs Moduli (GPa) = 83.89903 99.28998 46.36593
#
# Poissons Ratio (x) = 0.07712 0.17212
# Poissons Ratio (y) = 0.06517 0.29172
# Poissons Ratio (z) = 0.31146 0.62471
#
# Static dielectric constant tensor:
#      x y z
#    x 2.170420 0.027520 0.003690 
#    y 0.027520 2.125320 0.026230 
#    z 0.003690 0.026230 2.227210 
# 
# From -- ./inp_files/402998.got.cif
#   From: 2010.05.17/outbox.cif.g08.bks.cpg/sg2_202_cif.got.tgz:402998.got - 2010.06.03 11:33:40.
