data_PCOD9027653
_publ_section_title
;
Structure prediction by ZEFSAII (Michael W. Deem and Ramdas Pophale) SiO2 
 PCOD9027653
Probable space group: P -1
;
_chemical_formula_sum "Si O2"
_cell_formula_units_Z 16
_cell_length_a 6.139328
_cell_length_b 8.980650
_cell_length_c 20.165053
_cell_angle_alpha 126.722651
_cell_angle_beta 55.330363
_cell_angle_gamma 121.712099
_cell_volume 703.305233
_symmetry_space_group_name_H-M "P -1"
_symmetry_group_IT_number 2
_symmetry_cell_setting 'triclinic'
loop_
_space_group_symop_operation_xyz
x,y,z
-x,-y,-z
loop_
_atom_site_type_symbol
_atom_site_label
_atom_site_fract_x
_atom_site_fract_y
_atom_site_fract_z
Si Si1 0.863857 0.268478 0.472076
Si Si2 0.699579 0.030069 0.854980
Si Si3 0.774090 0.000304 0.301526
Si Si4 0.661166 0.229050 0.258376
Si Si5 0.728486 0.640010 0.815463
Si Si6 0.592420 0.575292 0.428378
Si Si7 0.666949 0.431035 0.016150
Si Si8 0.204349 0.708910 0.361199
O O1 0.545333 0.255114 0.512089
O O2 0.881791 0.234976 0.536796
O O3 0.000000 0.500000 0.500000
O O4 0.920305 0.114597 0.371517
O O5 0.016130 0.103429 0.794924
O O6 0.511391 0.946659 0.802034
O O7 0.681087 0.840870 0.852681
O O8 0.617244 0.202955 0.949994
O O9 0.470828 0.865726 0.331612
O O10 0.740833 0.160025 0.297505
O O11 0.500991 0.385229 0.347077
O O12 0.962012 0.314950 0.196107
O O13 0.504558 0.541241 0.882255
O O14 0.722500 0.494536 0.716139
O O15 0.500000 0.500000 0.500000
O O16 0.902161 0.661311 0.370113
O O17 0.500000 0.500000 0.000000
O O18 0.000000 0.500000 0.000000
#
# Coordination Sequence:
#
# PCOD9027653 Si02
#       8
#     2   2   2   2   2   2   2   2
#     4  12  21  38  63  89 135 186 243 289 357 431
#     4  11  25  45  77 100 141 191 243 296 365 455
#     4  11  24  40  61 100 142 181 237 309 359 433
#     4  10  22  41  68  98 137 188 242 290 364 429
#     4  10  24  47  72 104 141 189 246 295 364 454
#     4  11  20  38  60  90 127 185 233 289 339 435
#     4  12  30  51  81 114 153 189 237 312 386 440
#     4  11  24  39  63  94 141 176 243 299 370 417
#
# _framework density 22.749725999999999
#
# number of rings (size 3 to 8) (size 9 to 14) (size 15 to 20)
#    0.000    1.000    2.500    4.500    7.000    2.000 
#    2.250    0.000    0.000    0.000    0.000    0.000 
#    0.000    0.000    0.000    0.000    0.000    0.000 
#
# Total GULP energy -89136.670992 kJ/mol
# GULP energy per Si atom -5571.041937 kJ/mol
# Density = 2.269795 g / cm^3
# Si number density = 22.749726 Si / 1000 Ang^3
#
#
#
# Elastic Constant Matrix: (Units=GPa)
#
#
# Indices 1 2 3 4 5 6 
#
# 1 58.6068 22.1072 19.1783 -3.8200 -3.7182 15.2235
# 2 22.1072 76.8875 10.3470 -8.8746 -3.6079 34.8341
# 3 19.1783 10.3470 73.0903 12.9252 6.3299 5.7221
# 4 -3.8200 -8.8746 12.9252 37.6363 4.1745 -11.8875
# 5 -3.7182 -3.6079 6.3299 4.1745 32.9838 -0.8137
# 6 15.2235 34.8341 5.7221 -11.8875 -0.8137 37.6059
#
#
#
# Elastic Compliance Matrix: (Units=1/GPa)
#
#
# Indices 1 2 3 4 5 6 
#
# 1 0.021418 -0.003134 -0.005352 0.001576 0.002791 -0.004394
# 2 -0.003134 0.023254 -0.000817 -0.001251 0.002000 -0.020499
# 3 -0.005352 -0.000817 0.016807 -0.006741 -0.003110 -0.001832
# 4 0.001576 -0.001251 -0.006741 0.032773 -0.002521 0.011852
# 5 0.002791 0.002000 -0.003110 -0.002521 0.031703 -0.002620
# 6 -0.004394 -0.020499 -0.001832 0.011852 -0.002620 0.051327
#
#
# Mechanical properties :
#
#
# Convention : Reuss Voigt Hill
#
# Bulk Modulus (GPa) = 23.32566 34.64997 28.98782
# Shear Modulus (GPa) = 23.78935 32.10866 27.94901
#
# Velocity S-wave (km/s) = 3.23723 3.76092 3.50886
# Velocity P-wave (km/s) = 4.92426 5.84152 5.40239
#
# Compressibility (1/GPa) = 0.04287124
#
# Stress axis : x y z
#
# Youngs Moduli (GPa) = 46.68994 43.00424 59.50004
#
# Poissons Ratio (x) = 0.13479 0.31847
# Poissons Ratio (y) = 0.14634 0.04859
# Poissons Ratio (z) = 0.24991 0.03512
#
# Static dielectric constant tensor:
#      x y z
#    x 2.016330 0.064580 -0.096160 
#    y 0.064580 1.884310 -0.025090 
#    z -0.096160 -0.025090 1.689940 
# 
# From -- ./inp_files/582566.got.cif
#   From: 2010.05.17/outbox.cif.g08.bks.cpg/sg2_292_cif.got.tgz:582566.got - 2010.06.03 11:33:40.
