data_PCOD9027364
_publ_section_title
;
Structure prediction by ZEFSAII (Michael W. Deem and Ramdas Pophale) SiO2 
 PCOD9027364
Probable space group: P -1
;
_chemical_formula_sum "Si O2"
_cell_formula_units_Z 16
_cell_length_a 14.777574
_cell_length_b 12.233802
_cell_length_c 14.354825
_cell_angle_alpha 150.194288
_cell_angle_beta 41.458805
_cell_angle_gamma 137.367349
_cell_volume 824.780522
_symmetry_space_group_name_H-M "P -1"
_symmetry_group_IT_number 2
_symmetry_cell_setting 'triclinic'
loop_
_space_group_symop_operation_xyz
x,y,z
-x,-y,-z
loop_
_atom_site_type_symbol
_atom_site_label
_atom_site_fract_x
_atom_site_fract_y
_atom_site_fract_z
Si Si1 0.086189 0.691633 0.453722
Si Si2 0.342739 0.370852 0.564142
Si Si3 0.680821 0.056582 0.174032
Si Si4 0.357665 0.898889 0.291120
Si Si5 0.181062 0.426560 0.544585
Si Si6 0.342707 0.702360 0.968787
Si Si7 0.326378 0.059599 0.112229
Si Si8 0.922371 0.813648 0.845856
O O1 0.238148 0.844973 0.420786
O O2 0.101086 0.444644 0.291637
O O3 0.983133 0.641992 0.406137
O O4 0.014509 0.808997 0.677307
O O5 0.500000 0.500000 0.500000
O O6 0.231329 0.387249 0.581377
O O7 0.305635 0.481022 0.769883
O O8 0.350044 0.119777 0.400690
O O9 0.516663 0.952033 0.247630
O O10 0.749379 0.312133 0.345868
O O11 0.681584 0.081695 0.079982
O O12 0.777699 0.887152 0.994737
O O13 0.325775 0.697461 0.089008
O O14 0.244913 0.251853 0.307940
O O15 0.510834 0.806810 0.900361
O O16 0.272948 0.884795 0.107722
O O17 0.000000 0.000000 0.000000
#
# Coordination Sequence:
#
# PCOD9027364 Si02
#       8
#     2   2   2   2   2   2   2   2
#     4  11  27  44  63  93 125 157 206 268 321 359
#     4  12  19  34  61  95 132 171 209 241 293 372
#     4  11  21  38  69  92 115 168 214 247 305 370
#     4  11  24  40  60  97 133 158 203 264 301 356
#     4  12  20  36  63  91 124 167 207 243 301 374
#     4  10  18  32  55  88 129 166 199 244 293 350
#     4  10  17  31  57  90 121 161 210 242 280 364
#     4  11  24  47  72  86 115 164 212 257 321 386
#
# _framework density 19.399099
#
# number of rings (size 3 to 8) (size 9 to 14) (size 15 to 20)
#    0.000    1.000    7.500    0.750    0.000    2.000 
#    0.000    1.250    0.000    0.000    0.000    0.000 
#    0.000    0.000    0.000    0.000    0.000    0.000 
#
# Total GULP energy -89219.487766 kJ/mol
# GULP energy per Si atom -5576.217985 kJ/mol
# Density = 1.935495 g / cm^3
# Si number density = 19.399099 Si / 1000 Ang^3
#
#
#
# Elastic Constant Matrix: (Units=GPa)
#
#
# Indices 1 2 3 4 5 6 
#
# 1 90.5866 30.1136 34.2250 -6.5616 -14.7849 16.4121
# 2 30.1136 72.7769 35.7106 -14.4810 -11.7006 11.1653
# 3 34.2250 35.7106 112.4134 3.7349 -8.8576 10.9459
# 4 -6.5616 -14.4810 3.7349 18.2212 3.9364 -2.4364
# 5 -14.7849 -11.7006 -8.8576 3.9364 40.6115 0.1498
# 6 16.4121 11.1653 10.9459 -2.4364 0.1498 16.8624
#
#
#
# Elastic Compliance Matrix: (Units=1/GPa)
#
#
# Indices 1 2 3 4 5 6 
#
# 1 0.015818 -0.002370 -0.002620 0.001814 0.004373 -0.011903
# 2 -0.002370 0.022480 -0.006172 0.016881 0.002654 -0.006157
# 3 -0.002620 -0.006172 0.012269 -0.008890 0.000815 -0.002619
# 4 0.001814 0.016881 -0.008890 0.071942 -0.003400 0.003252
# 5 0.004373 0.002654 0.000815 -0.003400 0.027514 -0.007278
# 6 -0.011903 -0.006157 -0.002619 0.003252 -0.007278 0.077200
#
#
# Mechanical properties :
#
#
# Convention : Reuss Voigt Hill
#
# Bulk Modulus (GPa) = 35.40621 52.87504 44.14062
# Shear Modulus (GPa) = 19.30797 26.85420 23.08109
#
# Velocity S-wave (km/s) = 3.15826 3.72466 3.45309
# Velocity P-wave (km/s) = 5.62055 6.76853 6.22108
#
# Compressibility (1/GPa) = 0.02824363
#
# Stress axis : x y z
#
# Youngs Moduli (GPa) = 63.21773 44.48442 81.50862
#
# Poissons Ratio (x) = 0.10542 0.21354
# Poissons Ratio (y) = 0.14981 0.50307
# Poissons Ratio (z) = 0.16562 0.27456
#
# Static dielectric constant tensor:
#      x y z
#    x 1.728070 -0.005890 0.010320 
#    y -0.005890 1.641830 0.000530 
#    z 0.010320 0.000530 1.709860 
# 
# From -- ./inp_files/312660.got.cif
#   From: 2010.05.17/outbox.cif.g08.bks.cpg/sg2_157_cif.got.tgz:312660.got - 2010.06.03 11:33:40.
