data_PCOD9027070
_publ_section_title
;
Structure prediction by ZEFSAII (Michael W. Deem and Ramdas Pophale) SiO2 
 PCOD9027070
Probable space group: P -1
;
_chemical_formula_sum "Si O2"
_cell_formula_units_Z 16
_cell_length_a 8.947691
_cell_length_b 15.272313
_cell_length_c 12.633797
_cell_angle_alpha 27.806286
_cell_angle_beta 95.698606
_cell_angle_gamma 88.758707
_cell_volume 778.758686
_symmetry_space_group_name_H-M "P -1"
_symmetry_group_IT_number 2
_symmetry_cell_setting 'triclinic'
loop_
_space_group_symop_operation_xyz
x,y,z
-x,-y,-z
loop_
_atom_site_type_symbol
_atom_site_label
_atom_site_fract_x
_atom_site_fract_y
_atom_site_fract_z
Si Si1 0.378914 0.402772 0.532582
Si Si2 0.363118 0.423541 0.882020
Si Si3 0.904599 0.334207 0.877467
Si Si4 0.925715 0.966455 0.418952
Si Si5 0.940830 0.458081 0.155687
Si Si6 0.429946 0.965811 0.644542
Si Si7 0.586065 0.166376 0.624911
Si Si8 0.207024 0.234204 0.883265
O O1 0.500000 0.500000 0.500000
O O2 0.265291 0.566700 0.280602
O O3 0.473058 0.236185 0.641005
O O4 0.270117 0.311982 0.698738
O O5 0.239035 0.442049 0.947848
O O6 0.378119 0.636248 0.626306
O O7 0.286422 0.334405 0.874466
O O8 0.520150 0.266224 0.085841
O O9 0.963652 0.468499 0.823668
O O10 0.025303 0.295427 0.829776
O O11 0.915881 0.137470 0.152390
O O12 0.752233 0.954230 0.445881
O O13 0.028442 0.770976 0.587586
O O14 0.000000 0.000000 0.500000
O O15 0.000000 0.500000 0.000000
O O16 0.506237 0.070677 0.628655
O O17 0.500000 0.000000 0.500000
O O18 0.729875 0.996599 0.853888
#
# Coordination Sequence:
#
# PCOD9027070 Si02
#       8
#     2   2   2   2   2   2   2   2
#     4  12  24  45  71  97 133 178 228 282 337 388
#     4  10  22  41  66  96 132 172 226 273 328 404
#     4  11  25  44  68  96 137 176 220 279 332 398
#     4  12  25  42  66  97 136 175 220 275 333 401
#     4  11  22  41  67  96 133 178 221 266 336 401
#     4  11  26  41  66 101 136 176 226 270 337 404
#     4  11  23  43  70  95 135 174 217 284 336 394
#     4  10  23  44  68  96 130 174 223 275 336 395
#
# _framework density 20.545517
#
# number of rings (size 3 to 8) (size 9 to 14) (size 15 to 20)
#    0.000    1.000    2.500    3.750    7.000    0.500 
#    2.250    0.625    0.000    0.000    0.000    0.000 
#    0.000    0.000    0.000    0.000    0.000    0.000 
#
# Total GULP energy -89477.394631 kJ/mol
# GULP energy per Si atom -5592.337164 kJ/mol
# Density = 2.049875 g / cm^3
# Si number density = 20.545517 Si / 1000 Ang^3
#
#
#
# Elastic Constant Matrix: (Units=GPa)
#
#
# Indices 1 2 3 4 5 6 
#
# 1 51.7149 26.2224 6.9898 -1.3906 9.8712 -10.6936
# 2 26.2224 113.0849 34.1550 -9.9344 -0.1544 -24.5382
# 3 6.9898 34.1550 113.0307 -18.8557 -3.0574 5.2394
# 4 -1.3906 -9.9344 -18.8557 35.9266 -6.9523 -6.6409
# 5 9.8712 -0.1544 -3.0574 -6.9523 40.7521 5.0730
# 6 -10.6936 -24.5382 5.2394 -6.6409 5.0730 31.6612
#
#
#
# Elastic Compliance Matrix: (Units=1/GPa)
#
#
# Indices 1 2 3 4 5 6 
#
# 1 0.024045 -0.004103 -0.000852 -0.000859 -0.006796 0.005991
# 2 -0.004103 0.013488 -0.003708 0.003565 0.000078 0.010416
# 3 -0.000852 -0.003708 0.011014 0.004349 0.002314 -0.004443
# 4 -0.000859 0.003565 0.004349 0.033561 0.005284 0.007946
# 5 -0.006796 0.000078 0.002314 0.005284 0.028007 -0.005997
# 6 0.005991 0.010416 -0.004443 0.007946 -0.005997 0.045044
#
#
# Mechanical properties :
#
#
# Convention : Reuss Voigt Hill
#
# Bulk Modulus (GPa) = 32.02897 45.84054 38.93476
# Shear Modulus (GPa) = 27.33855 35.69887 31.51871
#
# Velocity S-wave (km/s) = 3.65174 4.17292 3.92100
# Velocity P-wave (km/s) = 5.77957 6.75113 6.28415
#
# Compressibility (1/GPa) = 0.03122173
#
# Stress axis : x y z
#
# Youngs Moduli (GPa) = 41.58793 74.14094 90.79125
#
# Poissons Ratio (x) = 0.30421 0.07734
# Poissons Ratio (y) = 0.17064 0.33665
# Poissons Ratio (z) = 0.03543 0.27491
#
# Static dielectric constant tensor:
#      x y z
#    x 1.711240 -0.007870 -0.013250 
#    y -0.007870 1.674830 -0.014120 
#    z -0.013250 -0.014120 1.714710 
# 
# From -- ./inp_files/398155.got.cif
#   From: 2010.05.17/outbox.cif.g08.bks.cpg/sg2_200_cif.got.tgz:398155.got - 2010.06.03 11:33:40.
