data_PCOD9027085
_publ_section_title
;
Structure prediction by ZEFSAII (Michael W. Deem and Ramdas Pophale) SiO2 
 PCOD9027085
Probable space group: P -1
;
_chemical_formula_sum "Si O2"
_cell_formula_units_Z 12
_cell_length_a 7.372645
_cell_length_b 17.276804
_cell_length_c 7.721053
_cell_angle_alpha 147.072844
_cell_angle_beta 99.437066
_cell_angle_gamma 75.230778
_cell_volume 514.581868
_symmetry_space_group_name_H-M "P -1"
_symmetry_group_IT_number 2
_symmetry_cell_setting 'triclinic'
loop_
_space_group_symop_operation_xyz
x,y,z
-x,-y,-z
loop_
_atom_site_type_symbol
_atom_site_label
_atom_site_fract_x
_atom_site_fract_y
_atom_site_fract_z
Si Si1 0.541374 0.082199 0.330393
Si Si2 0.925245 0.355262 0.764877
Si Si3 0.926630 0.867141 0.063712
Si Si4 0.843510 0.563453 0.449268
Si Si5 0.825853 0.915164 0.530666
Si Si6 0.465033 0.642461 0.377304
O O1 0.394289 0.067585 0.429926
O O2 0.509513 0.242263 0.548835
O O3 0.754973 0.005830 0.261388
O O4 0.500000 0.000000 0.000000
O O5 0.756314 0.332128 0.572057
O O6 0.069638 0.202820 0.534183
O O7 0.851242 0.419849 0.063292
O O8 0.000000 0.500000 0.000000
O O9 0.895116 0.848717 0.229644
O O10 0.108512 0.931236 0.166549
O O11 0.905188 0.715009 0.688250
O O12 0.613684 0.627219 0.530295
O O13 0.000000 0.500000 0.500000
O O14 0.500000 0.500000 0.000000
#
# Coordination Sequence:
#
# PCOD9027085 Si02
#       6
#     2   2   2   2   2   2
#     4  12  24  42  67  99 135 174 230 281 334 407
#     4  11  23  42  69  98 134 180 229 278 344 405
#     4  11  24  44  67  99 139 174 228 282 340 409
#     4  11  22  43  67  95 135 177 223 282 335 403
#     4  11  24  42  68  98 136 183 220 281 348 400
#     4  10  22  41  66  96 136 175 223 281 335 403
#
# _framework density 23.319904999999999
#
# number of rings (size 3 to 8) (size 9 to 14) (size 15 to 20)
#    0.000    1.000    5.000    2.500    0.000    2.000 
#    0.000    2.500    0.000    0.000    0.000    0.000 
#    0.000    0.000    0.000    0.000    0.000    0.000 
#
# Total GULP energy -66802.049296 kJ/mol
# GULP energy per Si atom -5566.837441 kJ/mol
# Density = 2.326683 g / cm^3
# Si number density = 23.319905 Si / 1000 Ang^3
#
#
#
# Elastic Constant Matrix: (Units=GPa)
#
#
# Indices 1 2 3 4 5 6 
#
# 1 105.0289 35.7610 13.6040 -5.5193 23.9719 0.1539
# 2 35.7610 137.8668 14.1278 -0.0490 13.6574 -18.4126
# 3 13.6040 14.1278 93.3274 24.8715 14.2549 9.8446
# 4 -5.5193 -0.0490 24.8715 40.0683 -5.9390 18.4624
# 5 23.9719 13.6574 14.2549 -5.9390 31.2168 0.8910
# 6 0.1539 -18.4126 9.8446 18.4624 0.8910 38.0122
#
#
#
# Elastic Compliance Matrix: (Units=1/GPa)
#
#
# Indices 1 2 3 4 5 6 
#
# 1 0.012334 -0.002630 -0.000477 0.001695 -0.007728 -0.001843
# 2 -0.002630 0.009053 -0.000343 -0.003374 -0.002603 0.006185
# 3 -0.000477 -0.000343 0.015014 -0.011441 -0.008565 0.001705
# 4 0.001695 -0.003374 -0.011441 0.043743 0.014299 -0.020259
# 5 -0.007728 -0.002603 -0.008565 0.014299 0.045939 -0.007033
# 6 -0.001843 0.006185 0.001705 -0.020259 -0.007033 0.038874
#
#
# Mechanical properties :
#
#
# Convention : Reuss Voigt Hill
#
# Bulk Modulus (GPa) = 33.89679 51.46763 42.68221
# Shear Modulus (GPa) = 27.51932 40.04147 33.78040
#
# Velocity S-wave (km/s) = 3.43895 4.14823 3.81013
# Velocity P-wave (km/s) = 5.50778 6.71282 6.13993
#
# Compressibility (1/GPa) = 0.02950132
#
# Stress axis : x y z
#
# Youngs Moduli (GPa) = 81.07516 110.45552 66.60614
#
# Poissons Ratio (x) = 0.29055 0.03176
# Poissons Ratio (y) = 0.21327 0.02283
# Poissons Ratio (z) = 0.03865 0.03786
#
# Static dielectric constant tensor:
#      x y z
#    x 2.107280 -0.013170 -0.171050 
#    y -0.013170 1.711760 0.043940 
#    z -0.171050 0.043940 1.965880 
# 
# From -- ./inp_files/210450.got.cif
#   From: 2010.05.17/outbox.cif.g08.bks.cpg/sg2_106_cif.got.tgz:210450.got - 2010.06.03 11:33:40.
