data_PCOD9027291
_publ_section_title
;
Structure prediction by ZEFSAII (Michael W. Deem and Ramdas Pophale) SiO2 
 PCOD9027291
Probable space group: P -1
;
_chemical_formula_sum "Si O2"
_cell_formula_units_Z 14
_cell_length_a 9.381367
_cell_length_b 14.832836
_cell_length_c 9.261108
_cell_angle_alpha 140.597542
_cell_angle_beta 117.739071
_cell_angle_gamma 85.531790
_cell_volume 626.387256
_symmetry_space_group_name_H-M "P -1"
_symmetry_group_IT_number 2
_symmetry_cell_setting 'triclinic'
loop_
_space_group_symop_operation_xyz
x,y,z
-x,-y,-z
loop_
_atom_site_type_symbol
_atom_site_label
_atom_site_fract_x
_atom_site_fract_y
_atom_site_fract_z
Si Si1 0.773292 0.886618 0.924682
Si Si2 0.664930 0.667635 0.218782
Si Si3 0.743714 0.342262 0.210907
Si Si4 0.528193 0.520024 0.368387
Si Si5 0.986796 0.207372 0.254485
Si Si6 0.431853 0.838481 0.361904
Si Si7 0.422580 0.031300 0.852607
O O1 0.591531 0.707730 0.591020
O O2 0.938521 0.849944 0.918289
O O3 0.744969 0.941564 0.137260
O O4 0.816019 0.037472 0.026087
O O5 0.856033 0.725850 0.464129
O O6 0.596937 0.796795 0.377934
O O7 0.500000 0.500000 0.000000
O O8 0.643239 0.614584 0.974745
O O9 0.700070 0.488763 0.381925
O O10 0.918166 0.334705 0.345811
O O11 0.730211 0.299863 0.982698
O O12 0.571098 0.194326 0.037573
O O13 0.500000 0.500000 0.500000
O O14 0.374531 0.878650 0.536873
O O15 0.500000 0.000000 0.500000
O O16 0.500000 0.000000 0.000000
#
# Coordination Sequence:
#
# PCOD9027291 Si02
#       7
#     2   2   2   2   2   2   2
#     4  11  23  39  69  97 133 172 218 270 325 390
#     4  11  23  44  68  92 129 181 219 256 327 405
#     4  10  22  41  67  94 135 167 217 272 329 383
#     4  11  23  43  69  98 132 173 214 269 337 388
#     4  11  24  43  66 102 127 175 225 269 321 387
#     4   9  22  38  63  96 127 171 216 263 321 395
#     4  11  19  37  67  96 129 177 220 258 323 398
#
# _framework density 22.350391999999999
#
# number of rings (size 3 to 8) (size 9 to 14) (size 15 to 20)
#    0.000    1.429    4.286    0.857    6.000    0.571 
#    0.000    3.571    0.000    0.000    0.000    0.000 
#    0.000    0.000    0.000    0.000    0.000    0.000 
#
# Total GULP energy -78132.391298 kJ/mol
# GULP energy per Si atom -5580.885093 kJ/mol
# Density = 2.229952 g / cm^3
# Si number density = 22.350392 Si / 1000 Ang^3
#
#
#
# Elastic Constant Matrix: (Units=GPa)
#
#
# Indices 1 2 3 4 5 6 
#
# 1 119.1969 24.4995 69.6707 -21.0753 -31.3054 -3.5750
# 2 24.4995 100.5558 57.7134 -8.2081 -9.7289 -21.6589
# 3 69.6707 57.7134 144.7206 -18.9590 -31.0841 -6.7763
# 4 -21.0753 -8.2081 -18.9590 43.1517 3.5943 -3.7720
# 5 -31.3054 -9.7289 -31.0841 3.5943 45.0118 -5.8223
# 6 -3.5750 -21.6589 -6.7763 -3.7720 -5.8223 49.3132
#
#
#
# Elastic Compliance Matrix: (Units=1/GPa)
#
#
# Indices 1 2 3 4 5 6 
#
# 1 0.013458 0.000813 -0.004868 0.004233 0.006056 0.001703
# 2 0.000813 0.014324 -0.005591 0.001128 0.000450 0.005721
# 3 -0.004868 -0.005591 0.012506 0.001689 0.003841 -0.000507
# 4 0.004233 0.001128 0.001689 0.026268 0.002692 0.003361
# 5 0.006056 0.000450 0.003841 0.002692 0.029593 0.004865
# 6 0.001703 0.005721 -0.000507 0.003361 0.004865 0.023676
#
#
# Mechanical properties :
#
#
# Convention : Reuss Voigt Hill
#
# Bulk Modulus (GPa) = 47.63034 74.24892 60.93963
# Shear Modulus (GPa) = 34.21970 41.66799 37.94384
#
# Velocity S-wave (km/s) = 3.91712 4.32245 4.12476
# Velocity P-wave (km/s) = 6.46648 7.62915 7.07175
#
# Compressibility (1/GPa) = 0.02099502
#
# Stress axis : x y z
#
# Youngs Moduli (GPa) = 74.30658 69.81496 79.96264
#
# Poissons Ratio (x) = -0.05679 0.38927
# Poissons Ratio (y) = -0.06044 0.44710
# Poissons Ratio (z) = 0.36173 0.39036
#
# Static dielectric constant tensor:
#      x y z
#    x 1.858780 0.018550 0.007060 
#    y 0.018550 1.864900 -0.007930 
#    z 0.007060 -0.007930 1.899760 
# 
# From -- ./inp_files/209584.got.cif
#   From: 2010.05.17/outbox.cif.g08.bks.cpg/sg2_105_cif.got.tgz:209584.got - 2010.06.03 11:33:40.
