data_PCOD9027258
_publ_section_title
;
Structure prediction by ZEFSAII (Michael W. Deem and Ramdas Pophale) SiO2 
 PCOD9027258
Probable space group: P -1
;
_chemical_formula_sum "Si O2"
_cell_formula_units_Z 14
_cell_length_a 9.658787
_cell_length_b 15.981950
_cell_length_c 10.490473
_cell_angle_alpha 33.560878
_cell_angle_beta 53.753941
_cell_angle_gamma 73.151428
_cell_volume 642.932474
_symmetry_space_group_name_H-M "P -1"
_symmetry_group_IT_number 2
_symmetry_cell_setting 'triclinic'
loop_
_space_group_symop_operation_xyz
x,y,z
-x,-y,-z
loop_
_atom_site_type_symbol
_atom_site_label
_atom_site_fract_x
_atom_site_fract_y
_atom_site_fract_z
Si Si1 0.878327 0.374009 0.112531
Si Si2 0.523300 0.330465 0.686830
Si Si3 0.955731 0.294081 0.901537
Si Si4 0.113045 0.072244 0.975067
Si Si5 0.317838 0.614542 0.200800
Si Si6 0.526854 0.398127 0.316248
Si Si7 0.706914 0.031956 0.792581
O O1 0.704200 0.416745 0.110039
O O2 0.786377 0.182316 0.459188
O O3 0.989655 0.366247 0.934801
O O4 0.000000 0.500000 0.000000
O O5 0.500000 0.500000 0.500000
O O6 0.632660 0.315254 0.770903
O O7 0.599946 0.364435 0.457570
O O8 0.332048 0.151001 0.011116
O O9 0.749467 0.273493 0.991479
O O10 0.989756 0.132505 0.058238
O O11 0.126250 0.435797 0.544740
O O12 0.322932 0.229659 0.626681
O O13 0.154583 0.936079 0.203273
O O14 0.000000 0.000000 0.000000
O O15 0.480905 0.559011 0.138824
O O16 0.500000 0.000000 0.000000
#
# Coordination Sequence:
#
# PCOD9027258 Si02
#       7
#     2   2   2   2   2   2   2
#     4  12  25  41  65 100 141 169 223 291 335 384
#     4   9  17  35  66  91 116 168 229 266 314 395
#     4  10  23  37  60  97 133 169 228 277 328 406
#     4  10  22  41  67  93 131 178 224 277 333 400
#     4   9  19  38  64  89 126 179 221 265 340 401
#     4   9  19  38  62  95 125 174 225 266 326 417
#     4  11  23  41  69  97 125 182 233 265 332 419
#
# _framework density 21.775224000000001
#
# number of rings (size 3 to 8) (size 9 to 14) (size 15 to 20)
#    0.000    2.000    2.857    1.714    2.000    5.714 
#    0.000    2.857    0.000    0.000    0.000    0.000 
#    0.000    0.000    0.000    0.000    0.000    0.000 
#
# Total GULP energy -78005.449058 kJ/mol
# GULP energy per Si atom -5571.817790 kJ/mol
# Density = 2.172566 g / cm^3
# Si number density = 21.775224 Si / 1000 Ang^3
#
#
#
# Elastic Constant Matrix: (Units=GPa)
#
#
# Indices 1 2 3 4 5 6 
#
# 1 134.7294 44.6956 1.5167 4.0432 5.4272 -1.4072
# 2 44.6956 105.2923 10.8794 5.3236 -5.8980 -10.6763
# 3 1.5167 10.8794 36.5849 -7.9427 -5.2975 -18.4503
# 4 4.0432 5.3236 -7.9427 19.8535 -2.4867 -4.8199
# 5 5.4272 -5.8980 -5.2975 -2.4867 21.3581 -1.3553
# 6 -1.4072 -10.6763 -18.4503 -4.8199 -1.3553 38.4869
#
#
#
# Elastic Compliance Matrix: (Units=1/GPa)
#
#
# Indices 1 2 3 4 5 6 
#
# 1 0.008962 -0.003983 -0.001079 -0.002102 -0.003997 -0.001698
# 2 -0.003983 0.011954 -0.002558 -0.002556 0.003492 0.001747
# 3 -0.001079 -0.002558 0.051821 0.030808 0.017822 0.028579
# 4 -0.002102 -0.002556 0.030808 0.071699 0.017313 0.023572
# 5 -0.003997 0.003492 0.017822 0.017313 0.056094 0.013510
# 6 -0.001698 0.001747 0.028579 0.023572 0.013510 0.043534
#
#
# Mechanical properties :
#
#
# Convention : Reuss Voigt Hill
#
# Bulk Modulus (GPa) = 17.39172 43.42111 30.40642
# Shear Modulus (GPa) = 17.95528 30.57400 24.26464
#
# Velocity S-wave (km/s) = 2.87465 3.75116 3.34177
# Velocity P-wave (km/s) = 4.36147 6.22459 5.37438
#
# Compressibility (1/GPa) = 0.05749862
#
# Stress axis : x y z
#
# Youngs Moduli (GPa) = 111.58226 83.65203 19.29713
#
# Poissons Ratio (x) = 0.33316 0.02082
# Poissons Ratio (y) = 0.44439 0.04936
# Poissons Ratio (z) = 0.12036 0.21399
#
# Static dielectric constant tensor:
#      x y z
#    x 1.856990 -0.023000 0.011190 
#    y -0.023000 1.953750 0.059090 
#    z 0.011190 0.059090 1.822870 
# 
# From -- ./inp_files/204978.got.cif
#   From: 2010.05.17/outbox.cif.g08.bks.cpg/sg2_103_cif.got.tgz:204978.got - 2010.06.03 11:33:40.
