data_PCOD9027509
_publ_section_title
;
Structure prediction by ZEFSAII (Michael W. Deem and Ramdas Pophale) SiO2 
 PCOD9027509
Probable space group: P -1
;
_chemical_formula_sum "Si O2"
_cell_formula_units_Z 16
_cell_length_a 24.168114
_cell_length_b 7.978079
_cell_length_c 11.718768
_cell_angle_alpha 39.167178
_cell_angle_beta 28.958970
_cell_angle_gamma 42.602695
_cell_volume 678.568289
_symmetry_space_group_name_H-M "P -1"
_symmetry_group_IT_number 2
_symmetry_cell_setting 'triclinic'
loop_
_space_group_symop_operation_xyz
x,y,z
-x,-y,-z
loop_
_atom_site_type_symbol
_atom_site_label
_atom_site_fract_x
_atom_site_fract_y
_atom_site_fract_z
Si Si1 0.575594 0.616545 0.448596
Si Si2 0.126153 0.948416 0.356067
Si Si3 0.280447 0.967865 0.440510
Si Si4 0.117745 0.493106 0.222416
Si Si5 0.110127 0.686874 0.756858
Si Si6 0.632676 0.640746 0.071924
Si Si7 0.149087 0.069158 0.832210
Si Si8 0.736962 0.884267 0.166534
O O1 0.592657 0.712105 0.237662
O O2 0.444566 0.568586 0.723119
O O3 0.623039 0.795785 0.364780
O O4 0.652939 0.313717 0.477152
O O5 0.137710 0.231394 0.245404
O O6 0.131929 0.726313 0.561851
O O7 0.220453 0.908974 0.106625
O O8 0.000000 0.000000 0.500000
O O9 0.211690 0.157059 0.562312
O O10 0.181621 0.896017 0.573835
O O11 0.372350 0.101159 0.135070
O O12 0.000000 0.500000 0.500000
O O13 0.229741 0.467501 0.113935
O O14 0.115566 0.778892 0.014337
O O15 0.167875 0.398685 0.855618
O O16 0.973864 0.762909 0.991551
O O17 0.244968 0.037917 0.776509
#
# Coordination Sequence:
#
# PCOD9027509 Si02
#       8
#     2   2   2   2   2   2   2   2
#     4  10  22  41  68  87 118 164 215 261 296 374
#     4  12  22  39  63  90 127 163 206 251 310 374
#     4  11  21  39  62  90 121 155 212 261 308 365
#     4  12  21  40  63  95 128 158 201 257 311 372
#     4  11  22  40  60  89 124 171 205 249 315 375
#     4  11  21  40  67  91 118 162 215 251 313 366
#     4  12  23  39  58  93 130 165 203 259 315 368
#     4  11  23  42  59  89 128 165 214 254 310 370
#
# _framework density 23.579056000000001
#
# number of rings (size 3 to 8) (size 9 to 14) (size 15 to 20)
#    0.000    0.750    6.250    1.875    0.000    1.000 
#    2.250    1.250    0.000    0.000    0.000    0.000 
#    0.000    0.000    0.000    0.000    0.000    0.000 
#
# Total GULP energy -89502.925962 kJ/mol
# GULP energy per Si atom -5593.932873 kJ/mol
# Density = 2.352539 g / cm^3
# Si number density = 23.579056 Si / 1000 Ang^3
#
#
#
# Elastic Constant Matrix: (Units=GPa)
#
#
# Indices 1 2 3 4 5 6 
#
# 1 138.3576 7.6208 80.4852 8.2358 -12.2601 5.2020
# 2 7.6208 40.2039 18.1475 -4.0931 -0.7159 -4.5309
# 3 80.4852 18.1475 166.2427 0.7435 -3.1235 0.7887
# 4 8.2358 -4.0931 0.7435 32.5754 -7.8989 -9.1786
# 5 -12.2601 -0.7159 -3.1235 -7.8989 67.0995 -2.9052
# 6 5.2020 -4.5309 0.7887 -9.1786 -2.9052 29.6583
#
#
#
# Elastic Compliance Matrix: (Units=1/GPa)
#
#
# Indices 1 2 3 4 5 6 
#
# 1 0.010555 -0.000308 -0.005028 -0.003023 0.001224 -0.002580
# 2 -0.000308 0.027518 -0.002890 0.005588 0.001027 0.006165
# 3 -0.005028 -0.002890 0.008752 0.000709 -0.000442 0.000384
# 4 -0.003023 0.005588 0.000709 0.036961 0.004465 0.013241
# 5 0.001224 0.001027 -0.000442 0.004465 0.015767 0.002880
# 6 -0.002580 0.006165 0.000384 0.013241 0.002880 0.039481
#
#
# Mechanical properties :
#
#
# Convention : Reuss Voigt Hill
#
# Bulk Modulus (GPa) = 32.92359 61.92348 47.42354
# Shear Modulus (GPa) = 30.19152 41.77003 35.98077
#
# Velocity S-wave (km/s) = 3.58220 4.21347 3.91060
# Velocity P-wave (km/s) = 5.57700 7.07038 6.36762
#
# Compressibility (1/GPa) = 0.03037335
#
# Stress axis : x y z
#
# Youngs Moduli (GPa) = 94.74532 36.34005 114.26593
#
# Poissons Ratio (x) = 0.01119 0.57448
# Poissons Ratio (y) = 0.02918 0.33020
# Poissons Ratio (z) = 0.47634 0.10501
#
# Static dielectric constant tensor:
#      x y z
#    x 1.908530 0.005160 0.021230 
#    y 0.005160 1.972310 -0.028600 
#    z 0.021230 -0.028600 1.920660 
# 
# From -- ./inp_files/259249.got.cif
#   From: 2010.05.17/outbox.cif.g08.bks.cpg/sg2_130_cif.got.tgz:259249.got - 2010.06.03 11:33:40.
