data_PCOD9027439
_publ_section_title
;
Structure prediction by ZEFSAII (Michael W. Deem and Ramdas Pophale) SiO2 
 PCOD9027439
Probable space group: P -1
;
_chemical_formula_sum "Si O2"
_cell_formula_units_Z 12
_cell_length_a 9.283488
_cell_length_b 11.642651
_cell_length_c 5.254506
_cell_angle_alpha 123.625304
_cell_angle_beta 113.768365
_cell_angle_gamma 80.994931
_cell_volume 431.132543
_symmetry_space_group_name_H-M "P -1"
_symmetry_group_IT_number 2
_symmetry_cell_setting 'triclinic'
loop_
_space_group_symop_operation_xyz
x,y,z
-x,-y,-z
loop_
_atom_site_type_symbol
_atom_site_label
_atom_site_fract_x
_atom_site_fract_y
_atom_site_fract_z
Si Si1 0.095456 0.629803 0.960908
Si Si2 0.538756 0.645858 0.572357
Si Si3 0.195468 0.359608 0.602574
Si Si4 0.319455 0.135709 0.688791
Si Si5 0.141026 0.913603 0.586780
Si Si6 0.670381 0.203605 0.050321
O O1 0.150689 0.482580 0.909614
O O2 0.228025 0.688027 0.919221
O O3 0.929649 0.619579 0.681989
O O4 0.087578 0.753640 0.303687
O O5 0.500000 0.500000 0.500000
O O6 0.622752 0.615868 0.331075
O O7 0.387099 0.727088 0.639140
O O8 0.670216 0.751550 0.934514
O O9 0.193259 0.201688 0.499837
O O10 0.276848 0.985932 0.590195
O O11 0.501157 0.152829 0.746384
O O12 0.219751 0.913968 0.922046
O O13 0.000000 0.000000 0.500000
#
# Coordination Sequence:
#
# PCOD9027439 Si02
#       6
#     2   2   2   2   2   2
#     4  11  26  42  69  98 132 174 219 266 327 388
#     4  10  22  41  68 101 131 165 214 273 329 381
#     4  11  23  44  68 101 131 169 217 273 325 387
#     4  10  25  41  69  97 131 171 215 270 325 383
#     4  12  26  46  65  95 136 179 215 268 326 390
#     4  10  25  42  68  99 127 172 220 268 323 388
#
# _framework density 27.833666999999998
#
# number of rings (size 3 to 8) (size 9 to 14) (size 15 to 20)
#    1.000    0.333    1.667    2.500    4.667    6.000 
#    0.000    4.167    0.000    0.000    0.000    0.000 
#    0.000    0.000    0.000    0.000    0.000    0.000 
#
# Total GULP energy -67068.751977 kJ/mol
# GULP energy per Si atom -5589.062665 kJ/mol
# Density = 2.777032 g / cm^3
# Si number density = 27.833667 Si / 1000 Ang^3
#
#
#
# Elastic Constant Matrix: (Units=GPa)
#
#
# Indices 1 2 3 4 5 6 
#
# 1 128.0601 15.4401 14.6071 3.6174 6.5696 -11.7574
# 2 15.4401 176.1697 29.2126 14.4400 5.4009 -18.9397
# 3 14.6071 29.2126 47.6848 13.9998 -1.1561 -20.6613
# 4 3.6174 14.4400 13.9998 47.5575 -11.1279 4.1608
# 5 6.5696 5.4009 -1.1561 -11.1279 36.4264 2.2479
# 6 -11.7574 -18.9397 -20.6613 4.1608 2.2479 56.9036
#
#
#
# Elastic Compliance Matrix: (Units=1/GPa)
#
#
# Indices 1 2 3 4 5 6 
#
# 1 0.008245 -0.000208 -0.001815 -0.000532 -0.001743 0.001083
# 2 -0.000208 0.006493 -0.002969 -0.001556 -0.001570 0.001216
# 3 -0.001815 -0.002969 0.030573 -0.009287 -0.001746 0.010486
# 4 -0.000532 -0.001556 -0.009287 0.026842 0.008621 -0.006303
# 5 -0.001743 -0.001570 -0.001746 0.008621 0.030785 -0.003363
# 6 0.001083 0.001216 0.010486 -0.006303 -0.003363 0.022603
#
#
# Mechanical properties :
#
#
# Convention : Reuss Voigt Hill
#
# Bulk Modulus (GPa) = 28.30605 52.27048 40.28826
# Shear Modulus (GPa) = 33.94408 47.68782 40.81595
#
# Velocity S-wave (km/s) = 3.49597 4.14371 3.83355
# Velocity P-wave (km/s) = 5.14660 6.45865 5.83959
#
# Compressibility (1/GPa) = 0.03532813
#
# Stress axis : x y z
#
# Youngs Moduli (GPa) = 121.28803 154.00735 32.70856
#
# Poissons Ratio (x) = 0.03206 0.05936
# Poissons Ratio (y) = 0.02525 0.09710
# Poissons Ratio (z) = 0.22011 0.45718
#
# Static dielectric constant tensor:
#      x y z
#    x 2.217640 0.027530 -0.081500 
#    y 0.027530 2.091210 -0.001880 
#    z -0.081500 -0.001880 2.319690 
# 
# From -- ./inp_files/28991.got.cif
#   From: 2010.05.17/outbox.cif.g08.bks.cpg/sg2_15_cif.got.tgz:28991.got - 2010.06.03 11:33:40.
