data_PCOD9027646
_publ_section_title
;
Structure prediction by ZEFSAII (Michael W. Deem and Ramdas Pophale) SiO2 
 PCOD9027646
Probable space group: P -1
;
_chemical_formula_sum "Si O2"
_cell_formula_units_Z 13
_cell_length_a 13.350688
_cell_length_b 13.373739
_cell_length_c 8.275846
_cell_angle_alpha 48.861815
_cell_angle_beta 43.761276
_cell_angle_gamma 31.667306
_cell_volume 532.737732
_symmetry_space_group_name_H-M "P -1"
_symmetry_group_IT_number 2
_symmetry_cell_setting 'triclinic'
loop_
_space_group_symop_operation_xyz
x,y,z
-x,-y,-z
loop_
_atom_site_type_symbol
_atom_site_label
_atom_site_fract_x
_atom_site_fract_y
_atom_site_fract_z
Si Si1 0.617907 0.266555 0.982977
Si Si2 0.000000 0.500000 0.500000
Si Si3 0.441589 0.832616 0.503802
Si Si4 0.222942 0.415582 0.866648
Si Si5 0.963986 0.990009 0.365156
Si Si6 0.566342 0.860021 0.808765
Si Si7 0.173974 0.637115 0.988666
O O1 0.613241 0.212248 0.225371
O O2 0.604796 0.139569 0.026089
O O3 0.405669 0.485080 0.957544
O O4 0.825500 0.205501 0.753036
O O5 0.231650 0.313674 0.348967
O O6 0.029186 0.636245 0.262877
O O7 0.645308 0.637067 0.388437
O O8 0.240778 0.961768 0.482594
O O9 0.496858 0.948498 0.354628
O O10 0.198561 0.553372 0.871717
O O11 0.355740 0.216304 0.018888
O O12 0.000000 0.500000 0.000000
O O13 0.917239 0.158198 0.147818
O O14 0.000000 0.000000 0.500000
#
# Coordination Sequence:
#
# PCOD9027646 Si02
#       7
#     2   1   2   2   2   2   2
#     4  10  24  44  70  96 134 179 232 291 345 400
#     4   8  18  40  70  98 130 174 220 290 336 392
#     4  12  25  42  67 104 136 181 233 282 350 417
#     4  10  24  38  66 101 136 181 234 287 343 397
#     4  12  27  46  70  98 145 189 225 283 350 419
#     4  10  22  41  68  98 136 173 237 282 345 406
#     4  10  24  45  67 101 138 180 238 280 345 412
#
# _framework density 24.402251
#
# number of rings (size 3 to 8) (size 9 to 14) (size 15 to 20)
#    0.000    1.846    0.000    4.154   12.923    3.077 
#    0.000    0.000    0.000    0.000    0.000    0.000 
#    0.000    0.000    0.000    0.000    0.000    0.000 
#
# Total GULP energy -72585.914746 kJ/mol
# GULP energy per Si atom -5583.531904 kJ/mol
# Density = 2.434671 g / cm^3
# Si number density = 24.402251 Si / 1000 Ang^3
#
#
#
# Elastic Constant Matrix: (Units=GPa)
#
#
# Indices 1 2 3 4 5 6 
#
# 1 87.8855 15.0797 13.2010 -2.3973 4.0015 -25.8943
# 2 15.0797 59.9735 24.5976 -2.2234 -8.1087 -10.8945
# 3 13.2010 24.5976 98.7872 17.0320 -4.1800 -13.6953
# 4 -2.3973 -2.2234 17.0320 53.2113 1.3465 -12.5482
# 5 4.0015 -8.1087 -4.1800 1.3465 34.6753 -6.5975
# 6 -25.8943 -10.8945 -13.6953 -12.5482 -6.5975 32.7576
#
#
#
# Elastic Compliance Matrix: (Units=1/GPa)
#
#
# Indices 1 2 3 4 5 6 
#
# 1 0.015698 -0.001065 -0.000662 0.004021 0.000247 0.013368
# 2 -0.001065 0.020933 -0.004536 0.003737 0.005617 0.006787
# 3 -0.000662 -0.004536 0.012287 -0.003735 0.000999 0.001875
# 4 0.004021 0.003737 -0.003735 0.023118 0.001342 0.011986
# 5 0.000247 0.005617 0.000999 0.001342 0.031988 0.009438
# 6 0.013368 0.006787 0.001875 0.011986 0.009438 0.050627
#
#
# Mechanical properties :
#
#
# Convention : Reuss Voigt Hill
#
# Bulk Modulus (GPa) = 27.47819 39.15585 33.31702
# Shear Modulus (GPa) = 27.88521 37.04672 32.46596
#
# Velocity S-wave (km/s) = 3.38410 3.90059 3.65149
# Velocity P-wave (km/s) = 5.15310 6.03051 5.60899
#
# Compressibility (1/GPa) = 0.03639250
#
# Stress axis : x y z
#
# Youngs Moduli (GPa) = 63.70383 47.77188 81.38796
#
# Poissons Ratio (x) = 0.05086 0.05389
# Poissons Ratio (y) = 0.06782 0.36914
# Poissons Ratio (z) = 0.04218 0.21667
#
# Static dielectric constant tensor:
#      x y z
#    x 2.018600 0.005100 0.006120 
#    y 0.005100 1.924530 0.007500 
#    z 0.006120 0.007500 1.940930 
# 
# From -- ./inp_files/310888.got.cif
#   From: 2010.05.17/outbox.cif.g08.bks.cpg/sg2_156_cif.got.tgz:310888.got - 2010.06.03 11:33:40.
