data_PCOD9027738
_publ_section_title
;
Structure prediction by ZEFSAII (Michael W. Deem and Ramdas Pophale) SiO2 
 PCOD9027738
Probable space group: P -1
;
_chemical_formula_sum "Si O2"
_cell_formula_units_Z 14
_cell_length_a 10.375326
_cell_length_b 8.297121
_cell_length_c 5.996005
_cell_angle_alpha 91.789327
_cell_angle_beta 84.824599
_cell_angle_gamma 87.080639
_cell_volume 513.063633
_symmetry_space_group_name_H-M "P -1"
_symmetry_group_IT_number 2
_symmetry_cell_setting 'triclinic'
loop_
_space_group_symop_operation_xyz
x,y,z
-x,-y,-z
loop_
_atom_site_type_symbol
_atom_site_label
_atom_site_fract_x
_atom_site_fract_y
_atom_site_fract_z
Si Si1 0.679927 0.043203 0.495672
Si Si2 0.048507 0.950333 0.740227
Si Si3 0.399691 0.645526 0.712274
Si Si4 0.608917 0.865733 0.892677
Si Si5 0.331642 0.279935 0.677326
Si Si6 0.869231 0.338571 0.043000
Si Si7 0.059099 0.382534 0.669187
O O1 0.700677 0.978874 0.739789
O O2 0.596789 0.891149 0.420127
O O3 0.800843 0.016703 0.309219
O O4 0.643820 0.233106 0.479246
O O5 0.056650 0.758790 0.772528
O O6 0.000000 0.000000 0.500000
O O7 0.000000 0.000000 0.000000
O O8 0.528803 0.722325 0.785853
O O9 0.397858 0.452777 0.658542
O O10 0.284085 0.679700 0.914124
O O11 0.684940 0.765573 0.065084
O O12 0.500000 0.000000 0.000000
O O13 0.195262 0.298914 0.566589
O O14 0.886505 0.521402 0.122041
O O15 0.940493 0.294071 0.797844
O O16 0.000000 0.500000 0.500000
#
# Coordination Sequence:
#
# PCOD9027738 Si02
#       7
#     2   2   2   2   2   2   2
#     4  11  26  46  74 106 153 197 253 319 388 458
#     4  11  26  43  73 110 154 201 256 314 390 475
#     4  10  23  49  67 104 144 194 250 312 383 465
#     4  12  26  48  76 103 150 199 256 328 380 457
#     4  11  25  45  73 108 143 195 255 310 398 462
#     4   9  22  41  65  99 145 189 244 304 386 451
#     4  10  22  41  69 103 147 187 243 316 382 466
#
# _framework density 27.287065999999999
#
# number of rings (size 3 to 8) (size 9 to 14) (size 15 to 20)
#    0.000    1.429    1.429    1.714    8.000    2.857 
#    7.714    0.000    0.000    0.000    0.000    0.000 
#    0.000    0.000    0.000    0.000    0.000    0.000 
#
# Total GULP energy -77963.800348 kJ/mol
# GULP energy per Si atom -5568.842882 kJ/mol
# Density = 2.722496 g / cm^3
# Si number density = 27.287066 Si / 1000 Ang^3
#
#
#
# Elastic Constant Matrix: (Units=GPa)
#
#
# Indices 1 2 3 4 5 6 
#
# 1 76.4538 41.8319 52.7376 -17.8111 -9.9315 -9.7373
# 2 41.8319 224.5757 67.4428 -16.6968 7.8115 -12.1216
# 3 52.7376 67.4428 147.0117 -43.1355 -16.5909 -14.3177
# 4 -17.8111 -16.6968 -43.1355 65.6106 -2.0353 3.4008
# 5 -9.9315 7.8115 -16.5909 -2.0353 53.7336 -14.3186
# 6 -9.7373 -12.1216 -14.3177 3.4008 -14.3186 38.6117
#
#
#
# Elastic Compliance Matrix: (Units=1/GPa)
#
#
# Indices 1 2 3 4 5 6 
#
# 1 0.018504 -0.001866 -0.004678 0.001396 0.003209 0.003413
# 2 -0.001866 0.005492 -0.002288 -0.000660 -0.001943 -0.000257
# 3 -0.004678 -0.002288 0.012189 0.006106 0.004459 0.003737
# 4 0.001396 -0.000660 0.006106 0.019472 0.003508 0.001995
# 5 0.003209 -0.001943 0.004459 0.003508 0.023754 0.010352
# 6 0.003413 -0.000257 0.003737 0.001995 0.010352 0.031728
#
#
# Mechanical properties :
#
#
# Convention : Reuss Voigt Hill
#
# Bulk Modulus (GPa) = 53.99253 85.78510 69.88882
# Shear Modulus (GPa) = 37.04319 50.65978 43.85148
#
# Velocity S-wave (km/s) = 3.68847 4.31344 4.01314
# Velocity P-wave (km/s) = 6.16195 7.50426 6.86599
#
# Compressibility (1/GPa) = 0.01852108
#
# Stress axis : x y z
#
# Youngs Moduli (GPa) = 54.04176 182.07576 82.04167
#
# Poissons Ratio (x) = 0.33967 0.38380
# Poissons Ratio (y) = 0.10082 0.18775
# Poissons Ratio (z) = 0.25281 0.41668
#
# Static dielectric constant tensor:
#      x y z
#    x 2.443260 -0.078150 -0.132580 
#    y -0.078150 2.264010 0.123140 
#    z -0.132580 0.123140 2.351430 
# 
# From -- ./inp_files/60339.got.cif
#   From: 2010.05.17/outbox.cif.g08.bks.cpg/sg2_31_cif.got.tgz:60339.got - 2010.06.03 11:33:40.
