data_PCOD9027803
_publ_section_title
;
Structure prediction by ZEFSAII (Michael W. Deem and Ramdas Pophale) SiO2 
 PCOD9027803
Probable space group: P -1
;
_chemical_formula_sum "Si O2"
_cell_formula_units_Z 12
_cell_length_a 9.073117
_cell_length_b 9.411357
_cell_length_c 8.349479
_cell_angle_alpha 109.667830
_cell_angle_beta 70.095283
_cell_angle_gamma 128.691226
_cell_volume 515.752266
_symmetry_space_group_name_H-M "P -1"
_symmetry_group_IT_number 2
_symmetry_cell_setting 'triclinic'
loop_
_space_group_symop_operation_xyz
x,y,z
-x,-y,-z
loop_
_atom_site_type_symbol
_atom_site_label
_atom_site_fract_x
_atom_site_fract_y
_atom_site_fract_z
Si Si1 0.877344 0.559980 0.921824
Si Si2 0.656672 0.962715 0.368895
Si Si3 0.587347 0.120733 0.856002
Si Si4 0.099465 0.283211 0.360806
Si Si5 0.357281 0.176009 0.371309
Si Si6 0.202136 0.514226 0.735037
O O1 0.740415 0.337470 0.892370
O O2 0.825358 0.624269 0.806779
O O3 0.089602 0.609968 0.833742
O O4 0.857820 0.612013 0.130037
O O5 0.587190 0.906664 0.192508
O O6 0.638383 0.807031 0.430922
O O7 0.500000 0.000000 0.500000
O O8 0.872802 0.138397 0.367931
O O9 0.684075 0.024315 0.709704
O O10 0.500000 0.000000 0.000000
O O11 0.201380 0.187186 0.343780
O O12 0.142669 0.417909 0.546212
O O13 0.569715 0.335163 0.293918
#
# Coordination Sequence:
#
# PCOD9027803 Si02
#       6
#     2   2   2   2   2   2
#     4  11  24  42  72  97 131 178 235 271 326 403
#     4  10  22  41  69  94 130 179 224 266 330 399
#     4  11  22  44  68  95 130 176 229 272 321 408
#     4  12  25  44  68 104 140 171 221 286 341 391
#     4  11  23  44  68 100 136 176 221 278 343 393
#     4  11  23  42  69  98 134 179 227 270 333 398
#
# _framework density 23.266981999999999
#
# number of rings (size 3 to 8) (size 9 to 14) (size 15 to 20)
#    0.000    1.000    1.667    6.500    2.333    0.667 
#    3.000    0.833    0.000    0.000    0.000    0.000 
#    0.000    0.000    0.000    0.000    0.000    0.000 
#
# Total GULP energy -67041.260917 kJ/mol
# GULP energy per Si atom -5586.771743 kJ/mol
# Density = 2.321403 g / cm^3
# Si number density = 23.266982 Si / 1000 Ang^3
#
#
#
# Elastic Constant Matrix: (Units=GPa)
#
#
# Indices 1 2 3 4 5 6 
#
# 1 159.2922 65.2572 39.6413 -13.6710 42.3762 -1.5058
# 2 65.2572 75.9121 27.8348 -27.8327 8.7685 11.4762
# 3 39.6413 27.8348 89.2179 -32.3653 42.5028 -18.2609
# 4 -13.6710 -27.8327 -32.3653 41.5744 -11.7774 15.8968
# 5 42.3762 8.7685 42.5028 -11.7774 40.5832 -14.1696
# 6 -1.5058 11.4762 -18.2609 15.8968 -14.1696 49.4527
#
#
#
# Elastic Compliance Matrix: (Units=1/GPa)
#
#
# Indices 1 2 3 4 5 6 
#
# 1 0.017659 -0.019172 0.005496 -0.010478 -0.021633 0.004186
# 2 -0.019172 0.043237 -0.008515 0.028632 0.022096 -0.016635
# 3 0.005496 -0.008515 0.031410 0.010832 -0.033412 0.000687
# 4 -0.010478 0.028632 0.010832 0.056804 0.002761 -0.020433
# 5 -0.021633 0.022096 -0.033412 0.002761 0.079571 0.003788
# 6 0.004186 -0.016635 0.000687 -0.020433 0.003788 0.032116
#
#
# Mechanical properties :
#
#
# Convention : Reuss Voigt Hill
#
# Bulk Modulus (GPa) = 20.86589 65.54319 43.20454
# Shear Modulus (GPa) = 15.56889 39.10132 27.33511
#
# Velocity S-wave (km/s) = 2.58958 4.10390 3.43132
# Velocity P-wave (km/s) = 4.23423 7.11949 5.85730
#
# Compressibility (1/GPa) = 0.04792510
#
# Stress axis : x y z
#
# Youngs Moduli (GPa) = 56.62761 23.12857 31.83665
#
# Poissons Ratio (x) = 0.44342 -0.17499
# Poissons Ratio (y) = 1.08565 0.27109
# Poissons Ratio (z) = -0.31125 0.19694
#
# Static dielectric constant tensor:
#      x y z
#    x 1.850430 -0.007790 0.043540 
#    y -0.007790 1.871560 0.006850 
#    z 0.043540 0.006850 2.175270 
# 
# From -- ./inp_files/159625.got.cif
#   From: 2010.05.17/outbox.cif.g08.bks.cpg/sg2_80_cif.got.tgz:159625.got - 2010.06.03 11:33:40.
