data_PCOD9027825
_publ_section_title
;
Structure prediction by ZEFSAII (Michael W. Deem and Ramdas Pophale) SiO2 
 PCOD9027825
Probable space group: P -1
;
_chemical_formula_sum "Si O2"
_cell_formula_units_Z 16
_cell_length_a 18.207336
_cell_length_b 20.728599
_cell_length_c 14.109615
_cell_angle_alpha 33.122342
_cell_angle_beta 21.692708
_cell_angle_gamma 22.540533
_cell_volume 746.442496
_symmetry_space_group_name_H-M "P -1"
_symmetry_group_IT_number 2
_symmetry_cell_setting 'triclinic'
loop_
_space_group_symop_operation_xyz
x,y,z
-x,-y,-z
loop_
_atom_site_type_symbol
_atom_site_label
_atom_site_fract_x
_atom_site_fract_y
_atom_site_fract_z
Si Si1 0.141291 0.811193 0.056367
Si Si2 0.716919 0.329886 0.150928
Si Si3 0.902294 0.509527 0.267378
Si Si4 0.842661 0.951733 0.875683
Si Si5 0.235838 0.772866 0.451264
Si Si6 0.277580 0.207370 0.335295
Si Si7 0.797519 0.472946 0.235630
Si Si8 0.315487 0.390192 0.213783
O O1 0.939860 0.800258 0.360986
O O2 0.171292 0.755793 0.980798
O O3 0.449203 0.688501 0.889821
O O4 0.000000 0.000000 0.000000
O O5 0.418313 0.388491 0.449575
O O6 0.688181 0.484718 0.993923
O O7 0.927221 0.196217 0.145188
O O8 0.953673 0.432001 0.197192
O O9 0.104342 0.370476 0.275163
O O10 0.998628 0.599862 0.011612
O O11 0.806549 0.109739 0.720828
O O12 0.535336 0.040545 0.171290
O O13 0.957327 0.883088 0.716268
O O14 0.513804 0.672579 0.308720
O O15 0.300616 0.618729 0.520095
O O16 0.387674 0.243230 0.245387
O O17 0.000000 0.500000 0.500000
#
# Coordination Sequence:
#
# PCOD9027825 Si02
#       8
#     2   2   2   2   2   2   2   2
#     4  12  28  48  68 104 144 175 225 290 342 409
#     4  12  25  45  71 101 137 181 234 278 342 411
#     4  11  23  41  69 100 132 176 234 277 327 409
#     4  11  25  40  68 100 137 177 221 287 343 403
#     4  10  22  43  64  98 136 175 230 277 340 405
#     4  12  26  46  70 102 140 183 230 278 345 408
#     4  10  22  41  69  96 133 181 226 282 332 404
#     4  12  26  46  75  99 136 184 233 284 335 405
#
# _framework density 21.435005
#
# number of rings (size 3 to 8) (size 9 to 14) (size 15 to 20)
#    0.000    0.750    5.000    1.875    5.250    3.000 
#    0.000    1.250    0.000    0.000    0.000    0.000 
#    0.000    0.000    0.000    0.000    0.000    0.000 
#
# Total GULP energy -89330.075233 kJ/mol
# GULP energy per Si atom -5583.129702 kJ/mol
# Density = 2.138622 g / cm^3
# Si number density = 21.435005 Si / 1000 Ang^3
#
#
#
# Elastic Constant Matrix: (Units=GPa)
#
#
# Indices 1 2 3 4 5 6 
#
# 1 49.1621 -6.5487 10.1564 -9.5847 1.5775 -9.1292
# 2 -6.5487 68.4446 16.5505 -18.0684 -5.7752 -12.8126
# 3 10.1564 16.5505 130.8260 10.2373 12.4363 0.3518
# 4 -9.5847 -18.0684 10.2373 44.3987 -0.1861 2.6883
# 5 1.5775 -5.7752 12.4363 -0.1861 29.5264 -2.9861
# 6 -9.1292 -12.8126 0.3518 2.6883 -2.9861 28.3563
#
#
#
# Elastic Compliance Matrix: (Units=1/GPa)
#
#
# Indices 1 2 3 4 5 6 
#
# 1 0.026251 0.008486 -0.004189 0.009386 0.003273 0.011793
# 2 0.008486 0.022756 -0.005193 0.011548 0.007550 0.012779
# 3 -0.004189 -0.005193 0.009525 -0.005000 -0.005229 -0.003890
# 4 0.009386 0.011548 -0.005000 0.030062 0.004654 0.005942
# 5 0.003273 0.007550 -0.005229 0.004654 0.038222 0.008114
# 6 0.011793 0.012779 -0.003890 0.005942 0.008114 0.045176
#
#
# Mechanical properties :
#
#
# Convention : Reuss Voigt Hill
#
# Bulk Modulus (GPa) = 17.62428 32.08323 24.85376
# Shear Modulus (GPa) = 25.94752 35.67457 30.81104
#
# Velocity S-wave (km/s) = 3.48303 4.08403 3.79544
# Velocity P-wave (km/s) = 4.94119 6.10239 5.55223
#
# Compressibility (1/GPa) = 0.05673990
#
# Stress axis : x y z
#
# Youngs Moduli (GPa) = 38.09317 43.94486 104.99012
#
# Poissons Ratio (x) = -0.37292 0.43979
# Poissons Ratio (y) = -0.32327 0.54525
# Poissons Ratio (z) = 0.15957 0.22822
#
# Static dielectric constant tensor:
#      x y z
#    x 1.812060 0.045340 -0.086380 
#    y 0.045340 1.785420 -0.031590 
#    z -0.086380 -0.031590 1.972770 
# 
# From -- ./inp_files/541759.got.cif
#   From: 2010.05.17/outbox.cif.g08.bks.cpg/sg2_271_cif.got.tgz:541759.got - 2010.06.03 11:33:40.
