data_PCOD9027007
_publ_section_title
;
Structure prediction by ZEFSAII (Michael W. Deem and Ramdas Pophale) SiO2 
 PCOD9027007
Probable space group: P -1
;
_chemical_formula_sum "Si O2"
_cell_formula_units_Z 16
_cell_length_a 12.575573
_cell_length_b 8.606839
_cell_length_c 7.765947
_cell_angle_alpha 106.803841
_cell_angle_beta 102.808656
_cell_angle_gamma 51.857723
_cell_volume 631.810930
_symmetry_space_group_name_H-M "P -1"
_symmetry_group_IT_number 2
_symmetry_cell_setting 'triclinic'
loop_
_space_group_symop_operation_xyz
x,y,z
-x,-y,-z
loop_
_atom_site_type_symbol
_atom_site_label
_atom_site_fract_x
_atom_site_fract_y
_atom_site_fract_z
Si Si1 0.972456 0.879869 0.083237
Si Si2 0.266729 0.314571 0.289954
Si Si3 0.988379 0.275465 0.604809
Si Si4 0.406113 0.357067 0.823607
Si Si5 0.509802 0.297361 0.457538
Si Si6 0.846636 0.586767 0.099114
Si Si7 0.764991 0.987744 0.610035
Si Si8 0.683545 0.200414 0.988340
O O1 0.018428 0.853167 0.289447
O O2 0.053776 0.655655 0.963017
O O3 0.809386 0.013013 0.071726
O O4 0.000000 0.000000 0.000000
O O5 0.406971 0.285624 0.301278
O O6 0.273334 0.145302 0.348977
O O7 0.161983 0.527521 0.418726
O O8 0.201231 0.336568 0.088194
O O9 0.071310 0.347701 0.751801
O O10 0.079819 0.155376 0.436218
O O11 0.457329 0.294827 0.628180
O O12 0.288521 0.338895 0.823279
O O13 0.540852 0.232523 0.950212
O O14 0.346362 0.591096 0.897655
O O15 0.500000 0.500000 0.500000
O O16 0.666106 0.106033 0.451187
O O17 0.730218 0.157212 0.790961
#
# Coordination Sequence:
#
# PCOD9027007 Si02
#       8
#     2   2   2   2   2   2   2   2
#     4  11  22  40  66  99 131 168 224 274 325 394
#     4  11  24  45  67  97 135 176 220 273 332 393
#     4  11  25  43  68 100 133 177 223 272 333 392
#     4  10  23  41  68  93 132 174 220 269 334 389
#     4  11  27  44  68  99 137 170 220 279 332 399
#     4  11  23  43  69  98 131 177 224 271 329 395
#     4  11  24  44  68  96 136 172 224 273 331 395
#     4  10  22  41  66  94 130 173 221 266 330 388
#
# _framework density 25.324031000000002
#
# number of rings (size 3 to 8) (size 9 to 14) (size 15 to 20)
#    0.000    1.250    1.250    4.500    7.000    2.000 
#    0.000    5.000    0.000    0.000    0.000    0.000 
#    0.000    0.000    0.000    0.000    0.000    0.000 
#
# Total GULP energy -89674.544416 kJ/mol
# GULP energy per Si atom -5604.659026 kJ/mol
# Density = 2.526639 g / cm^3
# Si number density = 25.324031 Si / 1000 Ang^3
#
#
#
# Elastic Constant Matrix: (Units=GPa)
#
#
# Indices 1 2 3 4 5 6 
#
# 1 85.8028 6.8537 10.0505 -12.2562 -14.2729 8.0916
# 2 6.8537 122.3481 12.4108 -22.7518 -0.6661 -3.8962
# 3 10.0505 12.4108 51.9975 10.6417 -7.3817 2.3281
# 4 -12.2562 -22.7518 10.6417 37.6490 -8.9166 -4.2849
# 5 -14.2729 -0.6661 -7.3817 -8.9166 43.8678 2.2375
# 6 8.0916 -3.8962 2.3281 -4.2849 2.2375 45.9580
#
#
#
# Elastic Compliance Matrix: (Units=1/GPa)
#
#
# Indices 1 2 3 4 5 6 
#
# 1 0.014139 0.000891 -0.003557 0.007261 0.005584 -0.001828
# 2 0.000891 0.010094 -0.004114 0.008044 0.001305 0.001594
# 3 -0.003557 -0.004114 0.023181 -0.010247 0.000694 -0.001886
# 4 0.007261 0.008044 -0.010247 0.039063 0.008540 0.003149
# 5 0.005584 0.001305 0.000694 0.008540 0.026557 -0.001404
# 6 -0.001828 0.001594 -0.001886 0.003149 -0.001404 0.022674
#
#
# Mechanical properties :
#
#
# Convention : Reuss Voigt Hill
#
# Bulk Modulus (GPa) = 29.53778 35.41982 32.47880
# Shear Modulus (GPa) = 31.14260 40.88385 36.01323
#
# Velocity S-wave (km/s) = 3.51060 4.02235 3.77516
# Velocity P-wave (km/s) = 5.30299 5.96569 5.64408
#
# Compressibility (1/GPa) = 0.03385494
#
# Stress axis : x y z
#
# Youngs Moduli (GPa) = 70.72816 99.06470 43.13838
#
# Poissons Ratio (x) = -0.08829 0.15344
# Poissons Ratio (y) = -0.06304 0.17747
# Poissons Ratio (z) = 0.25158 0.40755
#
# Static dielectric constant tensor:
#      x y z
#    x 2.022370 -0.019410 0.040500 
#    y -0.019410 1.984720 -0.003840 
#    z 0.040500 -0.003840 2.023230 
# 
# From -- ./inp_files/244625.got.cif
#   From: 2010.05.17/outbox.cif.g08.bks.cpg/sg2_123_cif.got.tgz:244625.got - 2010.06.03 11:33:40.
