data_PCOD9027433
_publ_section_title
;
Structure prediction by ZEFSAII (Michael W. Deem and Ramdas Pophale) SiO2 
 PCOD9027433
Probable space group: P -1
;
_chemical_formula_sum "Si O2"
_cell_formula_units_Z 13
_cell_length_a 9.532455
_cell_length_b 12.582452
_cell_length_c 8.985935
_cell_angle_alpha 51.155851
_cell_angle_beta 128.263690
_cell_angle_gamma 94.248796
_cell_volume 565.371331
_symmetry_space_group_name_H-M "P -1"
_symmetry_group_IT_number 2
_symmetry_cell_setting 'triclinic'
loop_
_space_group_symop_operation_xyz
x,y,z
-x,-y,-z
loop_
_atom_site_type_symbol
_atom_site_label
_atom_site_fract_x
_atom_site_fract_y
_atom_site_fract_z
Si Si1 0.686530 0.072881 0.115356
Si Si2 0.945708 0.381457 0.749255
Si Si3 0.083576 0.765561 0.714944
Si Si4 0.197727 0.857005 0.172605
Si Si5 0.318408 0.285252 0.866510
Si Si6 0.000000 0.500000 0.000000
Si Si7 0.609848 0.312311 0.260617
O O1 0.782870 0.176502 0.155849
O O2 0.708589 0.083962 0.944340
O O3 0.450918 0.152558 0.947410
O O4 0.840299 0.899618 0.436186
O O5 0.875063 0.256921 0.847023
O O6 0.760715 0.545087 0.413549
O O7 0.119171 0.302103 0.803031
O O8 0.020662 0.431177 0.900968
O O9 0.165944 0.755667 0.609840
O O10 0.106970 0.603298 0.927315
O O11 0.363718 0.749151 0.501577
O O12 0.000000 0.000000 0.000000
O O13 0.479349 0.255939 0.129244
O O14 0.500000 0.500000 0.000000
#
# Coordination Sequence:
#
# PCOD9027433 Si02
#       7
#     2   2   2   2   2   1   2
#     4  10  22  44  70  99 140 189 236 286 351 431
#     4  11  25  45  66 106 145 184 237 300 356 417
#     4  10  22  41  68 100 141 185 233 291 354 415
#     4  12  24  44  75 104 142 191 239 292 356 426
#     4  10  24  43  70 101 144 185 234 298 359 417
#     4  12  24  42  74 100 142 186 228 300 356 416
#     4  11  21  40  71 101 137 186 240 288 351 428
#
# _framework density 22.993738
#
# number of rings (size 3 to 8) (size 9 to 14) (size 15 to 20)
#    0.000    1.231    4.615    0.923    2.154    3.077 
#    0.000    7.692    0.000    0.000    0.000    0.000 
#    0.000    0.000    0.000    0.000    0.000    0.000 
#
# Total GULP energy -72465.257347 kJ/mol
# GULP energy per Si atom -5574.250565 kJ/mol
# Density = 2.294140 g / cm^3
# Si number density = 22.993738 Si / 1000 Ang^3
#
#
#
# Elastic Constant Matrix: (Units=GPa)
#
#
# Indices 1 2 3 4 5 6 
#
# 1 83.1494 16.0299 36.2548 -1.1647 1.7438 -25.8260
# 2 16.0299 78.0046 18.8535 13.2068 -2.8946 -5.9856
# 3 36.2548 18.8535 72.2491 1.5283 4.0417 -16.4741
# 4 -1.1647 13.2068 1.5283 18.0818 -11.8400 -5.2131
# 5 1.7438 -2.8946 4.0417 -11.8400 37.0078 -2.9557
# 6 -25.8260 -5.9856 -16.4741 -5.2131 -2.9557 42.0743
#
#
#
# Elastic Compliance Matrix: (Units=1/GPa)
#
#
# Indices 1 2 3 4 5 6 
#
# 1 0.018559 -0.002794 -0.006745 0.008679 0.003191 0.009653
# 2 -0.002794 0.016267 -0.002947 -0.014628 -0.003161 -0.002589
# 3 -0.006745 -0.002947 0.018696 -0.000329 -0.001853 0.002590
# 4 0.008679 -0.014628 -0.000329 0.089973 0.028568 0.016272
# 5 0.003191 -0.003161 -0.001853 0.028568 0.036516 0.006888
# 6 0.009653 -0.002589 0.002590 0.016272 0.006888 0.032838
#
#
# Mechanical properties :
#
#
# Convention : Reuss Voigt Hill
#
# Bulk Modulus (GPa) = 35.02624 41.74217 38.38420
# Shear Modulus (GPa) = 20.21532 30.25045 25.23288
#
# Velocity S-wave (km/s) = 2.96829 3.63105 3.31627
# Velocity P-wave (km/s) = 5.19747 5.98101 5.60295
#
# Compressibility (1/GPa) = 0.02855003
#
# Stress axis : x y z
#
# Youngs Moduli (GPa) = 53.88271 61.47444 53.48795
#
# Poissons Ratio (x) = 0.17175 0.36077
# Poissons Ratio (y) = 0.15054 0.15763
# Poissons Ratio (z) = 0.36343 0.18117
#
# Static dielectric constant tensor:
#      x y z
#    x 1.835140 -0.049910 0.029000 
#    y -0.049910 1.898920 0.017410 
#    z 0.029000 0.017410 1.865380 
# 
# From -- ./inp_files/184567.got.cif
#   From: 2010.05.17/outbox.cif.g08.bks.cpg/sg2_93_cif.got.tgz:184567.got - 2010.06.03 11:33:40.
