data_PCOD9027061
_publ_section_title
;
Structure prediction by ZEFSAII (Michael W. Deem and Ramdas Pophale) SiO2 
 PCOD9027061
Probable space group: P -1
;
_chemical_formula_sum "Si O2"
_cell_formula_units_Z 14
_cell_length_a 11.352795
_cell_length_b 12.172543
_cell_length_c 6.434537
_cell_angle_alpha 65.896892
_cell_angle_beta 101.663264
_cell_angle_gamma 134.601106
_cell_volume 573.007598
_symmetry_space_group_name_H-M "P -1"
_symmetry_group_IT_number 2
_symmetry_cell_setting 'triclinic'
loop_
_space_group_symop_operation_xyz
x,y,z
-x,-y,-z
loop_
_atom_site_type_symbol
_atom_site_label
_atom_site_fract_x
_atom_site_fract_y
_atom_site_fract_z
Si Si1 0.679419 0.968440 0.122519
Si Si2 0.093671 0.942987 0.494956
Si Si3 0.839307 0.228639 0.605681
Si Si4 0.672456 0.309270 0.704693
Si Si5 0.308964 0.487630 0.781681
Si Si6 0.348544 0.247743 0.043102
Si Si7 0.176250 0.603318 0.878827
O O1 0.506643 0.879669 0.246519
O O2 0.828104 0.061636 0.267298
O O3 0.644435 0.814880 0.124760
O O4 0.732684 0.082636 0.853123
O O5 0.038305 0.788689 0.445003
O O6 0.236051 0.097963 0.280856
O O7 0.000000 0.000000 0.500000
O O8 0.836103 0.352868 0.641680
O O9 0.769132 0.246253 0.359484
O O10 0.661901 0.430133 0.493572
O O11 0.695461 0.326255 0.944245
O O12 0.475510 0.616578 0.881786
O O13 0.171852 0.477085 0.845719
O O14 0.268255 0.320697 0.907087
O O15 0.000000 0.500000 0.000000
#
# Coordination Sequence:
#
# PCOD9027061 Si02
#       7
#     2   2   2   2   2   2   2
#     4  11  22  42  68  94 124 167 210 260 317 369
#     4  11  25  44  63  94 131 165 209 262 319 368
#     4  10  25  41  67  93 127 163 217 257 315 376
#     4  11  22  42  68  94 124 167 210 260 317 369
#     4  10  22  41  66  96 128 164 215 258 305 380
#     4  10  22  41  66  96 128 164 215 258 305 380
#     4  11  25  44  63  94 131 165 209 262 319 368
#
# _framework density 24.432486999999998
#
# number of rings (size 3 to 8) (size 9 to 14) (size 15 to 20)
#    0.000    1.429    2.857    1.286    2.000    7.429 
#    5.143    0.000    0.000    0.000    0.000    0.000 
#    0.000    0.000    0.000    0.000    0.000    0.000 
#
# Total GULP energy -77978.455281 kJ/mol
# GULP energy per Si atom -5569.889663 kJ/mol
# Density = 2.437688 g / cm^3
# Si number density = 24.432487 Si / 1000 Ang^3
#
#
#
# Elastic Constant Matrix: (Units=GPa)
#
#
# Indices 1 2 3 4 5 6 
#
# 1 127.7448 8.3869 47.6129 -5.1986 1.6812 -20.8969
# 2 8.3869 21.5775 28.9851 -3.5376 8.7614 -13.1913
# 3 47.6129 28.9851 174.9683 -10.0725 17.5840 -8.8797
# 4 -5.1986 -3.5376 -10.0725 26.7369 -6.5957 -1.1437
# 5 1.6812 8.7614 17.5840 -6.5957 40.2203 -7.2680
# 6 -20.8969 -13.1913 -8.8797 -1.1437 -7.2680 42.4781
#
#
#
# Elastic Compliance Matrix: (Units=1/GPa)
#
#
# Indices 1 2 3 4 5 6 
#
# 1 0.009649 0.003196 -0.002923 0.001788 0.001452 0.005425
# 2 0.003196 0.078272 -0.011654 0.005795 -0.007094 0.022385
# 3 -0.002923 -0.011654 0.008451 0.000530 -0.001588 -0.003548
# 4 0.001788 0.005795 0.000530 0.040390 0.005939 0.004894
# 5 0.001452 -0.007094 -0.001588 0.005939 0.028600 0.003233
# 6 0.005425 0.022385 -0.003548 0.004894 0.003233 0.033105
#
#
# Mechanical properties :
#
#
# Convention : Reuss Voigt Hill
#
# Bulk Modulus (GPa) = 13.58493 54.91783 34.25138
# Shear Modulus (GPa) = 20.34462 37.84078 29.09270
#
# Velocity S-wave (km/s) = 2.88876 3.93974 3.45445
# Velocity P-wave (km/s) = 4.08642 6.57431 5.47359
#
# Compressibility (1/GPa) = 0.07361098
#
# Stress axis : x y z
#
# Youngs Moduli (GPa) = 103.64131 12.77593 118.32562
#
# Poissons Ratio (x) = -0.04083 0.34583
# Poissons Ratio (y) = -0.33120 1.37891
# Poissons Ratio (z) = 0.30291 0.14888
#
# Static dielectric constant tensor:
#      x y z
#    x 2.034930 -0.023290 0.000760 
#    y -0.023290 2.077680 0.057090 
#    z 0.000760 0.057090 1.905610 
# 
# From -- ./inp_files/66170.got.cif
#   From: 2010.05.17/outbox.cif.g08.bks.cpg/sg2_34_cif.got.tgz:66170.got - 2010.06.03 11:33:40.
