data_PCOD9027707
_publ_section_title
;
Structure prediction by ZEFSAII (Michael W. Deem and Ramdas Pophale) SiO2 
 PCOD9027707
Probable space group: P -1
;
_chemical_formula_sum "Si O2"
_cell_formula_units_Z 16
_cell_length_a 7.718832
_cell_length_b 11.572001
_cell_length_c 12.637705
_cell_angle_alpha 41.495675
_cell_angle_beta 75.868682
_cell_angle_gamma 96.241404
_cell_volume 646.300308
_symmetry_space_group_name_H-M "P -1"
_symmetry_group_IT_number 2
_symmetry_cell_setting 'triclinic'
loop_
_space_group_symop_operation_xyz
x,y,z
-x,-y,-z
loop_
_atom_site_type_symbol
_atom_site_label
_atom_site_fract_x
_atom_site_fract_y
_atom_site_fract_z
Si Si1 0.282780 0.765274 0.790628
Si Si2 0.546371 0.100220 0.811968
Si Si3 0.505694 0.220356 0.466943
Si Si4 0.866884 0.736416 0.531150
Si Si5 0.152001 0.351717 0.166136
Si Si6 0.144425 0.563822 0.564797
Si Si7 0.246946 0.133253 0.127350
Si Si8 0.202815 0.194248 0.847618
O O1 0.419375 0.753616 0.682761
O O2 0.069473 0.722736 0.799480
O O3 0.381916 0.987397 0.662794
O O4 0.240489 0.586532 0.998346
O O5 0.753688 0.297620 0.644831
O O6 0.373005 0.165731 0.776958
O O7 0.589359 0.947986 0.840186
O O8 0.500000 0.000000 0.000000
O O9 0.351691 0.309939 0.445151
O O10 0.699267 0.316962 0.445928
O O11 0.861802 0.749429 0.650309
O O12 0.940154 0.572595 0.612260
O O13 0.035760 0.940248 0.317097
O O14 0.272329 0.289009 0.106484
O O15 0.157195 0.364538 0.693995
O O16 0.248248 0.216007 0.952506
O O17 0.000000 0.000000 0.000000
#
# Coordination Sequence:
#
# PCOD9027707 Si02
#       8
#     2   2   2   2   2   2   2   2
#     4  10  23  38  64  96 144 188 228 269 327 410
#     4   9  22  46  68  98 132 176 228 295 344 403
#     4  11  23  42  65 101 137 190 231 268 341 409
#     4  11  24  41  68 106 141 185 225 280 338 423
#     4  11  21  42  66 101 150 183 223 283 336 408
#     4  11  24  47  73 100 142 181 230 289 353 414
#     4  10  22  41  69 101 138 182 228 280 355 402
#     4  11  25  47  73 100 132 178 235 298 360 403
#
# _framework density 24.756292999999999
#
# number of rings (size 3 to 8) (size 9 to 14) (size 15 to 20)
#    0.000    1.500    2.500    1.500    3.500    1.500 
#    9.000    4.375    0.000    0.000    0.000    0.000 
#    0.000    0.000    0.000    0.000    0.000    0.000 
#
# Total GULP energy -89624.263280 kJ/mol
# GULP energy per Si atom -5601.516455 kJ/mol
# Density = 2.469995 g / cm^3
# Si number density = 24.756293 Si / 1000 Ang^3
#
#
#
# Elastic Constant Matrix: (Units=GPa)
#
#
# Indices 1 2 3 4 5 6 
#
# 1 121.0295 67.6409 18.1826 7.4013 11.8320 -36.1909
# 2 67.6409 105.3200 34.1781 -3.9860 -4.4957 -40.6323
# 3 18.1826 34.1781 106.8014 -0.9196 20.9977 -13.2419
# 4 7.4013 -3.9860 -0.9196 47.7338 0.1064 2.4179
# 5 11.8320 -4.4957 20.9977 0.1064 31.1433 -0.8871
# 6 -36.1909 -40.6323 -13.2419 2.4179 -0.8871 53.8926
#
#
#
# Elastic Compliance Matrix: (Units=1/GPa)
#
#
# Indices 1 2 3 4 5 6 
#
# 1 0.015665 -0.010099 0.002784 -0.003380 -0.009173 0.003591
# 2 -0.010099 0.021842 -0.006518 0.002826 0.011607 0.008149
# 3 0.002784 -0.006518 0.013101 -0.000701 -0.010829 0.000028
# 4 -0.003380 0.002826 -0.000701 0.021755 0.002055 -0.001254
# 5 -0.009173 0.011607 -0.010829 0.002055 0.044580 0.000572
# 6 0.003591 0.008149 0.000028 -0.001254 0.000572 0.027183
#
#
# Mechanical properties :
#
#
# Convention : Reuss Voigt Hill
#
# Bulk Modulus (GPa) = 43.58350 63.68380 53.63365
# Shear Modulus (GPa) = 27.86456 40.76390 34.31423
#
# Velocity S-wave (km/s) = 3.35857 4.06224 3.72705
# Velocity P-wave (km/s) = 5.71692 6.91249 6.34294
#
# Compressibility (1/GPa) = 0.02294446
#
# Stress axis : x y z
#
# Youngs Moduli (GPa) = 63.83572 45.78342 76.32780
#
# Poissons Ratio (x) = 0.46235 -0.21252
# Poissons Ratio (y) = 0.64465 0.49749
# Poissons Ratio (z) = -0.17774 0.29840
#
# Static dielectric constant tensor:
#      x y z
#    x 1.966040 -0.003270 0.024530 
#    y -0.003270 1.971670 0.025480 
#    z 0.024530 0.025480 1.968010 
# 
# From -- ./inp_files/498746.got.cif
#   From: 2010.05.17/outbox.cif.g08.bks.cpg/sg2_250_cif.got.tgz:498746.got - 2010.06.03 11:33:40.
