data_PCOD9027325
_publ_section_title
;
Structure prediction by ZEFSAII (Michael W. Deem and Ramdas Pophale) SiO2 
 PCOD9027325
Probable space group: P -1
;
_chemical_formula_sum "Si O2"
_cell_formula_units_Z 16
_cell_length_a 15.565970
_cell_length_b 9.415295
_cell_length_c 11.188673
_cell_angle_alpha 57.489628
_cell_angle_beta 74.035559
_cell_angle_gamma 35.487752
_cell_volume 757.213388
_symmetry_space_group_name_H-M "P -1"
_symmetry_group_IT_number 2
_symmetry_cell_setting 'triclinic'
loop_
_space_group_symop_operation_xyz
x,y,z
-x,-y,-z
loop_
_atom_site_type_symbol
_atom_site_label
_atom_site_fract_x
_atom_site_fract_y
_atom_site_fract_z
Si Si1 0.020951 0.131131 0.848907
Si Si2 0.222881 0.929919 0.640858
Si Si3 0.552965 0.212237 0.199800
Si Si4 0.135468 0.202748 0.158466
Si Si5 0.711969 0.158460 0.961349
Si Si6 0.570990 0.811889 0.435942
Si Si7 0.767692 0.776878 0.653929
Si Si8 0.840491 0.160060 0.531252
O O1 0.852234 0.471399 0.730372
O O2 0.116393 0.992059 0.749283
O O3 0.127143 0.084618 0.915753
O O4 0.000000 0.000000 0.000000
O O5 0.358535 0.808515 0.725150
O O6 0.248978 0.770985 0.585899
O O7 0.160292 0.195482 0.476600
O O8 0.369643 0.532124 0.147337
O O9 0.598522 0.947084 0.298610
O O10 0.597854 0.216183 0.052936
O O11 0.189249 0.248388 0.216411
O O12 0.265739 0.946105 0.130342
O O13 0.102808 0.082769 0.298235
O O14 0.000000 0.500000 0.000000
O O15 0.724203 0.460908 0.515274
O O16 0.500000 0.000000 0.500000
O O17 0.419804 0.935281 0.403847
O O18 0.000000 0.000000 0.500000
#
# Coordination Sequence:
#
# PCOD9027325 Si02
#       8
#     2   2   2   2   2   2   2   2
#     4  11  23  40  68  97 136 179 232 278 338 401
#     4  10  24  43  68  96 136 179 226 282 339 406
#     4  10  22  43  69  97 133 178 231 279 341 404
#     4  11  24  44  68  95 137 182 221 278 341 413
#     4  10  22  41  67  95 135 183 223 274 342 411
#     4  12  25  44  72 103 136 177 230 293 340 402
#     4  11  24  42  67 100 133 179 232 276 347 404
#     4  11  29  44  70 103 138 177 231 285 351 398
#
# _framework density 21.130106999999999
#
# number of rings (size 3 to 8) (size 9 to 14) (size 15 to 20)
#    0.000    1.250    2.500    1.875    7.000    2.000 
#    0.000    0.625    0.000    0.000    0.000    0.000 
#    0.000    0.000    0.000    0.000    0.000    0.000 
#
# Total GULP energy -89113.741084 kJ/mol
# GULP energy per Si atom -5569.608818 kJ/mol
# Density = 2.108201 g / cm^3
# Si number density = 21.130107 Si / 1000 Ang^3
#
#
#
# Elastic Constant Matrix: (Units=GPa)
#
#
# Indices 1 2 3 4 5 6 
#
# 1 50.0822 36.7706 26.8147 7.8344 -6.9994 -0.3831
# 2 36.7706 111.4897 45.3524 5.0291 -8.1898 -4.2438
# 3 26.8147 45.3524 99.8814 21.6229 -10.0367 3.3964
# 4 7.8344 5.0291 21.6229 43.1267 4.0699 3.3770
# 5 -6.9994 -8.1898 -10.0367 4.0699 38.9651 0.5714
# 6 -0.3831 -4.2438 3.3964 3.3770 0.5714 24.5908
#
#
#
# Elastic Compliance Matrix: (Units=1/GPa)
#
#
# Indices 1 2 3 4 5 6 
#
# 1 0.028140 -0.007657 -0.003149 -0.002909 0.002940 -0.000117
# 2 -0.007657 0.013336 -0.004490 0.001885 0.000037 0.002543
# 3 -0.003149 -0.004490 0.014640 -0.006364 0.002956 -0.002041
# 4 -0.002909 0.001885 -0.006364 0.027314 -0.004582 -0.002486
# 5 0.002940 0.000037 0.002956 -0.004582 0.027445 -0.000365
# 6 -0.000117 0.002543 -0.002041 -0.002486 -0.000365 0.041734
#
#
# Mechanical properties :
#
#
# Convention : Reuss Voigt Hill
#
# Bulk Modulus (GPa) = 39.17969 53.25874 46.21922
# Shear Modulus (GPa) = 26.08100 31.50423 28.79262
#
# Velocity S-wave (km/s) = 3.51708 3.86549 3.69539
# Velocity P-wave (km/s) = 5.92246 6.72180 6.33475
#
# Compressibility (1/GPa) = 0.02552342
#
# Stress axis : x y z
#
# Youngs Moduli (GPa) = 35.53655 74.98480 68.30473
#
# Poissons Ratio (x) = 0.57419 0.21507
# Poissons Ratio (y) = 0.27212 0.30672
# Poissons Ratio (z) = 0.11189 0.33672
#
# Static dielectric constant tensor:
#      x y z
#    x 1.767440 0.019880 0.018980 
#    y 0.019880 1.780780 -0.024640 
#    z 0.018980 -0.024640 1.798230 
# 
# From -- ./inp_files/446955.got.cif
#   From: 2010.05.17/outbox.cif.g08.bks.cpg/sg2_224_cif.got.tgz:446955.got - 2010.06.03 11:33:40.
