data_PCOD9027767
_publ_section_title
;
Structure prediction by ZEFSAII (Michael W. Deem and Ramdas Pophale) SiO2 
 PCOD9027767
Probable space group: P -1
;
_chemical_formula_sum "Si O2"
_cell_formula_units_Z 16
_cell_length_a 11.526425
_cell_length_b 18.778780
_cell_length_c 7.792822
_cell_angle_alpha 115.834966
_cell_angle_beta 129.176942
_cell_angle_gamma 31.635525
_cell_volume 663.887066
_symmetry_space_group_name_H-M "P -1"
_symmetry_group_IT_number 2
_symmetry_cell_setting 'triclinic'
loop_
_space_group_symop_operation_xyz
x,y,z
-x,-y,-z
loop_
_atom_site_type_symbol
_atom_site_label
_atom_site_fract_x
_atom_site_fract_y
_atom_site_fract_z
Si Si1 0.436521 0.187754 0.942603
Si Si2 0.748037 0.883154 0.470803
Si Si3 0.984916 0.052835 0.859792
Si Si4 0.616961 0.385010 0.208221
Si Si5 0.772017 0.556329 0.961631
Si Si6 0.478919 0.621657 0.270854
Si Si7 0.621422 0.094863 0.402613
Si Si8 0.818408 0.618096 0.596307
O O1 0.247914 0.204504 0.705685
O O2 0.360684 0.307963 0.937459
O O3 0.477400 0.172947 0.170397
O O4 0.725495 0.040696 0.993292
O O5 0.062695 0.761310 0.676858
O O6 0.500000 0.000000 0.500000
O O7 0.673384 0.981350 0.363482
O O8 0.793903 0.210314 0.811035
O O9 0.889320 0.027526 0.609629
O O10 0.000000 0.000000 0.000000
O O11 0.480066 0.391800 0.237594
O O12 0.527659 0.514867 0.285465
O O13 0.489145 0.409442 0.935760
O O14 0.000000 0.500000 0.000000
O O15 0.977502 0.423105 0.139281
O O16 0.675675 0.600821 0.515938
O O17 0.424697 0.217225 0.493242
O O18 0.000000 0.500000 0.500000
#
# Coordination Sequence:
#
# PCOD9027767 Si02
#       8
#     2   2   2   2   2   2   2   2
#     4  12  25  45  69  98 149 188 238 301 365 440
#     4  12  27  45  72 106 143 188 245 302 362 439
#     4  11  23  43  72 107 138 188 246 295 358 431
#     4  11  24  44  69 104 144 183 235 303 364 419
#     4  12  25  46  72 103 144 190 242 295 367 445
#     4  10  22  41  69 107 139 178 237 300 358 425
#     4  11  25  44  69 102 142 191 235 295 374 431
#     4  11  23  42  73 103 138 188 243 298 355 433
#
# _framework density 24.100484000000002
#
# number of rings (size 3 to 8) (size 9 to 14) (size 15 to 20)
#    0.000    0.750    2.500    5.250    5.250    1.000 
#    2.250    1.250    0.000    0.000    0.000    0.000 
#    0.000    0.000    0.000    0.000    0.000    0.000 
#
# Total GULP energy -89136.706069 kJ/mol
# GULP energy per Si atom -5571.044129 kJ/mol
# Density = 2.404563 g / cm^3
# Si number density = 24.100484 Si / 1000 Ang^3
#
#
#
# Elastic Constant Matrix: (Units=GPa)
#
#
# Indices 1 2 3 4 5 6 
#
# 1 98.3012 51.0823 28.4272 -10.8116 22.7202 -11.1939
# 2 51.0823 108.3122 5.5383 -8.9998 19.1688 17.4257
# 3 28.4272 5.5383 100.2945 -11.9755 17.3666 -7.2468
# 4 -10.8116 -8.9998 -11.9755 35.8091 0.3786 13.2650
# 5 22.7202 19.1688 17.3666 0.3786 35.6229 -0.1140
# 6 -11.1939 17.4257 -7.2468 13.2650 -0.1140 42.3703
#
#
#
# Elastic Compliance Matrix: (Units=1/GPa)
#
#
# Indices 1 2 3 4 5 6 
#
# 1 0.017462 -0.008508 -0.003141 -0.000752 -0.004995 0.007797
# 2 -0.008508 0.016102 0.002273 0.006144 -0.004445 -0.010417
# 3 -0.003141 0.002273 0.012039 0.004072 -0.005135 -0.000994
# 4 -0.000752 0.006144 0.004072 0.035538 -0.005231 -0.013169
# 5 -0.004995 -0.004445 -0.005135 -0.005231 0.036213 0.001365
# 6 0.007797 -0.010417 -0.000994 -0.013169 0.001365 0.033902
#
#
# Mechanical properties :
#
#
# Convention : Reuss Voigt Hill
#
# Bulk Modulus (GPa) = 37.24285 53.00039 45.12162
# Shear Modulus (GPa) = 27.93961 37.55113 32.74537
#
# Velocity S-wave (km/s) = 3.40854 3.95157 3.69006
# Velocity P-wave (km/s) = 5.56575 6.54668 6.07604
#
# Compressibility (1/GPa) = 0.02685079
#
# Stress axis : x y z
#
# Youngs Moduli (GPa) = 57.26798 62.10516 83.06365
#
# Poissons Ratio (x) = 0.52837 0.26091
# Poissons Ratio (y) = 0.48721 -0.18879
# Poissons Ratio (z) = 0.17988 -0.14116
#
# Static dielectric constant tensor:
#      x y z
#    x 2.149720 -0.064450 -0.095520 
#    y -0.064450 1.941070 0.009460 
#    z -0.095520 0.009460 2.000820 
# 
# From -- ./inp_files/279725.got.cif
#   From: 2010.05.17/outbox.cif.g08.bks.cpg/sg2_140_cif.got.tgz:279725.got - 2010.06.03 11:33:40.
