data_PCOD9027808
_publ_section_title
;
Structure prediction by ZEFSAII (Michael W. Deem and Ramdas Pophale) SiO2 
 PCOD9027808
Probable space group: P -1
;
_chemical_formula_sum "Si O2"
_cell_formula_units_Z 14
_cell_length_a 10.487714
_cell_length_b 6.650320
_cell_length_c 13.140151
_cell_angle_alpha 95.901146
_cell_angle_beta 78.222651
_cell_angle_gamma 136.424054
_cell_volume 617.065391
_symmetry_space_group_name_H-M "P -1"
_symmetry_group_IT_number 2
_symmetry_cell_setting 'triclinic'
loop_
_space_group_symop_operation_xyz
x,y,z
-x,-y,-z
loop_
_atom_site_type_symbol
_atom_site_label
_atom_site_fract_x
_atom_site_fract_y
_atom_site_fract_z
Si Si1 0.924105 0.237647 0.251811
Si Si2 0.744273 0.434808 0.012468
Si Si3 0.258952 0.353050 0.192165
Si Si4 0.208927 0.720167 0.521662
Si Si5 0.368709 0.408244 0.788173
Si Si6 0.556754 0.355048 0.431737
Si Si7 0.896714 0.229529 0.898169
O O1 0.109990 0.333353 0.268774
O O2 0.990533 0.492140 0.180701
O O3 0.799715 0.178506 0.361648
O O4 0.811647 0.939309 0.193574
O O5 0.714370 0.518974 0.916965
O O6 0.626421 0.415275 0.116857
O O7 0.957733 0.685505 0.035977
O O8 0.734299 0.184402 0.975293
O O9 0.452167 0.536524 0.228102
O O10 0.176153 0.038289 0.168803
O O11 0.285068 0.582638 0.525791
O O12 0.000000 0.500000 0.500000
O O13 0.368310 0.007113 0.443261
O O14 0.368423 0.517371 0.685955
O O15 0.500000 0.500000 0.500000
#
# Coordination Sequence:
#
# PCOD9027808 Si02
#       7
#     2   2   2   2   2   2   2
#     4  11  25  44  65 102 134 176 224 279 341 396
#     4  10  22  43  64  98 137 179 223 281 332 392
#     4  11  25  43  67 101 132 181 233 269 333 411
#     4  11  27  46  76 100 135 177 228 282 345 408
#     4  12  25  44  70  94 144 178 218 284 341 393
#     4  11  26  49  68 106 136 172 229 284 339 412
#     4  10  22  41  69  94 136 176 231 275 328 403
#
# _framework density 22.688033999999998
#
# number of rings (size 3 to 8) (size 9 to 14) (size 15 to 20)
#    0.000    1.143    2.857    1.714    8.000    1.143 
#    7.714    0.000    0.000    0.000    0.000    0.000 
#    0.000    0.000    0.000    0.000    0.000    0.000 
#
# Total GULP energy -78350.240921 kJ/mol
# GULP energy per Si atom -5596.445780 kJ/mol
# Density = 2.263639 g / cm^3
# Si number density = 22.688034 Si / 1000 Ang^3
#
#
#
# Elastic Constant Matrix: (Units=GPa)
#
#
# Indices 1 2 3 4 5 6 
#
# 1 150.4811 48.5786 -0.8212 -16.3083 -0.7575 -0.0752
# 2 48.5786 56.7609 15.1540 -7.7847 14.1500 -1.3159
# 3 -0.8212 15.1540 47.8691 -4.3359 -4.2563 -22.9350
# 4 -16.3083 -7.7847 -4.3359 23.8761 -10.3594 -4.4901
# 5 -0.7575 14.1500 -4.2563 -10.3594 37.1941 3.9276
# 6 -0.0752 -1.3159 -22.9350 -4.4901 3.9276 36.1520
#
#
#
# Elastic Compliance Matrix: (Units=1/GPa)
#
#
# Indices 1 2 3 4 5 6 
#
# 1 0.012169 -0.013359 0.008738 0.010307 0.008628 0.005425
# 2 -0.013359 0.037208 -0.019591 -0.010536 -0.018506 -0.010400
# 3 0.008738 -0.019591 0.043607 0.019245 0.015054 0.027724
# 4 0.010307 -0.010536 0.019245 0.061657 0.021784 0.017139
# 5 0.008628 -0.018506 0.015054 0.021784 0.041139 0.007131
# 6 0.005425 -0.010400 0.027724 0.017139 0.007131 0.046236
#
#
# Mechanical properties :
#
#
# Convention : Reuss Voigt Hill
#
# Bulk Modulus (GPa) = 22.44157 42.32601 32.38379
# Shear Modulus (GPa) = 16.37765 32.25773 24.31769
#
# Velocity S-wave (km/s) = 2.68967 3.77476 3.27743
# Velocity P-wave (km/s) = 4.42251 6.13959 5.35038
#
# Compressibility (1/GPa) = 0.04456016
#
# Stress axis : x y z
#
# Youngs Moduli (GPa) = 82.17840 26.87559 22.93199
#
# Poissons Ratio (x) = 0.35903 -0.20037
# Poissons Ratio (y) = 1.09780 0.44926
# Poissons Ratio (z) = -0.71805 0.52652
#
# Static dielectric constant tensor:
#      x y z
#    x 1.834800 0.002060 -0.041420 
#    y 0.002060 1.836080 -0.010060 
#    z -0.041420 -0.010060 1.830340 
# 
# From -- ./inp_files/552060.got.cif
#   From: 2010.05.17/outbox.cif.g08.bks.cpg/sg2_277_cif.got.tgz:552060.got - 2010.06.03 11:33:40.
