data_PCOD9027023
_publ_section_title
;
Structure prediction by ZEFSAII (Michael W. Deem and Ramdas Pophale) SiO2 
 PCOD9027023
Probable space group: P -1
;
_chemical_formula_sum "Si O2"
_cell_formula_units_Z 14
_cell_length_a 5.282902
_cell_length_b 17.412754
_cell_length_c 14.181435
_cell_angle_alpha 31.320847
_cell_angle_beta 119.154978
_cell_angle_gamma 117.517637
_cell_volume 589.198630
_symmetry_space_group_name_H-M "P -1"
_symmetry_group_IT_number 2
_symmetry_cell_setting 'triclinic'
loop_
_space_group_symop_operation_xyz
x,y,z
-x,-y,-z
loop_
_atom_site_type_symbol
_atom_site_label
_atom_site_fract_x
_atom_site_fract_y
_atom_site_fract_z
Si Si1 0.148765 0.938548 0.262355
Si Si2 0.200532 0.617536 0.544627
Si Si3 0.336012 0.965119 0.604706
Si Si4 0.563237 0.066589 0.044795
Si Si5 0.054792 0.677395 0.808311
Si Si6 0.561358 0.376075 0.219255
Si Si7 0.707910 0.373230 0.659560
O O1 0.063741 0.765729 0.401136
O O2 0.440192 0.962948 0.352944
O O3 0.281647 0.024967 0.102483
O O4 0.872353 0.003904 0.192152
O O5 0.385153 0.577995 0.711142
O O6 0.324182 0.674004 0.406254
O O7 0.016701 0.463249 0.645848
O O8 0.291374 0.782703 0.798851
O O9 0.500000 0.000000 0.500000
O O10 0.000000 0.000000 0.500000
O O11 0.628039 0.241655 0.855673
O O12 0.500000 0.000000 0.000000
O O13 0.163655 0.693213 0.703651
O O14 0.739781 0.726001 0.723949
O O15 0.000000 0.500000 0.000000
O O16 0.500000 0.500000 0.000000
O O17 0.500000 0.500000 0.500000
#
# Coordination Sequence:
#
# PCOD9027023 Si02
#       7
#     2   2   2   2   2   2   2
#     4  12  27  45  76 106 145 198 238 297 373 436
#     4  11  25  44  72 104 141 188 242 295 365 430
#     4  12  25  45  69 105 146 185 238 289 353 430
#     4  12  26  48  72 104 146 185 245 303 366 434
#     4  10  22  41  66  94 138 176 224 283 339 409
#     4  10  23  42  70 103 139 182 231 292 352 421
#     4  11  27  46  73 103 143 187 245 306 363 434
#
# _framework density 23.761088000000001
#
# number of rings (size 3 to 8) (size 9 to 14) (size 15 to 20)
#    0.000    0.857    1.429    4.714    6.000    4.571 
#    0.000    0.000    0.000    0.000    0.000    0.000 
#    0.000    0.000    0.000    0.000    0.000    0.000 
#
# Total GULP energy -78053.853779 kJ/mol
# GULP energy per Si atom -5575.275270 kJ/mol
# Density = 2.370701 g / cm^3
# Si number density = 23.761088 Si / 1000 Ang^3
#
#
#
# Elastic Constant Matrix: (Units=GPa)
#
#
# Indices 1 2 3 4 5 6 
#
# 1 126.9853 9.1397 5.5571 3.6993 -9.6749 7.1683
# 2 9.1397 80.4755 22.4802 -0.5713 -13.3252 9.4622
# 3 5.5571 22.4802 101.9441 -14.3810 -3.9134 7.9556
# 4 3.6993 -0.5713 -14.3810 41.4608 -0.0136 -3.0648
# 5 -9.6749 -13.3252 -3.9134 -0.0136 41.5006 -2.8199
# 6 7.1683 9.4622 7.9556 -3.0648 -2.8199 31.5177
#
#
#
# Elastic Compliance Matrix: (Units=1/GPa)
#
#
# Indices 1 2 3 4 5 6 
#
# 1 0.008160 -0.000387 -0.000306 -0.000958 0.001639 -0.001609
# 2 -0.000387 0.014308 -0.002870 -0.001000 0.004014 -0.003221
# 3 -0.000306 -0.002870 0.011101 0.003726 -0.000048 -0.001513
# 4 -0.000958 -0.001000 0.003726 0.025636 -0.000044 0.002067
# 5 0.001639 0.004014 -0.000048 -0.000044 0.025813 0.000739
# 6 -0.001609 -0.003221 -0.001513 0.002067 0.000739 0.033710
#
#
# Mechanical properties :
#
#
# Convention : Reuss Voigt Hill
#
# Bulk Modulus (GPa) = 37.81819 42.63986 40.22902
# Shear Modulus (GPa) = 37.12836 41.04433 39.08634
#
# Velocity S-wave (km/s) = 3.95722 4.16068 4.06023
# Velocity P-wave (km/s) = 6.06878 6.40827 6.24083
#
# Compressibility (1/GPa) = 0.02644231
#
# Stress axis : x y z
#
# Youngs Moduli (GPa) = 122.55161 69.89074 90.08461
#
# Poissons Ratio (x) = 0.02708 0.02757
# Poissons Ratio (y) = 0.04748 0.25851
# Poissons Ratio (z) = 0.03750 0.20056
#
# Static dielectric constant tensor:
#      x y z
#    x 2.129980 -0.040090 0.468880 
#    y -0.040090 1.609960 0.556990 
#    z 0.468880 0.556990 1.728180 
# 
# From -- ./inp_files/484997.got.cif
#   From: 2010.05.17/outbox.cif.g08.bks.cpg/sg2_243_cif.got.tgz:484997.got - 2010.06.03 11:33:40.
