data_PCOD9027705
_publ_section_title
;
Structure prediction by ZEFSAII (Michael W. Deem and Ramdas Pophale) SiO2 
 PCOD9027705
Probable space group: P -1
;
_chemical_formula_sum "Si O2"
_cell_formula_units_Z 12
_cell_length_a 6.505138
_cell_length_b 8.322244
_cell_length_c 11.344114
_cell_angle_alpha 100.625838
_cell_angle_beta 59.265833
_cell_angle_gamma 80.120829
_cell_volume 492.480704
_symmetry_space_group_name_H-M "P -1"
_symmetry_group_IT_number 2
_symmetry_cell_setting 'triclinic'
loop_
_space_group_symop_operation_xyz
x,y,z
-x,-y,-z
loop_
_atom_site_type_symbol
_atom_site_label
_atom_site_fract_x
_atom_site_fract_y
_atom_site_fract_z
Si Si1 0.626968 0.137910 0.535667
Si Si2 0.600478 0.160947 0.132288
Si Si3 0.926956 0.782713 0.068063
Si Si4 0.098706 0.342195 0.690677
Si Si5 0.138215 0.154728 0.407955
Si Si6 0.335463 0.373502 0.043152
O O1 0.396343 0.312204 0.616908
O O2 0.885156 0.159141 0.412693
O O3 0.500000 0.000000 0.500000
O O4 0.724041 0.044310 0.619263
O O5 0.352813 0.215244 0.291879
O O6 0.492884 0.196548 0.035887
O O7 0.761509 0.972030 0.101629
O O8 0.807014 0.260648 0.082850
O O9 0.959360 0.767060 0.196670
O O10 0.772745 0.660114 0.053515
O O11 0.059907 0.266763 0.565415
O O12 0.905006 0.529385 0.792922
O O13 0.500000 0.500000 0.000000
#
# Coordination Sequence:
#
# PCOD9027705 Si02
#       6
#     2   2   2   2   2   2
#     4   9  20  38  65  99 136 177 220 276 337 408
#     4  11  25  46  70 104 135 178 231 292 338 401
#     4  11  25  46  72  99 137 182 236 279 339 414
#     4  11  23  41  71  99 133 181 223 284 341 406
#     4  10  22  41  69 101 136 176 232 278 343 409
#     4  12  27  43  69 101 142 183 227 282 349 407
#
# _framework density 24.366437999999999
#
# number of rings (size 3 to 8) (size 9 to 14) (size 15 to 20)
#    0.000    1.333    3.333    1.000    2.333    4.667 
#    9.000    1.667    0.000    0.000    0.000    0.000 
#    0.000    0.000    0.000    0.000    0.000    0.000 
#
# Total GULP energy -66973.010419 kJ/mol
# GULP energy per Si atom -5581.084202 kJ/mol
# Density = 2.431098 g / cm^3
# Si number density = 24.366438 Si / 1000 Ang^3
#
#
#
# Elastic Constant Matrix: (Units=GPa)
#
#
# Indices 1 2 3 4 5 6 
#
# 1 138.9886 36.1589 60.4820 -6.2719 -33.0104 14.6968
# 2 36.1589 66.8133 19.0970 -10.8552 -4.0542 -9.3950
# 3 60.4820 19.0970 98.9518 -18.8692 -17.7267 31.3439
# 4 -6.2719 -10.8552 -18.8692 26.4016 -1.7641 -8.2861
# 5 -33.0104 -4.0542 -17.7267 -1.7641 46.2106 -1.1602
# 6 14.6968 -9.3950 31.3439 -8.2861 -1.1602 52.5715
#
#
#
# Elastic Compliance Matrix: (Units=1/GPa)
#
#
# Indices 1 2 3 4 5 6 
#
# 1 0.012592 -0.005592 -0.005684 -0.003442 0.006154 -0.001537
# 2 -0.005592 0.020777 -0.001894 0.008094 -0.002398 0.007629
# 3 -0.005684 -0.001894 0.018923 0.008921 0.003158 -0.008556
# 4 -0.003442 0.008094 0.008921 0.048518 0.003647 0.004818
# 5 0.006154 -0.002398 0.003158 0.003647 0.027105 -0.002859
# 6 -0.001537 0.007629 -0.008556 0.004818 -0.002859 0.026612
#
#
# Mechanical properties :
#
#
# Convention : Reuss Voigt Hill
#
# Bulk Modulus (GPa) = 38.53452 59.58105 49.05778
# Shear Modulus (GPa) = 26.38265 37.63779 32.01022
#
# Velocity S-wave (km/s) = 3.29408 3.93448 3.62843
# Velocity P-wave (km/s) = 5.50608 6.71903 6.14256
#
# Compressibility (1/GPa) = 0.02595076
#
# Stress axis : x y z
#
# Youngs Moduli (GPa) = 79.41558 48.12980 52.84597
#
# Poissons Ratio (x) = 0.26913 0.30039
# Poissons Ratio (y) = 0.44408 0.10012
# Poissons Ratio (z) = 0.45143 0.09118
#
# Static dielectric constant tensor:
#      x y z
#    x 1.964700 -0.012070 -0.036480 
#    y -0.012070 1.978770 0.001380 
#    z -0.036480 0.001380 1.992580 
# 
# From -- ./inp_files/360902.got.cif
#   From: 2010.05.17/outbox.cif.g08.bks.cpg/sg2_181_cif.got.tgz:360902.got - 2010.06.03 11:33:40.
