data_PCOD9027859
_publ_section_title
;
Structure prediction by ZEFSAII (Michael W. Deem and Ramdas Pophale) SiO2 
 PCOD9027859
Probable space group: P -1
;
_chemical_formula_sum "Si O2"
_cell_formula_units_Z 12
_cell_length_a 9.106092
_cell_length_b 11.924347
_cell_length_c 14.535185
_cell_angle_alpha 27.646757
_cell_angle_beta 131.008551
_cell_angle_gamma 133.819608
_cell_volume 524.070226
_symmetry_space_group_name_H-M "P -1"
_symmetry_group_IT_number 2
_symmetry_cell_setting 'triclinic'
loop_
_space_group_symop_operation_xyz
x,y,z
-x,-y,-z
loop_
_atom_site_type_symbol
_atom_site_label
_atom_site_fract_x
_atom_site_fract_y
_atom_site_fract_z
Si Si1 0.249728 0.605980 0.437024
Si Si2 0.738551 0.551967 0.086358
Si Si3 0.470056 0.731203 0.631108
Si Si4 0.558534 0.024877 0.898777
Si Si5 0.044982 0.116948 0.804375
Si Si6 0.219011 0.583551 0.983290
O O1 0.403223 0.704277 0.516414
O O2 0.362140 0.702437 0.317178
O O3 0.135083 0.304996 0.618803
O O4 0.079618 0.742743 0.287797
O O5 0.718044 0.454226 0.252266
O O6 0.808861 0.390338 0.156252
O O7 0.500000 0.500000 0.000000
O O8 0.883247 0.839158 0.922599
O O9 0.500000 0.000000 0.500000
O O10 0.664016 0.627182 0.797749
O O11 0.368296 0.842584 0.897796
O O12 0.500000 0.000000 0.000000
O O13 0.751058 0.920166 0.043407
O O14 0.000000 0.500000 0.000000
#
# Coordination Sequence:
#
# PCOD9027859 Si02
#       6
#     2   2   2   2   2   2
#     4  11  24  41  72 104 134 176 239 286 343 408
#     4  10  22  41  69  97 142 178 226 283 351 405
#     4  11  22  42  70 107 137 177 237 291 341 417
#     4  12  26  46  69  98 144 185 225 283 353 421
#     4  11  24  43  70 103 135 180 230 289 346 412
#     4  11  23  46  67  98 141 187 225 285 352 413
#
# _framework density 22.897694999999999
#
# number of rings (size 3 to 8) (size 9 to 14) (size 15 to 20)
#    0.000    1.000    1.667    6.500    4.667    0.667 
#    0.000    3.333    0.000    0.000    0.000    0.000 
#    0.000    0.000    0.000    0.000    0.000    0.000 
#
# Total GULP energy -67062.445002 kJ/mol
# GULP energy per Si atom -5588.537083 kJ/mol
# Density = 2.284558 g / cm^3
# Si number density = 22.897695 Si / 1000 Ang^3
#
#
#
# Elastic Constant Matrix: (Units=GPa)
#
#
# Indices 1 2 3 4 5 6 
#
# 1 142.6888 41.0394 63.0668 1.3035 -36.4754 14.3545
# 2 41.0394 122.4057 38.2651 -22.4150 -22.4565 22.3040
# 3 63.0668 38.2651 93.0112 -11.5269 -34.3111 6.2906
# 4 1.3035 -22.4150 -11.5269 45.1400 12.0874 -7.3171
# 5 -36.4754 -22.4565 -34.3111 12.0874 54.8850 4.7473
# 6 14.3545 22.3040 6.2906 -7.3171 4.7473 43.4630
#
#
#
# Elastic Compliance Matrix: (Units=1/GPa)
#
#
# Indices 1 2 3 4 5 6 
#
# 1 0.011593 -0.001331 -0.005854 -0.004341 0.004763 -0.003550
# 2 -0.001331 0.011174 -0.002237 0.003786 0.001847 -0.004535
# 3 -0.005854 -0.002237 0.018121 0.002090 0.006050 0.000149
# 4 -0.004341 0.003786 0.002090 0.027125 -0.006389 0.004453
# 5 0.004763 0.001847 0.006050 -0.006389 0.027982 -0.007529
# 6 -0.003550 -0.004535 0.000149 0.004453 -0.007529 0.028058
#
#
# Mechanical properties :
#
#
# Convention : Reuss Voigt Hill
#
# Bulk Modulus (GPa) = 45.36338 71.42760 58.39549
# Shear Modulus (GPa) = 33.27919 43.07988 38.17954
#
# Velocity S-wave (km/s) = 3.81647 4.34222 4.08781
# Velocity P-wave (km/s) = 6.26697 7.51012 6.91653
#
# Compressibility (1/GPa) = 0.02204421
#
# Stress axis : x y z
#
# Youngs Moduli (GPa) = 86.26035 89.49626 55.18323
#
# Poissons Ratio (x) = 0.11914 0.32303
# Poissons Ratio (y) = 0.11483 0.12344
# Poissons Ratio (z) = 0.50494 0.20020
#
# Static dielectric constant tensor:
#      x y z
#    x 1.826210 -0.063900 -0.048870 
#    y -0.063900 1.893010 0.025350 
#    z -0.048870 0.025350 1.966420 
# 
# From -- ./inp_files/496079.got.cif
#   From: 2010.05.17/outbox.cif.g08.bks.cpg/sg2_249_cif.got.tgz:496079.got - 2010.06.03 11:33:40.
