data_PCOD9027884
_publ_section_title
;
Structure prediction by ZEFSAII (Michael W. Deem and Ramdas Pophale) SiO2 
 PCOD9027884
Probable space group: P -1
;
_chemical_formula_sum "Si O2"
_cell_formula_units_Z 16
_cell_length_a 12.042341
_cell_length_b 16.898585
_cell_length_c 20.066933
_cell_angle_alpha 20.932261
_cell_angle_beta 148.931129
_cell_angle_gamma 141.879377
_cell_volume 750.938839
_symmetry_space_group_name_H-M "P -1"
_symmetry_group_IT_number 2
_symmetry_cell_setting 'triclinic'
loop_
_space_group_symop_operation_xyz
x,y,z
-x,-y,-z
loop_
_atom_site_type_symbol
_atom_site_label
_atom_site_fract_x
_atom_site_fract_y
_atom_site_fract_z
Si Si1 0.096319 0.190051 0.839865
Si Si2 0.626574 0.495043 0.669888
Si Si3 0.675262 0.464649 0.399093
Si Si4 0.449804 0.235955 0.253367
Si Si5 0.783228 0.285351 0.787420
Si Si6 0.725202 0.623376 0.817910
Si Si7 0.224498 0.383752 0.889935
Si Si8 0.045199 0.214693 0.310793
O O1 0.184256 0.351576 0.703206
O O2 0.218912 0.245927 0.926924
O O3 0.845545 0.265364 0.665671
O O4 0.135868 0.950812 0.015717
O O5 0.478875 0.425434 0.709700
O O6 0.742004 0.313283 0.823275
O O7 0.449591 0.643508 0.419552
O O8 0.800089 0.643171 0.676346
O O9 0.519572 0.374214 0.334527
O O10 0.270824 0.343359 0.127623
O O11 0.649473 0.393768 0.230022
O O12 0.500000 0.000000 0.500000
O O13 0.350924 0.240855 0.124995
O O14 0.977371 0.435507 0.746846
O O15 0.836275 0.800896 0.688407
O O16 0.835463 0.376398 0.058505
O O17 0.000000 0.000000 0.500000
#
# Coordination Sequence:
#
# PCOD9027884 Si02
#       8
#     2   2   2   2   2   2   2   2
#     4  11  23  41  71 101 135 186 220 287 352 413
#     4  10  23  42  63  99 136 177 229 290 334 415
#     4  10  22  41  69  99 138 170 234 285 337 418
#     4  11  26  42  69 100 139 184 220 294 349 405
#     4  11  24  41  66  98 140 179 227 281 351 408
#     4  10  22  43  63 101 137 169 234 282 335 418
#     4  11  24  44  66 101 140 177 241 281 342 423
#     4  10  23  42  72  95 133 187 227 286 345 409
#
# _framework density 21.306660999999998
#
# number of rings (size 3 to 8) (size 9 to 14) (size 15 to 20)
#    0.000    1.500    2.500    1.125    3.500    4.500 
#    0.000    0.000    0.000    0.000    0.000    0.000 
#    0.000    0.000    0.000    0.000    0.000    0.000 
#
# Total GULP energy -89269.870558 kJ/mol
# GULP energy per Si atom -5579.366910 kJ/mol
# Density = 2.125817 g / cm^3
# Si number density = 21.306661 Si / 1000 Ang^3
#
#
#
# Elastic Constant Matrix: (Units=GPa)
#
#
# Indices 1 2 3 4 5 6 
#
# 1 126.1037 48.8884 39.5069 -9.7842 0.3067 -5.6751
# 2 48.8884 97.5054 52.6326 13.2253 -1.6837 -2.1789
# 3 39.5069 52.6326 86.8045 2.3313 -10.4986 8.0431
# 4 -9.7842 13.2253 2.3313 28.2301 3.0820 -7.9107
# 5 0.3067 -1.6837 -10.4986 3.0820 34.8743 -2.3783
# 6 -5.6751 -2.1789 8.0431 -7.9107 -2.3783 32.6521
#
#
#
# Elastic Compliance Matrix: (Units=1/GPa)
#
#
# Indices 1 2 3 4 5 6 
#
# 1 0.011758 -0.005369 -0.002914 0.008211 -0.001674 0.004270
# 2 -0.005369 0.019153 -0.009013 -0.009972 -0.000854 0.000087
# 3 -0.002914 -0.009013 0.019469 -0.000540 0.005113 -0.005662
# 4 0.008211 -0.009972 -0.000540 0.046769 -0.004036 0.011932
# 5 -0.001674 -0.000854 0.005113 -0.004036 0.030519 -0.000362
# 6 0.004270 0.000087 -0.005662 0.011932 -0.000362 0.035633
#
#
# Mechanical properties :
#
#
# Convention : Reuss Voigt Hill
#
# Bulk Modulus (GPa) = 63.34539 65.82991 64.58765
# Shear Modulus (GPa) = 24.61158 30.44368 27.52763
#
# Velocity S-wave (km/s) = 3.40238 3.78409 3.59830
# Velocity P-wave (km/s) = 6.72531 7.07502 6.90238
#
# Compressibility (1/GPa) = 0.01578647
#
# Stress axis : x y z
#
# Youngs Moduli (GPa) = 85.04879 52.21180 51.36390
#
# Poissons Ratio (x) = 0.28034 0.14970
# Poissons Ratio (y) = 0.45665 0.46293
# Poissons Ratio (z) = 0.24787 0.47058
#
# Static dielectric constant tensor:
#      x y z
#    x 1.841700 -0.016300 0.014580 
#    y -0.016300 1.772820 0.000790 
#    z 0.014580 0.000790 1.800670 
# 
# From -- ./inp_files/595965.got.cif
#   From: 2010.05.17/outbox.cif.g08.bks.cpg/sg2_298_cif.got.tgz:595965.got - 2010.06.03 11:33:40.
