data_PCOD9027191
_publ_section_title
;
Structure prediction by ZEFSAII (Michael W. Deem and Ramdas Pophale) SiO2 
 PCOD9027191
Probable space group: P -1
;
_chemical_formula_sum "Si O2"
_cell_formula_units_Z 14
_cell_length_a 17.125561
_cell_length_b 5.378567
_cell_length_c 9.713952
_cell_angle_alpha 105.153881
_cell_angle_beta 129.729707
_cell_angle_gamma 103.551175
_cell_volume 558.725093
_symmetry_space_group_name_H-M "P -1"
_symmetry_group_IT_number 2
_symmetry_cell_setting 'triclinic'
loop_
_space_group_symop_operation_xyz
x,y,z
-x,-y,-z
loop_
_atom_site_type_symbol
_atom_site_label
_atom_site_fract_x
_atom_site_fract_y
_atom_site_fract_z
Si Si1 0.508959 0.210237 0.169116
Si Si2 0.690645 0.688968 0.109965
Si Si3 0.255217 0.457737 0.129704
Si Si4 0.988766 0.243891 0.852853
Si Si5 0.770986 0.629401 0.494278
Si Si6 0.094613 0.665742 0.510437
Si Si7 0.391802 0.136519 0.303323
O O1 0.648022 0.405742 0.402335
O O2 0.434394 0.049934 0.199494
O O3 0.445279 0.393902 0.079388
O O4 0.500000 0.000000 0.000000
O O5 0.714234 0.636779 0.284702
O O6 0.780995 0.053734 0.250025
O O7 0.740413 0.561763 0.034692
O O8 0.290818 0.214937 0.177488
O O9 0.342557 0.834533 0.302478
O O10 0.121669 0.308037 0.015317
O O11 0.963920 0.242175 0.661155
O O12 0.861024 0.949080 0.711987
O O13 0.000000 0.500000 0.000000
O O14 0.861903 0.525272 0.548492
O O15 0.000000 0.500000 0.500000
O O16 0.500000 0.500000 0.500000
#
# Coordination Sequence:
#
# PCOD9027191 Si02
#       7
#     2   2   2   2   2   2   2
#     4  11  22  41  70 103 140 179 237 303 370 427
#     4  10  22  41  67 103 134 183 230 300 366 424
#     4  11  25  47  74  99 144 187 244 295 363 436
#     4  11  28  45  67 101 144 194 237 300 361 433
#     4  11  23  41  66 103 139 182 236 298 362 430
#     4  11  23  41  71  99 137 182 243 292 357 430
#     4  11  27  47  73 104 138 196 241 300 360 443
#
# _framework density 25.057047000000001
#
# number of rings (size 3 to 8) (size 9 to 14) (size 15 to 20)
#    0.000    1.143    1.429    3.429   10.000    5.143 
#    0.000    0.000    0.000    0.000    0.000    0.000 
#    0.000    0.000    0.000    0.000    0.000    0.000 
#
# Total GULP energy -78116.130805 kJ/mol
# GULP energy per Si atom -5579.723629 kJ/mol
# Density = 2.500002 g / cm^3
# Si number density = 25.057047 Si / 1000 Ang^3
#
#
#
# Elastic Constant Matrix: (Units=GPa)
#
#
# Indices 1 2 3 4 5 6 
#
# 1 134.7120 18.2322 31.5569 -15.0807 18.3705 -7.9952
# 2 18.2322 65.3565 10.5726 1.3020 4.9322 11.7201
# 3 31.5569 10.5726 78.0138 25.2983 3.3794 -5.5696
# 4 -15.0807 1.3020 25.2983 32.3882 -15.9475 -1.3328
# 5 18.3705 4.9322 3.3794 -15.9475 39.1016 -2.9335
# 6 -7.9952 11.7201 -5.5696 -1.3328 -2.9335 36.8355
#
#
#
# Elastic Compliance Matrix: (Units=1/GPa)
#
#
# Indices 1 2 3 4 5 6 
#
# 1 0.010934 -0.002543 -0.007751 0.011763 0.000839 0.002503
# 2 -0.002543 0.017569 -0.000796 -0.002817 -0.002594 -0.006571
# 3 -0.007751 -0.000796 0.025881 -0.028782 -0.010187 0.000631
# 4 0.011763 -0.002817 -0.028782 0.072486 0.027171 0.003884
# 5 0.000839 -0.002594 -0.010187 0.027171 0.037729 0.003455
# 6 0.002503 -0.006571 0.000631 0.003884 0.003455 0.030293
#
#
# Mechanical properties :
#
#
# Convention : Reuss Voigt Hill
#
# Bulk Modulus (GPa) = 31.05040 44.31173 37.68106
# Shear Modulus (GPa) = 21.94857 36.17978 29.06417
#
# Velocity S-wave (km/s) = 2.96285 3.80399 3.40945
# Velocity P-wave (km/s) = 4.91156 6.08412 5.52901
#
# Compressibility (1/GPa) = 0.03220571
#
# Stress axis : x y z
#
# Youngs Moduli (GPa) = 91.45772 56.91844 38.63833
#
# Poissons Ratio (x) = 0.14474 0.29947
# Poissons Ratio (y) = 0.23257 0.03074
# Poissons Ratio (z) = 0.70885 0.04529
#
# Static dielectric constant tensor:
#      x y z
#    x 2.035300 -0.087500 0.037060 
#    y -0.087500 2.198650 -0.034520 
#    z 0.037060 -0.034520 2.130750 
# 
# From -- ./inp_files/68790.got.cif
#   From: 2010.05.17/outbox.cif.g08.bks.cpg/sg2_35_cif.got.tgz:68790.got - 2010.06.03 11:33:40.
