data_PCOD9027018
_publ_section_title
;
Structure prediction by ZEFSAII (Michael W. Deem and Ramdas Pophale) SiO2 
 PCOD9027018
Probable space group: P -1
;
_chemical_formula_sum "Si O2"
_cell_formula_units_Z 16
_cell_length_a 12.352861
_cell_length_b 18.231069
_cell_length_c 9.130050
_cell_angle_alpha 149.001193
_cell_angle_beta 124.694986
_cell_angle_gamma 41.856432
_cell_volume 692.115858
_symmetry_space_group_name_H-M "P -1"
_symmetry_group_IT_number 2
_symmetry_cell_setting 'triclinic'
loop_
_space_group_symop_operation_xyz
x,y,z
-x,-y,-z
loop_
_atom_site_type_symbol
_atom_site_label
_atom_site_fract_x
_atom_site_fract_y
_atom_site_fract_z
Si Si1 0.494261 0.935376 0.660416
Si Si2 0.093222 0.621596 0.352883
Si Si3 0.719423 0.223589 0.284260
Si Si4 0.844178 0.595668 0.246197
Si Si5 0.762019 0.008472 0.667602
Si Si6 0.890774 0.431856 0.284433
Si Si7 0.985789 0.058875 0.756410
Si Si8 0.465274 0.257025 0.346026
O O1 0.685203 0.788023 0.506490
O O2 0.378452 0.981626 0.511824
O O3 0.461944 0.844098 0.613217
O O4 0.463536 0.112197 0.003310
O O5 0.225000 0.661303 0.544528
O O6 0.011039 0.581581 0.349081
O O7 0.171335 0.459287 0.021093
O O8 0.924945 0.804395 0.470590
O O9 0.563039 0.310443 0.419085
O O10 0.708629 0.114507 0.960467
O O11 0.868604 0.086143 0.273259
O O12 0.857607 0.452269 0.118674
O O13 0.820942 0.099171 0.765472
O O14 0.716577 0.567624 0.460260
O O15 0.000000 0.500000 0.500000
O O16 0.981893 0.230294 0.052759
O O17 0.000000 0.000000 0.500000
#
# Coordination Sequence:
#
# PCOD9027018 Si02
#       8
#     2   2   2   2   2   2   2   2
#     4  10  23  43  65  97 132 177 221 271 334 393
#     4  10  22  41  66  94 134 173 217 270 333 391
#     4  11  24  43  68  96 137 174 222 274 332 399
#     4  10  23  42  65  97 131 173 217 277 329 395
#     4  11  24  41  67  98 135 177 224 269 334 398
#     4  11  26  40  70  99 131 167 224 279 329 389
#     4  11  24  43  71 100 133 179 224 272 331 397
#     4  10  24  43  68  95 134 173 220 279 330 393
#
# _framework density 23.117518
#
# number of rings (size 3 to 8) (size 9 to 14) (size 15 to 20)
#    0.000    1.500    0.000    4.500   12.250    3.000 
#    2.250    4.375    0.000    0.000    0.000    0.000 
#    0.000    0.000    0.000    0.000    0.000    0.000 
#
# Total GULP energy -89527.752213 kJ/mol
# GULP energy per Si atom -5595.484513 kJ/mol
# Density = 2.306490 g / cm^3
# Si number density = 23.117518 Si / 1000 Ang^3
#
#
#
# Elastic Constant Matrix: (Units=GPa)
#
#
# Indices 1 2 3 4 5 6 
#
# 1 159.8285 23.3948 33.4498 -0.8097 -15.2764 6.5387
# 2 23.3948 50.5979 10.5484 -21.1564 -4.3122 3.9500
# 3 33.4498 10.5484 91.0917 -13.2378 -9.5361 12.5684
# 4 -0.8097 -21.1564 -13.2378 31.4691 9.5248 3.7435
# 5 -15.2764 -4.3122 -9.5361 9.5248 37.5004 -3.5259
# 6 6.5387 3.9500 12.5684 3.7435 -3.5259 22.8273
#
#
#
# Elastic Compliance Matrix: (Units=1/GPa)
#
#
# Indices 1 2 3 4 5 6 
#
# 1 0.007908 -0.005363 -0.003038 -0.005967 0.003522 0.001858
# 2 -0.005363 0.032968 0.002894 0.026148 -0.005321 -0.010872
# 3 -0.003038 0.002894 0.014282 0.009082 -0.000431 -0.009050
# 4 -0.005967 0.026148 0.009082 0.059651 -0.014125 -0.019780
# 5 0.003522 -0.005321 -0.000431 -0.014125 0.031659 0.007355
# 6 0.001858 -0.010872 -0.009050 -0.019780 0.007355 0.054519
#
#
# Mechanical properties :
#
#
# Convention : Reuss Voigt Hill
#
# Bulk Modulus (GPa) = 22.65217 48.47825 35.56521
# Shear Modulus (GPa) = 22.05423 33.96771 28.01097
#
# Velocity S-wave (km/s) = 3.09205 3.83737 3.48469
# Velocity P-wave (km/s) = 4.75054 6.37571 5.62216
#
# Compressibility (1/GPa) = 0.04414588
#
# Stress axis : x y z
#
# Youngs Moduli (GPa) = 126.45686 30.33235 70.01990
#
# Poissons Ratio (x) = 0.16267 0.21269
# Poissons Ratio (y) = 0.67816 -0.20267
# Poissons Ratio (z) = 0.38411 -0.08780
#
# Static dielectric constant tensor:
#      x y z
#    x 1.904800 0.055260 0.007820 
#    y 0.055260 1.927630 -0.039420 
#    z 0.007820 -0.039420 1.822860 
# 
# From -- ./inp_files/280280.got.cif
#   From: 2010.05.17/outbox.cif.g08.bks.cpg/sg2_141_cif.got.tgz:280280.got - 2010.06.03 11:33:40.
