data_PCOD9027010
_publ_section_title
;
Structure prediction by ZEFSAII (Michael W. Deem and Ramdas Pophale) SiO2 
 PCOD9027010
Probable space group: P -1
;
_chemical_formula_sum "Si O2"
_cell_formula_units_Z 15
_cell_length_a 16.276366
_cell_length_b 16.234064
_cell_length_c 11.342672
_cell_angle_alpha 131.809147
_cell_angle_beta 46.736353
_cell_angle_gamma 162.742963
_cell_volume 646.435256
_symmetry_space_group_name_H-M "P -1"
_symmetry_group_IT_number 2
_symmetry_cell_setting 'triclinic'
loop_
_space_group_symop_operation_xyz
x,y,z
-x,-y,-z
loop_
_atom_site_type_symbol
_atom_site_label
_atom_site_fract_x
_atom_site_fract_y
_atom_site_fract_z
Si Si1 0.965006 0.210769 0.976405
Si Si2 0.729973 0.153160 0.652243
Si Si3 0.696254 0.630544 0.682223
Si Si4 0.521271 0.352009 0.964186
Si Si5 0.574790 0.302542 0.619231
Si Si6 0.000000 0.500000 0.500000
Si Si7 0.861753 0.361167 0.131172
Si Si8 0.829034 0.815929 0.374918
O O1 0.148381 0.368732 0.066078
O O2 0.111631 0.258582 0.786325
O O3 0.656343 0.884123 0.995851
O O4 0.963031 0.333444 0.052689
O O5 0.757048 0.262489 0.619547
O O6 0.006009 0.421313 0.714729
O O7 0.655811 0.971480 0.490403
O O8 0.471612 0.940327 0.796792
O O9 0.551945 0.588155 0.873671
O O10 0.700519 0.514044 0.620253
O O11 0.500568 0.457399 0.590255
O O12 0.003034 0.957690 0.668828
O O13 0.447749 0.247586 0.806938
O O14 0.801748 0.416686 0.552783
O O15 0.000000 0.500000 0.000000
O O16 0.000000 0.000000 0.500000
#
# Coordination Sequence:
#
# PCOD9027010 Si02
#       8
#     2   2   2   2   2   1   2   2
#     4  10  22  41  66  94 131 179 232 273 349 429
#     4  12  28  45  68 104 137 188 244 279 359 428
#     4  10  24  42  66 103 135 173 233 287 346 432
#     4  10  23  41  68  97 133 184 220 282 355 424
#     4  12  26  42  72 100 147 179 233 293 354 419
#     4  12  26  46  68 104 146 192 230 288 362 420
#     4  12  26  47  69 101 143 186 239 297 350 424
#     4  10  22  43  69  98 130 174 230 288 358 409
#
# _framework density 23.204180999999998
#
# number of rings (size 3 to 8) (size 9 to 14) (size 15 to 20)
#    0.000    1.067    1.333    4.000    5.600    2.133 
#    0.000    4.000    0.000    0.000    0.000    0.000 
#    0.000    0.000    0.000    0.000    0.000    0.000 
#
# Total GULP energy -83583.526168 kJ/mol
# GULP energy per Si atom -5572.235078 kJ/mol
# Density = 2.315137 g / cm^3
# Si number density = 23.204181 Si / 1000 Ang^3
#
#
#
# Elastic Constant Matrix: (Units=GPa)
#
#
# Indices 1 2 3 4 5 6 
#
# 1 74.6165 23.7442 41.8239 0.8047 -18.5403 -15.7885
# 2 23.7442 114.3320 15.3825 -3.8501 -12.0329 -4.6374
# 3 41.8239 15.3825 105.1951 22.0883 11.0322 -8.6186
# 4 0.8047 -3.8501 22.0883 35.4116 -9.7874 2.1856
# 5 -18.5403 -12.0329 11.0322 -9.7874 30.4053 -1.9126
# 6 -15.7885 -4.6374 -8.6186 2.1856 -1.9126 27.6119
#
#
#
# Elastic Compliance Matrix: (Units=1/GPa)
#
#
# Indices 1 2 3 4 5 6 
#
# 1 0.042105 0.001078 -0.025826 0.026684 0.045144 0.017211
# 2 0.001078 0.010102 -0.003798 0.005549 0.007897 0.001235
# 3 -0.025826 -0.003798 0.029679 -0.028314 -0.037542 -0.006500
# 4 0.026684 0.005549 -0.028314 0.058806 0.048049 0.006026
# 5 0.045144 0.007897 -0.037542 0.048049 0.093770 0.018113
# 6 0.017211 0.001235 -0.006500 0.006026 0.018113 0.045014
#
#
# Mechanical properties :
#
#
# Convention : Reuss Voigt Hill
#
# Bulk Modulus (GPa) = 40.32985 50.67164 45.50074
# Shear Modulus (GPa) = 14.49984 32.89863 23.69924
#
# Velocity S-wave (km/s) = 2.50247 3.76944 3.19930
# Velocity P-wave (km/s) = 5.07622 6.38980 5.77051
#
# Compressibility (1/GPa) = 0.02479553
#
# Stress axis : x y z
#
# Youngs Moduli (GPa) = 23.74987 98.99357 33.69365
#
# Poissons Ratio (x) = -0.10672 0.87016
# Poissons Ratio (y) = -0.02560 0.12797
# Poissons Ratio (z) = 0.61335 0.37598
#
# Static dielectric constant tensor:
#      x y z
#    x 1.807310 0.024170 0.051240 
#    y 0.024170 1.886740 -0.038000 
#    z 0.051240 -0.038000 1.912090 
# 
# From -- ./inp_files/454948.got.cif
#   From: 2010.05.17/outbox.cif.g08.bks.cpg/sg2_228_cif.got.tgz:454948.got - 2010.06.03 11:33:40.
