data_PCOD9027278
_publ_section_title
;
Structure prediction by ZEFSAII (Michael W. Deem and Ramdas Pophale) SiO2 
 PCOD9027278
Probable space group: P -1
;
_chemical_formula_sum "Si O2"
_cell_formula_units_Z 14
_cell_length_a 23.108214
_cell_length_b 5.286662
_cell_length_c 19.258691
_cell_angle_alpha 61.971833
_cell_angle_beta 16.288943
_cell_angle_gamma 64.701002
_cell_volume 579.830531
_symmetry_space_group_name_H-M "P -1"
_symmetry_group_IT_number 2
_symmetry_cell_setting 'triclinic'
loop_
_space_group_symop_operation_xyz
x,y,z
-x,-y,-z
loop_
_atom_site_type_symbol
_atom_site_label
_atom_site_fract_x
_atom_site_fract_y
_atom_site_fract_z
Si Si1 0.202111 0.375984 0.125781
Si Si2 0.379008 0.271402 0.083322
Si Si3 0.241562 0.438853 0.832378
Si Si4 0.141897 0.910910 0.661770
Si Si5 0.207733 0.356666 0.413723
Si Si6 0.393146 0.037007 0.826132
Si Si7 0.853650 0.994333 0.103123
O O1 0.273958 0.250576 0.132358
O O2 0.264438 0.170239 0.019310
O O3 0.960361 0.426600 0.400776
O O4 0.320299 0.699874 0.941364
O O5 0.219825 0.321589 0.321779
O O6 0.561811 0.531618 0.840660
O O7 0.500000 0.000000 0.000000
O O8 0.303137 0.770214 0.732312
O O9 0.351701 0.224734 0.782183
O O10 0.996177 0.392288 0.141534
O O11 0.243256 0.323365 0.766675
O O12 0.150805 0.060754 0.557919
O O13 0.995527 0.072086 0.861721
O O14 0.367939 0.918564 0.432171
O O15 0.000000 0.000000 0.000000
#
# Coordination Sequence:
#
# PCOD9027278 Si02
#       7
#     2   2   2   2   2   2   2
#     4  12  26  41  66  91 134 166 222 269 319 378
#     4  11  26  41  65  90 133 170 221 272 322 383
#     4  10  22  41  67  94 131 168 206 266 312 385
#     4  10  23  39  71  90 131 168 218 262 320 383
#     4  11  23  45  62  94 126 174 216 269 327 375
#     4  12  24  41  66 100 124 171 218 264 317 383
#     4  10  22  43  70  98 132 170 207 261 322 382
#
# _framework density 24.144984000000001
#
# number of rings (size 3 to 8) (size 9 to 14) (size 15 to 20)
#    0.857    0.286    2.857    3.429    6.000    2.857 
#    0.000    1.429    0.000    0.000    0.000    0.000 
#    0.000    0.000    0.000    0.000    0.000    0.000 
#
# Total GULP energy -78333.199463 kJ/mol
# GULP energy per Si atom -5595.228533 kJ/mol
# Density = 2.409003 g / cm^3
# Si number density = 24.144984 Si / 1000 Ang^3
#
#
#
# Elastic Constant Matrix: (Units=GPa)
#
#
# Indices 1 2 3 4 5 6 
#
# 1 113.8556 15.2883 24.6984 7.4715 -3.8665 -2.5034
# 2 15.2883 96.5639 7.3770 3.1902 7.7013 12.1226
# 3 24.6984 7.3770 108.4450 0.4972 -2.4377 4.6656
# 4 7.4715 3.1902 0.4972 26.5059 -6.6613 1.5982
# 5 -3.8665 7.7013 -2.4377 -6.6613 27.1867 11.1098
# 6 -2.5034 12.1226 4.6656 1.5982 11.1098 41.5377
#
#
#
# Elastic Compliance Matrix: (Units=1/GPa)
#
#
# Indices 1 2 3 4 5 6 
#
# 1 0.009647 -0.001476 -0.002126 -0.002448 0.000505 0.001210
# 2 -0.001476 0.011202 -0.000372 -0.001462 -0.002742 -0.002527
# 3 -0.002126 -0.000372 0.009829 0.000947 0.001561 -0.001578
# 4 -0.002448 -0.001462 0.000947 0.041973 0.012377 -0.004753
# 5 0.000505 -0.002742 0.001561 0.012377 0.045729 -0.012052
# 6 0.001210 -0.002527 -0.001578 -0.004753 -0.012052 0.028468
#
#
# Mechanical properties :
#
#
# Convention : Reuss Voigt Hill
#
# Bulk Modulus (GPa) = 43.99542 45.95467 44.97504
# Shear Modulus (GPa) = 30.79317 37.14612 33.96964
#
# Velocity S-wave (km/s) = 3.57507 3.92658 3.75494
# Velocity P-wave (km/s) = 5.94158 6.29535 6.12102
#
# Compressibility (1/GPa) = 0.02272964
#
# Stress axis : x y z
#
# Youngs Moduli (GPa) = 103.66039 89.26818 101.73541
#
# Poissons Ratio (x) = 0.13178 0.21630
# Poissons Ratio (y) = 0.15303 0.03785
# Poissons Ratio (z) = 0.22040 0.03321
#
# Static dielectric constant tensor:
#      x y z
#    x 1.873920 0.037980 -0.008490 
#    y 0.037980 1.989140 -0.039430 
#    z -0.008490 -0.039430 1.943270 
# 
# From -- ./inp_files/41823.got.cif
#   From: 2010.05.17/outbox.cif.g08.bks.cpg/sg2_21_cif.got.tgz:41823.got - 2010.06.03 11:33:40.
