data_PCOD9027751
_publ_section_title
;
Structure prediction by ZEFSAII (Michael W. Deem and Ramdas Pophale) SiO2 
 PCOD9027751
Probable space group: P -1
;
_chemical_formula_sum "Si O2"
_cell_formula_units_Z 16
_cell_length_a 12.400689
_cell_length_b 8.075264
_cell_length_c 11.796945
_cell_angle_alpha 123.609563
_cell_angle_beta 68.550195
_cell_angle_gamma 70.893681
_cell_volume 668.498337
_symmetry_space_group_name_H-M "P -1"
_symmetry_group_IT_number 2
_symmetry_cell_setting 'triclinic'
loop_
_space_group_symop_operation_xyz
x,y,z
-x,-y,-z
loop_
_atom_site_type_symbol
_atom_site_label
_atom_site_fract_x
_atom_site_fract_y
_atom_site_fract_z
Si Si1 0.582225 0.935027 0.824326
Si Si2 0.323427 0.307990 0.680429
Si Si3 0.729836 0.218250 0.685684
Si Si4 0.643111 0.475458 0.473227
Si Si5 0.602383 0.557121 0.080448
Si Si6 0.899956 0.749743 0.719050
Si Si7 0.055830 0.354409 0.710329
Si Si8 0.068696 0.948552 0.659452
O O1 0.614090 0.685456 0.656568
O O2 0.726313 0.903956 0.799989
O O3 0.481712 0.175044 0.861723
O O4 0.500000 0.000000 0.000000
O O5 0.311210 0.458273 0.631393
O O6 0.309866 0.454766 0.852417
O O7 0.176749 0.331012 0.734460
O O8 0.500000 0.000000 0.500000
O O9 0.545010 0.399211 0.794500
O O10 0.837162 0.223378 0.560141
O O11 0.822797 0.901048 0.519813
O O12 0.710366 0.320149 0.857574
O O13 0.500000 0.500000 0.500000
O O14 0.786906 0.179602 0.358115
O O15 0.987239 0.250011 0.767897
O O16 0.000000 0.500000 0.500000
O O17 0.936590 0.625782 0.785071
O O18 0.968100 0.890786 0.730326
#
# Coordination Sequence:
#
# PCOD9027751 Si02
#       8
#     2   2   2   2   2   2   2   2
#     4  12  27  45  71 109 146 183 237 302 362 415
#     4  12  19  37  65 101 142 189 238 290 343 428
#     4   9  20  39  64 101 140 181 234 291 354 414
#     4  12  22  40  67 105 141 184 241 289 345 425
#     4  11  21  38  64 101 152 183 229 298 363 406
#     4  12  23  45  71 107 145 182 238 303 343 430
#     4  10  22  42  69 103 138 183 248 288 351 418
#     4  10  22  41  69 105 134 182 245 287 351 414
#
# _framework density 23.934239999999999
#
# number of rings (size 3 to 8) (size 9 to 14) (size 15 to 20)
#    0.750    0.250    5.000    3.000    0.000    1.500 
#    0.000    0.000    0.000    3.000    3.250    0.000 
#    0.000    0.000    0.000    0.000    0.000    0.000 
#
# Total GULP energy -89446.596893 kJ/mol
# GULP energy per Si atom -5590.412306 kJ/mol
# Density = 2.387977 g / cm^3
# Si number density = 23.934240 Si / 1000 Ang^3
#
#
#
# Elastic Constant Matrix: (Units=GPa)
#
#
# Indices 1 2 3 4 5 6 
#
# 1 198.3925 61.3545 43.5785 -18.9823 -3.2031 -1.7249
# 2 61.3545 145.9990 22.4436 -23.5063 -3.2009 -3.8108
# 3 43.5785 22.4436 76.8569 -29.0422 9.6694 -0.9435
# 4 -18.9823 -23.5063 -29.0422 26.3861 2.6019 -3.7543
# 5 -3.2031 -3.2009 9.6694 2.6019 39.4124 -11.0431
# 6 -1.7249 -3.8108 -0.9435 -3.7543 -11.0431 41.6258
#
#
#
# Elastic Compliance Matrix: (Units=1/GPa)
#
#
# Indices 1 2 3 4 5 6 
#
# 1 0.006473 -0.002385 -0.003835 -0.001806 0.001444 0.000183
# 2 -0.002385 0.008988 0.002102 0.008837 -0.000133 0.001533
# 3 -0.003835 0.002102 0.026837 0.029633 -0.008375 0.001093
# 4 -0.001806 0.008837 0.029633 0.078926 -0.010286 0.005795
# 5 0.001444 -0.000133 -0.008375 -0.010286 0.030155 0.006930
# 6 0.000183 0.001533 0.001093 0.005795 0.006930 0.026557
#
#
# Mechanical properties :
#
#
# Convention : Reuss Voigt Hill
#
# Bulk Modulus (GPa) = 29.35872 75.11131 52.23501
# Shear Modulus (GPa) = 25.31317 41.07633 33.19475
#
# Velocity S-wave (km/s) = 3.25562 4.14722 3.72817
# Velocity P-wave (km/s) = 5.14054 7.37449 6.35642
#
# Compressibility (1/GPa) = 0.03406143
#
# Stress axis : x y z
#
# Youngs Moduli (GPa) = 154.49690 111.25683 37.26265
#
# Poissons Ratio (x) = 0.26532 0.14292
# Poissons Ratio (y) = 0.36844 -0.07833
# Poissons Ratio (z) = 0.59256 -0.23389
#
# Static dielectric constant tensor:
#      x y z
#    x 1.914010 0.024470 -0.011230 
#    y 0.024470 1.963230 0.042890 
#    z -0.011230 0.042890 1.918510 
# 
# From -- ./inp_files/415375.got.cif
#   From: 2010.05.17/outbox.cif.g08.bks.cpg/sg2_208_cif.got.tgz:415375.got - 2010.06.03 11:33:40.
