data_PCOD9027953
_publ_section_title
;
Structure prediction by ZEFSAII (Michael W. Deem and Ramdas Pophale) SiO2 
 PCOD9027953
Probable space group: P -1
;
_chemical_formula_sum "Si O2"
_cell_formula_units_Z 14
_cell_length_a 11.763146
_cell_length_b 12.074023
_cell_length_c 5.370066
_cell_angle_alpha 50.191369
_cell_angle_beta 87.274772
_cell_angle_gamma 77.703014
_cell_volume 568.434377
_symmetry_space_group_name_H-M "P -1"
_symmetry_group_IT_number 2
_symmetry_cell_setting 'triclinic'
loop_
_space_group_symop_operation_xyz
x,y,z
-x,-y,-z
loop_
_atom_site_type_symbol
_atom_site_label
_atom_site_fract_x
_atom_site_fract_y
_atom_site_fract_z
Si Si1 0.451686 0.405238 0.431735
Si Si2 0.681914 0.340175 0.287203
Si Si3 0.722333 0.618373 0.132055
Si Si4 0.223586 0.096908 0.901717
Si Si5 0.071044 0.332512 0.256150
Si Si6 0.368106 0.087638 0.416112
Si Si7 0.909061 0.107454 0.537843
O O1 0.500000 0.500000 0.500000
O O2 0.571634 0.291889 0.494550
O O3 0.348239 0.348326 0.652684
O O4 0.385995 0.533073 0.070973
O O5 0.738205 0.444420 0.317502
O O6 0.780102 0.212837 0.332396
O O7 0.839995 0.669636 0.980436
O O8 0.633813 0.737420 0.794353
O O9 0.151241 0.261845 0.584211
O O10 0.302811 0.041788 0.728862
O O11 0.298261 0.078626 0.176812
O O12 0.129397 0.996677 0.099501
O O13 0.980722 0.230004 0.406779
O O14 0.000000 0.500000 0.000000
O O15 0.500000 0.000000 0.500000
O O16 0.000000 0.000000 0.500000
#
# Coordination Sequence:
#
# PCOD9027953 Si02
#       7
#     2   2   2   2   2   2   2
#     4   9  21  40  66 104 143 190 251 322 390 472
#     4  10  22  43  70 105 145 197 253 322 396 475
#     4  10  22  41  70 105 144 187 265 316 387 463
#     4  11  27  50  75 114 159 204 269 319 399 483
#     4  11  24  48  76 108 151 206 265 326 387 464
#     4  11  26  47  80 113 158 209 255 329 404 480
#     4  12  26  48  76 109 157 209 265 325 398 475
#
# _framework density 24.629052999999999
#
# number of rings (size 3 to 8) (size 9 to 14) (size 15 to 20)
#    0.000    1.429    1.429    2.571    6.000    4.571 
#    7.714    5.714    0.000    0.000    0.000    0.000 
#    0.000    0.000    0.000    0.000    0.000    0.000 
#
# Total GULP energy -78016.928472 kJ/mol
# GULP energy per Si atom -5572.637748 kJ/mol
# Density = 2.457300 g / cm^3
# Si number density = 24.629053 Si / 1000 Ang^3
#
#
#
# Elastic Constant Matrix: (Units=GPa)
#
#
# Indices 1 2 3 4 5 6 
#
# 1 183.7100 86.7534 91.7227 4.8222 -10.2190 -37.2616
# 2 86.7534 129.1255 74.8225 -4.0690 5.3521 -42.4023
# 3 91.7227 74.8225 148.1853 2.5946 -24.0481 -21.7147
# 4 4.8222 -4.0690 2.5946 52.0647 -8.1892 -3.6248
# 5 -10.2190 5.3521 -24.0481 -8.1892 47.6100 0.0007
# 6 -37.2616 -42.4023 -21.7147 -3.6248 0.0007 65.6564
#
#
#
# Elastic Compliance Matrix: (Units=1/GPa)
#
#
# Indices 1 2 3 4 5 6 
#
# 1 0.009380 -0.003706 -0.003594 -0.000786 0.000479 0.001697
# 2 -0.003706 0.015852 -0.005645 0.001492 -0.005172 0.006350
# 3 -0.003594 -0.005645 0.012616 0.000143 0.006260 -0.001505
# 4 -0.000786 0.001492 0.000143 0.020005 0.003177 0.001669
# 5 0.000479 -0.005172 0.006260 0.003177 0.025397 -0.000823
# 6 0.001697 0.006350 -0.001505 0.001669 -0.000823 0.019889
#
#
# Mechanical properties :
#
#
# Convention : Reuss Voigt Hill
#
# Bulk Modulus (GPa) = 83.63300 107.51313 95.57307
# Shear Modulus (GPa) = 37.58964 46.91437 42.25201
#
# Velocity S-wave (km/s) = 3.91094 4.36918 4.14640
# Velocity P-wave (km/s) = 7.37731 8.31870 7.86211
#
# Compressibility (1/GPa) = 0.01195700
#
# Stress axis : x y z
#
# Youngs Moduli (GPa) = 106.61421 63.08321 79.26381
#
# Poissons Ratio (x) = 0.23381 0.28487
# Poissons Ratio (y) = 0.39515 0.44745
# Poissons Ratio (z) = 0.38317 0.35611
#
# Static dielectric constant tensor:
#      x y z
#    x 2.064280 0.080500 -0.012340 
#    y 0.080500 2.080650 0.026410 
#    z -0.012340 0.026410 2.001370 
# 
# From -- ./inp_files/76924.got.cif
#   From: 2010.05.17/outbox.cif.g08.bks.cpg/sg2_39_cif.got.tgz:76924.got - 2010.06.03 11:33:40.
