data_PCOD9027484
_publ_section_title
;
Structure prediction by ZEFSAII (Michael W. Deem and Ramdas Pophale) SiO2 
 PCOD9027484
Probable space group: P -1
;
_chemical_formula_sum "Si O2"
_cell_formula_units_Z 16
_cell_length_a 11.533531
_cell_length_b 14.821485
_cell_length_c 9.397438
_cell_angle_alpha 103.587105
_cell_angle_beta 94.365060
_cell_angle_gamma 28.226049
_cell_volume 707.943352
_symmetry_space_group_name_H-M "P -1"
_symmetry_group_IT_number 2
_symmetry_cell_setting 'triclinic'
loop_
_space_group_symop_operation_xyz
x,y,z
-x,-y,-z
loop_
_atom_site_type_symbol
_atom_site_label
_atom_site_fract_x
_atom_site_fract_y
_atom_site_fract_z
Si Si1 0.003519 0.360410 0.330896
Si Si2 0.929973 0.133156 0.647897
Si Si3 0.622147 0.516044 0.157610
Si Si4 0.430702 0.285808 0.002174
Si Si5 0.217120 0.407125 0.326380
Si Si6 0.454064 0.109631 0.731505
Si Si7 0.035914 0.071100 0.953016
Si Si8 0.675274 0.997694 0.405907
O O1 0.793609 0.454387 0.258593
O O2 0.920152 0.428890 0.512817
O O3 0.048228 0.433600 0.308175
O O4 0.277172 0.116554 0.261465
O O5 0.629232 0.342316 0.732681
O O6 0.062603 0.028030 0.774571
O O7 0.060397 0.134675 0.604797
O O8 0.000000 0.000000 0.500000
O O9 0.557356 0.631011 0.063445
O O10 0.795710 0.309074 0.040361
O O11 0.340991 0.265061 0.886057
O O12 0.271658 0.408527 0.177209
O O13 0.714187 0.061679 0.003578
O O14 0.478132 0.188173 0.349388
O O15 0.298008 0.126630 0.693146
O O16 0.532570 0.096412 0.581299
O O17 0.000000 0.000000 0.000000
#
# Coordination Sequence:
#
# PCOD9027484 Si02
#       8
#     2   2   2   2   2   2   2   2
#     4  10  22  43  66 103 147 183 234 288 356 424
#     4  12  25  44  72 104 143 192 239 292 350 425
#     4  12  27  47  74 103 146 188 236 294 358 425
#     4  12  24  44  76 105 141 186 237 292 367 413
#     4  10  22  41  68 104 144 184 231 297 350 425
#     4  10  22  43  71 105 143 189 228 301 356 417
#     4  12  27  50  70 103 146 187 239 297 352 422
#     4  10  22  42  70 101 142 190 241 286 356 426
#
# _framework density 22.600677000000001
#
# number of rings (size 3 to 8) (size 9 to 14) (size 15 to 20)
#    0.000    1.000    3.750    2.625    0.000    5.500 
#    0.000    1.250    0.000    0.000    0.000    0.000 
#    0.000    0.000    0.000    0.000    0.000    0.000 
#
# Total GULP energy -89589.046599 kJ/mol
# GULP energy per Si atom -5599.315412 kJ/mol
# Density = 2.254924 g / cm^3
# Si number density = 22.600677 Si / 1000 Ang^3
#
#
#
# Elastic Constant Matrix: (Units=GPa)
#
#
# Indices 1 2 3 4 5 6 
#
# 1 150.5191 39.0061 62.0864 5.0985 6.4609 -23.0057
# 2 39.0061 94.3805 40.5181 0.5894 0.4244 -11.4206
# 3 62.0864 40.5181 121.3055 10.2946 19.9812 2.0054
# 4 5.0985 0.5894 10.2946 27.7600 -9.1126 7.4908
# 5 6.4609 0.4244 19.9812 -9.1126 37.0219 0.9072
# 6 -23.0057 -11.4206 2.0054 7.4908 0.9072 37.8023
#
#
#
# Elastic Compliance Matrix: (Units=1/GPa)
#
#
# Indices 1 2 3 4 5 6 
#
# 1 0.009884 -0.001352 -0.004601 -0.001679 0.000209 0.006179
# 2 -0.001352 0.013411 -0.004450 0.001719 0.002832 0.003056
# 3 -0.004601 -0.004450 0.013976 -0.005942 -0.008066 -0.003515
# 4 -0.001679 0.001719 -0.005942 0.046050 0.015052 -0.009673
# 5 0.000209 0.002832 -0.008066 0.015052 0.035059 -0.002413
# 6 0.006179 0.003056 -0.003515 -0.009673 -0.002413 0.033298
#
#
# Mechanical properties :
#
#
# Convention : Reuss Voigt Hill
#
# Bulk Modulus (GPa) = 60.74083 72.15848 66.44965
# Shear Modulus (GPa) = 28.09375 35.48980 31.79178
#
# Velocity S-wave (km/s) = 3.52952 3.96700 3.75463
# Velocity P-wave (km/s) = 6.59879 7.27871 6.94707
#
# Compressibility (1/GPa) = 0.01646339
#
# Stress axis : x y z
#
# Youngs Moduli (GPa) = 101.16969 74.56429 71.55012
#
# Poissons Ratio (x) = 0.10085 0.32923
# Poissons Ratio (y) = 0.13683 0.31842
# Poissons Ratio (z) = 0.46552 0.33184
#
# Static dielectric constant tensor:
#      x y z
#    x 1.962090 -0.005910 -0.025310 
#    y -0.005910 1.893190 0.002460 
#    z -0.025310 0.002460 1.794090 
# 
# From -- ./inp_files/207524.got.cif
#   From: 2010.05.17/outbox.cif.g08.bks.cpg/sg2_104_cif.got.tgz:207524.got - 2010.06.03 11:33:40.
