data_PCOD9027020
_publ_section_title
;
Structure prediction by ZEFSAII (Michael W. Deem and Ramdas Pophale) SiO2 
 PCOD9027020
Probable space group: P -1
;
_chemical_formula_sum "Si O2"
_cell_formula_units_Z 16
_cell_length_a 12.302322
_cell_length_b 13.145994
_cell_length_c 12.438400
_cell_angle_alpha 146.235595
_cell_angle_beta 37.454546
_cell_angle_gamma 135.448253
_cell_volume 671.591551
_symmetry_space_group_name_H-M "P -1"
_symmetry_group_IT_number 2
_symmetry_cell_setting 'triclinic'
loop_
_space_group_symop_operation_xyz
x,y,z
-x,-y,-z
loop_
_atom_site_type_symbol
_atom_site_label
_atom_site_fract_x
_atom_site_fract_y
_atom_site_fract_z
Si Si1 0.306723 0.627089 0.851796
Si Si2 0.281884 0.019406 0.926934
Si Si3 0.493999 0.308242 0.896521
Si Si4 0.721654 0.577487 0.104722
Si Si5 0.345066 0.019648 0.487568
Si Si6 0.279349 0.305077 0.361845
Si Si7 0.872227 0.367685 0.237699
Si Si8 0.068817 0.847569 0.382238
O O1 0.266679 0.436542 0.786999
O O2 0.524337 0.670805 0.717570
O O3 0.227255 0.654837 0.820898
O O4 0.207731 0.756406 0.120735
O O5 0.302763 0.181364 0.962360
O O6 0.482502 0.963572 0.712933
O O7 0.148815 0.828844 0.858226
O O8 0.255973 0.123629 0.148429
O O9 0.611913 0.153431 0.624706
O O10 0.500000 0.500000 0.000000
O O11 0.585761 0.395313 0.012439
O O12 0.666510 0.773209 0.283708
O O13 0.915730 0.566735 0.890698
O O14 0.167132 0.940103 0.491896
O O15 0.238186 0.486975 0.489660
O O16 0.112729 0.284215 0.556449
O O17 0.000000 0.000000 0.500000
#
# Coordination Sequence:
#
# PCOD9027020 Si02
#       8
#     2   2   2   2   2   2   2   2
#     4  12  23  43  58  99 140 190 225 267 323 402
#     4  10  23  42  63  98 132 168 231 278 329 398
#     4  10  23  46  74  96 127 176 227 285 357 401
#     4  12  22  44  67  96 138 174 224 280 333 405
#     4  10  22  41  66  94 136 167 224 279 328 396
#     4  12  23  40  63  91 140 184 227 275 325 387
#     4  12  26  38  66  98 141 183 227 269 335 397
#     4  12  24  38  64  97 139 190 229 269 325 396
#
# _framework density 23.824003999999999
#
# number of rings (size 3 to 8) (size 9 to 14) (size 15 to 20)
#    0.750    0.000    5.000    3.750    3.500    1.500 
#    0.000    0.625    0.000    5.250    0.000    0.000 
#    0.000    0.000    0.000    0.000    0.000    0.000 
#
# Total GULP energy -89284.175108 kJ/mol
# GULP energy per Si atom -5580.260944 kJ/mol
# Density = 2.376978 g / cm^3
# Si number density = 23.824004 Si / 1000 Ang^3
#
#
#
# Elastic Constant Matrix: (Units=GPa)
#
#
# Indices 1 2 3 4 5 6 
#
# 1 26.7087 3.2996 8.3683 4.6480 -11.6020 -13.3314
# 2 3.2996 115.5105 25.1149 10.3272 -12.0213 -1.6644
# 3 8.3683 25.1149 138.7410 17.4385 -19.3752 8.3076
# 4 4.6480 10.3272 17.4385 48.1707 -3.2456 -16.0589
# 5 -11.6020 -12.0213 -19.3752 -3.2456 23.3693 11.1753
# 6 -13.3314 -1.6644 8.3076 -16.0589 11.1753 32.9582
#
#
#
# Elastic Compliance Matrix: (Units=1/GPa)
#
#
# Indices 1 2 3 4 5 6 
#
# 1 0.054017 0.000771 -0.002457 0.002679 0.016903 0.018082
# 2 0.000771 0.009496 -0.000630 -0.002162 0.005365 -0.001922
# 3 -0.002457 -0.000630 0.010442 -0.006139 0.011268 -0.010469
# 4 0.002679 -0.002162 -0.006139 0.029262 -0.010541 0.020354
# 5 0.016903 0.005365 0.011268 -0.010541 0.074279 -0.026055
# 6 0.018082 -0.001922 -0.010469 0.020354 -0.026055 0.058949
#
#
# Mechanical properties :
#
#
# Convention : Reuss Voigt Hill
#
# Bulk Modulus (GPa) = 14.42480 39.39175 26.90828
# Shear Modulus (GPa) = 18.92622 37.17815 28.05218
#
# Velocity S-wave (km/s) = 2.82160 3.95464 3.43516
# Velocity P-wave (km/s) = 4.08450 6.11741 5.20124
#
# Compressibility (1/GPa) = 0.06932505
#
# Stress axis : x y z
#
# Youngs Moduli (GPa) = 18.51271 105.30819 95.76853
#
# Poissons Ratio (x) = -0.08122 0.23527
# Poissons Ratio (y) = -0.01428 0.06029
# Poissons Ratio (z) = 0.04548 0.06629
#
# Static dielectric constant tensor:
#      x y z
#    x 1.990620 -0.073520 -0.005420 
#    y -0.073520 2.104410 0.133400 
#    z -0.005420 0.133400 2.006200 
# 
# From -- ./inp_files/534514.got.cif
#   From: 2010.05.17/outbox.cif.g08.bks.cpg/sg2_268_cif.got.tgz:534514.got - 2010.06.03 11:33:40.
