data_PCOD9027822
_publ_section_title
;
Structure prediction by ZEFSAII (Michael W. Deem and Ramdas Pophale) SiO2 
 PCOD9027822
Probable space group: P -1
;
_chemical_formula_sum "Si O2"
_cell_formula_units_Z 14
_cell_length_a 9.296679
_cell_length_b 9.250099
_cell_length_c 15.521930
_cell_angle_alpha 54.277907
_cell_angle_beta 34.574242
_cell_angle_gamma 73.557769
_cell_volume 555.464262
_symmetry_space_group_name_H-M "P -1"
_symmetry_group_IT_number 2
_symmetry_cell_setting 'triclinic'
loop_
_space_group_symop_operation_xyz
x,y,z
-x,-y,-z
loop_
_atom_site_type_symbol
_atom_site_label
_atom_site_fract_x
_atom_site_fract_y
_atom_site_fract_z
Si Si1 0.284399 0.054621 0.395568
Si Si2 0.328417 0.757105 0.230029
Si Si3 0.045662 0.932410 0.187362
Si Si4 0.526057 0.509565 0.088290
Si Si5 0.455738 0.601055 0.576592
Si Si6 0.854747 0.198893 0.274764
Si Si7 0.406453 0.728120 0.377671
O O1 0.421142 0.288047 0.249319
O O2 0.222747 0.952332 0.554495
O O3 0.457288 0.950067 0.297295
O O4 0.000000 0.000000 0.500000
O O5 0.134253 0.856184 0.257452
O O6 0.388291 0.633873 0.166870
O O7 0.211695 0.655483 0.414457
O O8 0.635785 0.928479 0.049022
O O9 0.788433 0.735943 0.348101
O O10 0.901151 0.080921 0.214335
O O11 0.500000 0.500000 0.000000
O O12 0.850039 0.626249 0.910167
O O13 0.363452 0.707722 0.658853
O O14 0.300348 0.624532 0.559135
O O15 0.386637 0.376059 0.708073
#
# Coordination Sequence:
#
# PCOD9027822 Si02
#       7
#     2   2   2   2   2   2   2
#     4  11  22  39  68  96 132 177 219 271 335 393
#     4  10  24  42  66 102 130 165 228 279 328 395
#     4  10  22  41  69  96 131 174 217 282 332 382
#     4  11  24  41  67  99 137 174 214 284 333 387
#     4  10  23  43  67  90 139 179 214 274 330 396
#     4  10  22  44  62  97 135 172 227 266 330 401
#     4  10  24  44  61 102 129 172 226 267 331 399
#
# _framework density 25.204142999999998
#
# number of rings (size 3 to 8) (size 9 to 14) (size 15 to 20)
#    0.000    1.714    1.429    1.286    8.000    2.286 
#    5.143    1.429    0.000    0.000    0.000    0.000 
#    0.000    0.000    0.000    0.000    0.000    0.000 
#
# Total GULP energy -78056.653408 kJ/mol
# GULP energy per Si atom -5575.475243 kJ/mol
# Density = 2.514678 g / cm^3
# Si number density = 25.204143 Si / 1000 Ang^3
#
#
#
# Elastic Constant Matrix: (Units=GPa)
#
#
# Indices 1 2 3 4 5 6 
#
# 1 72.2544 31.9045 23.5797 2.3456 5.6688 5.8010
# 2 31.9045 162.2109 35.3078 -3.9705 -10.1518 -18.4897
# 3 23.5797 35.3078 91.4334 -17.9172 -17.4307 5.2598
# 4 2.3456 -3.9705 -17.9172 34.8584 -0.1948 0.4328
# 5 5.6688 -10.1518 -17.4307 -0.1948 38.2572 -7.4769
# 6 5.8010 -18.4897 5.2598 0.4328 -7.4769 41.2365
#
#
#
# Elastic Compliance Matrix: (Units=1/GPa)
#
#
# Indices 1 2 3 4 5 6 
#
# 1 0.018149 -0.003505 -0.005219 -0.004284 -0.006932 -0.004671
# 2 -0.003505 0.007993 -0.001921 0.000114 0.002706 0.004811
# 3 -0.005219 -0.001921 0.016172 0.008498 0.007495 -0.000920
# 4 -0.004284 0.000114 0.008498 0.033382 0.004722 0.000076
# 5 -0.006932 0.002706 0.007495 0.004722 0.032713 0.007114
# 6 -0.004671 0.004811 -0.000920 0.000076 0.007114 0.028471
#
#
# Mechanical properties :
#
#
# Convention : Reuss Voigt Hill
#
# Bulk Modulus (GPa) = 47.56672 56.38697 51.97684
# Shear Modulus (GPa) = 30.27033 38.54420 34.40726
#
# Velocity S-wave (km/s) = 3.46931 3.91484 3.69879
# Velocity P-wave (km/s) = 5.91284 6.54640 6.23767
#
# Compressibility (1/GPa) = 0.02102310
#
# Stress axis : x y z
#
# Youngs Moduli (GPa) = 55.10061 125.11150 61.83553
#
# Poissons Ratio (x) = 0.43846 0.32274
# Poissons Ratio (y) = 0.19310 0.11881
# Poissons Ratio (z) = 0.28758 0.24038
#
# Static dielectric constant tensor:
#      x y z
#    x 2.016320 0.003390 0.024340 
#    y 0.003390 2.076390 -0.018390 
#    z 0.024340 -0.018390 2.137790 
# 
# From -- ./inp_files/494446.got.cif
#   From: 2010.05.17/outbox.cif.g08.bks.cpg/sg2_248_cif.got.tgz:494446.got - 2010.06.03 11:33:40.
