data_PCOD9027318
_publ_section_title
;
Structure prediction by ZEFSAII (Michael W. Deem and Ramdas Pophale) SiO2 
 PCOD9027318
Probable space group: P -1
;
_chemical_formula_sum "Si O2"
_cell_formula_units_Z 14
_cell_length_a 7.861718
_cell_length_b 14.104055
_cell_length_c 7.949357
_cell_angle_alpha 102.152263
_cell_angle_beta 119.864293
_cell_angle_gamma 53.712882
_cell_volume 611.661931
_symmetry_space_group_name_H-M "P -1"
_symmetry_group_IT_number 2
_symmetry_cell_setting 'triclinic'
loop_
_space_group_symop_operation_xyz
x,y,z
-x,-y,-z
loop_
_atom_site_type_symbol
_atom_site_label
_atom_site_fract_x
_atom_site_fract_y
_atom_site_fract_z
Si Si1 0.035490 0.132209 0.212640
Si Si2 0.626359 0.397771 0.163318
Si Si3 0.142074 0.248159 0.811748
Si Si4 0.761261 0.622565 0.867819
Si Si5 0.163357 0.512013 0.456075
Si Si6 0.326014 0.948621 0.003445
Si Si7 0.144321 0.058131 0.611355
O O1 0.878195 0.275734 0.191450
O O2 0.176162 0.082925 0.442645
O O3 0.842711 0.098535 0.097835
O O4 0.204569 0.060901 0.110788
O O5 0.453540 0.359535 0.120457
O O6 0.660850 0.464089 0.356180
O O7 0.500000 0.500000 0.000000
O O8 0.410203 0.153179 0.841270
O O9 0.007256 0.185960 0.685722
O O10 0.009559 0.368702 0.689716
O O11 0.185484 0.281058 0.029211
O O12 0.717222 0.600968 0.649056
O O13 0.000000 0.500000 0.000000
O O14 0.000000 0.500000 0.500000
O O15 0.335419 0.979388 0.823578
O O16 0.000000 0.000000 0.500000
#
# Coordination Sequence:
#
# PCOD9027318 Si02
#       7
#     2   2   2   2   2   2   2
#     4  10  22  43  64  97 134 173 226 279 335 421
#     4  12  23  44  71  98 140 184 227 288 353 412
#     4  11  21  43  68  95 138 174 227 284 342 417
#     4  10  23  43  68  96 138 176 230 286 342 414
#     4  11  25  44  65 106 138 180 235 285 344 421
#     4  10  22  41  67  95 133 175 223 279 341 406
#     4  10  22  42  63  95 135 175 231 277 342 407
#
# _framework density 22.888459999999998
#
# number of rings (size 3 to 8) (size 9 to 14) (size 15 to 20)
#    0.000    1.429    2.857    2.571    0.000    4.000 
#    5.143    0.000    0.000    0.000    0.000    0.000 
#    0.000    0.000    0.000    0.000    0.000    0.000 
#
# Total GULP energy -78109.528813 kJ/mol
# GULP energy per Si atom -5579.252058 kJ/mol
# Density = 2.283637 g / cm^3
# Si number density = 22.888460 Si / 1000 Ang^3
#
#
#
# Elastic Constant Matrix: (Units=GPa)
#
#
# Indices 1 2 3 4 5 6 
#
# 1 66.6851 25.6461 29.5314 8.2127 -5.2806 -0.3899
# 2 25.6461 124.8107 64.4490 33.5589 -14.5186 3.1085
# 3 29.5314 64.4490 164.6347 23.3293 -11.6772 -1.7512
# 4 8.2127 33.5589 23.3293 57.1118 8.8288 7.1584
# 5 -5.2806 -14.5186 -11.6772 8.8288 29.9641 5.4806
# 6 -0.3899 3.1085 -1.7512 7.1584 5.4806 38.0729
#
#
#
# Elastic Compliance Matrix: (Units=1/GPa)
#
#
# Indices 1 2 3 4 5 6 
#
# 1 0.016882 -0.002124 -0.002021 -0.000576 0.001296 0.000175
# 2 -0.002124 0.012716 -0.003166 -0.006800 0.006720 -0.000894
# 3 -0.002021 -0.003166 0.007994 -0.001433 0.001527 0.000655
# 4 -0.000576 -0.006800 -0.001433 0.024129 -0.010602 -0.002527
# 5 0.001296 0.006720 0.001527 -0.010602 0.041387 -0.004429
# 6 0.000175 -0.000894 0.000655 -0.002527 -0.004429 0.027483
#
#
# Mechanical properties :
#
#
# Convention : Reuss Voigt Hill
#
# Bulk Modulus (GPa) = 43.53526 66.15373 54.84449
# Shear Modulus (GPa) = 32.70729 40.79671 36.75200
#
# Velocity S-wave (km/s) = 3.78429 4.22644 4.01147
# Velocity P-wave (km/s) = 6.17709 7.26516 6.74310
#
# Compressibility (1/GPa) = 0.02296989
#
# Stress axis : x y z
#
# Youngs Moduli (GPa) = 59.23303 78.64239 125.08718
#
# Poissons Ratio (x) = 0.16702 0.25286
# Poissons Ratio (y) = 0.12580 0.39605
# Poissons Ratio (z) = 0.11974 0.24899
#
# Static dielectric constant tensor:
#      x y z
#    x 1.789000 0.011340 0.022980 
#    y 0.011340 1.881860 0.053380 
#    z 0.022980 0.053380 1.922400 
# 
# From -- ./inp_files/203319.got.cif
#   From: 2010.05.17/outbox.cif.g08.bks.cpg/sg2_102_cif.got.tgz:203319.got - 2010.06.03 11:33:40.
