data_PCOD9027776
_publ_section_title
;
Structure prediction by ZEFSAII (Michael W. Deem and Ramdas Pophale) SiO2 
 PCOD9027776
Probable space group: P -1
;
_chemical_formula_sum "Si O2"
_cell_formula_units_Z 14
_cell_length_a 8.296245
_cell_length_b 17.063794
_cell_length_c 19.083356
_cell_angle_alpha 158.209861
_cell_angle_beta 42.081548
_cell_angle_gamma 137.997377
_cell_volume 656.092218
_symmetry_space_group_name_H-M "P -1"
_symmetry_group_IT_number 2
_symmetry_cell_setting 'triclinic'
loop_
_space_group_symop_operation_xyz
x,y,z
-x,-y,-z
loop_
_atom_site_type_symbol
_atom_site_label
_atom_site_fract_x
_atom_site_fract_y
_atom_site_fract_z
Si Si1 0.112809 0.356156 0.147073
Si Si2 0.936439 0.168241 0.781358
Si Si3 0.872040 0.753342 0.539301
Si Si4 0.462412 0.202522 0.437345
Si Si5 0.983513 0.270446 0.278293
Si Si6 0.763300 0.942303 0.872885
Si Si7 0.627532 0.507063 0.166963
O O1 0.405428 0.400833 0.099201
O O2 0.034533 0.576857 0.333943
O O3 0.005210 0.294702 0.208899
O O4 0.976509 0.160036 0.980160
O O5 0.169655 0.315646 0.791907
O O6 0.999325 0.993842 0.670467
O O7 0.751442 0.010274 0.656655
O O8 0.771138 0.326472 0.997518
O O9 0.636309 0.695708 0.515859
O O10 0.795449 0.780576 0.666129
O O11 0.716789 0.140427 0.282686
O O12 0.480999 0.369161 0.633160
O O13 0.000000 0.500000 0.500000
O O14 0.193678 0.165805 0.157025
O O15 0.500000 0.000000 0.000000
#
# Coordination Sequence:
#
# PCOD9027776 Si02
#       7
#     2   2   2   2   2   2   2
#     4  12  26  41  66  94 128 171 207 259 320 364
#     4   9  24  40  66  96 122 163 218 258 309 374
#     4  10  25  41  61  98 127 162 214 260 307 376
#     4  10  22  41  69  88 132 162 209 260 311 373
#     4  12  23  42  64  96 126 164 213 255 307 386
#     4  12  27  41  63  93 133 169 205 258 316 377
#     4  11  21  43  69  92 122 168 215 258 313 376
#
# _framework density 21.338463000000001
#
# number of rings (size 3 to 8) (size 9 to 14) (size 15 to 20)
#    0.857    0.286    2.857    2.571    6.000    1.714 
#    0.000    0.714    0.000    0.000    0.000    0.000 
#    0.000    0.000    0.000    0.000    0.000    0.000 
#
# Total GULP energy -78207.271744 kJ/mol
# GULP energy per Si atom -5586.233696 kJ/mol
# Density = 2.128990 g / cm^3
# Si number density = 21.338463 Si / 1000 Ang^3
#
#
#
# Elastic Constant Matrix: (Units=GPa)
#
#
# Indices 1 2 3 4 5 6 
#
# 1 90.7198 25.5627 21.5581 4.1676 -15.8335 14.6960
# 2 25.5627 70.7583 9.4278 8.7172 -11.0247 25.5325
# 3 21.5581 9.4278 62.0443 10.8492 -19.0186 1.3262
# 4 4.1676 8.7172 10.8492 30.7096 -2.4908 -0.1425
# 5 -15.8335 -11.0247 -19.0186 -2.4908 44.7659 7.4558
# 6 14.6960 25.5325 1.3262 -0.1425 7.4558 37.2196
#
#
#
# Elastic Compliance Matrix: (Units=1/GPa)
#
#
# Indices 1 2 3 4 5 6 
#
# 1 0.013823 -0.002430 -0.003263 0.000242 0.003652 -0.004405
# 2 -0.002430 0.022573 0.001100 -0.005931 0.007517 -0.016093
# 3 -0.003263 0.001100 0.020668 -0.006544 0.007833 -0.001797
# 4 0.000242 -0.005931 -0.006544 0.036309 -0.002957 0.004938
# 5 0.003652 0.007517 0.007833 -0.002957 0.030820 -0.013063
# 6 -0.004405 -0.016093 -0.001797 0.004938 -0.013063 0.042346
#
#
# Mechanical properties :
#
#
# Convention : Reuss Voigt Hill
#
# Bulk Modulus (GPa) = 20.88667 37.40217 29.14442
# Shear Modulus (GPa) = 26.08454 33.67060 29.87757
#
# Velocity S-wave (km/s) = 3.50010 3.97663 3.74595
# Velocity P-wave (km/s) = 5.11310 6.21698 5.69187
#
# Compressibility (1/GPa) = 0.04787742
#
# Stress axis : x y z
#
# Youngs Moduli (GPa) = 72.34402 44.30041 48.38470
#
# Poissons Ratio (x) = 0.10767 0.15786
# Poissons Ratio (y) = 0.17583 -0.05322
# Poissons Ratio (z) = 0.23602 -0.04872
#
# Static dielectric constant tensor:
#      x y z
#    x 1.767570 0.023090 0.004770 
#    y 0.023090 1.776080 0.035190 
#    z 0.004770 0.035190 1.772370 
# 
# From -- ./inp_files/591247.got.cif
#   From: 2010.05.17/outbox.cif.g08.bks.cpg/sg2_296_cif.got.tgz:591247.got - 2010.06.03 11:33:40.
