data_PCOD9027602
_publ_section_title
;
Structure prediction by ZEFSAII (Michael W. Deem and Ramdas Pophale) SiO2 
 PCOD9027602
Probable space group: P -1
;
_chemical_formula_sum "Si O2"
_cell_formula_units_Z 16
_cell_length_a 16.103772
_cell_length_b 18.567431
_cell_length_c 12.213453
_cell_angle_alpha 135.890412
_cell_angle_beta 154.154949
_cell_angle_gamma 29.061539
_cell_volume 731.536846
_symmetry_space_group_name_H-M "P -1"
_symmetry_group_IT_number 2
_symmetry_cell_setting 'triclinic'
loop_
_space_group_symop_operation_xyz
x,y,z
-x,-y,-z
loop_
_atom_site_type_symbol
_atom_site_label
_atom_site_fract_x
_atom_site_fract_y
_atom_site_fract_z
Si Si1 0.462099 0.260129 0.261821
Si Si2 0.032334 0.807158 0.161336
Si Si3 0.735013 0.611628 0.496041
Si Si4 0.495595 0.126882 0.656899
Si Si5 0.047372 0.591047 0.036193
Si Si6 0.536585 0.928448 0.084165
Si Si7 0.908640 0.175184 0.990706
Si Si8 0.944326 0.730306 0.535522
O O1 0.776630 0.168467 0.570273
O O2 0.271282 0.439651 0.211406
O O3 0.479930 0.185032 0.092482
O O4 0.263978 0.277283 0.129769
O O5 0.162979 0.655023 0.210747
O O6 0.032664 0.785133 0.008381
O O7 0.722934 0.941795 0.998884
O O8 0.687532 0.719501 0.466399
O O9 0.415971 0.732498 0.301071
O O10 0.834551 0.455535 0.411229
O O11 0.971917 0.556093 0.801050
O O12 0.347678 0.195136 0.673460
O O13 0.500000 0.000000 0.500000
O O14 0.833540 0.014334 0.918073
O O15 0.836781 0.820121 0.389387
O O16 0.500000 0.000000 0.000000
O O17 0.942521 0.229788 0.200577
#
# Coordination Sequence:
#
# PCOD9027602 Si02
#       8
#     2   2   2   2   2   2   2   2
#     4  11  24  45  66 101 135 180 235 286 348 412
#     4  12  24  45  72 101 138 182 236 287 348 421
#     4  12  23  43  70 102 142 182 229 288 350 412
#     4  10  22  41  68  96 133 180 228 278 345 411
#     4  11  23  41  71  97 137 181 228 290 347 410
#     4  12  25  46  73  99 142 186 231 291 348 411
#     4  11  24  43  69 106 139 179 234 288 344 420
#     4  11  24  45  69 100 143 181 232 286 350 415
#
# _framework density 21.871762
#
# number of rings (size 3 to 8) (size 9 to 14) (size 15 to 20)
#    0.000    0.750    5.000    3.375    1.750    0.000 
#    4.500    0.000    0.000    0.000    0.000    0.000 
#    0.000    0.000    0.000    0.000    0.000    0.000 
#
# Total GULP energy -89222.553649 kJ/mol
# GULP energy per Si atom -5576.409603 kJ/mol
# Density = 2.182198 g / cm^3
# Si number density = 21.871762 Si / 1000 Ang^3
#
#
#
# Elastic Constant Matrix: (Units=GPa)
#
#
# Indices 1 2 3 4 5 6 
#
# 1 106.7490 16.7896 21.0995 -7.5980 -9.4915 16.6014
# 2 16.7896 57.7335 10.9328 -10.9329 -5.0997 3.3731
# 3 21.0995 10.9328 71.4564 -8.9495 2.9707 3.3455
# 4 -7.5980 -10.9329 -8.9495 32.4691 -1.2210 -4.1387
# 5 -9.4915 -5.0997 2.9707 -1.2210 25.7970 -2.6636
# 6 16.6014 3.3731 3.3455 -4.1387 -2.6636 21.3282
#
#
#
# Elastic Compliance Matrix: (Units=1/GPa)
#
#
# Indices 1 2 3 4 5 6 
#
# 1 0.011834 -0.002045 -0.002905 0.000402 0.003486 -0.007919
# 2 -0.002045 0.019670 -0.001846 0.005819 0.003661 0.000357
# 3 -0.002905 -0.001846 0.015615 0.002924 -0.003064 0.000289
# 4 0.000402 0.005819 0.002924 0.034463 0.003149 0.005389
# 5 0.003486 0.003661 -0.003064 0.003149 0.041581 0.002992
# 6 -0.007919 0.000357 0.000289 0.005389 0.002992 0.054368
#
#
# Mechanical properties :
#
#
# Convention : Reuss Voigt Hill
#
# Bulk Modulus (GPa) = 29.82689 37.06475 33.44582
# Shear Modulus (GPa) = 24.71610 28.39332 26.55471
#
# Velocity S-wave (km/s) = 3.36526 3.60692 3.48819
# Velocity P-wave (km/s) = 5.36347 5.85916 5.61678
#
# Compressibility (1/GPa) = 0.03352679
#
# Stress axis : x y z
#
# Youngs Moduli (GPa) = 84.50514 50.83990 64.04147
#
# Poissons Ratio (x) = 0.10395 0.18606
# Poissons Ratio (y) = 0.17278 0.11821
# Poissons Ratio (z) = 0.24551 0.09384
#
# Static dielectric constant tensor:
#      x y z
#    x 1.842260 0.022790 -0.006930 
#    y 0.022790 1.826750 -0.020310 
#    z -0.006930 -0.020310 1.835230 
# 
# From -- ./inp_files/404545.got.cif
#   From: 2010.05.17/outbox.cif.g08.bks.cpg/sg2_203_cif.got.tgz:404545.got - 2010.06.03 11:33:40.
