data_PCOD9027517
_publ_section_title
;
Structure prediction by ZEFSAII (Michael W. Deem and Ramdas Pophale) SiO2 
 PCOD9027517
Probable space group: P -1
;
_chemical_formula_sum "Si O2"
_cell_formula_units_Z 16
_cell_length_a 8.171269
_cell_length_b 11.494597
_cell_length_c 25.367339
_cell_angle_alpha 29.660885
_cell_angle_beta 144.310797
_cell_angle_gamma 138.905738
_cell_volume 678.347594
_symmetry_space_group_name_H-M "P -1"
_symmetry_group_IT_number 2
_symmetry_cell_setting 'triclinic'
loop_
_space_group_symop_operation_xyz
x,y,z
-x,-y,-z
loop_
_atom_site_type_symbol
_atom_site_label
_atom_site_fract_x
_atom_site_fract_y
_atom_site_fract_z
Si Si1 0.707215 0.309433 0.122961
Si Si2 0.299787 0.068495 0.023913
Si Si3 0.841914 0.781940 0.510483
Si Si4 0.812702 0.806364 0.771344
Si Si5 0.655797 0.239101 0.420181
Si Si6 0.729450 0.747199 0.253266
Si Si7 0.007713 0.305232 0.771184
Si Si8 0.442632 0.068943 0.242553
O O1 0.704048 0.203644 0.223003
O O2 0.005433 0.358529 0.150363
O O3 0.500000 0.500000 0.000000
O O4 0.525611 0.142430 0.099043
O O5 0.247344 0.272436 0.889089
O O6 0.444672 0.855674 0.122411
O O7 0.000000 0.000000 0.000000
O O8 0.858485 0.538539 0.642250
O O9 0.021265 0.769184 0.508736
O O10 0.545071 0.858540 0.386477
O O11 0.000000 0.000000 0.500000
O O12 0.519276 0.770360 0.676850
O O13 0.716556 0.776682 0.819395
O O14 0.021465 0.068340 0.724341
O O15 0.646396 0.476513 0.358821
O O16 0.500000 0.000000 0.500000
O O17 0.860187 0.700113 0.249697
O O18 0.777993 0.063689 0.805385
#
# Coordination Sequence:
#
# PCOD9027517 Si02
#       8
#     2   2   2   2   2   2   2   2
#     4  11  26  41  65 102 134 169 226 278 325 410
#     4  11  22  41  62  96 127 167 218 269 340 384
#     4  11  23  40  63  96 125 168 224 272 328 394
#     4  10  23  44  64  94 134 179 219 273 341 387
#     4  11  23  41  66  96 131 175 222 276 335 395
#     4   9  23  41  64  94 129 171 223 273 326 408
#     4  10  22  41  68  90 127 177 218 271 332 402
#     4  11  22  45  66  91 137 173 221 274 334 395
#
# _framework density 23.586725999999999
#
# number of rings (size 3 to 8) (size 9 to 14) (size 15 to 20)
#    0.000    1.500    2.500    1.500    3.500    2.000 
#    0.000    0.000    0.000    0.000    0.000    0.000 
#    0.000    0.000    0.000    0.000    0.000    0.000 
#
# Total GULP energy -89134.460261 kJ/mol
# GULP energy per Si atom -5570.903766 kJ/mol
# Density = 2.353304 g / cm^3
# Si number density = 23.586726 Si / 1000 Ang^3
#
#
#
# Elastic Constant Matrix: (Units=GPa)
#
#
# Indices 1 2 3 4 5 6 
#
# 1 79.8231 3.9820 39.8505 -8.5118 30.5241 -12.4364
# 2 3.9820 73.0544 2.8240 0.9392 0.5328 -6.3510
# 3 39.8505 2.8240 79.5884 -16.3491 23.9540 -3.7356
# 4 -8.5118 0.9392 -16.3491 31.3585 2.4849 6.1370
# 5 30.5241 0.5328 23.9540 2.4849 29.4197 4.8915
# 6 -12.4364 -6.3510 -3.7356 6.1370 4.8915 23.1004
#
#
#
# Elastic Compliance Matrix: (Units=1/GPa)
#
#
# Indices 1 2 3 4 5 6 
#
# 1 0.030932 0.000539 -0.003402 0.004946 -0.033410 0.022011
# 2 0.000539 0.014111 -0.000516 -0.001377 -0.001056 0.004676
# 3 -0.003402 -0.000516 0.021067 0.010923 -0.014814 0.001668
# 4 0.004946 -0.001377 0.010923 0.040943 -0.016919 -0.003244
# 5 -0.033410 -0.001056 -0.014814 -0.016919 0.087951 -0.034801
# 6 0.022011 0.004676 0.001668 -0.003244 -0.034801 0.064926
#
#
# Mechanical properties :
#
#
# Convention : Reuss Voigt Hill
#
# Bulk Modulus (GPa) = 16.84885 36.19765 26.52325
# Shear Modulus (GPa) = 17.45363 29.16303 23.30833
#
# Velocity S-wave (km/s) = 2.72320 3.52009 3.14697
# Velocity P-wave (km/s) = 4.12876 5.64812 4.94712
#
# Compressibility (1/GPa) = 0.05935122
#
# Stress axis : x y z
#
# Youngs Moduli (GPa) = 32.32879 70.86730 47.46723
#
# Poissons Ratio (x) = -0.03821 0.16150
# Poissons Ratio (y) = -0.01743 0.02451
# Poissons Ratio (z) = 0.10999 0.03659
#
# Static dielectric constant tensor:
#      x y z
#    x 1.996740 0.109200 -0.051500 
#    y 0.109200 1.941110 -0.024730 
#    z -0.051500 -0.024730 1.953970 
# 
# From -- ./inp_files/277731.got.cif
#   From: 2010.05.17/outbox.cif.g08.bks.cpg/sg2_139_cif.got.tgz:277731.got - 2010.06.03 11:33:40.
