data_PCOD9027139
_publ_section_title
;
Structure prediction by ZEFSAII (Michael W. Deem and Ramdas Pophale) SiO2 
 PCOD9027139
Probable space group: P -1
;
_chemical_formula_sum "Si O2"
_cell_formula_units_Z 16
_cell_length_a 11.724592
_cell_length_b 15.302347
_cell_length_c 12.274663
_cell_angle_alpha 122.968436
_cell_angle_beta 75.218820
_cell_angle_gamma 152.409135
_cell_volume 694.268644
_symmetry_space_group_name_H-M "P -1"
_symmetry_group_IT_number 2
_symmetry_cell_setting 'triclinic'
loop_
_space_group_symop_operation_xyz
x,y,z
-x,-y,-z
loop_
_atom_site_type_symbol
_atom_site_label
_atom_site_fract_x
_atom_site_fract_y
_atom_site_fract_z
Si Si1 0.253961 0.351577 0.131504
Si Si2 0.891937 0.944665 0.761936
Si Si3 0.653903 0.186006 0.347094
Si Si4 0.333360 0.033422 0.902515
Si Si5 0.772115 0.103647 0.551525
Si Si6 0.875163 0.790796 0.338166
Si Si7 0.628666 0.824124 0.222780
Si Si8 0.608966 0.311835 0.259148
O O1 0.512171 0.502175 0.237575
O O2 0.426451 0.569903 0.154443
O O3 0.023411 0.230626 0.177269
O O4 0.055922 0.111183 0.946315
O O5 0.034598 0.131064 0.757231
O O6 0.023769 0.937431 0.700965
O O7 0.547149 0.703172 0.687690
O O8 0.633815 0.055914 0.210674
O O9 0.528881 0.167023 0.276330
O O10 0.000000 0.500000 0.500000
O O11 0.459213 0.033778 0.401475
O O12 0.460962 0.216674 0.904830
O O13 0.480942 0.169960 0.077437
O O14 0.964737 0.174160 0.619417
O O15 0.029642 0.387371 0.633379
O O16 0.612378 0.910850 0.362826
O O17 0.000000 0.000000 0.500000
#
# Coordination Sequence:
#
# PCOD9027139 Si02
#       8
#     2   2   2   2   2   2   2   2
#     4  10  23  41  66  98 137 178 212 268 334 391
#     4  10  22  41  66  98 142 172 211 269 333 398
#     4  12  27  50  71  91 134 175 227 279 329 387
#     4  11  27  44  70  97 134 177 222 273 325 396
#     4  12  26  41  69 101 130 177 222 272 331 391
#     4  11  20  38  66  98 138 173 215 268 331 389
#     4  11  23  41  64 104 134 174 216 264 332 395
#     4  11  27  44  69 102 129 176 224 274 329 392
#
# _framework density 23.045836000000001
#
# number of rings (size 3 to 8) (size 9 to 14) (size 15 to 20)
#    0.000    1.000    3.750    3.375    5.250    6.000 
#    0.000    0.000    0.000    0.000    0.000    0.000 
#    0.000    0.000    0.000    0.000    0.000    0.000 
#
# Total GULP energy -89578.357083 kJ/mol
# GULP energy per Si atom -5598.647318 kJ/mol
# Density = 2.299338 g / cm^3
# Si number density = 23.045836 Si / 1000 Ang^3
#
#
#
# Elastic Constant Matrix: (Units=GPa)
#
#
# Indices 1 2 3 4 5 6 
#
# 1 74.9691 27.7300 6.2927 -14.1315 -2.1862 3.2810
# 2 27.7300 115.4994 12.8685 -7.8390 -8.8936 17.4220
# 3 6.2927 12.8685 52.5663 -10.7351 -0.9393 11.4574
# 4 -14.1315 -7.8390 -10.7351 34.8989 2.1587 1.0301
# 5 -2.1862 -8.8936 -0.9393 2.1587 35.0464 -12.5624
# 6 3.2810 17.4220 11.4574 1.0301 -12.5624 46.1696
#
#
#
# Elastic Compliance Matrix: (Units=1/GPa)
#
#
# Indices 1 2 3 4 5 6 
#
# 1 0.015641 -0.003398 0.000114 0.005622 -0.000248 -0.000051
# 2 -0.003398 0.010197 -0.001318 0.000519 0.001251 -0.002951
# 3 0.000114 -0.001318 0.021925 0.006799 -0.002203 -0.005703
# 4 0.005622 0.000519 0.006799 0.033420 -0.002747 -0.003776
# 5 -0.000248 0.001251 -0.002203 -0.002747 0.032135 0.008897
# 6 -0.000051 -0.002951 -0.005703 -0.003776 0.008897 0.026696
#
#
# Mechanical properties :
#
#
# Convention : Reuss Voigt Hill
#
# Bulk Modulus (GPa) = 25.93414 37.42413 31.67914
# Shear Modulus (GPa) = 30.85072 36.29922 33.57497
#
# Velocity S-wave (km/s) = 3.66275 3.97304 3.82105
# Velocity P-wave (km/s) = 5.40050 6.10909 5.76569
#
# Compressibility (1/GPa) = 0.03855921
#
# Stress axis : x y z
#
# Youngs Moduli (GPa) = 63.93539 98.06528 45.61077
#
# Poissons Ratio (x) = 0.33320 -0.00521
# Poissons Ratio (y) = 0.21724 0.06012
# Poissons Ratio (z) = -0.00730 0.12927
#
# Static dielectric constant tensor:
#      x y z
#    x 1.866420 -0.006070 0.019790 
#    y -0.006070 1.883150 -0.006800 
#    z 0.019790 -0.006800 1.834570 
# 
# From -- ./inp_files/434208.got.cif
#   From: 2010.05.17/outbox.cif.g08.bks.cpg/sg2_218_cif.got.tgz:434208.got - 2010.06.03 11:33:40.
