data_PCOD9027067
_publ_section_title
;
Structure prediction by ZEFSAII (Michael W. Deem and Ramdas Pophale) SiO2 
 PCOD9027067
Probable space group: P -1
;
_chemical_formula_sum "Si O2"
_cell_formula_units_Z 16
_cell_length_a 9.224176
_cell_length_b 19.566320
_cell_length_c 9.449421
_cell_angle_alpha 48.550242
_cell_angle_beta 58.739912
_cell_angle_gamma 38.533492
_cell_volume 796.346382
_symmetry_space_group_name_H-M "P -1"
_symmetry_group_IT_number 2
_symmetry_cell_setting 'triclinic'
loop_
_space_group_symop_operation_xyz
x,y,z
-x,-y,-z
loop_
_atom_site_type_symbol
_atom_site_label
_atom_site_fract_x
_atom_site_fract_y
_atom_site_fract_z
Si Si1 0.127355 0.065569 0.855739
Si Si2 0.400928 0.633586 0.910414
Si Si3 0.637986 0.341081 0.773220
Si Si4 0.693981 0.663223 0.534968
Si Si5 0.987796 0.129689 0.321047
Si Si6 0.775332 0.503031 0.443725
Si Si7 0.995145 0.987175 0.270315
Si Si8 0.489074 0.067188 0.772865
O O1 0.289575 0.092293 0.748738
O O2 0.858202 0.197604 0.814262
O O3 0.173527 0.994386 0.785492
O O4 0.156145 0.989312 0.083164
O O5 0.533761 0.665439 0.719386
O O6 0.134662 0.733759 0.853322
O O7 0.500000 0.500000 0.000000
O O8 0.408762 0.649640 0.049916
O O9 0.717367 0.417300 0.610926
O O10 0.405387 0.404172 0.716387
O O11 0.719572 0.587101 0.491577
O O12 0.584245 0.800431 0.355181
O O13 0.945531 0.588511 0.583439
O O14 0.904898 0.087320 0.301542
O O15 0.912517 0.128008 0.518798
O O16 0.263753 0.029489 0.298869
O O17 0.500000 0.000000 0.000000
#
# Coordination Sequence:
#
# PCOD9027067 Si02
#       8
#     2   2   2   2   2   2   2   2
#     4  11  23  40  68  99 134 171 221 271 331 388
#     4  12  25  44  69  96 133 175 219 272 331 396
#     4  11  22  43  66 100 133 174 221 270 326 398
#     4  11  24  43  68  98 132 174 223 272 331 387
#     4  11  24  42  67  98 130 172 223 267 333 397
#     4  10  24  41  69  98 131 173 224 270 324 397
#     4  10  22  41  66  96 131 172 215 272 328 392
#     4  12  24  41  67  97 136 173 219 274 327 393
#
# _framework density 20.091760000000001
#
# number of rings (size 3 to 8) (size 9 to 14) (size 15 to 20)
#    0.000    1.000    5.000    1.500    3.500    1.000 
#    0.000    0.000    0.000    0.000    0.000    0.000 
#    0.000    0.000    0.000    0.000    0.000    0.000 
#
# Total GULP energy -89249.106302 kJ/mol
# GULP energy per Si atom -5578.069144 kJ/mol
# Density = 2.004603 g / cm^3
# Si number density = 20.091760 Si / 1000 Ang^3
#
#
#
# Elastic Constant Matrix: (Units=GPa)
#
#
# Indices 1 2 3 4 5 6 
#
# 1 100.4352 35.4346 38.6634 -1.2989 4.5001 -9.9599
# 2 35.4346 92.9120 32.0909 -13.7723 7.0336 -20.1460
# 3 38.6634 32.0909 104.3531 4.7760 15.9154 -9.1287
# 4 -1.2989 -13.7723 4.7760 28.2440 2.0385 2.8364
# 5 4.5001 7.0336 15.9154 2.0385 32.6478 -5.7578
# 6 -9.9599 -20.1460 -9.1287 2.8364 -5.7578 29.0473
#
#
#
# Elastic Compliance Matrix: (Units=1/GPa)
#
#
# Indices 1 2 3 4 5 6 
#
# 1 0.012647 -0.003528 -0.003634 -0.000699 0.001011 0.001016
# 2 -0.003528 0.016123 -0.003211 0.007457 -0.000451 0.008146
# 3 -0.003634 -0.003211 0.012812 -0.003544 -0.004842 -0.000060
# 4 -0.000699 0.007457 -0.003544 0.039834 -0.002365 -0.000540
# 5 0.001011 -0.000451 -0.004842 -0.002365 0.034065 0.005496
# 6 0.001016 0.008146 -0.000060 -0.000540 0.005496 0.041548
#
#
# Mechanical properties :
#
#
# Convention : Reuss Voigt Hill
#
# Bulk Modulus (GPa) = 47.99368 56.67533 52.33450
# Shear Modulus (GPa) = 27.06788 30.75524 28.91156
#
# Velocity S-wave (km/s) = 3.67442 3.91671 3.79750
# Velocity P-wave (km/s) = 6.47618 6.98023 6.73293
#
# Compressibility (1/GPa) = 0.02083608
#
# Stress axis : x y z
#
# Youngs Moduli (GPa) = 79.07177 62.02245 78.05028
#
# Poissons Ratio (x) = 0.21880 0.28365
# Poissons Ratio (y) = 0.27895 0.25063
# Poissons Ratio (z) = 0.28736 0.19916
#
# Static dielectric constant tensor:
#      x y z
#    x 1.714670 -0.018560 0.000610 
#    y -0.018560 1.728110 -0.047710 
#    z 0.000610 -0.047710 1.742350 
# 
# From -- ./inp_files/223173.got.cif
#   From: 2010.05.17/outbox.cif.g08.bks.cpg/sg2_112_cif.got.tgz:223173.got - 2010.06.03 11:33:40.
