data_PCOD9027521
_publ_section_title
;
Structure prediction by ZEFSAII (Michael W. Deem and Ramdas Pophale) SiO2 
 PCOD9027521
Probable space group: P -1
;
_chemical_formula_sum "Si O2"
_cell_formula_units_Z 16
_cell_length_a 12.192701
_cell_length_b 12.705392
_cell_length_c 12.600448
_cell_angle_alpha 139.181719
_cell_angle_beta 111.970054
_cell_angle_gamma 37.882468
_cell_volume 651.182901
_symmetry_space_group_name_H-M "P -1"
_symmetry_group_IT_number 2
_symmetry_cell_setting 'triclinic'
loop_
_space_group_symop_operation_xyz
x,y,z
-x,-y,-z
loop_
_atom_site_type_symbol
_atom_site_label
_atom_site_fract_x
_atom_site_fract_y
_atom_site_fract_z
Si Si1 0.920358 0.342019 0.757948
Si Si2 0.089483 0.476334 0.681960
Si Si3 0.502830 0.749858 0.622063
Si Si4 0.956752 0.314529 0.395486
Si Si5 0.714941 0.865676 0.977987
Si Si6 0.353662 0.648433 0.358676
Si Si7 0.675821 0.727420 0.166670
Si Si8 0.600355 0.278603 0.957529
O O1 0.739645 0.423130 0.713748
O O2 0.892376 0.544271 0.846174
O O3 0.861056 0.445346 0.938805
O O4 0.142323 0.004108 0.551126
O O5 0.080068 0.304223 0.505539
O O6 0.141393 0.509166 0.616740
O O7 0.239659 0.346396 0.738042
O O8 0.837262 0.794909 0.866300
O O9 0.755342 0.493799 0.529773
O O10 0.490047 0.589132 0.446575
O O11 0.355040 0.921527 0.802684
O O12 0.406839 0.009645 0.714614
O O13 0.146070 0.988205 0.172424
O O14 0.500000 0.000000 0.000000
O O15 0.501167 0.464108 0.169334
O O16 0.489193 0.803537 0.148989
O O17 0.500000 0.500000 0.000000
#
# Coordination Sequence:
#
# PCOD9027521 Si02
#       8
#     2   2   2   2   2   2   2   2
#     4   9  21  42  66 101 130 168 216 276 330 389
#     4  11  23  41  71  99 130 171 221 279 325 385
#     4  11  23  43  71 105 127 172 223 276 326 389
#     4  11  26  42  63  98 139 171 218 271 331 386
#     4  11  22  39  70  99 131 170 215 272 333 384
#     4  10  22  41  68  90 135 169 212 276 325 381
#     4  10  22  42  72  98 127 165 225 274 325 389
#     4  11  27  44  62  91 133 182 216 262 325 396
#
# _framework density 24.570671000000001
#
# number of rings (size 3 to 8) (size 9 to 14) (size 15 to 20)
#    0.000    1.500    1.250    3.000    8.750    3.500 
#    0.000    0.625    0.000    0.000    0.000    0.000 
#    0.000    0.000    0.000    0.000    0.000    0.000 
#
# Total GULP energy -89420.775971 kJ/mol
# GULP energy per Si atom -5588.798498 kJ/mol
# Density = 2.451475 g / cm^3
# Si number density = 24.570671 Si / 1000 Ang^3
#
#
#
# Elastic Constant Matrix: (Units=GPa)
#
#
# Indices 1 2 3 4 5 6 
#
# 1 40.2612 0.4711 53.1209 1.9309 3.5284 0.6961
# 2 0.4711 71.7283 51.3101 -2.8938 6.4185 0.2978
# 3 53.1209 51.3101 194.8412 -5.9765 -23.8617 -0.8491
# 4 1.9309 -2.8938 -5.9765 50.0768 -10.7744 -3.7895
# 5 3.5284 6.4185 -23.8617 -10.7744 52.3320 0.5436
# 6 0.6961 0.2978 -0.8491 -3.7895 0.5436 29.1226
#
#
#
# Elastic Compliance Matrix: (Units=1/GPa)
#
#
# Indices 1 2 3 4 5 6 
#
# 1 0.055283 0.016445 -0.021760 -0.007696 -0.017222 -0.002804
# 2 0.016445 0.023112 -0.011885 -0.002948 -0.009957 -0.001174
# 3 -0.021760 -0.011885 0.015685 0.004500 0.010988 0.001479
# 4 -0.007696 -0.002948 0.004500 0.022490 0.007530 0.003131
# 5 -0.017222 -0.009957 0.010988 0.007530 0.028038 0.001290
# 6 -0.002804 -0.001174 0.001479 0.003131 0.001290 0.034843
#
#
# Mechanical properties :
#
#
# Convention : Reuss Voigt Hill
#
# Bulk Modulus (GPa) = 16.75608 57.40386 37.07997
# Shear Modulus (GPa) = 21.39082 39.76816 30.57949
#
# Velocity S-wave (km/s) = 2.95377 4.02745 3.53165
# Velocity P-wave (km/s) = 4.29736 6.71123 5.63507
#
# Compressibility (1/GPa) = 0.05967983
#
# Stress axis : x y z
#
# Youngs Moduli (GPa) = 18.08878 43.26708 63.75515
#
# Poissons Ratio (x) = -0.71153 1.38733
# Poissons Ratio (y) = -0.29747 0.75773
# Poissons Ratio (z) = 0.39362 0.51423
#
# Static dielectric constant tensor:
#      x y z
#    x 0.351610 0.580780 1.468710 
#    y 0.580780 1.824090 -0.560760 
#    z 1.468710 -0.560760 0.591640 
# 
# From -- ./inp_files/455943.got.cif
#   From: 2010.05.17/outbox.cif.g08.bks.cpg/sg2_228_cif.got.tgz:455943.got - 2010.06.03 11:33:40.
