data_PCOD9027850
_publ_section_title
;
Structure prediction by ZEFSAII (Michael W. Deem and Ramdas Pophale) SiO2 
 PCOD9027850
Probable space group: P -1
;
_chemical_formula_sum "Si O2"
_cell_formula_units_Z 16
_cell_length_a 8.704143
_cell_length_b 7.900089
_cell_length_c 17.215373
_cell_angle_alpha 46.091117
_cell_angle_beta 59.525925
_cell_angle_gamma 84.780499
_cell_volume 667.089834
_symmetry_space_group_name_H-M "P -1"
_symmetry_group_IT_number 2
_symmetry_cell_setting 'triclinic'
loop_
_space_group_symop_operation_xyz
x,y,z
-x,-y,-z
loop_
_atom_site_type_symbol
_atom_site_label
_atom_site_fract_x
_atom_site_fract_y
_atom_site_fract_z
Si Si1 0.878982 0.389560 0.877638
Si Si2 0.806729 0.234927 0.642363
Si Si3 0.792345 0.511510 0.026362
Si Si4 0.187198 0.267361 0.782777
Si Si5 0.797736 0.070670 0.864063
Si Si6 0.975443 0.045559 0.402164
Si Si7 0.569638 0.794812 0.510466
Si Si8 0.416948 0.038832 0.718035
O O1 0.731521 0.174250 0.925318
O O2 0.051305 0.289369 0.880575
O O3 0.993432 0.662708 0.716199
O O4 0.783821 0.460974 0.952378
O O5 0.738617 0.166913 0.770065
O O6 0.631709 0.216718 0.637237
O O7 0.000000 0.500000 0.500000
O O8 0.866652 0.009647 0.670110
O O9 0.622260 0.258700 0.188010
O O10 0.000000 0.500000 0.000000
O O11 0.768927 0.774142 0.966128
O O12 0.386699 0.521556 0.649760
O O13 0.263070 0.046808 0.819605
O O14 0.036037 0.229117 0.762655
O O15 0.764443 0.838769 0.493027
O O16 0.000000 0.000000 0.500000
O O17 0.620982 0.860074 0.386306
O O18 0.500000 0.000000 0.500000
#
# Coordination Sequence:
#
# PCOD9027850 Si02
#       8
#     2   2   2   2   2   2   2   2
#     4  10  23  44  69 102 136 179 244 278 354 414
#     4  12  24  43  69 101 143 186 232 288 365 422
#     4  12  23  45  72 100 144 188 236 291 347 418
#     4  10  22  41  69  97 135 178 234 295 346 402
#     4  10  22  43  71  95 139 190 223 294 350 405
#     4  12  23  41  68 100 144 185 226 297 365 414
#     4  12  22  42  67 103 141 168 236 303 341 418
#     4  12  26  41  69 107 135 186 241 279 356 427
#
# _framework density 23.984774000000002
#
# number of rings (size 3 to 8) (size 9 to 14) (size 15 to 20)
#    0.750    0.000    3.750    4.875    0.000    2.500 
#    0.000    0.625    0.000    0.000    0.000    0.000 
#    0.000    0.000    0.000    0.000    0.000    0.000 
#
# Total GULP energy -89450.135109 kJ/mol
# GULP energy per Si atom -5590.633444 kJ/mol
# Density = 2.393018 g / cm^3
# Si number density = 23.984774 Si / 1000 Ang^3
#
#
#
# Elastic Constant Matrix: (Units=GPa)
#
#
# Indices 1 2 3 4 5 6 
#
# 1 97.7062 7.6094 17.9720 4.7788 2.0514 30.2645
# 2 7.6094 127.0103 18.0372 -12.8290 3.1674 10.7185
# 3 17.9720 18.0372 73.1431 -15.3943 -2.6786 23.4066
# 4 4.7788 -12.8290 -15.3943 44.6021 1.4812 -1.4642
# 5 2.0514 3.1674 -2.6786 1.4812 26.5502 2.6965
# 6 30.2645 10.7185 23.4066 -1.4642 2.6965 43.3136
#
#
#
# Elastic Compliance Matrix: (Units=1/GPa)
#
#
# Indices 1 2 3 4 5 6 
#
# 1 0.013233 -0.000134 -0.000821 -0.002027 -0.000079 -0.008833
# 2 -0.000134 0.008390 -0.001293 0.001981 -0.001115 -0.001148
# 3 -0.000821 -0.001293 0.018365 0.005671 0.002669 -0.009005
# 4 -0.002027 0.001981 0.005671 0.025150 -0.000785 -0.001239
# 5 -0.000079 -0.001115 0.002669 -0.000785 0.038475 -0.003533
# 6 -0.008833 -0.001148 -0.009005 -0.001239 -0.003533 0.034588
#
#
# Mechanical properties :
#
#
# Convention : Reuss Voigt Hill
#
# Bulk Modulus (GPa) = 28.17471 42.78855 35.48163
# Shear Modulus (GPa) = 32.35661 39.84257 36.09959
#
# Velocity S-wave (km/s) = 3.67692 4.08016 3.88378
# Velocity P-wave (km/s) = 5.45883 6.33052 5.91076
#
# Compressibility (1/GPa) = 0.03549282
#
# Stress axis : x y z
#
# Youngs Moduli (GPa) = 75.56819 119.19377 54.44996
#
# Poissons Ratio (x) = 0.01591 0.04473
# Poissons Ratio (y) = 0.01009 0.07039
# Poissons Ratio (z) = 0.06208 0.15409
#
# Static dielectric constant tensor:
#      x y z
#    x 1.966720 -0.030940 0.034660 
#    y -0.030940 1.995290 0.011080 
#    z 0.034660 0.011080 1.916740 
# 
# From -- ./inp_files/556747.got.cif
#   From: 2010.05.17/outbox.cif.g08.bks.cpg/sg2_279_cif.got.tgz:556747.got - 2010.06.03 11:33:40.
