data_PCOD9027380
_publ_section_title
;
Structure prediction by ZEFSAII (Michael W. Deem and Ramdas Pophale) SiO2 
 PCOD9027380
Probable space group: P -1
;
_chemical_formula_sum "Si O2"
_cell_formula_units_Z 16
_cell_length_a 22.953670
_cell_length_b 29.010750
_cell_length_c 11.813859
_cell_angle_alpha 30.365372
_cell_angle_beta 31.453383
_cell_angle_gamma 10.761642
_cell_volume 741.338824
_symmetry_space_group_name_H-M "P -1"
_symmetry_group_IT_number 2
_symmetry_cell_setting 'triclinic'
loop_
_space_group_symop_operation_xyz
x,y,z
-x,-y,-z
loop_
_atom_site_type_symbol
_atom_site_label
_atom_site_fract_x
_atom_site_fract_y
_atom_site_fract_z
Si Si1 0.353610 0.066239 0.767354
Si Si2 0.323863 0.286247 0.359276
Si Si3 0.224035 0.754625 0.216837
Si Si4 0.632547 0.269751 0.499295
Si Si5 0.645246 0.165089 0.453951
Si Si6 0.620383 0.600774 0.834807
Si Si7 0.301977 0.363503 0.988416
Si Si8 0.383316 0.164404 0.932583
O O1 0.481209 0.888088 0.859054
O O2 0.471409 0.077900 0.519550
O O3 0.460489 0.969087 0.923490
O O4 0.984586 0.337855 0.795263
O O5 0.516084 0.198869 0.316785
O O6 0.253651 0.402458 0.121010
O O7 0.000000 0.500000 0.500000
O O8 0.411460 0.529226 0.322236
O O9 0.503539 0.610167 0.090294
O O10 0.000956 0.887975 0.403463
O O11 0.000000 0.000000 0.000000
O O12 0.632019 0.226867 0.464565
O O13 0.463114 0.327835 0.741739
O O14 0.000000 0.000000 0.500000
O O15 0.465679 0.352208 0.252105
O O16 0.479762 0.192697 0.676752
O O17 0.983386 0.576637 0.003693
O O18 0.500000 0.000000 0.000000
#
# Coordination Sequence:
#
# PCOD9027380 Si02
#       8
#     2   2   2   2   2   2   2   2
#     4  11  22  41  66 105 143 185 237 302 365 443
#     4  10  22  41  67  97 137 184 234 287 356 436
#     4  10  25  47  71 105 143 197 251 300 375 433
#     4  12  28  49  76 112 151 196 255 310 371 446
#     4  11  25  47  73 106 150 193 248 310 368 447
#     4  10  22  45  67 100 139 191 245 297 367 434
#     4  12  25  45  68 108 142 189 237 305 378 433
#     4  12  23  42  70 101 144 186 239 300 375 444
#
# _framework density 21.582574000000001
#
# number of rings (size 3 to 8) (size 9 to 14) (size 15 to 20)
#    0.000    1.000    1.250    6.000    1.750    3.500 
#    4.500    0.000    0.000    0.000    0.000    0.000 
#    0.000    0.000    0.000    0.000    0.000    0.000 
#
# Total GULP energy -89237.041508 kJ/mol
# GULP energy per Si atom -5577.315094 kJ/mol
# Density = 2.153345 g / cm^3
# Si number density = 21.582574 Si / 1000 Ang^3
#
#
#
# Elastic Constant Matrix: (Units=GPa)
#
#
# Indices 1 2 3 4 5 6 
#
# 1 99.4818 40.3683 49.9109 19.9419 -1.1858 1.8437
# 2 40.3683 110.8006 52.2079 10.2215 -11.3804 6.8876
# 3 49.9109 52.2079 123.1830 19.7304 -5.9381 9.2720
# 4 19.9419 10.2215 19.7304 30.6870 2.4042 -5.6742
# 5 -1.1858 -11.3804 -5.9381 2.4042 47.9099 -13.7095
# 6 1.8437 6.8876 9.2720 -5.6742 -13.7095 18.0377
#
#
#
# Elastic Compliance Matrix: (Units=1/GPa)
#
#
# Indices 1 2 3 4 5 6 
#
# 1 0.014261 -0.003004 -0.003475 -0.006167 -0.000786 -0.001061
# 2 -0.003004 0.012166 -0.003782 0.000022 0.002125 -0.000773
# 3 -0.003475 -0.003782 0.012565 -0.005841 -0.001269 -0.007461
# 4 -0.006167 0.000022 -0.005841 0.043707 0.002437 0.019226
# 5 -0.000786 0.002125 -0.001269 0.002437 0.027188 0.021352
# 6 -0.001061 -0.000773 -0.007461 0.019226 0.021352 0.081955
#
#
# Mechanical properties :
#
#
# Convention : Reuss Voigt Hill
#
# Bulk Modulus (GPa) = 54.14363 68.71551 61.42957
# Shear Modulus (GPa) = 22.88106 32.05881 27.46993
#
# Velocity S-wave (km/s) = 3.25955 3.85827 3.57148
# Velocity P-wave (km/s) = 6.26956 7.19416 6.74771
#
# Compressibility (1/GPa) = 0.01846939
#
# Stress axis : x y z
#
# Youngs Moduli (GPa) = 70.11996 82.19658 79.58626
#
# Poissons Ratio (x) = 0.24693 0.27658
# Poissons Ratio (y) = 0.21065 0.30100
# Poissons Ratio (z) = 0.24369 0.31087
#
# Static dielectric constant tensor:
#      x y z
#    x 2.183630 0.496310 -0.013450 
#    y 0.496310 2.818990 -0.070290 
#    z -0.013450 -0.070290 1.855610 
# 
# From -- ./inp_files/475770.got.cif
#   From: 2010.05.17/outbox.cif.g08.bks.cpg/sg2_238_cif.got.tgz:475770.got - 2010.06.03 11:33:40.
