data_PCOD9027068
_publ_section_title
;
Structure prediction by ZEFSAII (Michael W. Deem and Ramdas Pophale) SiO2 
 PCOD9027068
Probable space group: P -1
;
_chemical_formula_sum "Si O2"
_cell_formula_units_Z 16
_cell_length_a 16.649381
_cell_length_b 12.291822
_cell_length_c 5.577543
_cell_angle_alpha 93.887079
_cell_angle_beta 69.585545
_cell_angle_gamma 42.335633
_cell_volume 617.168913
_symmetry_space_group_name_H-M "P -1"
_symmetry_group_IT_number 2
_symmetry_cell_setting 'triclinic'
loop_
_space_group_symop_operation_xyz
x,y,z
-x,-y,-z
loop_
_atom_site_type_symbol
_atom_site_label
_atom_site_fract_x
_atom_site_fract_y
_atom_site_fract_z
Si Si1 0.585371 0.891621 0.146564
Si Si2 0.998797 0.884265 0.349804
Si Si3 0.030229 0.650882 0.611674
Si Si4 0.531295 0.706105 0.183150
Si Si5 0.220263 0.043161 0.687528
Si Si6 0.829987 0.706048 0.554991
Si Si7 0.536292 0.370147 0.140127
Si Si8 0.275824 0.663847 0.826073
O O1 0.611541 0.736340 0.104436
O O2 0.500000 0.000000 0.500000
O O3 0.734886 0.799592 0.913285
O O4 0.500000 0.000000 0.000000
O O5 0.062199 0.729078 0.449149
O O6 0.851414 0.979727 0.407351
O O7 0.109054 0.797527 0.999935
O O8 0.000000 0.000000 0.500000
O O9 0.974983 0.625592 0.456715
O O10 0.145687 0.444397 0.580999
O O11 0.899776 0.814924 0.958186
O O12 0.654324 0.490679 0.078180
O O13 0.393190 0.839335 0.530427
O O14 0.456390 0.752905 0.015723
O O15 0.238788 0.140436 0.544635
O O16 0.386929 0.531473 0.473747
O O17 0.685384 0.256792 0.100298
O O18 0.500000 0.500000 0.000000
#
# Coordination Sequence:
#
# PCOD9027068 Si02
#       8
#     2   2   2   2   2   2   2   2
#     4  12  26  43  66 102 141 180 231 290 346 413
#     4  11  25  42  63  95 130 169 223 278 338 409
#     4  10  23  43  66  92 130 177 225 277 343 414
#     4  11  23  40  66  97 132 176 222 281 344 411
#     4  11  23  41  67  96 130 177 222 278 340 411
#     4  10  22  43  66  96 132 174 227 280 346 409
#     4   9  21  40  65  94 128 169 222 274 344 407
#     4  10  22  41  66  96 131 172 219 283 342 412
#
# _framework density 25.92483
#
# number of rings (size 3 to 8) (size 9 to 14) (size 15 to 20)
#    0.000    1.500    1.250    2.625    1.750    8.500 
#    0.000    0.000    0.000    0.000    0.000    0.000 
#    0.000    0.000    0.000    0.000    0.000    0.000 
#
# Total GULP energy -89314.260077 kJ/mol
# GULP energy per Si atom -5582.141255 kJ/mol
# Density = 2.586582 g / cm^3
# Si number density = 25.924830 Si / 1000 Ang^3
#
#
#
# Elastic Constant Matrix: (Units=GPa)
#
#
# Indices 1 2 3 4 5 6 
#
# 1 93.5432 40.4423 38.9000 -9.4304 -21.0322 28.6944
# 2 40.4423 72.2243 2.2971 -4.2962 -6.8807 30.9179
# 3 38.9000 2.2971 148.9106 -7.9409 -24.0540 7.6485
# 4 -9.4304 -4.2962 -7.9409 31.2176 7.4981 -7.9881
# 5 -21.0322 -6.8807 -24.0540 7.4981 48.8849 2.0280
# 6 28.6944 30.9179 7.6485 -7.9881 2.0280 44.8730
#
#
#
# Elastic Compliance Matrix: (Units=1/GPa)
#
#
# Indices 1 2 3 4 5 6 
#
# 1 0.018375 -0.006798 -0.003442 0.000753 0.005413 -0.006590
# 2 -0.006798 0.022948 0.002313 -0.002002 0.002261 -0.012317
# 3 -0.003442 0.002313 0.008096 0.000458 0.002792 -0.000817
# 4 0.000753 -0.002002 0.000458 0.035291 -0.005450 0.007348
# 5 0.005413 0.002261 0.002792 -0.005450 0.025629 -0.007624
# 6 -0.006590 -0.012317 -0.000817 0.007348 -0.007624 0.036777
#
#
# Mechanical properties :
#
#
# Convention : Reuss Voigt Hill
#
# Bulk Modulus (GPa) = 29.79334 53.10632 41.44983
# Shear Modulus (GPa) = 28.70904 40.53103 34.62004
#
# Velocity S-wave (km/s) = 3.33137 3.95828 3.65828
# Velocity P-wave (km/s) = 5.12976 6.43583 5.81955
#
# Compressibility (1/GPa) = 0.03356455
#
# Stress axis : x y z
#
# Youngs Moduli (GPa) = 54.42062 43.57691 123.51158
#
# Poissons Ratio (x) = 0.29625 0.42517
# Poissons Ratio (y) = 0.36997 -0.28569
# Poissons Ratio (z) = 0.18733 -0.10080
#
# Static dielectric constant tensor:
#      x y z
#    x 2.208720 -0.142040 0.046450 
#    y -0.142040 2.267830 -0.002090 
#    z 0.046450 -0.002090 2.083040 
# 
# From -- ./inp_files/109715.got.cif
#   From: 2010.05.17/outbox.cif.g08.bks.cpg/sg2_55_cif.got.tgz:109715.got - 2010.06.03 11:33:40.
