data_PCOD9027009
_publ_section_title
;
Structure prediction by ZEFSAII (Michael W. Deem and Ramdas Pophale) SiO2 
 PCOD9027009
Probable space group: P -1
;
_chemical_formula_sum "Si O2"
_cell_formula_units_Z 14
_cell_length_a 11.980615
_cell_length_b 12.440131
_cell_length_c 6.141660
_cell_angle_alpha 70.551050
_cell_angle_beta 103.548168
_cell_angle_gamma 131.248987
_cell_volume 648.801059
_symmetry_space_group_name_H-M "P -1"
_symmetry_group_IT_number 2
_symmetry_cell_setting 'triclinic'
loop_
_space_group_symop_operation_xyz
x,y,z
-x,-y,-z
loop_
_atom_site_type_symbol
_atom_site_label
_atom_site_fract_x
_atom_site_fract_y
_atom_site_fract_z
Si Si1 0.685048 0.649651 0.248337
Si Si2 0.748752 0.126701 0.493980
Si Si3 0.927322 0.461223 0.244250
Si Si4 0.812709 0.621155 0.940460
Si Si5 0.449393 0.896919 0.251187
Si Si6 0.014210 0.139735 0.480032
Si Si7 0.573076 0.380355 0.656140
O O1 0.841861 0.755690 0.371964
O O2 0.595353 0.479406 0.395946
O O3 0.582152 0.688185 0.251791
O O4 0.723898 0.660512 0.007408
O O5 0.814545 0.283367 0.311067
O O6 0.696309 0.132984 0.702727
O O7 0.870821 0.105118 0.549418
O O8 0.594556 0.990587 0.407955
O O9 0.000000 0.500000 0.500000
O O10 0.860055 0.545700 0.161817
O O11 0.000000 0.500000 0.000000
O O12 0.950140 0.764182 0.783857
O O13 0.703310 0.499215 0.796395
O O14 0.412665 0.742371 0.303396
O O15 0.500000 0.000000 0.000000
O O16 0.000000 0.000000 0.500000
#
# Coordination Sequence:
#
# PCOD9027009 Si02
#       7
#     2   2   2   2   2   2   2
#     4  10  22  41  66  94 130 176 228 294 344 420
#     4  11  25  43  64  99 139 181 233 292 355 424
#     4  12  26  44  75 106 144 188 238 301 359 427
#     4  11  23  40  67  99 132 182 233 292 357 417
#     4  11  25  41  65  94 135 182 227 291 354 423
#     4  11  24  42  65  97 137 177 231 285 360 427
#     4  10  22  42  65  95 132 175 236 283 350 421
#
# _framework density 21.578261000000001
#
# number of rings (size 3 to 8) (size 9 to 14) (size 15 to 20)
#    0.000    1.143    1.429    3.857    6.000    4.000 
#    0.000    0.000    0.000    0.000    0.000    0.000 
#    0.000    0.000    0.000    0.000    0.000    0.000 
#
# Total GULP energy -78169.956423 kJ/mol
# GULP energy per Si atom -5583.568316 kJ/mol
# Density = 2.152915 g / cm^3
# Si number density = 21.578261 Si / 1000 Ang^3
#
#
#
# Elastic Constant Matrix: (Units=GPa)
#
#
# Indices 1 2 3 4 5 6 
#
# 1 182.1892 50.2627 35.6550 -9.9889 -23.6966 -15.2082
# 2 50.2627 99.7343 16.8458 0.4892 -13.8180 -14.4076
# 3 35.6550 16.8458 69.7138 -2.6568 -17.5568 -2.2852
# 4 -9.9889 0.4892 -2.6568 19.6761 3.3761 -2.2399
# 5 -23.6966 -13.8180 -17.5568 3.3761 42.6229 2.4672
# 6 -15.2082 -14.4076 -2.2852 -2.2399 2.4672 31.7604
#
#
#
# Elastic Compliance Matrix: (Units=1/GPa)
#
#
# Indices 1 2 3 4 5 6 
#
# 1 0.007320 -0.002731 -0.002433 0.003399 0.001786 0.002192
# 2 -0.002731 0.012439 -0.001043 -0.001724 0.001991 0.003984
# 3 -0.002433 -0.001043 0.017184 0.000087 0.005428 -0.000817
# 4 0.003399 -0.001724 0.000087 0.053703 -0.003170 0.004885
# 5 0.001786 0.001991 0.005428 -0.003170 0.027600 -0.000219
# 6 0.002192 0.003984 -0.000817 0.004885 -0.000219 0.034645
#
#
# Mechanical properties :
#
#
# Convention : Reuss Voigt Hill
#
# Bulk Modulus (GPa) = 40.76586 61.90714 51.33650
# Shear Modulus (GPa) = 28.82176 35.40347 32.11262
#
# Velocity S-wave (km/s) = 3.65867 4.05495 3.86190
# Velocity P-wave (km/s) = 6.06473 7.11866 6.61273
#
# Compressibility (1/GPa) = 0.02453033
#
# Stress axis : x y z
#
# Youngs Moduli (GPa) = 136.61489 80.39426 58.19319
#
# Poissons Ratio (x) = 0.21952 0.14157
# Poissons Ratio (y) = 0.37304 0.06069
# Poissons Ratio (z) = 0.33234 0.08384
#
# Static dielectric constant tensor:
#      x y z
#    x 1.808460 0.003460 -0.016900 
#    y 0.003460 1.757610 0.040410 
#    z -0.016900 0.040410 1.832080 
# 
# From -- ./inp_files/67575.got.cif
#   From: 2010.05.17/outbox.cif.g08.bks.cpg/sg2_34_cif.got.tgz:67575.got - 2010.06.03 11:33:40.
