data_PCOD9027153
_publ_section_title
;
Structure prediction by ZEFSAII (Michael W. Deem and Ramdas Pophale) SiO2 
 PCOD9027153
Probable space group: P -1
;
_chemical_formula_sum "Si O2"
_cell_formula_units_Z 8
_cell_length_a 12.986255
_cell_length_b 14.991457
_cell_length_c 5.091529
_cell_angle_alpha 67.974140
_cell_angle_beta 128.222531
_cell_angle_gamma 153.371542
_cell_volume 301.108469
_symmetry_space_group_name_H-M "P -1"
_symmetry_group_IT_number 2
_symmetry_cell_setting 'triclinic'
loop_
_space_group_symop_operation_xyz
x,y,z
-x,-y,-z
loop_
_atom_site_type_symbol
_atom_site_label
_atom_site_fract_x
_atom_site_fract_y
_atom_site_fract_z
Si Si1 0.736298 0.782066 0.122543
Si Si2 0.620864 0.472131 0.681323
Si Si3 0.117986 0.844067 0.672982
Si Si4 0.170026 0.658701 0.837813
O O1 0.444359 0.610133 0.043035
O O2 0.866453 0.760378 0.300045
O O3 0.601200 0.720673 0.688960
O O4 0.000000 0.000000 0.500000
O O5 0.500000 0.500000 0.500000
O O6 0.979412 0.721589 0.877376
O O7 0.146628 0.758169 0.688513
O O8 0.459481 0.116183 0.862348
O O9 0.000000 0.500000 0.500000
O O10 0.000000 0.500000 0.000000
#
# Coordination Sequence:
#
# PCOD9027153 Si02
#       4
#     2   2   2   2
#     4  11  24  40  70 106 134 179 220 276 353 409
#     4  10  22  41  66  99 137 174 216 281 342 400
#     4  10  25  46  71  98 142 173 229 284 331 406
#     4  11  28  46  70  99 131 187 231 278 333 395
#
# _framework density 26.5685
#
# number of rings (size 3 to 8) (size 9 to 14) (size 15 to 20)
#    0.000    1.500    0.000    3.750    7.000   14.000 
#    0.000    0.000    0.000    0.000    0.000    0.000 
#    0.000    0.000    0.000    0.000    0.000    0.000 
#
# Total GULP energy -44621.136417 kJ/mol
# GULP energy per Si atom -5577.642052 kJ/mol
# Density = 2.650803 g / cm^3
# Si number density = 26.568500 Si / 1000 Ang^3
#
#
#
# Elastic Constant Matrix: (Units=GPa)
#
#
# Indices 1 2 3 4 5 6 
#
# 1 188.0326 83.6704 81.4352 -0.2936 -13.3785 8.0246
# 2 83.6704 119.5394 97.2371 29.8651 -3.5368 21.6738
# 3 81.4352 97.2371 146.6463 15.6467 -12.6360 27.4729
# 4 -0.2936 29.8651 15.6467 46.5760 13.3653 12.3207
# 5 -13.3785 -3.5368 -12.6360 13.3653 66.2388 4.8232
# 6 8.0246 21.6738 27.4729 12.3207 4.8232 69.1675
#
#
#
# Elastic Compliance Matrix: (Units=1/GPa)
#
#
# Indices 1 2 3 4 5 6 
#
# 1 0.008593 -0.006172 -0.001223 0.004166 0.000284 0.000661
# 2 -0.006172 0.025910 -0.012332 -0.012527 0.000334 -0.000297
# 3 -0.001223 -0.012332 0.016102 0.002762 0.001828 -0.003009
# 4 0.004166 -0.012527 0.002762 0.030865 -0.005326 -0.002782
# 5 0.000284 0.000334 0.001828 -0.005326 0.016674 -0.001078
# 6 0.000661 -0.000297 -0.003009 -0.002782 -0.001078 0.016240
#
#
# Mechanical properties :
#
#
# Convention : Reuss Voigt Hill
#
# Bulk Modulus (GPa) = 89.68081 108.76707 99.22394
# Shear Modulus (GPa) = 31.73524 49.18818 40.46171
#
# Velocity S-wave (km/s) = 3.45986 4.30743 3.90669
# Velocity P-wave (km/s) = 7.05611 8.10961 7.60113
#
# Compressibility (1/GPa) = 0.01115066
#
# Stress axis : x y z
#
# Youngs Moduli (GPa) = 116.37678 38.59575 62.10434
#
# Poissons Ratio (x) = 0.23820 0.07598
# Poissons Ratio (y) = 0.71823 0.76586
# Poissons Ratio (z) = 0.14238 0.47596
#
# Static dielectric constant tensor:
#      x y z
#    x 2.040260 -0.015010 -0.029380 
#    y -0.015010 2.283270 0.045300 
#    z -0.029380 0.045300 2.203350 
# 
# From -- ./inp_files/74426.got.cif
#   From: 2010.05.17/outbox.cif.g08.bks.cpg/sg2_38_cif.got.tgz:74426.got - 2010.06.03 11:33:40.
