data_PCOD9027145
_publ_section_title
;
Structure prediction by ZEFSAII (Michael W. Deem and Ramdas Pophale) SiO2 
 PCOD9027145
Probable space group: P -1
;
_chemical_formula_sum "Si O2"
_cell_formula_units_Z 14
_cell_length_a 11.549064
_cell_length_b 5.213492
_cell_length_c 15.991655
_cell_angle_alpha 91.468502
_cell_angle_beta 136.974411
_cell_angle_gamma 110.262281
_cell_volume 554.800099
_symmetry_space_group_name_H-M "P -1"
_symmetry_group_IT_number 2
_symmetry_cell_setting 'triclinic'
loop_
_space_group_symop_operation_xyz
x,y,z
-x,-y,-z
loop_
_atom_site_type_symbol
_atom_site_label
_atom_site_fract_x
_atom_site_fract_y
_atom_site_fract_z
Si Si1 0.494938 0.070545 0.594211
Si Si2 0.526497 0.225762 0.089334
Si Si3 0.305863 0.270975 0.231248
Si Si4 0.833509 0.760456 0.138261
Si Si5 0.112863 0.054923 0.430534
Si Si6 0.090923 0.353448 0.985607
Si Si7 0.184206 0.461547 0.613655
O O1 0.611844 0.436160 0.665248
O O2 0.500000 0.000000 0.500000
O O3 0.591935 0.919993 0.698091
O O4 0.268360 0.948308 0.502075
O O5 0.680704 0.542736 0.127236
O O6 0.638124 0.262169 0.236804
O O7 0.304502 0.154721 0.984720
O O8 0.500000 0.000000 0.000000
O O9 0.292385 0.406890 0.135951
O O10 0.072228 0.006259 0.116096
O O11 0.876243 0.562351 0.094483
O O12 0.023416 0.029776 0.290627
O O13 0.920985 0.834744 0.384478
O O14 0.231375 0.362429 0.549824
O O15 0.000000 0.500000 0.000000
O O16 0.000000 0.500000 0.500000
#
# Coordination Sequence:
#
# PCOD9027145 Si02
#       7
#     2   2   2   2   2   2   2
#     4  12  26  47  72 106 146 188 243 295 358 431
#     4  10  22  41  66  99 133 178 232 288 354 425
#     4  11  26  46  70 106 142 191 242 291 359 425
#     4  10  23  44  66  96 135 182 236 288 356 422
#     4  10  24  42  67  96 137 181 233 292 356 421
#     4  11  24  46  72 101 146 188 239 300 358 426
#     4  10  22  42  66  98 135 179 229 292 356 422
#
# _framework density 25.234314000000001
#
# number of rings (size 3 to 8) (size 9 to 14) (size 15 to 20)
#    0.000    1.429    1.429    2.143    4.000    3.429 
#    2.571    0.000    0.000    0.000    0.000    0.000 
#    0.000    0.000    0.000    0.000    0.000    0.000 
#
# Total GULP energy -78094.026908 kJ/mol
# GULP energy per Si atom -5578.144779 kJ/mol
# Density = 2.517688 g / cm^3
# Si number density = 25.234314 Si / 1000 Ang^3
#
#
#
# Elastic Constant Matrix: (Units=GPa)
#
#
# Indices 1 2 3 4 5 6 
#
# 1 119.8371 27.7436 62.9627 -0.5391 -28.1312 -39.5014
# 2 27.7436 86.1584 53.4828 9.8030 -6.0649 -25.1819
# 3 62.9627 53.4828 230.8747 -4.5625 -33.7579 -41.9578
# 4 -0.5391 9.8030 -4.5625 46.4149 -5.3311 4.5252
# 5 -28.1312 -6.0649 -33.7579 -5.3311 41.6436 14.0900
# 6 -39.5014 -25.1819 -41.9578 4.5252 14.0900 43.0058
#
#
#
# Elastic Compliance Matrix: (Units=1/GPa)
#
#
# Indices 1 2 3 4 5 6 
#
# 1 0.013205 -0.000517 -0.001113 -0.000190 0.004811 0.009184
# 2 -0.000517 0.016112 -0.002764 -0.004863 -0.003552 0.007938
# 3 -0.001113 -0.002764 0.006177 0.001345 0.003292 0.002165
# 4 -0.000190 -0.004863 0.001345 0.023897 0.005334 -0.005971
# 5 0.004811 -0.003552 0.003292 0.005334 0.031951 -0.005478
# 6 0.009184 0.007938 0.002165 -0.005971 -0.005478 0.040872
#
#
# Mechanical properties :
#
#
# Convention : Reuss Voigt Hill
#
# Bulk Modulus (GPa) = 37.44426 80.58317 59.01372
# Shear Modulus (GPa) = 33.35480 45.72493 39.53986
#
# Velocity S-wave (km/s) = 3.63961 4.26139 3.96271
# Velocity P-wave (km/s) = 5.70378 7.49773 6.66142
#
# Compressibility (1/GPa) = 0.02670636
#
# Stress axis : x y z
#
# Youngs Moduli (GPa) = 75.72991 62.06460 161.90052
#
# Poissons Ratio (x) = 0.03208 0.18012
# Poissons Ratio (y) = 0.03914 0.44754
# Poissons Ratio (z) = 0.08425 0.17156
#
# Static dielectric constant tensor:
#      x y z
#    x 2.114960 0.052060 -0.061270 
#    y 0.052060 2.082490 -0.036440 
#    z -0.061270 -0.036440 2.078950 
# 
# From -- ./inp_files/124635.got.cif
#   From: 2010.05.17/outbox.cif.g08.bks.cpg/sg2_63_cif.got.tgz:124635.got - 2010.06.03 11:33:40.
