data_PCOD9027354
_publ_section_title
;
Structure prediction by ZEFSAII (Michael W. Deem and Ramdas Pophale) SiO2 
 PCOD9027354
Probable space group: P -1
;
_chemical_formula_sum "Si O2"
_cell_formula_units_Z 16
_cell_length_a 8.804546
_cell_length_b 14.362207
_cell_length_c 21.926460
_cell_angle_alpha 17.856680
_cell_angle_beta 117.648323
_cell_angle_gamma 109.937233
_cell_volume 699.452111
_symmetry_space_group_name_H-M "P -1"
_symmetry_group_IT_number 2
_symmetry_cell_setting 'triclinic'
loop_
_space_group_symop_operation_xyz
x,y,z
-x,-y,-z
loop_
_atom_site_type_symbol
_atom_site_label
_atom_site_fract_x
_atom_site_fract_y
_atom_site_fract_z
Si Si1 0.740618 0.986597 0.380584
Si Si2 0.587048 0.506447 0.796433
Si Si3 0.045092 0.674993 0.456875
Si Si4 0.442816 0.701377 0.509874
Si Si5 0.048761 0.320264 0.801746
Si Si6 0.941196 0.213535 0.192210
Si Si7 0.762607 0.990102 0.522688
Si Si8 0.539740 0.006428 0.929849
O O1 0.542451 0.952763 0.357761
O O2 0.890422 0.627329 0.612381
O O3 0.794007 0.035726 0.429189
O O4 0.763644 0.266084 0.168026
O O5 0.496604 0.616798 0.643668
O O6 0.756009 0.626315 0.753492
O O7 0.438342 0.738068 0.670989
O O8 0.606437 0.133230 0.038063
O O9 0.227319 0.764465 0.424894
O O10 0.000000 0.500000 0.500000
O O11 0.063927 0.410170 0.678277
O O12 0.917468 0.004725 0.261119
O O13 0.527613 0.373218 0.689878
O O14 0.264605 0.222895 0.919477
O O15 0.000000 0.000000 0.000000
O O16 0.102750 0.005085 0.400155
O O17 0.000000 0.500000 0.000000
O O18 0.500000 0.000000 0.000000
#
# Coordination Sequence:
#
# PCOD9027354 Si02
#       8
#     2   2   2   2   2   2   2   2
#     4  10  22  37  66  95 122 159 204 263 313 364
#     4   9  17  31  60  91 120 151 200 255 306 359
#     4  11  24  42  64  85 124 173 208 250 308 379
#     4  10  18  37  63  88 122 159 205 253 319 359
#     4  11  20  35  60  96 128 150 204 259 313 360
#     4  11  24  43  59  87 129 167 204 252 313 376
#     4  10  19  36  63  91 119 156 204 255 308 360
#     4  10  17  31  57  90 120 154 192 253 304 363
#
# _framework density 22.875046999999999
#
# number of rings (size 3 to 8) (size 9 to 14) (size 15 to 20)
#    0.000    1.750    5.000    1.125    0.000    2.000 
#    0.000    3.125    2.750    0.000    0.000    0.000 
#    0.000    0.000    0.000    0.000    0.000    0.000 
#
# Total GULP energy -89118.335073 kJ/mol
# GULP energy per Si atom -5569.895942 kJ/mol
# Density = 2.282298 g / cm^3
# Si number density = 22.875047 Si / 1000 Ang^3
#
#
#
# Elastic Constant Matrix: (Units=GPa)
#
#
# Indices 1 2 3 4 5 6 
#
# 1 137.2509 41.8078 29.1991 -2.9743 -30.7246 5.1402
# 2 41.8078 134.7710 18.4797 -10.0503 -7.3926 7.7670
# 3 29.1991 18.4797 41.6883 -14.7158 -19.5222 -7.5235
# 4 -2.9743 -10.0503 -14.7158 23.2954 7.1930 -0.2971
# 5 -30.7246 -7.3926 -19.5222 7.1930 42.0385 -15.3712
# 6 5.1402 7.7670 -7.5235 -0.2971 -15.3712 36.4952
#
#
#
# Elastic Compliance Matrix: (Units=1/GPa)
#
#
# Indices 1 2 3 4 5 6 
#
# 1 0.010289 -0.002574 -0.004953 -0.004691 0.005736 0.000455
# 2 -0.002574 0.008943 -0.003997 0.002193 -0.004017 -0.004038
# 3 -0.004953 -0.003997 0.053664 0.024120 0.025005 0.023339
# 4 -0.004691 0.002193 0.024120 0.058508 0.000249 0.005747
# 5 0.005736 -0.004017 0.025005 0.000249 0.048163 0.025489
# 6 0.000455 -0.004038 0.023339 0.005747 0.025489 0.043790
#
#
# Mechanical properties :
#
#
# Convention : Reuss Voigt Hill
#
# Bulk Modulus (GPa) = 20.06088 54.74259 37.40173
# Shear Modulus (GPa) = 19.00992 35.31407 27.16199
#
# Velocity S-wave (km/s) = 2.88589 3.93336 3.44962
# Velocity P-wave (km/s) = 4.46019 6.67919 5.67912
#
# Compressibility (1/GPa) = 0.04984826
#
# Stress axis : x y z
#
# Youngs Moduli (GPa) = 97.18948 111.82543 18.63437
#
# Poissons Ratio (x) = 0.28785 0.09230
# Poissons Ratio (y) = 0.25018 0.07447
# Poissons Ratio (z) = 0.48139 0.44692
#
# Static dielectric constant tensor:
#      x y z
#    x 1.934030 0.043370 0.032970 
#    y 0.043370 1.851230 0.026720 
#    z 0.032970 0.026720 2.011730 
# 
# From -- ./inp_files/608044.got.cif
#   From: 2010.05.17/outbox.cif.g08.bks.cpg/sg2_305_cif.got.tgz:608044.got - 2010.06.03 11:33:40.
