data_PCOD9027441
_publ_section_title
;
Structure prediction by ZEFSAII (Michael W. Deem and Ramdas Pophale) SiO2 
 PCOD9027441
Probable space group: P -1
;
_chemical_formula_sum "Si O2"
_cell_formula_units_Z 14
_cell_length_a 7.853055
_cell_length_b 5.858719
_cell_length_c 12.897373
_cell_angle_alpha 103.478605
_cell_angle_beta 84.873205
_cell_angle_gamma 91.511355
_cell_volume 574.731411
_symmetry_space_group_name_H-M "P -1"
_symmetry_group_IT_number 2
_symmetry_cell_setting 'triclinic'
loop_
_space_group_symop_operation_xyz
x,y,z
-x,-y,-z
loop_
_atom_site_type_symbol
_atom_site_label
_atom_site_fract_x
_atom_site_fract_y
_atom_site_fract_z
Si Si1 0.369183 0.688211 0.750343
Si Si2 0.988415 0.158928 0.183163
Si Si3 0.507174 0.853141 0.088980
Si Si4 0.882315 0.615102 0.606543
Si Si5 0.443925 0.129927 0.414741
Si Si6 0.139680 0.299842 0.982009
Si Si7 0.329732 0.671102 0.252326
O O1 0.173786 0.662671 0.792003
O O2 0.397315 0.732540 0.631430
O O3 0.505723 0.496670 0.757232
O O4 0.428718 0.937461 0.818556
O O5 0.043813 0.171715 0.302106
O O6 0.922419 0.912373 0.112947
O O7 0.129835 0.229943 0.097574
O O8 0.661272 0.667426 0.052326
O O9 0.337556 0.738725 0.136898
O O10 0.500000 0.000000 0.000000
O O11 0.713715 0.693532 0.562319
O O12 0.824142 0.442956 0.686353
O O13 0.000000 0.500000 0.500000
O O14 0.500000 0.000000 0.500000
O O15 0.371252 0.913759 0.330080
O O16 0.000000 0.500000 0.000000
#
# Coordination Sequence:
#
# PCOD9027441 Si02
#       7
#     2   2   2   2   2   2   2
#     4   9  21  42  66  94 132 178 222 284 338 410
#     4  10  23  43  66 101 140 172 236 280 335 419
#     4  10  22  41  68 101 132 169 233 283 339 414
#     4  11  27  46  67 102 142 184 228 287 344 409
#     4  10  24  43  67  98 127 176 239 282 338 407
#     4  10  22  43  71  97 134 186 219 286 351 398
#     4  10  23  43  68  95 132 184 224 279 351 405
#
# _framework density 24.359206
#
# number of rings (size 3 to 8) (size 9 to 14) (size 15 to 20)
#    0.000    2.000    0.000    0.857   10.000    3.429 
#    5.143    0.000    0.000    0.000    0.000    0.000 
#    0.000    0.000    0.000    0.000    0.000    0.000 
#
# Total GULP energy -78115.244638 kJ/mol
# GULP energy per Si atom -5579.660331 kJ/mol
# Density = 2.430376 g / cm^3
# Si number density = 24.359206 Si / 1000 Ang^3
#
#
#
# Elastic Constant Matrix: (Units=GPa)
#
#
# Indices 1 2 3 4 5 6 
#
# 1 84.6314 23.8449 63.8902 -1.1064 -31.4579 -7.5593
# 2 23.8449 69.6093 50.6049 -2.0998 -22.3045 -13.8242
# 3 63.8902 50.6049 186.7897 -9.8776 -16.9972 -1.3115
# 4 -1.1064 -2.0998 -9.8776 56.6109 2.3156 -3.9041
# 5 -31.4579 -22.3045 -16.9972 2.3156 44.0876 -2.1269
# 6 -7.5593 -13.8242 -1.3115 -3.9041 -2.1269 32.7429
#
#
#
# Elastic Compliance Matrix: (Units=1/GPa)
#
#
# Indices 1 2 3 4 5 6 
#
# 1 0.022946 0.004272 -0.007535 -0.000830 0.016046 0.007743
# 2 0.004272 0.024509 -0.006794 0.000083 0.013400 0.011942
# 3 -0.007535 -0.006794 0.009300 0.001141 -0.005503 -0.004457
# 4 -0.000830 0.000083 0.001141 0.018026 -0.000962 0.001976
# 5 0.016046 0.013400 -0.005503 -0.000962 0.039399 0.011586
# 6 0.007743 0.011942 -0.004457 0.001976 0.011586 0.038180
#
#
# Mechanical properties :
#
#
# Convention : Reuss Voigt Hill
#
# Bulk Modulus (GPa) = 27.29162 68.63447 47.96305
# Shear Modulus (GPa) = 27.07269 40.20097 33.63683
#
# Velocity S-wave (km/s) = 3.33738 4.06684 3.72003
# Velocity P-wave (km/s) = 5.10675 7.09151 6.17934
#
# Compressibility (1/GPa) = 0.03664128
#
# Stress axis : x y z
#
# Youngs Moduli (GPa) = 43.58071 40.80051 107.52912
#
# Poissons Ratio (x) = -0.17430 0.81026
# Poissons Ratio (y) = -0.18617 0.73052
# Poissons Ratio (z) = 0.32839 0.27718
#
# Static dielectric constant tensor:
#      x y z
#    x 1.981880 0.058350 -0.121280 
#    y 0.058350 1.849700 0.229240 
#    z -0.121280 0.229240 1.443400 
# 
# From -- ./inp_files/39796.got.cif
#   From: 2010.05.17/outbox.cif.g08.bks.cpg/sg2_20_cif.got.tgz:39796.got - 2010.06.03 11:33:40.
