data_PCOD9027268
_publ_section_title
;
Structure prediction by ZEFSAII (Michael W. Deem and Ramdas Pophale) SiO2 
 PCOD9027268
Probable space group: P -1
;
_chemical_formula_sum "Si O2"
_cell_formula_units_Z 12
_cell_length_a 9.322961
_cell_length_b 9.717850
_cell_length_c 9.818527
_cell_angle_alpha 81.847155
_cell_angle_beta 57.733931
_cell_angle_gamma 41.608990
_cell_volume 443.935774
_symmetry_space_group_name_H-M "P -1"
_symmetry_group_IT_number 2
_symmetry_cell_setting 'triclinic'
loop_
_space_group_symop_operation_xyz
x,y,z
-x,-y,-z
loop_
_atom_site_type_symbol
_atom_site_label
_atom_site_fract_x
_atom_site_fract_y
_atom_site_fract_z
Si Si1 0.128712 0.771141 0.326663
Si Si2 0.240576 0.447034 0.515781
Si Si3 0.809234 0.511648 0.839165
Si Si4 0.739253 0.067534 0.112281
Si Si5 0.560814 0.251416 0.641584
Si Si6 0.682542 0.818920 0.060540
O O1 0.123816 0.650787 0.457973
O O2 0.119917 0.695231 0.199178
O O3 0.402780 0.675991 0.254358
O O4 0.864037 0.047624 0.439756
O O5 0.528174 0.204613 0.330329
O O6 0.327716 0.445159 0.621716
O O7 0.017309 0.470035 0.645578
O O8 0.486014 0.734417 0.917173
O O9 0.837402 0.582803 0.951636
O O10 0.828578 0.855937 0.047626
O O11 0.000000 0.000000 0.000000
O O12 0.505771 0.130318 0.735200
O O13 0.500000 0.000000 0.000000
#
# Coordination Sequence:
#
# PCOD9027268 Si02
#       6
#     2   2   2   2   2   2
#     4  10  22  42  65  99 134 171 225 275 326 391
#     4  11  23  44  69  97 133 176 222 271 330 398
#     4  10  22  41  67  93 136 179 215 274 330 388
#     4  10  22  41  70  99 130 175 220 274 336 390
#     4  11  24  40  69  99 132 181 221 270 334 393
#     4  10  22  42  64  95 135 173 219 272 330 388
#
# _framework density 27.030939
#
# number of rings (size 3 to 8) (size 9 to 14) (size 15 to 20)
#    0.000    1.667    0.000    5.500    0.000   13.333 
#    0.000    1.667    0.000    0.000    0.000    1.167 
#    0.000    0.000    0.000    0.000    0.000    0.000 
#
# Total GULP energy -67170.868694 kJ/mol
# GULP energy per Si atom -5597.572391 kJ/mol
# Density = 2.696942 g / cm^3
# Si number density = 27.030939 Si / 1000 Ang^3
#
#
#
# Elastic Constant Matrix: (Units=GPa)
#
#
# Indices 1 2 3 4 5 6 
#
# 1 262.2106 39.1457 67.2187 2.8163 -1.0589 26.4103
# 2 39.1457 90.2323 19.5776 6.9793 -1.0423 8.7236
# 3 67.2187 19.5776 96.4763 10.9804 -3.2438 11.0476
# 4 2.8163 6.9793 10.9804 42.4079 1.9224 6.8727
# 5 -1.0589 -1.0423 -3.2438 1.9224 60.0448 -4.8261
# 6 26.4103 8.7236 11.0476 6.8727 -4.8261 53.4249
#
#
#
# Elastic Compliance Matrix: (Units=1/GPa)
#
#
# Indices 1 2 3 4 5 6 
#
# 1 0.004984 -0.001399 -0.003112 0.001001 -0.000277 -0.001746
# 2 -0.001399 0.012151 -0.001225 -0.001457 0.000099 -0.000843
# 3 -0.003112 -0.001225 0.013204 -0.002953 0.000688 -0.000550
# 4 0.001001 -0.001457 -0.002953 0.025056 -0.001209 -0.002979
# 5 -0.000277 0.000099 0.000688 -0.001209 0.016860 0.001657
# 6 -0.001746 -0.000843 -0.000550 -0.002979 0.001657 0.020365
#
#
# Mechanical properties :
#
#
# Convention : Reuss Voigt Hill
#
# Bulk Modulus (GPa) = 53.00385 77.86703 65.43544
# Shear Modulus (GPa) = 45.29720 52.70735 49.00227
#
# Velocity S-wave (km/s) = 4.09804 4.42055 4.26234
# Velocity P-wave (km/s) = 6.48406 7.41108 6.96302
#
# Compressibility (1/GPa) = 0.01886656
#
# Stress axis : x y z
#
# Youngs Moduli (GPa) = 200.62717 82.30048 75.73228
#
# Poissons Ratio (x) = 0.11513 0.23569
# Poissons Ratio (y) = 0.28067 0.09279
# Poissons Ratio (z) = 0.62439 0.10084
#
# Static dielectric constant tensor:
#      x y z
#    x 2.098420 -0.056970 0.048050 
#    y -0.056970 2.086020 0.002220 
#    z 0.048050 0.002220 2.176610 
# 
# From -- ./inp_files/145869.got.cif
#   From: 2010.05.17/outbox.cif.g08.bks.cpg/sg2_73_cif.got.tgz:145869.got - 2010.06.03 11:33:40.
