data_PCOD9027511
_publ_section_title
;
Structure prediction by ZEFSAII (Michael W. Deem and Ramdas Pophale) SiO2 
 PCOD9027511
Probable space group: P -1
;
_chemical_formula_sum "Si O2"
_cell_formula_units_Z 16
_cell_length_a 8.713940
_cell_length_b 7.325571
_cell_length_c 18.329217
_cell_angle_alpha 97.945369
_cell_angle_beta 93.313356
_cell_angle_gamma 37.809293
_cell_volume 707.837466
_symmetry_space_group_name_H-M "P -1"
_symmetry_group_IT_number 2
_symmetry_cell_setting 'triclinic'
loop_
_space_group_symop_operation_xyz
x,y,z
-x,-y,-z
loop_
_atom_site_type_symbol
_atom_site_label
_atom_site_fract_x
_atom_site_fract_y
_atom_site_fract_z
Si Si1 0.507468 0.378299 0.567374
Si Si2 0.705381 0.241186 0.843715
Si Si3 0.195571 0.113961 0.052647
Si Si4 0.055784 0.326155 0.272561
Si Si5 0.704486 0.829571 0.095697
Si Si6 0.654255 0.416540 0.273228
Si Si7 0.032887 0.303894 0.435131
Si Si8 0.041776 0.208502 0.780421
O O1 0.500000 0.500000 0.500000
O O2 0.532957 0.428298 0.654873
O O3 0.236725 0.536670 0.571546
O O4 0.752272 0.025070 0.544242
O O5 0.447671 0.518141 0.808049
O O6 0.855428 0.286623 0.836178
O O7 0.747610 0.136013 0.921892
O O8 0.806453 0.963765 0.786455
O O9 0.922178 0.462802 0.082267
O O10 0.426660 0.017048 0.085115
O O11 0.227473 0.101448 0.966174
O O12 0.774351 0.506269 0.277271
O O13 0.131740 0.263057 0.355283
O O14 0.074919 0.511200 0.250786
O O15 0.732971 0.909668 0.175884
O O16 0.857770 0.063444 0.275559
O O17 0.000000 0.500000 0.500000
#
# Coordination Sequence:
#
# PCOD9027511 Si02
#       8
#     2   2   2   2   2   2   2   2
#     4  11  24  44  66  92 133 167 207 269 321 374
#     4  11  22  40  64  95 126 170 210 269 318 377
#     4  10  22  41  68  88 132 170 209 262 323 377
#     4  10  22  43  62  88 134 167 211 267 319 377
#     4  10  22  42  64  96 123 174 213 256 323 382
#     4  10  24  41  62  93 131 167 214 261 328 375
#     4  11  24  43  66  96 125 170 217 256 321 382
#     4  11  24  38  66  98 123 169 220 262 317 384
#
# _framework density 22.604061000000002
#
# number of rings (size 3 to 8) (size 9 to 14) (size 15 to 20)
#    0.000    1.500    2.500    1.500    5.250    2.500 
#    0.000    0.625    0.000    0.000    0.000    0.000 
#    0.000    0.000    0.000    0.000    0.000    0.000 
#
# Total GULP energy -89250.035499 kJ/mol
# GULP energy per Si atom -5578.127219 kJ/mol
# Density = 2.255261 g / cm^3
# Si number density = 22.604061 Si / 1000 Ang^3
#
#
#
# Elastic Constant Matrix: (Units=GPa)
#
#
# Indices 1 2 3 4 5 6 
#
# 1 59.3017 34.0810 10.9121 -16.3252 -10.2659 10.4662
# 2 34.0810 135.7910 33.5163 -33.7544 -20.5500 13.4426
# 3 10.9121 33.5163 68.9678 -31.1958 -16.6033 13.6129
# 4 -16.3252 -33.7544 -31.1958 40.9071 4.0322 -9.3914
# 5 -10.2659 -20.5500 -16.6033 4.0322 35.9157 -17.0149
# 6 10.4662 13.4426 13.6129 -9.3914 -17.0149 39.9587
#
#
#
# Elastic Compliance Matrix: (Units=1/GPa)
#
#
# Indices 1 2 3 4 5 6 
#
# 1 0.021275 -0.003586 0.002697 0.006735 0.003465 -0.002226
# 2 -0.003586 0.010665 -0.000766 0.006588 0.004492 0.001074
# 3 0.002697 -0.000766 0.025338 0.018683 0.009679 -0.000568
# 4 0.006735 0.006588 0.018683 0.046967 0.011759 0.005701
# 5 0.003465 0.004492 0.009679 0.011759 0.041539 0.014735
# 6 -0.002226 0.001074 -0.000568 0.005701 0.014735 0.033056
#
#
# Mechanical properties :
#
#
# Convention : Reuss Voigt Hill
#
# Bulk Modulus (GPa) = 18.52997 46.78660 32.65828
# Shear Modulus (GPa) = 24.98283 35.72636 30.35459
#
# Velocity S-wave (km/s) = 3.32812 3.97990 3.66851
# Velocity P-wave (km/s) = 4.79415 6.47014 5.69415
#
# Compressibility (1/GPa) = 0.05396663
#
# Stress axis : x y z
#
# Youngs Moduli (GPa) = 47.00453 93.76862 39.46650
#
# Poissons Ratio (x) = 0.33627 -0.10643
# Poissons Ratio (y) = 0.16857 0.03022
# Poissons Ratio (z) = -0.12676 0.07179
#
# Static dielectric constant tensor:
#      x y z
#    x 1.826510 -0.008720 -0.021670 
#    y -0.008720 1.826050 0.013300 
#    z -0.021670 0.013300 1.895710 
# 
# From -- ./inp_files/10719.got.cif
#   From: 2010.05.17/outbox.cif.g08.bks.cpg/sg2_6_cif.got.tgz:10719.got - 2010.06.03 11:33:40.
