data_PCOD9027966
_publ_section_title
;
Structure prediction by ZEFSAII (Michael W. Deem and Ramdas Pophale) SiO2 
 PCOD9027966
Probable space group: P -1
;
_chemical_formula_sum "Si O2"
_cell_formula_units_Z 12
_cell_length_a 10.153386
_cell_length_b 9.294690
_cell_length_c 10.484242
_cell_angle_alpha 92.431017
_cell_angle_beta 73.911224
_cell_angle_gamma 148.886034
_cell_volume 451.845062
_symmetry_space_group_name_H-M "P -1"
_symmetry_group_IT_number 2
_symmetry_cell_setting 'triclinic'
loop_
_space_group_symop_operation_xyz
x,y,z
-x,-y,-z
loop_
_atom_site_type_symbol
_atom_site_label
_atom_site_fract_x
_atom_site_fract_y
_atom_site_fract_z
Si Si1 0.966815 0.142580 0.011375
Si Si2 0.928902 0.392166 0.659595
Si Si3 0.706362 0.668830 0.625638
Si Si4 0.545107 0.308510 0.429666
Si Si5 0.529007 0.869568 0.918117
Si Si6 0.014764 0.773508 0.719812
O O1 0.250286 0.509918 0.957873
O O2 0.764499 0.002279 0.944332
O O3 0.829404 0.051706 0.183448
O O4 0.000000 0.000000 0.000000
O O5 0.000000 0.500000 0.500000
O O6 0.218924 0.594326 0.650068
O O7 0.861252 0.479232 0.750207
O O8 0.677345 0.047384 0.748219
O O9 0.640002 0.479109 0.540248
O O10 0.477217 0.583664 0.663332
O O11 0.785230 0.685577 0.744346
O O12 0.000000 0.000000 0.500000
O O13 0.237392 0.970524 0.549875
O O14 0.500000 0.000000 0.000000
#
# Coordination Sequence:
#
# PCOD9027966 Si02
#       6
#     2   2   2   2   2   2
#     4  12  30  57  85 121 162 230 284 344 410 504
#     4  12  26  47  79 123 158 212 273 340 415 500
#     4   9  20  41  63 107 152 205 253 330 404 477
#     4  10  22  41  70 109 157 202 260 338 412 479
#     4  12  29  57  87 118 170 223 280 345 416 495
#     4  11  24  45  78 108 162 205 277 338 410 485
#
# _framework density 26.557777000000002
#
# number of rings (size 3 to 8) (size 9 to 14) (size 15 to 20)
#    0.000    1.000    3.333    1.500    4.667    5.333 
#    6.000    0.000    0.000    0.000    0.000    0.000 
#    0.000    0.000    0.000    0.000    0.000    0.000 
#
# Total GULP energy -67178.626307 kJ/mol
# GULP energy per Si atom -5598.218859 kJ/mol
# Density = 2.649733 g / cm^3
# Si number density = 26.557777 Si / 1000 Ang^3
#
#
#
# Elastic Constant Matrix: (Units=GPa)
#
#
# Indices 1 2 3 4 5 6 
#
# 1 182.1278 58.6825 37.8229 -13.4480 26.6319 10.1269
# 2 58.6825 156.2978 29.9453 -24.6219 9.4382 -10.7804
# 3 37.8229 29.9453 118.8676 -12.3597 14.5778 -10.9455
# 4 -13.4480 -24.6219 -12.3597 44.0965 -7.8792 -0.2091
# 5 26.6319 9.4382 14.5778 -7.8792 24.7985 2.1990
# 6 10.1269 -10.7804 -10.9455 -0.2091 2.1990 47.1284
#
#
#
# Elastic Compliance Matrix: (Units=1/GPa)
#
#
# Indices 1 2 3 4 5 6 
#
# 1 0.007562 -0.002450 -0.001260 -0.000576 -0.006437 -0.002180
# 2 -0.002450 0.008156 -0.000806 0.003771 0.001006 0.002175
# 3 -0.001260 -0.000806 0.009869 0.001233 -0.003978 0.002570
# 4 -0.000576 0.003771 0.001233 0.026150 0.006671 0.001077
# 5 -0.006437 0.001006 -0.003978 0.006671 0.051462 -0.001682
# 6 -0.002180 0.002175 0.002570 0.001077 -0.001682 0.022865
#
#
# Mechanical properties :
#
#
# Convention : Reuss Voigt Hill
#
# Bulk Modulus (GPa) = 60.40659 78.91050 69.65855
# Shear Modulus (GPa) = 35.55833 45.26086 40.40960
#
# Velocity S-wave (km/s) = 3.66307 4.13272 3.90497
# Velocity P-wave (km/s) = 6.37852 7.24913 6.82771
#
# Compressibility (1/GPa) = 0.01655448
#
# Stress axis : x y z
#
# Youngs Moduli (GPa) = 132.24492 122.61537 101.32330
#
# Poissons Ratio (x) = 0.30041 0.12767
# Poissons Ratio (y) = 0.32400 0.08167
# Poissons Ratio (z) = 0.16663 0.09884
#
# Static dielectric constant tensor:
#      x y z
#    x 2.061760 0.060360 0.000800 
#    y 0.060360 2.502240 -0.129360 
#    z 0.000800 -0.129360 2.144910 
# 
# From -- ./inp_files/376111.got.cif
#   From: 2010.05.17/outbox.cif.g08.bks.cpg/sg2_189_cif.got.tgz:376111.got - 2010.06.03 11:33:40.
