data_PCOD9027797
_publ_section_title
;
Structure prediction by ZEFSAII (Michael W. Deem and Ramdas Pophale) SiO2 
 PCOD9027797
Probable space group: P -1
;
_chemical_formula_sum "Si O2"
_cell_formula_units_Z 16
_cell_length_a 14.938770
_cell_length_b 14.952436
_cell_length_c 15.415581
_cell_angle_alpha 152.857311
_cell_angle_beta 47.678766
_cell_angle_gamma 148.570435
_cell_volume 763.712033
_symmetry_space_group_name_H-M "P -1"
_symmetry_group_IT_number 2
_symmetry_cell_setting 'triclinic'
loop_
_space_group_symop_operation_xyz
x,y,z
-x,-y,-z
loop_
_atom_site_type_symbol
_atom_site_label
_atom_site_fract_x
_atom_site_fract_y
_atom_site_fract_z
Si Si1 0.376142 0.201877 0.595369
Si Si2 0.947182 0.325459 0.294912
Si Si3 0.202150 0.675260 0.785500
Si Si4 0.239249 0.062187 0.232164
Si Si5 0.330125 0.755594 0.333462
Si Si6 0.030980 0.974270 0.555470
Si Si7 0.452492 0.319193 0.960356
Si Si8 0.512399 0.761096 0.627859
O O1 0.467165 0.202066 0.456261
O O2 0.286602 0.918132 0.464306
O O3 0.238399 0.182884 0.622591
O O4 0.496663 0.482795 0.820979
O O5 0.871360 0.362691 0.295339
O O6 0.000000 0.500000 0.500000
O O7 0.137795 0.457739 0.248616
O O8 0.764184 0.985284 0.149876
O O9 0.400521 0.814556 0.775148
O O10 0.074360 0.355201 0.637333
O O11 0.218278 0.886382 0.016160
O O12 0.389776 0.415550 0.422448
O O13 0.307327 0.042968 0.260607
O O14 0.050859 0.949556 0.269340
O O15 0.417185 0.713725 0.168922
O O16 0.500000 0.000000 0.500000
O O17 0.000000 0.000000 0.500000
O O18 0.500000 0.500000 0.000000
#
# Coordination Sequence:
#
# PCOD9027797 Si02
#       8
#     2   2   2   2   2   2   2   2
#     4  12  24  46  70 101 143 184 236 295 358 425
#     4  12  25  46  73 103 144 187 236 295 363 425
#     4  11  24  43  68 100 134 186 237 284 361 430
#     4  10  22  43  64  99 133 178 235 284 352 429
#     4  12  25  49  72 102 146 186 236 300 360 431
#     4  11  24  44  67  98 144 184 232 296 353 417
#     4  12  27  47  73 108 141 190 244 297 363 434
#     4  10  22  41  69  93 137 177 224 298 350 414
#
# _framework density 20.950305
#
# number of rings (size 3 to 8) (size 9 to 14) (size 15 to 20)
#    0.000    0.750    5.000    1.875    1.750    1.000 
#    4.500    0.000    0.000    0.000    0.000    0.000 
#    0.000    0.000    0.000    0.000    0.000    0.000 
#
# Total GULP energy -89302.275384 kJ/mol
# GULP energy per Si atom -5581.392212 kJ/mol
# Density = 2.090262 g / cm^3
# Si number density = 20.950305 Si / 1000 Ang^3
#
#
#
# Elastic Constant Matrix: (Units=GPa)
#
#
# Indices 1 2 3 4 5 6 
#
# 1 104.3471 17.9003 39.2252 2.0513 2.3457 -13.2052
# 2 17.9003 108.4358 43.3958 7.4485 -5.3564 0.5248
# 3 39.2252 43.3958 105.1544 -27.4679 -4.0528 0.6616
# 4 2.0513 7.4485 -27.4679 28.8726 0.6767 1.2806
# 5 2.3457 -5.3564 -4.0528 0.6767 23.3451 -9.9960
# 6 -13.2052 0.5248 0.6616 1.2806 -9.9960 36.8603
#
#
#
# Elastic Compliance Matrix: (Units=1/GPa)
#
#
# Indices 1 2 3 4 5 6 
#
# 1 0.013153 0.001660 -0.008031 -0.009237 0.000158 0.005196
# 2 0.001660 0.013797 -0.009614 -0.012955 0.002424 0.001678
# 3 -0.008031 -0.009614 0.023083 0.025184 0.000173 -0.003982
# 4 -0.009237 -0.012955 0.025184 0.062926 -0.002222 -0.006365
# 5 0.000158 0.002424 0.000173 -0.002222 0.049228 0.013446
# 6 0.005196 0.001678 -0.003982 -0.006365 0.013446 0.032906
#
#
# Mechanical properties :
#
#
# Convention : Reuss Voigt Hill
#
# Bulk Modulus (GPa) = 55.36185 57.66442 56.51314
# Shear Modulus (GPa) = 21.45143 32.31002 26.88072
#
# Velocity S-wave (km/s) = 3.20335 3.93137 3.58588
# Velocity P-wave (km/s) = 6.33755 6.94203 6.64667
#
# Compressibility (1/GPa) = 0.01806298
#
# Stress axis : x y z
#
# Youngs Moduli (GPa) = 76.02708 72.47891 43.32148
#
# Poissons Ratio (x) = -0.12030 0.34791
# Poissons Ratio (y) = -0.12619 0.41650
# Poissons Ratio (z) = 0.61057 0.69683
#
# Static dielectric constant tensor:
#      x y z
#    x 1.759950 0.001790 -0.037160 
#    y 0.001790 1.772650 0.034390 
#    z -0.037160 0.034390 1.691040 
# 
# From -- ./inp_files/529957.got.cif
#   From: 2010.05.17/outbox.cif.g08.bks.cpg/sg2_265_cif.got.tgz:529957.got - 2010.06.03 11:33:40.
