data_PCOD9027835
_publ_section_title
;
Structure prediction by ZEFSAII (Michael W. Deem and Ramdas Pophale) SiO2 
 PCOD9027835
Probable space group: P -1
;
_chemical_formula_sum "Si O2"
_cell_formula_units_Z 16
_cell_length_a 15.116952
_cell_length_b 9.618252
_cell_length_c 9.045252
_cell_angle_alpha 57.999812
_cell_angle_beta 34.179323
_cell_angle_gamma 58.500410
_cell_volume 616.732740
_symmetry_space_group_name_H-M "P -1"
_symmetry_group_IT_number 2
_symmetry_cell_setting 'triclinic'
loop_
_space_group_symop_operation_xyz
x,y,z
-x,-y,-z
loop_
_atom_site_type_symbol
_atom_site_label
_atom_site_fract_x
_atom_site_fract_y
_atom_site_fract_z
Si Si1 0.655545 0.060317 0.482200
Si Si2 0.939267 0.218907 0.051070
Si Si3 0.608625 0.373396 0.531802
Si Si4 0.018313 0.176342 0.460691
Si Si5 0.795043 0.796236 0.078551
Si Si6 0.809277 0.724617 0.548112
Si Si7 0.325905 0.841231 0.937020
Si Si8 0.628708 0.574101 0.662166
O O1 0.843319 0.071720 0.239036
O O2 0.568143 0.193034 0.645448
O O3 0.634062 0.123724 0.309499
O O4 0.665704 0.869139 0.607118
O O5 0.795390 0.354573 0.238989
O O6 0.079990 0.154103 0.004800
O O7 0.020866 0.288331 0.761674
O O8 0.500000 0.500000 0.500000
O O9 0.598629 0.418258 0.691675
O O10 0.084917 0.275811 0.177782
O O11 0.147180 0.212048 0.386470
O O12 0.845146 0.206241 0.760339
O O13 0.000000 0.000000 0.500000
O O14 0.705950 0.675229 0.365731
O O15 0.680549 0.970712 0.092042
O O16 0.743592 0.569522 0.649260
O O17 0.458736 0.682533 0.877263
#
# Coordination Sequence:
#
# PCOD9027835 Si02
#       8
#     2   2   2   2   2   2   2   2
#     4  10  17  31  59  86 115 141 203 231 286 331
#     4   9  18  32  59  84 114 143 204 231 282 338
#     4  10  21  33  55  90 117 154 190 244 282 349
#     4  10  21  36  58  90 120 149 197 236 298 348
#     4  10  21  34  58  91 118 145 190 253 296 326
#     4  11  20  34  62  90 112 151 196 251 285 336
#     4  11  18  34  61  87 115 155 193 239 283 356
#     4  11  22  36  60  89 124 144 197 242 298 328
#
# _framework density 25.943166000000002
#
# number of rings (size 3 to 8) (size 9 to 14) (size 15 to 20)
#    0.750    1.000    5.000    2.250    0.000    2.000 
#    0.000    2.500    5.500    7.500    0.000    0.000 
#    0.000    0.000    0.000    0.000    0.000    0.000 
#
# Total GULP energy -89114.151560 kJ/mol
# GULP energy per Si atom -5569.634473 kJ/mol
# Density = 2.588412 g / cm^3
# Si number density = 25.943166 Si / 1000 Ang^3
#
#
#
# Elastic Constant Matrix: (Units=GPa)
#
#
# Indices 1 2 3 4 5 6 
#
# 1 116.6129 35.0480 43.5148 19.9843 25.1956 44.4385
# 2 35.0480 102.9308 34.1961 13.4489 2.9722 27.6991
# 3 43.5148 34.1961 113.8461 -0.7598 6.5606 11.9061
# 4 19.9843 13.4489 -0.7598 31.5333 -6.0815 -1.7123
# 5 25.1956 2.9722 6.5606 -6.0815 30.3115 9.3024
# 6 44.4385 27.6991 11.9061 -1.7123 9.3024 32.6281
#
#
#
# Elastic Compliance Matrix: (Units=1/GPa)
#
#
# Indices 1 2 3 4 5 6 
#
# 1 0.051294 0.013492 -0.014982 -0.047990 -0.028816 -0.070150
# 2 0.013492 0.018542 -0.007296 -0.019446 -0.005905 -0.030791
# 3 -0.014982 -0.007296 0.014290 0.015391 0.006962 0.020207
# 4 -0.047990 -0.019446 0.015391 0.080995 0.032888 0.071126
# 5 -0.028816 -0.005905 0.006962 0.032888 0.054006 0.028048
# 6 -0.070150 -0.030791 0.020207 0.071126 0.028048 0.140693
#
#
# Mechanical properties :
#
#
# Convention : Reuss Voigt Hill
#
# Bulk Modulus (GPa) = 15.02520 62.10084 38.56302
# Shear Modulus (GPa) = 12.51322 33.60330 23.05826
#
# Velocity S-wave (km/s) = 2.19859 3.60288 2.98451
# Velocity P-wave (km/s) = 3.49989 6.42627 5.17427
#
# Compressibility (1/GPa) = 0.06655487
#
# Stress axis : x y z
#
# Youngs Moduli (GPa) = 19.49551 53.93019 69.97944
#
# Poissons Ratio (x) = -0.72762 1.04841
# Poissons Ratio (y) = -0.26303 0.51056
# Poissons Ratio (z) = 0.29208 0.39347
#
# Static dielectric constant tensor:
#      x y z
#    x 2.102350 0.010390 0.006160 
#    y 0.010390 2.297070 -0.037420 
#    z 0.006160 -0.037420 2.036230 
# 
# From -- ./inp_files/302991.got.cif
#   From: 2010.05.17/outbox.cif.g08.bks.cpg/sg2_152_cif.got.tgz:302991.got - 2010.06.03 11:33:40.
