data_PCOD9027253
_publ_section_title
;
Structure prediction by ZEFSAII (Michael W. Deem and Ramdas Pophale) SiO2 
 PCOD9027253
Probable space group: P -1
;
_chemical_formula_sum "Si O2"
_cell_formula_units_Z 12
_cell_length_a 5.207586
_cell_length_b 5.181139
_cell_length_c 18.402289
_cell_angle_alpha 84.924176
_cell_angle_beta 115.257931
_cell_angle_gamma 83.721457
_cell_volume 441.281934
_symmetry_space_group_name_H-M "P -1"
_symmetry_group_IT_number 2
_symmetry_cell_setting 'triclinic'
loop_
_space_group_symop_operation_xyz
x,y,z
-x,-y,-z
loop_
_atom_site_type_symbol
_atom_site_label
_atom_site_fract_x
_atom_site_fract_y
_atom_site_fract_z
Si Si1 0.581187 0.356484 0.779722
Si Si2 0.720346 0.263261 0.161004
Si Si3 0.120546 0.319788 0.627125
Si Si4 0.222116 0.259964 0.317210
Si Si5 0.678618 0.282414 0.473584
Si Si6 0.895329 0.928754 0.910981
O O1 0.386350 0.453590 0.823003
O O2 0.638006 0.612870 0.737355
O O3 0.860845 0.183340 0.848860
O O4 0.575911 0.853127 0.878330
O O5 0.962851 0.134806 0.253342
O O6 0.586024 0.798349 0.294290
O O7 0.873993 0.271410 0.101653
O O8 0.199368 0.543599 0.577200
O O9 0.926263 0.484805 0.660908
O O10 0.940810 0.149321 0.559786
O O11 0.463700 0.126394 0.407166
O O12 0.500000 0.500000 0.500000
O O13 0.000000 0.000000 0.000000
#
# Coordination Sequence:
#
# PCOD9027253 Si02
#       6
#     2   2   2   2   2   2
#     4  10  22  41  67  93 130 170 214 260 320 381
#     4  11  24  45  66  96 127 167 212 265 324 381
#     4   8  15  27  54  90 123 165 212 250 307 370
#     4   9  17  35  60  92 124 169 211 255 315 372
#     4   8  13  25  50  90 124 162 213 249 299 376
#     4  12  28  45  67  96 127 166 214 268 327 386
#
# _framework density 27.193496
#
# number of rings (size 3 to 8) (size 9 to 14) (size 15 to 20)
#    0.000    2.333    1.667    0.500    4.667    1.333 
#    0.000    0.000    0.000    2.000    0.000    0.000 
#    0.000    0.000    0.000    0.000    0.000    0.000 
#
# Total GULP energy -67125.520482 kJ/mol
# GULP energy per Si atom -5593.793373 kJ/mol
# Density = 2.713160 g / cm^3
# Si number density = 27.193496 Si / 1000 Ang^3
#
#
#
# Elastic Constant Matrix: (Units=GPa)
#
#
# Indices 1 2 3 4 5 6 
#
# 1 131.9612 37.7820 52.0881 28.5886 -2.6117 18.6534
# 2 37.7820 79.5806 57.9598 25.8700 0.6185 11.7669
# 3 52.0881 57.9598 177.7613 63.6053 25.3542 13.2446
# 4 28.5886 25.8700 63.6053 55.6317 4.0988 4.0285
# 5 -2.6117 0.6185 25.3542 4.0988 51.3600 18.4423
# 6 18.6534 11.7669 13.2446 4.0285 18.4423 56.3345
#
#
#
# Elastic Compliance Matrix: (Units=1/GPa)
#
#
# Indices 1 2 3 4 5 6 
#
# 1 0.009806 -0.002480 -0.001379 -0.002271 0.002488 -0.003057
# 2 -0.002480 0.018210 -0.004861 -0.001670 0.003179 -0.002761
# 3 -0.001379 -0.004861 0.012085 -0.010525 -0.005571 0.001207
# 4 -0.002271 -0.001670 -0.010525 0.031739 0.002378 0.000527
# 5 0.002488 0.003179 -0.005571 0.002378 0.025207 -0.008600
# 6 -0.003057 -0.002761 0.001207 0.000527 -0.008600 0.021834
#
#
# Mechanical properties :
#
#
# Convention : Reuss Voigt Hill
#
# Bulk Modulus (GPa) = 44.12883 76.10699 60.11791
# Shear Modulus (GPa) = 34.75231 48.76346 41.75788
#
# Velocity S-wave (km/s) = 3.57874 4.23922 3.92290
# Velocity P-wave (km/s) = 5.77403 7.21174 6.53256
#
# Compressibility (1/GPa) = 0.02266092
#
# Stress axis : x y z
#
# Youngs Moduli (GPa) = 101.98060 54.91499 82.74539
#
# Poissons Ratio (x) = 0.13619 0.11413
# Poissons Ratio (y) = 0.25291 0.40220
# Poissons Ratio (z) = 0.14067 0.26692
#
# Static dielectric constant tensor:
#      x y z
#    x 2.261840 -0.006100 0.085800 
#    y -0.006100 2.153490 -0.021820 
#    z 0.085800 -0.021820 2.092080 
# 
# From -- ./inp_files/545602.got.cif
#   From: 2010.05.17/outbox.cif.g08.bks.cpg/sg2_273_cif.got.tgz:545602.got - 2010.06.03 11:33:40.
