data_PCOD9027438
_publ_section_title
;
Structure prediction by ZEFSAII (Michael W. Deem and Ramdas Pophale) SiO2 
 PCOD9027438
Probable space group: P -1
;
_chemical_formula_sum "Si O2"
_cell_formula_units_Z 16
_cell_length_a 9.937056
_cell_length_b 10.534742
_cell_length_c 20.540709
_cell_angle_alpha 141.500506
_cell_angle_beta 144.726124
_cell_angle_gamma 64.659013
_cell_volume 625.968403
_symmetry_space_group_name_H-M "P -1"
_symmetry_group_IT_number 2
_symmetry_cell_setting 'triclinic'
loop_
_space_group_symop_operation_xyz
x,y,z
-x,-y,-z
loop_
_atom_site_type_symbol
_atom_site_label
_atom_site_fract_x
_atom_site_fract_y
_atom_site_fract_z
Si Si1 0.136680 0.765395 0.599543
Si Si2 0.782860 0.030560 0.148890
Si Si3 0.304354 0.747953 0.278345
Si Si4 0.278114 0.004725 0.120685
Si Si5 0.244019 0.245988 0.762453
Si Si6 0.909088 0.440469 0.748790
Si Si7 0.294675 0.091635 0.312308
Si Si8 0.416774 0.460053 0.777632
O O1 0.850963 0.552433 0.363864
O O2 0.083279 0.792742 0.664188
O O3 0.431600 0.790749 0.720651
O O4 0.209178 0.011535 0.687967
O O5 0.658520 0.746052 0.007703
O O6 0.029229 0.110125 0.225230
O O7 0.500000 0.000000 0.000000
O O8 0.078708 0.560021 0.168071
O O9 0.468308 0.637988 0.270220
O O10 0.500000 0.000000 0.500000
O O11 0.214623 0.847134 0.223617
O O12 0.348771 0.058188 0.246296
O O13 0.156183 0.721795 0.937378
O O14 0.000000 0.000000 0.000000
O O15 0.313213 0.282630 0.728374
O O16 0.968498 0.246981 0.666994
O O17 0.500000 0.500000 0.000000
O O18 0.589762 0.335028 0.556553
#
# Coordination Sequence:
#
# PCOD9027438 Si02
#       8
#     2   2   2   2   2   2   2   2
#     4  12  24  43  67  96 134 170 220 277 329 395
#     4  12  27  45  66  97 132 180 233 270 319 393
#     4  10  22  41  68 101 131 162 216 269 337 404
#     4  12  26  41  62  93 126 174 225 259 314 388
#     4  12  22  42  70 100 135 169 213 276 339 400
#     4  11  23  43  65  96 132 166 210 272 329 389
#     4  11  24  42  67  93 130 169 211 274 330 384
#     4  12  25  43  71 100 134 178 215 275 345 392
#
# _framework density 25.560395
#
# number of rings (size 3 to 8) (size 9 to 14) (size 15 to 20)
#    0.000    0.500    2.500    7.125    0.000    3.000 
#    0.000    0.000    0.000    0.000    0.000    0.000 
#    0.000    0.000    0.000    0.000    0.000    0.000 
#
# Total GULP energy -89717.575090 kJ/mol
# GULP energy per Si atom -5607.348443 kJ/mol
# Density = 2.550222 g / cm^3
# Si number density = 25.560395 Si / 1000 Ang^3
#
#
#
# Elastic Constant Matrix: (Units=GPa)
#
#
# Indices 1 2 3 4 5 6 
#
# 1 107.5833 9.1689 18.1379 -6.9610 8.6424 -10.3328
# 2 9.1689 55.0646 4.0038 -9.4289 2.2056 -7.5991
# 3 18.1379 4.0038 109.4558 -10.6081 1.6608 -3.5842
# 4 -6.9610 -9.4289 -10.6081 32.4907 -0.6754 9.6538
# 5 8.6424 2.2056 1.6608 -0.6754 42.2241 -16.5681
# 6 -10.3328 -7.5991 -3.5842 9.6538 -16.5681 39.8943
#
#
#
# Elastic Compliance Matrix: (Units=1/GPa)
#
#
# Indices 1 2 3 4 5 6 
#
# 1 0.009941 -0.001147 -0.001454 0.000859 -0.001329 0.001466
# 2 -0.001147 0.019475 0.000008 0.004711 0.000220 0.002365
# 3 -0.001454 0.000008 0.009653 0.002921 -0.000143 -0.000274
# 4 0.000859 0.004711 0.002921 0.035791 -0.003369 -0.008678
# 5 -0.001329 0.000220 -0.000143 -0.003369 0.028782 0.012453
# 6 0.001466 0.002365 -0.000274 -0.008678 0.012453 0.033144
#
#
# Mechanical properties :
#
#
# Convention : Reuss Voigt Hill
#
# Bulk Modulus (GPa) = 29.51248 37.19165 33.35207
# Shear Modulus (GPa) = 32.62305 38.97468 35.79887
#
# Velocity S-wave (km/s) = 3.57643 3.90911 3.74647
# Velocity P-wave (km/s) = 5.35030 5.91244 5.63838
#
# Compressibility (1/GPa) = 0.03388397
#
# Stress axis : x y z
#
# Youngs Moduli (GPa) = 100.59222 51.34786 103.59430
#
# Poissons Ratio (x) = 0.05889 0.15062
# Poissons Ratio (y) = 0.11537 -0.00086
# Poissons Ratio (z) = 0.14626 -0.00043
#
# Static dielectric constant tensor:
#      x y z
#    x 1.999020 -0.064660 0.114500 
#    y -0.064660 2.088060 -0.048530 
#    z 0.114500 -0.048530 2.224230 
# 
# From -- ./inp_files/589662.got.cif
#   From: 2010.05.17/outbox.cif.g08.bks.cpg/sg2_295_cif.got.tgz:589662.got - 2010.06.03 11:33:40.
