data_PCOD9027500
_publ_section_title
;
Structure prediction by ZEFSAII (Michael W. Deem and Ramdas Pophale) SiO2 
 PCOD9027500
Probable space group: P -1
;
_chemical_formula_sum "Si O2"
_cell_formula_units_Z 14
_cell_length_a 9.216124
_cell_length_b 5.908336
_cell_length_c 10.549225
_cell_angle_alpha 96.668811
_cell_angle_beta 92.547344
_cell_angle_gamma 73.029637
_cell_volume 545.662096
_symmetry_space_group_name_H-M "P -1"
_symmetry_group_IT_number 2
_symmetry_cell_setting 'triclinic'
loop_
_space_group_symop_operation_xyz
x,y,z
-x,-y,-z
loop_
_atom_site_type_symbol
_atom_site_label
_atom_site_fract_x
_atom_site_fract_y
_atom_site_fract_z
Si Si1 0.821018 0.004852 0.218364
Si Si2 0.684117 0.437060 0.514467
Si Si3 0.346790 0.539973 0.863731
Si Si4 0.197291 0.266706 0.037884
Si Si5 0.338132 0.073256 0.570957
Si Si6 0.878880 0.342675 0.759510
Si Si7 0.631494 0.176610 0.881168
O O1 0.857905 0.907827 0.069037
O O2 0.680706 0.943251 0.278524
O O3 0.969076 0.853996 0.288349
O O4 0.768045 0.289134 0.225760
O O5 0.500000 0.500000 0.500000
O O6 0.726604 0.648504 0.450804
O O7 0.763801 0.458269 0.651952
O O8 0.732178 0.146299 0.480185
O O9 0.263197 0.412209 0.948628
O O10 0.497137 0.349902 0.806375
O O11 0.400452 0.720718 0.970653
O O12 0.087218 0.449539 0.139855
O O13 0.332458 0.103642 0.119377
O O14 0.500000 0.000000 0.500000
O O15 0.785545 0.211433 0.835496
#
# Coordination Sequence:
#
# PCOD9027500 Si02
#       7
#     2   2   2   2   2   2   2
#     4  11  25  42  69 105 146 191 234 301 369 442
#     4  10  25  49  73 103 138 192 250 306 359 424
#     4   9  20  38  62  97 138 182 235 290 354 429
#     4  10  22  41  68 106 145 187 235 294 368 439
#     4  10  25  48  76 104 139 191 252 306 364 426
#     4  11  25  42  69 104 147 189 240 295 370 441
#     4   9  20  38  63  97 136 182 236 290 353 429
#
# _framework density 25.656905999999999
#
# number of rings (size 3 to 8) (size 9 to 14) (size 15 to 20)
#    0.000    2.000    0.000    0.857    8.000    9.714 
#    0.000    0.000    0.000    0.000    0.000    0.000 
#    0.000    0.000    0.000    0.000    0.000    0.000 
#
# Total GULP energy -78035.650597 kJ/mol
# GULP energy per Si atom -5573.975043 kJ/mol
# Density = 2.559851 g / cm^3
# Si number density = 25.656906 Si / 1000 Ang^3
#
#
#
# Elastic Constant Matrix: (Units=GPa)
#
#
# Indices 1 2 3 4 5 6 
#
# 1 74.5619 57.0959 19.3435 -5.5176 -8.2527 -21.5776
# 2 57.0959 194.3211 58.5985 -26.1738 -12.4894 -2.1142
# 3 19.3435 58.5985 97.0285 -7.9911 -2.9032 -2.6037
# 4 -5.5176 -26.1738 -7.9911 52.7414 5.8371 0.5046
# 5 -8.2527 -12.4894 -2.9032 5.8371 32.3584 -6.1070
# 6 -21.5776 -2.1142 -2.6037 0.5046 -6.1070 50.6387
#
#
#
# Elastic Compliance Matrix: (Units=1/GPa)
#
#
# Indices 1 2 3 4 5 6 
#
# 1 0.021187 -0.005865 -0.000392 -0.001411 0.005133 0.009396
# 2 -0.005865 0.008387 -0.003701 0.002962 0.000438 -0.002316
# 3 -0.000392 -0.003701 0.012623 0.000071 -0.000355 0.000284
# 4 -0.001411 0.002962 0.000071 0.020650 -0.003135 -0.001058
# 5 0.005133 0.000438 -0.000355 -0.003135 0.034111 0.006332
# 6 0.009396 -0.002316 0.000284 -0.001058 0.006332 0.024444
#
#
# Mechanical properties :
#
#
# Convention : Reuss Voigt Hill
#
# Bulk Modulus (GPa) = 44.88301 70.66525 57.77413
# Shear Modulus (GPa) = 33.61427 42.53927 38.07677
#
# Velocity S-wave (km/s) = 3.62352 4.07628 3.85655
# Velocity P-wave (km/s) = 5.91929 7.05386 6.51133
#
# Compressibility (1/GPa) = 0.02228015
#
# Stress axis : x y z
#
# Youngs Moduli (GPa) = 47.19774 119.22604 79.22266
#
# Poissons Ratio (x) = 0.69927 0.03108
# Poissons Ratio (y) = 0.27682 0.29323
# Poissons Ratio (z) = 0.01852 0.44129
#
# Static dielectric constant tensor:
#      x y z
#    x 1.759590 0.040370 0.232780 
#    y 0.040370 2.127880 0.014710 
#    z 0.232780 0.014710 2.031220 
# 
# From -- ./inp_files/410565.got.cif
#   From: 2010.05.17/outbox.cif.g08.bks.cpg/sg2_206_cif.got.tgz:410565.got - 2010.06.03 11:33:40.
