data_PCOD9027635
_publ_section_title
;
Structure prediction by ZEFSAII (Michael W. Deem and Ramdas Pophale) SiO2 
 PCOD9027635
Probable space group: P -1
;
_chemical_formula_sum "Si O2"
_cell_formula_units_Z 16
_cell_length_a 14.762764
_cell_length_b 5.645142
_cell_length_c 8.834542
_cell_angle_alpha 89.768622
_cell_angle_beta 79.223267
_cell_angle_gamma 55.078356
_cell_volume 588.163795
_symmetry_space_group_name_H-M "P -1"
_symmetry_group_IT_number 2
_symmetry_cell_setting 'triclinic'
loop_
_space_group_symop_operation_xyz
x,y,z
-x,-y,-z
loop_
_atom_site_type_symbol
_atom_site_label
_atom_site_fract_x
_atom_site_fract_y
_atom_site_fract_z
Si Si1 0.372293 0.406141 0.544155
Si Si2 0.255992 0.608157 0.278584
Si Si3 0.771513 0.551637 0.025086
Si Si4 0.952372 0.436148 0.157123
Si Si5 0.532497 0.679511 0.193809
Si Si6 0.638992 0.149902 0.973824
Si Si7 0.898694 0.799592 0.606668
Si Si8 0.747134 0.908846 0.408805
O O1 0.356523 0.413855 0.368148
O O2 0.481419 0.266429 0.622387
O O3 0.317097 0.237660 0.609612
O O4 0.314008 0.748940 0.597527
O O5 0.208232 0.515230 0.160037
O O6 0.304316 0.748495 0.157458
O O7 0.148430 0.862305 0.411876
O O8 0.736317 0.878846 0.038469
O O9 0.875376 0.344686 0.104533
O O10 0.655116 0.600747 0.111599
O O11 0.863259 0.725627 0.279091
O O12 0.055008 0.232387 0.238530
O O13 0.000000 0.500000 0.000000
O O14 0.431988 0.915969 0.116113
O O15 0.551961 0.385081 0.124089
O O16 0.788587 0.828250 0.572212
O O17 0.000000 0.500000 0.500000
#
# Coordination Sequence:
#
# PCOD9027635 Si02
#       8
#     2   2   2   2   2   2   2   2
#     4  11  23  43  71  97 134 184 223 281 341 407
#     4  10  24  40  66  95 133 180 220 289 336 404
#     4  11  22  41  65  96 137 174 225 282 348 397
#     4  11  22  39  64  97 129 177 226 283 333 406
#     4  10  22  41  68  98 128 181 228 275 339 419
#     4  10  22  42  67  96 136 172 226 281 347 399
#     4   9  21  43  62  91 130 178 224 271 336 402
#     4  10  23  45  66  95 137 179 226 277 345 402
#
# _framework density 27.203306000000001
#
# number of rings (size 3 to 8) (size 9 to 14) (size 15 to 20)
#    0.000    1.750    1.250    1.875    5.250    2.000 
#    4.500    6.250    0.000    0.000    0.000    0.000 
#    0.000    0.000    0.000    0.000    0.000    0.000 
#
# Total GULP energy -89208.725303 kJ/mol
# GULP energy per Si atom -5575.545331 kJ/mol
# Density = 2.714139 g / cm^3
# Si number density = 27.203306 Si / 1000 Ang^3
#
#
#
# Elastic Constant Matrix: (Units=GPa)
#
#
# Indices 1 2 3 4 5 6 
#
# 1 108.6845 31.7286 39.9493 -10.6497 34.2248 -11.6554
# 2 31.7286 93.5970 30.4958 -1.0657 4.7292 -6.0148
# 3 39.9493 30.4958 149.1044 -6.2235 52.3524 -11.3657
# 4 -10.6497 -1.0657 -6.2235 47.3310 -11.1315 5.6822
# 5 34.2248 4.7292 52.3524 -11.1315 77.7119 -7.8297
# 6 -11.6554 -6.0148 -11.3657 5.6822 -7.8297 30.5446
#
#
#
# Elastic Compliance Matrix: (Units=1/GPa)
#
#
# Indices 1 2 3 4 5 6 
#
# 1 0.012229 -0.003487 -0.000867 0.001297 -0.004167 0.002348
# 2 -0.003487 0.012596 -0.002450 -0.000356 0.002463 0.000936
# 3 -0.000867 -0.002450 0.009579 -0.000531 -0.005863 0.001347
# 4 0.001297 -0.000356 -0.000531 0.022363 0.002685 -0.003245
# 5 -0.004167 0.002463 -0.005863 0.002685 0.018996 0.001084
# 6 0.002348 0.000936 0.001347 -0.003245 0.001084 0.035202
#
#
# Mechanical properties :
#
#
# Convention : Reuss Voigt Hill
#
# Bulk Modulus (GPa) = 48.08764 61.74815 54.91789
# Shear Modulus (GPa) = 38.02140 47.73164 42.87652
#
# Velocity S-wave (km/s) = 3.74261 4.19337 3.97438
# Velocity P-wave (km/s) = 6.03255 6.79661 6.42594
#
# Compressibility (1/GPa) = 0.02079537
#
# Stress axis : x y z
#
# Youngs Moduli (GPa) = 81.77571 79.38980 104.39358
#
# Poissons Ratio (x) = 0.27681 0.09052
# Poissons Ratio (y) = 0.28513 0.25580
# Poissons Ratio (z) = 0.07091 0.19454
#
# Static dielectric constant tensor:
#      x y z
#    x 2.219250 0.050560 -0.000330 
#    y 0.050560 2.203460 0.084920 
#    z -0.000330 0.084920 2.201810 
# 
# From -- ./inp_files/322628.got.cif
#   From: 2010.05.17/outbox.cif.g08.bks.cpg/sg2_162_cif.got.tgz:322628.got - 2010.06.03 11:33:40.
