data_PCOD9027819
_publ_section_title
;
Structure prediction by ZEFSAII (Michael W. Deem and Ramdas Pophale) SiO2 
 PCOD9027819
Probable space group: P -1
;
_chemical_formula_sum "Si O2"
_cell_formula_units_Z 14
_cell_length_a 25.863616
_cell_length_b 5.129332
_cell_length_c 8.705888
_cell_angle_alpha 60.794832
_cell_angle_beta 140.105116
_cell_angle_gamma 120.143017
_cell_volume 629.522553
_symmetry_space_group_name_H-M "P -1"
_symmetry_group_IT_number 2
_symmetry_cell_setting 'triclinic'
loop_
_space_group_symop_operation_xyz
x,y,z
-x,-y,-z
loop_
_atom_site_type_symbol
_atom_site_label
_atom_site_fract_x
_atom_site_fract_y
_atom_site_fract_z
Si Si1 0.215172 0.108915 0.140897
Si Si2 0.814031 0.996769 0.551192
Si Si3 0.322575 0.751964 0.306030
Si Si4 0.558277 0.292234 0.126314
Si Si5 0.141702 0.328289 0.639371
Si Si6 0.953147 0.771341 0.829157
Si Si7 0.314122 0.238913 0.905055
O O1 0.185913 0.972368 0.277185
O O2 0.288545 0.412603 0.255826
O O3 0.247013 0.860114 0.185070
O O4 0.145185 0.219915 0.852015
O O5 0.859763 0.725322 0.694868
O O6 0.723329 0.916446 0.295229
O O7 0.859046 0.314747 0.482583
O O8 0.388588 0.769832 0.587293
O O9 0.348358 0.000084 0.157070
O O10 0.619057 0.466866 0.081460
O O11 0.500000 0.500000 0.000000
O O12 0.500000 0.000000 0.000000
O O13 0.067347 0.143936 0.416923
O O14 0.232679 0.304008 0.787047
O O15 0.000000 0.500000 0.000000
O O16 0.000000 0.000000 0.000000
#
# Coordination Sequence:
#
# PCOD9027819 Si02
#       7
#     2   2   2   2   2   2   2
#     4  11  23  38  68 101 121 156 226 267 308 364
#     4  11  21  40  71  93 124 169 214 266 310 368
#     4  11  23  42  64  93 128 163 210 273 310 374
#     4  12  27  42  63  93 133 169 207 261 321 384
#     4  10  22  41  69  96 124 168 214 267 310 371
#     4  11  23  41  64  94 135 173 205 251 322 382
#     4  10  23  40  67  93 124 167 219 262 317 370
#
# _framework density 22.239076000000001
#
# number of rings (size 3 to 8) (size 9 to 14) (size 15 to 20)
#    0.000    1.143    4.286    1.714    4.000    1.143 
#    0.000    1.429    0.000    0.000    0.000    0.000 
#    0.000    0.000    0.000    0.000    0.000    0.000 
#
# Total GULP energy -78156.034736 kJ/mol
# GULP energy per Si atom -5582.573910 kJ/mol
# Density = 2.218846 g / cm^3
# Si number density = 22.239076 Si / 1000 Ang^3
#
#
#
# Elastic Constant Matrix: (Units=GPa)
#
#
# Indices 1 2 3 4 5 6 
#
# 1 43.2937 5.8595 13.3776 -20.4803 -10.2926 -5.8342
# 2 5.8595 96.1373 35.7340 4.4551 -2.5269 -9.8410
# 3 13.3776 35.7340 144.2947 -13.0755 -23.2095 12.1217
# 4 -20.4803 4.4551 -13.0755 37.1370 -4.8168 -1.4280
# 5 -10.2926 -2.5269 -23.2095 -4.8168 34.8553 -4.0794
# 6 -5.8342 -9.8410 12.1217 -1.4280 -4.0794 31.1585
#
#
#
# Elastic Compliance Matrix: (Units=1/GPa)
#
#
# Indices 1 2 3 4 5 6 
#
# 1 0.040761 -0.002668 0.001194 0.025847 0.017355 0.009782
# 2 -0.002668 0.012714 -0.004144 -0.004635 -0.002732 0.004558
# 3 0.001194 -0.004144 0.009742 0.005329 0.006839 -0.003736
# 4 0.025847 -0.004635 0.005329 0.046156 0.017898 0.005761
# 5 0.017355 -0.002732 0.006839 0.017898 0.041341 0.005959
# 6 0.009782 0.004558 -0.003736 0.005761 0.005959 0.037863
#
#
# Mechanical properties :
#
#
# Convention : Reuss Voigt Hill
#
# Bulk Modulus (GPa) = 19.23772 43.74088 31.48930
# Shear Modulus (GPa) = 23.02647 35.88047 29.45347
#
# Velocity S-wave (km/s) = 3.22126 4.02107 3.64318
# Velocity P-wave (km/s) = 4.74390 6.42416 5.64688
#
# Compressibility (1/GPa) = 0.05198121
#
# Stress axis : x y z
#
# Youngs Moduli (GPa) = 24.53313 78.65289 102.64391
#
# Poissons Ratio (x) = 0.20987 -0.12252
# Poissons Ratio (y) = 0.06546 0.42531
# Poissons Ratio (z) = -0.02928 0.32590
#
# Static dielectric constant tensor:
#      x y z
#    x 1.852480 -0.001770 -0.015120 
#    y -0.001770 1.864970 -0.001490 
#    z -0.015120 -0.001490 1.872830 
# 
# From -- ./inp_files/44754.got.cif
#   From: 2010.05.17/outbox.cif.g08.bks.cpg/sg2_23_cif.got.tgz:44754.got - 2010.06.03 11:33:40.
