data_PCOD9027345
_publ_section_title
;
Structure prediction by ZEFSAII (Michael W. Deem and Ramdas Pophale) SiO2 
 PCOD9027345
Probable space group: P -1
;
_chemical_formula_sum "Si O2"
_cell_formula_units_Z 15
_cell_length_a 6.592957
_cell_length_b 13.600714
_cell_length_c 7.579603
_cell_angle_alpha 104.054174
_cell_angle_beta 113.959727
_cell_angle_gamma 62.859253
_cell_volume 551.313085
_symmetry_space_group_name_H-M "P -1"
_symmetry_group_IT_number 2
_symmetry_cell_setting 'triclinic'
loop_
_space_group_symop_operation_xyz
x,y,z
-x,-y,-z
loop_
_atom_site_type_symbol
_atom_site_label
_atom_site_fract_x
_atom_site_fract_y
_atom_site_fract_z
Si Si1 0.295008 0.167981 0.701036
Si Si2 0.879516 0.384470 0.552337
Si Si3 0.500000 0.500000 0.000000
Si Si4 0.553628 0.298351 0.226744
Si Si5 0.122959 0.108170 0.933249
Si Si6 0.945202 0.599922 0.767653
Si Si7 0.951692 0.922568 0.711423
Si Si8 0.614089 0.301555 0.850175
O O1 0.493449 0.214612 0.738286
O O2 0.055733 0.280956 0.681349
O O3 0.331140 0.112845 0.882289
O O4 0.222838 0.096106 0.502415
O O5 0.638976 0.365226 0.425415
O O6 0.877726 0.494984 0.678434
O O7 0.006332 0.364539 0.394008
O O8 0.515452 0.577129 0.221594
O O9 0.802095 0.442726 0.060147
O O10 0.292691 0.304769 0.189947
O O11 0.782550 0.180528 0.243177
O O12 0.535692 0.353396 0.049090
O O13 0.894606 0.225964 0.916047
O O14 0.169323 0.070883 0.136148
O O15 0.013970 0.028842 0.762715
#
# Coordination Sequence:
#
# PCOD9027345 Si02
#       8
#     2   2   1   2   2   2   2   2
#     4  11  23  41  72 104 138 184 236 282 351 417
#     4  10  22  42  61 104 137 180 242 282 348 422
#     4  12  24  44  64 100 144 184 240 284 354 416
#     4  10  22  41  67  96 136 181 233 285 351 412
#     4  10  23  47  73  97 149 180 225 302 345 408
#     4  11  23  41  67  93 142 188 227 298 344 408
#     4   9  22  47  72 106 140 178 237 289 346 425
#     4  11  25  41  63 103 137 183 238 280 348 420
#
# _framework density 27.207768000000002
#
# number of rings (size 3 to 8) (size 9 to 14) (size 15 to 20)
#    0.000    1.600    2.667    0.800    1.867    4.267 
#    0.000   10.000    0.000    0.000    0.000    0.000 
#    0.000    0.000    0.000    0.000    0.000    0.000 
#
# Total GULP energy -83875.938028 kJ/mol
# GULP energy per Si atom -5591.729202 kJ/mol
# Density = 2.714584 g / cm^3
# Si number density = 27.207768 Si / 1000 Ang^3
#
#
#
# Elastic Constant Matrix: (Units=GPa)
#
#
# Indices 1 2 3 4 5 6 
#
# 1 140.8509 30.8976 48.3606 -0.2630 11.3133 -25.7756
# 2 30.8976 109.7010 14.4313 31.0396 -3.0895 -10.1907
# 3 48.3606 14.4313 92.8744 23.2797 5.4687 2.7705
# 4 -0.2630 31.0396 23.2797 46.4204 7.9309 5.8298
# 5 11.3133 -3.0895 5.4687 7.9309 42.6371 -3.2998
# 6 -25.7756 -10.1907 2.7705 5.8298 -3.2998 36.6244
#
#
#
# Elastic Compliance Matrix: (Units=1/GPa)
#
#
# Indices 1 2 3 4 5 6 
#
# 1 0.011712 -0.003402 -0.006975 0.005507 -0.002967 0.006679
# 2 -0.003402 0.013347 0.002153 -0.011104 0.003913 0.003276
# 3 -0.006975 0.002153 0.016478 -0.009481 0.001353 -0.003925
# 4 0.005507 -0.011104 -0.009481 0.035751 -0.008080 -0.004915
# 5 -0.002967 0.003913 0.001353 -0.008080 0.026050 0.002531
# 6 0.006679 0.003276 -0.003925 -0.004915 0.002531 0.034224
#
#
# Mechanical properties :
#
#
# Convention : Reuss Voigt Hill
#
# Bulk Modulus (GPa) = 39.85885 58.97839 49.41862
# Shear Modulus (GPa) = 30.79322 41.78549 36.28935
#
# Velocity S-wave (km/s) = 3.36784 3.92317 3.65607
# Velocity P-wave (km/s) = 5.45937 6.49968 6.00211
#
# Compressibility (1/GPa) = 0.02508853
#
# Stress axis : x y z
#
# Youngs Moduli (GPa) = 85.38430 74.92285 60.68523
#
# Poissons Ratio (x) = 0.25492 0.42326
# Poissons Ratio (y) = 0.29052 -0.13064
# Poissons Ratio (z) = 0.59553 -0.16130
#
# Static dielectric constant tensor:
#      x y z
#    x 2.332580 0.537800 -0.076010 
#    y 0.537800 3.410230 -0.125880 
#    z -0.076010 -0.125880 2.133170 
# 
# From -- ./inp_files/134513.got.cif
#   From: 2010.05.17/outbox.cif.g08.bks.cpg/sg2_68_cif.got.tgz:134513.got - 2010.06.03 11:33:40.
