data_PCOD9027167
_publ_section_title
;
Structure prediction by ZEFSAII (Michael W. Deem and Ramdas Pophale) SiO2 
 PCOD9027167
Probable space group: P -1
;
_chemical_formula_sum "Si O2"
_cell_formula_units_Z 16
_cell_length_a 6.855843
_cell_length_b 19.815907
_cell_length_c 12.397985
_cell_angle_alpha 37.672353
_cell_angle_beta 137.046639
_cell_angle_gamma 130.335484
_cell_volume 692.015296
_symmetry_space_group_name_H-M "P -1"
_symmetry_group_IT_number 2
_symmetry_cell_setting 'triclinic'
loop_
_space_group_symop_operation_xyz
x,y,z
-x,-y,-z
loop_
_atom_site_type_symbol
_atom_site_label
_atom_site_fract_x
_atom_site_fract_y
_atom_site_fract_z
Si Si1 0.186910 0.162525 0.030877
Si Si2 0.154685 0.275976 0.371567
Si Si3 0.408902 0.084155 0.004146
Si Si4 0.085657 0.031796 0.710567
Si Si5 0.565053 0.430978 0.217974
Si Si6 0.683114 0.279220 0.738502
Si Si7 0.656405 0.387199 0.957302
Si Si8 0.825837 0.480702 0.675788
O O1 0.424884 0.273662 0.996289
O O2 0.245892 0.094021 0.035878
O O3 0.155714 0.077069 0.228150
O O4 0.878507 0.206556 0.842485
O O5 0.013998 0.145722 0.487185
O O6 0.350189 0.314983 0.295898
O O7 0.396090 0.296094 0.537622
O O8 0.907931 0.352903 0.178485
O O9 0.217510 0.058188 0.851370
O O10 0.583784 0.207500 0.894772
O O11 0.647895 0.003127 0.204724
O O12 0.904129 0.421050 0.358604
O O13 0.500000 0.500000 0.000000
O O14 0.489273 0.512158 0.180903
O O15 0.870322 0.391656 0.714168
O O16 0.809896 0.427480 0.855481
O O17 0.500000 0.500000 0.500000
#
# Coordination Sequence:
#
# PCOD9027167 Si02
#       8
#     2   2   2   2   2   2   2   2
#     4  11  21  40  72  98 138 177 230 277 341 396
#     4  11  25  45  67  99 144 178 224 282 335 410
#     4   9  18  39  66  98 135 177 222 283 333 394
#     4   9  21  40  64 102 137 173 231 279 331 402
#     4  12  27  48  70  96 138 185 222 278 349 406
#     4  10  22  41  67 100 135 171 229 283 328 403
#     4  12  26  46  69 102 141 179 222 281 348 407
#     4  12  26  44  71 103 130 175 232 286 335 401
#
# _framework density 23.120878000000001
#
# number of rings (size 3 to 8) (size 9 to 14) (size 15 to 20)
#    0.000    1.250    3.750    2.250    3.500    1.500 
#    4.500    0.625    0.000    0.000    0.000    0.000 
#    0.000    0.000    0.000    0.000    0.000    0.000 
#
# Total GULP energy -89393.783538 kJ/mol
# GULP energy per Si atom -5587.111471 kJ/mol
# Density = 2.306825 g / cm^3
# Si number density = 23.120878 Si / 1000 Ang^3
#
#
#
# Elastic Constant Matrix: (Units=GPa)
#
#
# Indices 1 2 3 4 5 6 
#
# 1 139.4097 29.6592 41.5146 -7.7510 13.7087 2.8486
# 2 29.6592 61.5257 12.6092 -14.0808 -1.1987 12.3908
# 3 41.5146 12.6092 99.6367 -13.1020 7.8406 6.3709
# 4 -7.7510 -14.0808 -13.1020 26.8652 10.3117 -3.3519
# 5 13.7087 -1.1987 7.8406 10.3117 25.9572 -0.9839
# 6 2.8486 12.3908 6.3709 -3.3519 -0.9839 44.0915
#
#
#
# Elastic Compliance Matrix: (Units=1/GPa)
#
#
# Indices 1 2 3 4 5 6 
#
# 1 0.009394 -0.003944 -0.002963 0.001096 -0.004649 0.000909
# 2 -0.003944 0.021370 0.000741 0.010347 -0.001458 -0.005104
# 3 -0.002963 0.000741 0.012679 0.007574 -0.005292 -0.001391
# 4 0.001096 0.010347 0.007574 0.056085 -0.024683 -0.000360
# 5 -0.004649 -0.001458 -0.005292 -0.024683 0.052346 0.000766
# 6 0.000909 -0.005104 -0.001391 -0.000360 0.000766 0.024246
#
#
# Mechanical properties :
#
#
# Convention : Reuss Voigt Hill
#
# Bulk Modulus (GPa) = 32.14435 52.01533 42.07984
# Shear Modulus (GPa) = 25.14780 33.83539 29.49159
#
# Velocity S-wave (km/s) = 3.30156 3.82961 3.57534
# Velocity P-wave (km/s) = 5.33541 6.48849 5.94000
#
# Compressibility (1/GPa) = 0.03110967
#
# Stress axis : x y z
#
# Youngs Moduli (GPa) = 106.44908 46.79384 78.87182
#
# Poissons Ratio (x) = 0.18456 0.23371
# Poissons Ratio (y) = 0.41985 -0.05841
# Poissons Ratio (z) = 0.31543 -0.03465
#
# Static dielectric constant tensor:
#      x y z
#    x 1.868850 0.027370 -0.001970 
#    y 0.027370 1.925660 -0.003700 
#    z -0.001970 -0.003700 1.879960 
# 
# From -- ./inp_files/370382.got.cif
#   From: 2010.05.17/outbox.cif.g08.bks.cpg/sg2_186_cif.got.tgz:370382.got - 2010.06.03 11:33:40.
