data_PCOD9027188
_publ_section_title
;
Structure prediction by ZEFSAII (Michael W. Deem and Ramdas Pophale) SiO2 
 PCOD9027188
Probable space group: P -1
;
_chemical_formula_sum "Si O2"
_cell_formula_units_Z 16
_cell_length_a 25.377548
_cell_length_b 12.234182
_cell_length_c 8.337696
_cell_angle_alpha 136.299137
_cell_angle_beta 35.278564
_cell_angle_gamma 150.318189
_cell_volume 739.481639
_symmetry_space_group_name_H-M "P -1"
_symmetry_group_IT_number 2
_symmetry_cell_setting 'triclinic'
loop_
_space_group_symop_operation_xyz
x,y,z
-x,-y,-z
loop_
_atom_site_type_symbol
_atom_site_label
_atom_site_fract_x
_atom_site_fract_y
_atom_site_fract_z
Si Si1 0.185495 0.446833 0.240369
Si Si2 0.414078 0.457665 0.381529
Si Si3 0.329795 0.390886 0.164145
Si Si4 0.724314 0.949028 0.508005
Si Si5 0.844996 0.535982 0.321061
Si Si6 0.896371 0.983495 0.890838
Si Si7 0.137625 0.602320 0.213869
Si Si8 0.528812 0.217926 0.190596
O O1 0.152470 0.516231 0.553074
O O2 0.108416 0.190702 0.189102
O O3 0.165825 0.502970 0.175335
O O4 0.336043 0.588804 0.026617
O O5 0.358394 0.374456 0.255874
O O6 0.309135 0.256197 0.543494
O O7 0.447307 0.677127 0.581612
O O8 0.540077 0.501686 0.132567
O O9 0.284108 0.516730 0.422237
O O10 0.211431 0.160610 0.130882
O O11 0.596990 0.845591 0.623243
O O12 0.761716 0.134726 0.730696
O O13 0.843921 0.058657 0.214580
O O14 0.854084 0.440599 0.038019
O O15 0.965506 0.800212 0.283080
O O16 0.000000 0.500000 0.500000
O O17 0.500000 0.000000 0.000000
#
# Coordination Sequence:
#
# PCOD9027188 Si02
#       8
#     2   2   2   2   2   2   2   2
#     4  11  24  45  71  99 133 183 221 288 348 388
#     4  11  23  42  69  98 136 174 225 288 335 407
#     4  10  22  41  67 103 130 168 229 288 336 395
#     4  12  23  42  67  99 132 184 227 273 340 403
#     4  11  25  45  69 102 136 178 236 281 330 413
#     4  11  22  44  73  95 133 176 232 279 331 412
#     4  12  27  46  64 101 144 178 228 279 339 413
#     4  12  23  42  72  98 137 179 222 278 343 412
#
# _framework density 21.636778
#
# number of rings (size 3 to 8) (size 9 to 14) (size 15 to 20)
#    0.000    0.750    5.000    4.125    0.000    3.000 
#    6.750    1.250    0.000    0.000    0.000    0.000 
#    0.000    0.000    0.000    0.000    0.000    0.000 
#
# Total GULP energy -89262.118630 kJ/mol
# GULP energy per Si atom -5578.882414 kJ/mol
# Density = 2.158753 g / cm^3
# Si number density = 21.636778 Si / 1000 Ang^3
#
#
#
# Elastic Constant Matrix: (Units=GPa)
#
#
# Indices 1 2 3 4 5 6 
#
# 1 57.4834 3.6254 14.4058 13.5429 8.6444 8.8586
# 2 3.6254 63.1460 2.5257 15.2002 11.9947 7.8146
# 3 14.4058 2.5257 108.2582 -3.6766 22.5264 1.5793
# 4 13.5429 15.2002 -3.6766 41.5727 12.6982 5.7543
# 5 8.6444 11.9947 22.5264 12.6982 37.8456 5.7661
# 6 8.8586 7.8146 1.5793 5.7543 5.7661 24.4057
#
#
#
# Elastic Compliance Matrix: (Units=1/GPa)
#
#
# Indices 1 2 3 4 5 6 
#
# 1 0.020535 0.001307 -0.002827 -0.006477 -0.000321 -0.006086
# 2 0.001307 0.018275 0.000039 -0.005406 -0.003662 -0.004189
# 3 -0.002827 0.000039 0.011327 0.004090 -0.007653 0.001124
# 4 -0.006477 -0.005406 0.004090 0.031639 -0.009650 -0.001363
# 5 -0.000321 -0.003662 -0.007653 -0.009650 0.036132 -0.004477
# 6 -0.006086 -0.004189 0.001124 -0.001363 -0.004477 0.045831
#
#
# Mechanical properties :
#
#
# Convention : Reuss Voigt Hill
#
# Bulk Modulus (GPa) = 21.19747 30.00015 25.59881
# Shear Modulus (GPa) = 27.40855 34.65351 31.03103
#
# Velocity S-wave (km/s) = 3.56302 4.00634 3.79117
# Velocity P-wave (km/s) = 5.17156 5.94109 5.56963
#
# Compressibility (1/GPa) = 0.04717544
#
# Stress axis : x y z
#
# Youngs Moduli (GPa) = 48.69831 54.71972 88.28192
#
# Poissons Ratio (x) = -0.07154 0.24960
# Poissons Ratio (y) = -0.06367 -0.00346
# Poissons Ratio (z) = 0.13769 -0.00214
#
# Static dielectric constant tensor:
#      x y z
#    x 1.808980 -0.010260 0.019380 
#    y -0.010260 1.753110 0.023220 
#    z 0.019380 0.023220 1.852890 
# 
# From -- ./inp_files/357075.got.cif
#   From: 2010.05.17/outbox.cif.g08.bks.cpg/sg2_179_cif.got.tgz:357075.got - 2010.06.03 11:33:40.
