data_PCOD9027466
_publ_section_title
;
Structure prediction by ZEFSAII (Michael W. Deem and Ramdas Pophale) SiO2 
 PCOD9027466
Probable space group: P -1
;
_chemical_formula_sum "Si O2"
_cell_formula_units_Z 16
_cell_length_a 11.446111
_cell_length_b 10.386971
_cell_length_c 8.482098
_cell_angle_alpha 57.838731
_cell_angle_beta 114.187406
_cell_angle_gamma 130.332722
_cell_volume 647.442971
_symmetry_space_group_name_H-M "P -1"
_symmetry_group_IT_number 2
_symmetry_cell_setting 'triclinic'
loop_
_space_group_symop_operation_xyz
x,y,z
-x,-y,-z
loop_
_atom_site_type_symbol
_atom_site_label
_atom_site_fract_x
_atom_site_fract_y
_atom_site_fract_z
Si Si1 0.491163 0.272941 0.276959
Si Si2 0.148689 0.092069 0.686857
Si Si3 0.076926 0.289522 0.902378
Si Si4 0.212190 0.554552 0.080527
Si Si5 0.529993 0.636794 0.159696
Si Si6 0.779667 0.312396 0.336212
Si Si7 0.005596 0.270830 0.357217
Si Si8 0.154946 0.026954 0.196361
O O1 0.526932 0.450787 0.276225
O O2 0.617436 0.222701 0.390739
O O3 0.316204 0.107034 0.317140
O O4 0.498103 0.326811 0.060420
O O5 0.314026 0.194586 0.791776
O O6 0.143870 0.243821 0.483130
O O7 0.109084 0.913912 0.685438
O O8 0.994023 0.026129 0.747240
O O9 0.142737 0.473526 0.721534
O O10 0.904624 0.134662 0.858399
O O11 0.117171 0.364816 0.052393
O O12 0.175779 0.201159 0.998969
O O13 0.379515 0.604602 0.185064
O O14 0.092598 0.482721 0.205193
O O15 0.235318 0.693452 0.862957
O O16 0.902537 0.260062 0.455294
#
# Coordination Sequence:
#
# PCOD9027466 Si02
#       8
#     2   2   2   2   2   2   2   2
#     4  10  17  31  58  81 110 125 170 231 275 301
#     4  11  23  34  55  76 108 148 177 213 252 320
#     4   9  17  30  58  84 102 127 172 230 271 295
#     4   9  18  35  57  81 100 136 173 226 263 298
#     4  10  18  33  54  86 103 129 176 227 271 303
#     4   9  19  35  54  79 105 140 172 224 267 303
#     4  11  22  39  51  73 111 151 182 201 253 326
#     4  11  17  32  54  86 107 129 176 218 268 310
#
# _framework density 24.712600999999999
#
# number of rings (size 3 to 8) (size 9 to 14) (size 15 to 20)
#    0.750    1.250    2.500    3.375    0.000    0.500 
#    0.000    6.875    0.000    0.000    0.000    0.000 
#    0.000    0.000    0.000    0.000    0.000    0.000 
#
# Total GULP energy -89135.281503 kJ/mol
# GULP energy per Si atom -5570.955094 kJ/mol
# Density = 2.465635 g / cm^3
# Si number density = 24.712601 Si / 1000 Ang^3
#
#
#
# Elastic Constant Matrix: (Units=GPa)
#
#
# Indices 1 2 3 4 5 6 
#
# 1 112.5244 42.0255 12.3147 8.6484 27.1247 30.7262
# 2 42.0255 107.5704 13.2437 10.6273 12.0420 22.3443
# 3 12.3147 13.2437 33.3875 2.0334 12.0818 1.8004
# 4 8.6484 10.6273 2.0334 30.1376 5.6459 1.7713
# 5 27.1247 12.0420 12.0818 5.6459 29.8887 -8.9790
# 6 30.7262 22.3443 1.8004 1.7713 -8.9790 31.0078
#
#
#
# Elastic Compliance Matrix: (Units=1/GPa)
#
#
# Indices 1 2 3 4 5 6 
#
# 1 0.030363 0.001383 0.006622 0.001272 -0.044364 -0.044388
# 2 0.001383 0.012964 -0.001373 -0.002325 -0.009462 -0.013240
# 3 0.006622 -0.001373 0.038114 0.001750 -0.025808 -0.015359
# 4 0.001272 -0.002325 0.001750 0.035439 -0.008909 -0.004291
# 5 -0.044364 -0.009462 -0.025808 -0.008909 0.115556 0.086249
# 6 -0.044388 -0.013240 -0.015359 -0.004291 0.086249 0.111887
#
#
# Mechanical properties :
#
#
# Convention : Reuss Voigt Hill
#
# Bulk Modulus (GPa) = 10.55906 43.18335 26.87121
# Shear Modulus (GPa) = 13.78827 30.60005 22.19416
#
# Velocity S-wave (km/s) = 2.36465 3.52268 3.00007
# Velocity P-wave (km/s) = 3.42599 5.83591 4.78515
#
# Compressibility (1/GPa) = 0.09470536
#
# Stress axis : x y z
#
# Youngs Moduli (GPa) = 32.93527 77.13717 26.23704
#
# Poissons Ratio (x) = -0.10671 -0.17375
# Poissons Ratio (y) = -0.04556 0.03603
# Poissons Ratio (z) = -0.21810 0.10592
#
# Static dielectric constant tensor:
#      x y z
#    x 1.997870 0.021610 -0.087780 
#    y 0.021610 1.936800 -0.070740 
#    z -0.087780 -0.070740 2.376720 
# 
# From -- ./inp_files/423314.got.cif
#   From: 2010.05.17/outbox.cif.g08.bks.cpg/sg2_212_cif.got.tgz:423314.got - 2010.06.03 11:33:40.
