data_PCOD9027247
_publ_section_title
;
Structure prediction by ZEFSAII (Michael W. Deem and Ramdas Pophale) SiO2 
 PCOD9027247
Probable space group: P -1
;
_chemical_formula_sum "Si O2"
_cell_formula_units_Z 16
_cell_length_a 15.226376
_cell_length_b 5.637046
_cell_length_c 8.836301
_cell_angle_alpha 100.604740
_cell_angle_beta 101.529601
_cell_angle_gamma 101.773208
_cell_volume 707.234552
_symmetry_space_group_name_H-M "P -1"
_symmetry_group_IT_number 2
_symmetry_cell_setting 'triclinic'
loop_
_space_group_symop_operation_xyz
x,y,z
-x,-y,-z
loop_
_atom_site_type_symbol
_atom_site_label
_atom_site_fract_x
_atom_site_fract_y
_atom_site_fract_z
Si Si1 0.418404 0.073745 0.644099
Si Si2 0.918778 0.275162 0.596655
Si Si3 0.464313 0.250878 0.362681
Si Si4 0.426362 0.517359 0.105448
Si Si5 0.126332 0.971177 0.924979
Si Si6 0.090156 0.170528 0.247508
Si Si7 0.277516 0.314954 0.805780
Si Si8 0.871517 0.454874 0.298477
O O1 0.408808 0.080601 0.459417
O O2 0.519283 0.245022 0.752808
O O3 0.341799 0.171555 0.718803
O O4 0.439168 0.811965 0.661472
O O5 0.884872 0.012297 0.638240
O O6 0.882500 0.267348 0.413182
O O7 0.030995 0.340224 0.638884
O O8 0.896078 0.532529 0.683089
O O9 0.500000 0.500000 0.500000
O O10 0.411670 0.295794 0.198474
O O11 0.500000 0.500000 0.000000
O O12 0.337363 0.504979 0.971887
O O13 0.136485 0.688115 0.881302
O O14 0.201491 0.129836 0.858044
O O15 0.138194 0.106124 0.105258
O O16 0.020014 0.937141 0.833037
O O17 0.218653 0.449146 0.694540
#
# Coordination Sequence:
#
# PCOD9027247 Si02
#       8
#     2   2   2   2   2   2   2   2
#     4   9  20  38  65  87 120 165 205 258 314 385
#     4  10  22  41  69  90 128 178 228 266 328 399
#     4   9  18  38  63  88 114 163 212 247 311 391
#     4   9  20  36  61  87 121 159 200 252 315 389
#     4  10  23  37  62  90 129 163 217 271 332 383
#     4  10  22  41  67  93 124 179 222 270 330 398
#     4  11  22  38  57  94 126 158 212 272 324 374
#     4  10  23  38  62  90 128 166 220 273 325 385
#
# _framework density 22.623327
#
# number of rings (size 3 to 8) (size 9 to 14) (size 15 to 20)
#    0.000    2.250    1.250    0.000    3.500    9.000 
#    2.250    0.000    0.000    0.000    0.000    0.000 
#    0.000    0.000    0.000    0.000    0.000    0.000 
#
# Total GULP energy -89157.285046 kJ/mol
# GULP energy per Si atom -5572.330315 kJ/mol
# Density = 2.257183 g / cm^3
# Si number density = 22.623327 Si / 1000 Ang^3
#
#
#
# Elastic Constant Matrix: (Units=GPa)
#
#
# Indices 1 2 3 4 5 6 
#
# 1 91.0141 26.0809 31.4783 10.0555 -9.0311 -22.4218
# 2 26.0809 61.7834 25.0074 2.1342 -1.1582 -24.5435
# 3 31.4783 25.0074 97.2575 6.4550 -13.8738 -14.6186
# 4 10.0555 2.1342 6.4550 31.6645 -3.7390 -1.1584
# 5 -9.0311 -1.1582 -13.8738 -3.7390 34.0625 3.1128
# 6 -22.4218 -24.5435 -14.6186 -1.1584 3.1128 36.0505
#
#
#
# Elastic Compliance Matrix: (Units=1/GPa)
#
#
# Indices 1 2 3 4 5 6 
#
# 1 0.014710 -0.002558 -0.002709 -0.003517 0.001772 0.006043
# 2 -0.002558 0.024090 -0.003711 0.000134 -0.002592 0.013533
# 3 -0.002709 -0.003711 0.012875 -0.000992 0.004235 0.000612
# 4 -0.003517 0.000134 -0.000992 0.033121 0.002454 -0.001646
# 5 0.001772 -0.002592 0.004235 0.002454 0.031882 -0.001620
# 6 0.006043 0.013533 0.000612 -0.001646 -0.001620 0.041046
#
#
# Mechanical properties :
#
#
# Convention : Reuss Voigt Hill
#
# Bulk Modulus (GPa) = 29.65600 46.13201 37.89401
# Shear Modulus (GPa) = 26.74949 31.52138 29.13544
#
# Velocity S-wave (km/s) = 3.44231 3.73676 3.59256
# Velocity P-wave (km/s) = 5.37926 6.24928 5.83052
#
# Compressibility (1/GPa) = 0.03371999
#
# Stress axis : x y z
#
# Youngs Moduli (GPa) = 67.97946 41.51060 77.67090
#
# Poissons Ratio (x) = 0.10618 0.21041
# Poissons Ratio (y) = 0.17388 0.28823
# Poissons Ratio (z) = 0.18415 0.15404
#
# Static dielectric constant tensor:
#      x y z
#    x 1.847580 0.024930 -0.024350 
#    y 0.024930 2.220120 -0.033690 
#    z -0.024350 -0.033690 1.871830 
# 
# From -- ./inp_files/90792.got.cif
#   From: 2010.05.17/outbox.cif.g08.bks.cpg/sg2_46_cif.got.tgz:90792.got - 2010.06.03 11:33:40.
