data_PCOD9027133
_publ_section_title
;
Structure prediction by ZEFSAII (Michael W. Deem and Ramdas Pophale) SiO2 
 PCOD9027133
Probable space group: P -1
;
_chemical_formula_sum "Si O2"
_cell_formula_units_Z 16
_cell_length_a 5.236465
_cell_length_b 18.254368
_cell_length_c 8.184512
_cell_angle_alpha 89.589074
_cell_angle_beta 100.068532
_cell_angle_gamma 53.961922
_cell_volume 616.904672
_symmetry_space_group_name_H-M "P -1"
_symmetry_group_IT_number 2
_symmetry_cell_setting 'triclinic'
loop_
_space_group_symop_operation_xyz
x,y,z
-x,-y,-z
loop_
_atom_site_type_symbol
_atom_site_label
_atom_site_fract_x
_atom_site_fract_y
_atom_site_fract_z
Si Si1 0.660228 0.677293 0.134293
Si Si2 0.118112 0.060795 0.474705
Si Si3 0.806298 0.856084 0.215557
Si Si4 0.222277 0.755615 0.722978
Si Si5 0.168023 0.894400 0.069064
Si Si6 0.089605 0.681453 0.392613
Si Si7 0.727881 0.521913 0.335141
Si Si8 0.021877 0.345543 0.155495
O O1 0.407524 0.784438 0.040775
O O2 0.660088 0.591455 0.179117
O O3 0.770719 0.688395 0.325780
O O4 0.942743 0.634802 0.028196
O O5 0.051970 0.115036 0.632569
O O6 0.954137 0.135416 0.310398
O O7 0.500000 0.000000 0.500000
O O8 0.000000 0.000000 0.500000
O O9 0.454018 0.884541 0.211037
O O10 0.849029 0.898881 0.063781
O O11 0.054066 0.747268 0.242598
O O12 0.102142 0.727560 0.554199
O O13 0.602311 0.707513 0.745364
O O14 0.116853 0.713846 0.848382
O O15 0.000000 0.000000 0.000000
O O16 0.396447 0.580431 0.398611
O O17 0.000000 0.500000 0.500000
O O18 0.820706 0.431496 0.253956
#
# Coordination Sequence:
#
# PCOD9027133 Si02
#       8
#     2   2   2   2   2   2   2   2
#     4  11  27  45  69 107 149 188 244 310 364 426
#     4  11  23  41  69 100 137 185 237 303 363 416
#     4  10  22  41  66  98 134 178 237 296 343 417
#     4  11  26  47  69 104 146 187 246 292 360 444
#     4  11  23  42  68  98 136 190 233 286 356 435
#     4  10  23  44  73  97 142 187 246 293 352 427
#     4  12  24  45  77 103 140 195 253 294 367 437
#     4  12  28  44  71 107 148 189 231 307 370 428
#
# _framework density 25.935938
#
# number of rings (size 3 to 8) (size 9 to 14) (size 15 to 20)
#    0.000    1.000    2.500    3.000    3.500    6.500 
#    0.000    0.000    0.000    0.000    0.000    0.000 
#    0.000    0.000    0.000    0.000    0.000    0.000 
#
# Total GULP energy -89101.631769 kJ/mol
# GULP energy per Si atom -5568.851986 kJ/mol
# Density = 2.587691 g / cm^3
# Si number density = 25.935938 Si / 1000 Ang^3
#
#
#
# Elastic Constant Matrix: (Units=GPa)
#
#
# Indices 1 2 3 4 5 6 
#
# 1 115.8168 65.9715 3.9774 -23.1635 -7.7570 17.1596
# 2 65.9715 174.4435 42.0912 -33.8342 -8.8796 29.6696
# 3 3.9774 42.0912 60.0342 -13.1016 -1.6512 7.2619
# 4 -23.1635 -33.8342 -13.1016 48.0124 4.1449 3.1059
# 5 -7.7570 -8.8796 -1.6512 4.1449 40.9944 -8.3817
# 6 17.1596 29.6696 7.2619 3.1059 -8.3817 54.2954
#
#
#
# Elastic Compliance Matrix: (Units=1/GPa)
#
#
# Indices 1 2 3 4 5 6 
#
# 1 0.012033 -0.004217 0.003254 0.003794 0.000693 -0.002044
# 2 -0.004217 0.009987 -0.005470 0.003741 0.000030 -0.003602
# 3 0.003254 -0.005470 0.021189 0.003597 -0.000310 -0.001127
# 4 0.003794 0.003741 0.003597 0.026827 -0.002183 -0.005596
# 5 0.000693 0.000030 -0.000310 -0.002183 0.025531 0.003872
# 6 -0.002044 -0.003602 -0.001127 -0.005596 0.003872 0.022101
#
#
# Mechanical properties :
#
#
# Convention : Reuss Voigt Hill
#
# Bulk Modulus (GPa) = 32.95670 63.81941 48.38806
# Shear Modulus (GPa) = 35.54988 44.54406 40.04697
#
# Velocity S-wave (km/s) = 3.70629 4.14873 3.93373
# Velocity P-wave (km/s) = 5.57225 6.89994 6.27133
#
# Compressibility (1/GPa) = 0.03034284
#
# Stress axis : x y z
#
# Youngs Moduli (GPa) = 83.10790 100.13145 47.19374
#
# Poissons Ratio (x) = 0.42224 -0.15355
# Poissons Ratio (y) = 0.35046 0.25813
# Poissons Ratio (z) = -0.27039 0.54768
#
# Static dielectric constant tensor:
#      x y z
#    x 2.041150 0.062690 0.099790 
#    y 0.062690 2.058450 -0.071370 
#    z 0.099790 -0.071370 2.025690 
# 
# From -- ./inp_files/139079.got.cif
#   From: 2010.05.17/outbox.cif.g08.bks.cpg/sg2_70_cif.got.tgz:139079.got - 2010.06.03 11:33:40.
