data_PCOD9027039
_publ_section_title
;
Structure prediction by ZEFSAII (Michael W. Deem and Ramdas Pophale) SiO2 
 PCOD9027039
Probable space group: P -1
;
_chemical_formula_sum "Si O2"
_cell_formula_units_Z 14
_cell_length_a 11.090211
_cell_length_b 8.145852
_cell_length_c 8.842738
_cell_angle_alpha 124.504356
_cell_angle_beta 62.373642
_cell_angle_gamma 118.736688
_cell_volume 556.628218
_symmetry_space_group_name_H-M "P -1"
_symmetry_group_IT_number 2
_symmetry_cell_setting 'triclinic'
loop_
_space_group_symop_operation_xyz
x,y,z
-x,-y,-z
loop_
_atom_site_type_symbol
_atom_site_label
_atom_site_fract_x
_atom_site_fract_y
_atom_site_fract_z
Si Si1 0.323245 0.762014 0.420913
Si Si2 0.851280 0.055024 0.146686
Si Si3 0.569191 0.797109 0.530578
Si Si4 0.546179 0.256271 0.107777
Si Si5 0.150049 0.676487 0.009792
Si Si6 0.290040 0.326271 0.140372
Si Si7 0.839533 0.920194 0.607387
O O1 0.446206 0.720860 0.436504
O O2 0.259618 0.545325 0.259575
O O3 0.203645 0.840025 0.622762
O O4 0.405185 0.952848 0.367566
O O5 0.835236 0.203701 0.096372
O O6 0.745892 0.825118 0.060867
O O7 0.000000 0.000000 0.000000
O O8 0.498621 0.702043 0.676980
O O9 0.733904 0.805439 0.474005
O O10 0.709741 0.388232 0.076009
O O11 0.450489 0.332767 0.087163
O O12 0.500000 0.000000 0.000000
O O13 0.000000 0.500000 0.000000
O O14 0.174344 0.858384 0.214681
O O15 0.199106 0.217159 0.287391
O O16 0.000000 0.000000 0.500000
#
# Coordination Sequence:
#
# PCOD9027039 Si02
#       7
#     2   2   2   2   2   2   2
#     4  11  24  43  68  98 134 171 230 270 334 405
#     4  11  25  46  65  95 145 174 216 281 341 393
#     4  10  22  41  66  95 130 178 217 281 326 396
#     4  11  18  46  71  92 137 171 227 282 327 397
#     4  11  24  41  68 101 130 175 224 280 334 393
#     4  10  24  43  71  98 124 187 221 275 335 394
#     4  10  23  39  66  93 135 173 225 274 332 392
#
# _framework density 25.151440000000001
#
# number of rings (size 3 to 8) (size 9 to 14) (size 15 to 20)
#    0.000    1.429    5.714    0.000    6.000    5.143 
#    2.571    3.571    0.000    0.000    0.000    0.000 
#    0.000    0.000    0.000    0.000    0.000    0.000 
#
# Total GULP energy -78119.846616 kJ/mol
# GULP energy per Si atom -5579.989044 kJ/mol
# Density = 2.509419 g / cm^3
# Si number density = 25.151440 Si / 1000 Ang^3
#
#
#
# Elastic Constant Matrix: (Units=GPa)
#
#
# Indices 1 2 3 4 5 6 
#
# 1 106.8745 16.9570 26.2090 -19.5328 -18.2441 30.8504
# 2 16.9570 73.9369 40.0485 19.6990 -11.3396 12.0323
# 3 26.2090 40.0485 102.5413 22.2655 -16.8448 4.3370
# 4 -19.5328 19.6990 22.2655 46.5312 3.9441 -2.8198
# 5 -18.2441 -11.3396 -16.8448 3.9441 28.6030 -11.3393
# 6 30.8504 12.0323 4.3370 -2.8198 -11.3393 42.5454
#
#
#
# Elastic Compliance Matrix: (Units=1/GPa)
#
#
# Indices 1 2 3 4 5 6 
#
# 1 0.015146 -0.001599 -0.004429 0.008464 0.001653 -0.009077
# 2 -0.001599 0.019556 -0.004992 -0.007058 0.003410 -0.003421
# 3 -0.004429 -0.004992 0.015427 -0.007458 0.007070 0.004441
# 4 0.008464 -0.007058 -0.007458 0.032039 -0.007501 -0.003257
# 5 0.001653 0.003410 0.007070 -0.007501 0.046096 0.008905
# 6 -0.009077 -0.003421 0.004441 -0.003257 0.008905 0.032759
#
#
# Mechanical properties :
#
#
# Convention : Reuss Voigt Hill
#
# Bulk Modulus (GPa) = 35.60094 49.97574 42.78834
# Shear Modulus (GPa) = 25.98423 36.87847 31.43135
#
# Velocity S-wave (km/s) = 3.21769 3.83333 3.53892
# Velocity P-wave (km/s) = 5.29056 6.28535 5.80929
#
# Compressibility (1/GPa) = 0.02808915
#
# Stress axis : x y z
#
# Youngs Moduli (GPa) = 66.02412 51.13596 64.82240
#
# Poissons Ratio (x) = 0.08176 0.28711
# Poissons Ratio (y) = 0.10557 0.32356
# Poissons Ratio (z) = 0.29244 0.25525
#
# Static dielectric constant tensor:
#      x y z
#    x 2.214140 0.069910 -0.182860 
#    y 0.069910 1.988970 -0.018050 
#    z -0.182860 -0.018050 2.240760 
# 
# From -- ./inp_files/245805.got.cif
#   From: 2010.05.17/outbox.cif.g08.bks.cpg/sg2_123_cif.got.tgz:245805.got - 2010.06.03 11:33:40.
