data_PCOD9027615
_publ_section_title
;
Structure prediction by ZEFSAII (Michael W. Deem and Ramdas Pophale) SiO2 
 PCOD9027615
Probable space group: P -1
;
_chemical_formula_sum "Si O2"
_cell_formula_units_Z 16
_cell_length_a 8.692761
_cell_length_b 13.596117
_cell_length_c 22.138438
_cell_angle_alpha 23.060179
_cell_angle_beta 125.609008
_cell_angle_gamma 125.383681
_cell_volume 825.485738
_symmetry_space_group_name_H-M "P -1"
_symmetry_group_IT_number 2
_symmetry_cell_setting 'triclinic'
loop_
_space_group_symop_operation_xyz
x,y,z
-x,-y,-z
loop_
_atom_site_type_symbol
_atom_site_label
_atom_site_fract_x
_atom_site_fract_y
_atom_site_fract_z
Si Si1 0.972912 0.536665 0.045157
Si Si2 0.708625 0.491521 0.474150
Si Si3 0.427412 0.579729 0.838521
Si Si4 0.248126 0.176329 0.313374
Si Si5 0.697204 0.630606 0.526840
Si Si6 0.056087 0.918798 0.294995
Si Si7 0.578339 0.183746 0.172509
Si Si8 0.913219 0.191591 0.416928
O O1 0.140696 0.402305 0.186972
O O2 0.776673 0.369720 0.110378
O O3 0.000000 0.500000 0.000000
O O4 0.965021 0.829224 0.889820
O O5 0.713292 0.474889 0.557382
O O6 0.486178 0.492116 0.407150
O O7 0.795365 0.256700 0.597647
O O8 0.852126 0.743216 0.349472
O O9 0.564351 0.683008 0.756155
O O10 0.496907 0.761967 0.808597
O O11 0.211945 0.619716 0.751361
O O12 0.455543 0.299122 0.027173
O O13 0.125284 0.019370 0.320452
O O14 0.237144 0.975162 0.478445
O O15 0.901091 0.676165 0.579850
O O16 0.633105 0.903214 0.339319
O O17 0.000000 0.000000 0.500000
#
# Coordination Sequence:
#
# PCOD9027615 Si02
#       8
#     2   2   2   2   2   2   2   2
#     4  10  17  31  58  87 122 146 186 261 303 344
#     4  10  22  35  58  86 118 172 199 249 278 350
#     4  11  23  33  57  95 121 158 184 245 326 353
#     4  11  20  37  59  91 125 155 194 253 312 363
#     4  11  21  39  60  88 123 156 208 243 296 360
#     4  10  19  35  56  93 120 151 212 249 289 347
#     4  11  20  37  60  93 123 149 202 252 307 357
#     4  12  23  39  58  90 129 157 192 251 317 365
#
# _framework density 19.382527
#
# number of rings (size 3 to 8) (size 9 to 14) (size 15 to 20)
#    0.000    1.250    6.250    1.875    1.750    0.000 
#    0.000    0.000    0.000    3.000    0.000    5.250 
#    0.000    0.000    0.000    0.000    0.000    0.000 
#
# Total GULP energy -89239.674408 kJ/mol
# GULP energy per Si atom -5577.479651 kJ/mol
# Density = 1.933841 g / cm^3
# Si number density = 19.382527 Si / 1000 Ang^3
#
#
#
# Elastic Constant Matrix: (Units=GPa)
#
#
# Indices 1 2 3 4 5 6 
#
# 1 87.7716 11.6487 14.4371 3.6278 0.5939 12.0851
# 2 11.6487 53.9110 28.2852 4.0358 5.9387 15.1407
# 3 14.4371 28.2852 78.7921 8.2889 13.1270 10.0248
# 4 3.6278 4.0358 8.2889 36.1457 5.8556 4.6666
# 5 0.5939 5.9387 13.1270 5.8556 26.2612 1.4138
# 6 12.0851 15.1407 10.0248 4.6666 1.4138 32.6330
#
#
#
# Elastic Compliance Matrix: (Units=1/GPa)
#
#
# Indices 1 2 3 4 5 6 
#
# 1 0.012284 -0.000875 -0.001595 -0.000465 0.001017 -0.003631
# 2 -0.000875 0.025425 -0.007593 0.000418 -0.001536 -0.009133
# 3 -0.001595 -0.007593 0.017027 -0.001796 -0.006326 -0.000586
# 4 -0.000465 0.000418 -0.001796 0.029422 -0.005562 -0.003436
# 5 0.001017 -0.001536 -0.006326 -0.005562 0.042740 0.001223
# 6 -0.003631 -0.009133 -0.000586 -0.003436 0.001223 0.036844
#
#
# Mechanical properties :
#
#
# Convention : Reuss Voigt Hill
#
# Bulk Modulus (GPa) = 28.89339 36.57965 32.73652
# Shear Modulus (GPa) = 25.58791 30.08155 27.83473
#
# Velocity S-wave (km/s) = 3.63733 3.94381 3.79367
# Velocity P-wave (km/s) = 5.70785 6.29695 6.00962
#
# Compressibility (1/GPa) = 0.03461000
#
# Stress axis : x y z
#
# Youngs Moduli (GPa) = 81.40695 39.33179 58.72973
#
# Poissons Ratio (x) = 0.03440 0.09369
# Poissons Ratio (y) = 0.07121 0.44593
# Poissons Ratio (z) = 0.12987 0.29864
#
# Static dielectric constant tensor:
#      x y z
#    x 1.779750 0.007340 -0.003280 
#    y 0.007340 1.682320 0.016250 
#    z -0.003280 0.016250 1.720140 
# 
# From -- ./inp_files/397427.got.cif
#   From: 2010.05.17/outbox.cif.g08.bks.cpg/sg2_199_cif.got.tgz:397427.got - 2010.06.03 11:33:40.
