data_PCOD9027211
_publ_section_title
;
Structure prediction by ZEFSAII (Michael W. Deem and Ramdas Pophale) SiO2 
 PCOD9027211
Probable space group: P -1
;
_chemical_formula_sum "Si O2"
_cell_formula_units_Z 16
_cell_length_a 18.950489
_cell_length_b 17.625821
_cell_length_c 8.407527
_cell_angle_alpha 43.495923
_cell_angle_beta 141.751461
_cell_angle_gamma 158.049534
_cell_volume 649.814715
_symmetry_space_group_name_H-M "P -1"
_symmetry_group_IT_number 2
_symmetry_cell_setting 'triclinic'
loop_
_space_group_symop_operation_xyz
x,y,z
-x,-y,-z
loop_
_atom_site_type_symbol
_atom_site_label
_atom_site_fract_x
_atom_site_fract_y
_atom_site_fract_z
Si Si1 0.207815 0.459684 0.697836
Si Si2 0.415360 0.148106 0.076752
Si Si3 0.019109 0.757046 0.840154
Si Si4 0.390733 0.725256 0.121519
Si Si5 0.671464 0.788583 0.709920
Si Si6 0.866176 0.298220 0.161455
Si Si7 0.532775 0.472334 0.764703
Si Si8 0.882965 0.814243 0.279296
O O1 0.210131 0.370196 0.697977
O O2 0.999504 0.357175 0.454161
O O3 0.406313 0.704754 0.693628
O O4 0.247736 0.414914 0.989653
O O5 0.521574 0.203195 0.011592
O O6 0.369547 0.240970 0.837417
O O7 0.195305 0.907606 0.059457
O O8 0.139771 0.801647 0.831221
O O9 0.822070 0.520421 0.887902
O O10 0.931695 0.804848 0.554160
O O11 0.539566 0.787212 0.422583
O O12 0.326709 0.792571 0.969617
O O13 0.535836 0.573998 0.737835
O O14 0.747673 0.810229 0.985871
O O15 0.886911 0.973268 0.710436
O O16 0.000000 0.500000 0.000000
O O17 0.500000 0.500000 0.500000
#
# Coordination Sequence:
#
# PCOD9027211 Si02
#       8
#     2   2   2   2   2   2   2   2
#     4   8  18  33  58  79 112 151 183 228 288 326
#     4  10  20  36  58  82 112 149 183 227 287 334
#     4  10  20  38  57  82 110 150 186 232 286 329
#     4  11  21  34  59  82 112 145 194 229 276 338
#     4  10  17  31  57  86 106 149 186 232 281 332
#     4   9  20  38  57  81 114 147 190 242 276 322
#     4   9  15  30  56  79 112 146 175 228 283 324
#     4   9  17  33  59  80 111 148 186 230 287 330
#
# _framework density 24.622405000000001
#
# number of rings (size 3 to 8) (size 9 to 14) (size 15 to 20)
#    0.750    1.750    2.500    0.000    0.000    1.500 
#    0.000    3.125    8.250    0.000    0.000    0.000 
#    0.000    0.000    0.000    0.000    0.000    0.000 
#
# Total GULP energy -89186.257391 kJ/mol
# GULP energy per Si atom -5574.141087 kJ/mol
# Density = 2.456636 g / cm^3
# Si number density = 24.622405 Si / 1000 Ang^3
#
#
#
# Elastic Constant Matrix: (Units=GPa)
#
#
# Indices 1 2 3 4 5 6 
#
# 1 68.1296 13.6637 23.9334 11.2744 16.2631 11.3068
# 2 13.6637 112.2094 14.8771 33.0018 1.0342 -2.0316
# 3 23.9334 14.8771 154.6081 14.4361 33.8137 -12.5481
# 4 11.2744 33.0018 14.4361 33.6526 -2.1316 -10.0106
# 5 16.2631 1.0342 33.8137 -2.1316 27.7977 -1.7619
# 6 11.3068 -2.0316 -12.5481 -10.0106 -1.7619 18.7643
#
#
#
# Elastic Compliance Matrix: (Units=1/GPa)
#
#
# Indices 1 2 3 4 5 6 
#
# 1 0.027506 0.002789 -0.000845 -0.021761 -0.018752 -0.030207
# 2 0.002789 0.013559 -0.000023 -0.017426 -0.004073 -0.009906
# 3 -0.000845 -0.000023 0.009730 -0.003348 -0.011334 0.004163
# 4 -0.021761 -0.017426 -0.003348 0.072019 0.026135 0.049862
# 5 -0.018752 -0.004073 -0.011334 0.026135 0.064361 0.023265
# 6 -0.030207 -0.009906 0.004163 0.049862 0.023265 0.101992
#
#
# Mechanical properties :
#
#
# Convention : Reuss Voigt Hill
#
# Bulk Modulus (GPa) = 18.30270 48.87728 33.58999
# Shear Modulus (GPa) = 16.47244 34.87446 25.67345
#
# Velocity S-wave (km/s) = 2.58931 3.76755 3.23257
# Velocity P-wave (km/s) = 4.04832 6.23055 5.25398
#
# Compressibility (1/GPa) = 0.05463675
#
# Stress axis : x y z
#
# Youngs Moduli (GPa) = 36.35584 73.75407 102.77285
#
# Poissons Ratio (x) = -0.20567 0.08684
# Poissons Ratio (y) = -0.10138 0.00232
# Poissons Ratio (z) = 0.03072 0.00167
#
# Static dielectric constant tensor:
#      x y z
#    x 2.074930 0.060390 0.035060 
#    y 0.060390 2.008740 0.044820 
#    z 0.035060 0.044820 1.929580 
# 
# From -- ./inp_files/475584.got.cif
#   From: 2010.05.17/outbox.cif.g08.bks.cpg/sg2_238_cif.got.tgz:475584.got - 2010.06.03 11:33:40.
