data_PCOD9027125
_publ_section_title
;
Structure prediction by ZEFSAII (Michael W. Deem and Ramdas Pophale) SiO2 
 PCOD9027125
Probable space group: P -1
;
_chemical_formula_sum "Si O2"
_cell_formula_units_Z 14
_cell_length_a 9.075891
_cell_length_b 12.154790
_cell_length_c 9.484121
_cell_angle_alpha 119.334778
_cell_angle_beta 133.929099
_cell_angle_gamma 82.088126
_cell_volume 621.874798
_symmetry_space_group_name_H-M "P -1"
_symmetry_group_IT_number 2
_symmetry_cell_setting 'triclinic'
loop_
_space_group_symop_operation_xyz
x,y,z
-x,-y,-z
loop_
_atom_site_type_symbol
_atom_site_label
_atom_site_fract_x
_atom_site_fract_y
_atom_site_fract_z
Si Si1 0.910917 0.696808 0.555308
Si Si2 0.480098 0.328894 0.103727
Si Si3 0.016808 0.133313 0.677089
Si Si4 0.155902 0.560733 0.819722
Si Si5 0.414690 0.805324 0.645079
Si Si6 0.555405 0.394555 0.699588
Si Si7 0.882981 0.998034 0.069516
O O1 0.930405 0.594110 0.382256
O O2 0.661294 0.682045 0.404653
O O3 0.989497 0.635251 0.708283
O O4 0.045238 0.851514 0.728990
O O5 0.636830 0.376970 0.105429
O O6 0.571062 0.242800 0.216575
O O7 0.464746 0.461001 0.252507
O O8 0.238610 0.243539 0.848124
O O9 0.804743 0.169781 0.526071
O O10 0.044029 0.098475 0.836467
O O11 0.000000 0.000000 0.500000
O O12 0.238286 0.582451 0.046838
O O13 0.436079 0.690382 0.483627
O O14 0.624646 0.935512 0.844464
O O15 0.000000 0.000000 0.000000
#
# Coordination Sequence:
#
# PCOD9027125 Si02
#       7
#     2   2   2   2   2   2   2
#     4  10  22  41  66  98 131 162 218 267 322 373
#     4  10  24  43  64  96 133 170 214 266 324 378
#     4  11  29  43  65  95 132 176 219 259 321 393
#     4  10  24  39  72  98 124 173 217 266 320 376
#     4  11  26  44  64  99 131 174 210 266 331 380
#     4  11  23  42  70  97 129 165 225 267 318 382
#     4  11  25  44  69  94 133 167 214 270 323 381
#
# _framework density 22.51257
#
# number of rings (size 3 to 8) (size 9 to 14) (size 15 to 20)
#    0.000    1.429    1.429    2.143   10.000    4.571 
#    0.000    0.000    0.000    0.000    0.000    0.000 
#    0.000    0.000    0.000    0.000    0.000    0.000 
#
# Total GULP energy -78420.734916 kJ/mol
# GULP energy per Si atom -5601.481065 kJ/mol
# Density = 2.246133 g / cm^3
# Si number density = 22.512570 Si / 1000 Ang^3
#
#
#
# Elastic Constant Matrix: (Units=GPa)
#
#
# Indices 1 2 3 4 5 6 
#
# 1 60.8578 18.2977 33.6465 7.5154 18.0424 5.0144
# 2 18.2977 69.2276 32.0633 4.5063 17.0720 0.6820
# 3 33.6465 32.0633 121.5331 10.0395 35.2759 3.7933
# 4 7.5154 4.5063 10.0395 62.0255 1.1252 4.7078
# 5 18.0424 17.0720 35.2759 1.1252 38.0424 -3.9233
# 6 5.0144 0.6820 3.7933 4.7078 -3.9233 31.1937
#
#
#
# Elastic Compliance Matrix: (Units=1/GPa)
#
#
# Indices 1 2 3 4 5 6 
#
# 1 0.021289 -0.002456 -0.003155 -0.001504 -0.006391 -0.003562
# 2 -0.002456 0.017383 -0.002653 -0.000451 -0.004175 -0.000119
# 3 -0.003155 -0.002653 0.012624 -0.001154 -0.009186 -0.001951
# 4 -0.001504 -0.000451 -0.001154 0.016649 0.001291 -0.001958
# 5 -0.006391 -0.004175 -0.009186 0.001291 0.040406 0.007123
# 6 -0.003562 -0.000119 -0.001951 -0.001958 0.007123 0.034062
#
#
# Mechanical properties :
#
#
# Convention : Reuss Voigt Hill
#
# Bulk Modulus (GPa) = 28.76334 46.62593 37.69463
# Shear Modulus (GPa) = 29.32005 37.42638 33.37322
#
# Velocity S-wave (km/s) = 3.61277 4.08176 3.85441
# Velocity P-wave (km/s) = 5.49610 6.55518 6.04886
#
# Compressibility (1/GPa) = 0.03476647
#
# Stress axis : x y z
#
# Youngs Moduli (GPa) = 46.97317 57.52647 79.21228
#
# Poissons Ratio (x) = 0.14131 0.24993
# Poissons Ratio (y) = 0.11538 0.21018
# Poissons Ratio (z) = 0.14821 0.15264
#
# Static dielectric constant tensor:
#      x y z
#    x 1.829800 0.026700 0.014590 
#    y 0.026700 1.821410 -0.015610 
#    z 0.014590 -0.015610 1.826760 
# 
# From -- ./inp_files/190526.got.cif
#   From: 2010.05.17/outbox.cif.g08.bks.cpg/sg2_96_cif.got.tgz:190526.got - 2010.06.03 11:33:40.
