data_PCOD9027875
_publ_section_title
;
Structure prediction by ZEFSAII (Michael W. Deem and Ramdas Pophale) SiO2 
 PCOD9027875
Probable space group: P -1
;
_chemical_formula_sum "Si O2"
_cell_formula_units_Z 16
_cell_length_a 23.233625
_cell_length_b 5.579075
_cell_length_c 11.620375
_cell_angle_alpha 55.727988
_cell_angle_beta 31.416312
_cell_angle_gamma 62.765360
_cell_volume 647.899251
_symmetry_space_group_name_H-M "P -1"
_symmetry_group_IT_number 2
_symmetry_cell_setting 'triclinic'
loop_
_space_group_symop_operation_xyz
x,y,z
-x,-y,-z
loop_
_atom_site_type_symbol
_atom_site_label
_atom_site_fract_x
_atom_site_fract_y
_atom_site_fract_z
Si Si1 0.171778 0.118091 0.119002
Si Si2 0.373188 0.373786 0.996871
Si Si3 0.586295 0.271021 0.955632
Si Si4 0.171767 0.518804 0.614063
Si Si5 0.792344 0.005947 0.156671
Si Si6 0.628780 0.437986 0.301511
Si Si7 0.856218 0.893026 0.558222
Si Si8 0.008007 0.600761 0.234124
O O1 0.178340 0.926826 0.044934
O O2 0.286393 0.318585 0.854450
O O3 0.166578 0.034025 0.287025
O O4 0.062354 0.293017 0.236336
O O5 0.414657 0.642124 0.932220
O O6 0.254910 0.243269 0.273562
O O7 0.436192 0.071110 0.947617
O O8 0.346285 0.522665 0.884613
O O9 0.707472 0.377216 0.671591
O O10 0.500000 0.500000 0.000000
O O11 0.195349 0.323281 0.736326
O O12 0.085380 0.372316 0.710301
O O13 0.113615 0.821541 0.645534
O O14 0.672136 0.131184 0.351980
O O15 0.885008 0.185122 0.022874
O O16 0.500000 0.500000 0.500000
O O17 0.948966 0.672774 0.435207
#
# Coordination Sequence:
#
# PCOD9027875 Si02
#       8
#     2   2   2   2   2   2   2   2
#     4  10  24  43  67 102 130 179 237 290 349 425
#     4  10  23  44  71 102 138 182 241 290 357 416
#     4  11  24  44  71 104 137 185 238 300 349 427
#     4  11  25  41  65  98 139 186 227 291 358 418
#     4  11  26  43  65  99 139 179 237 286 355 430
#     4  10  25  44  69  95 135 185 230 295 355 422
#     4  10  22  41  69  98 138 180 230 290 351 419
#     4  11  22  42  67  96 138 181 230 287 354 421
#
# _framework density 24.695197
#
# number of rings (size 3 to 8) (size 9 to 14) (size 15 to 20)
#    0.000    1.500    1.250    1.875    7.000    8.500 
#    0.000    0.000    0.000    0.000    0.000    0.000 
#    0.000    0.000    0.000    0.000    0.000    0.000 
#
# Total GULP energy -89190.116948 kJ/mol
# GULP energy per Si atom -5574.382309 kJ/mol
# Density = 2.463899 g / cm^3
# Si number density = 24.695197 Si / 1000 Ang^3
#
#
#
# Elastic Constant Matrix: (Units=GPa)
#
#
# Indices 1 2 3 4 5 6 
#
# 1 49.8833 1.8726 29.4351 17.3074 -10.4287 -16.7406
# 2 1.8726 93.5068 60.5563 35.7679 4.0649 -31.8702
# 3 29.4351 60.5563 44.2574 17.0169 -21.6314 -9.0438
# 4 17.3074 35.7679 17.0169 30.3943 -14.5045 -3.6751
# 5 -10.4287 4.0649 -21.6314 -14.5045 29.6422 4.6697
# 6 -16.7406 -31.8702 -9.0438 -3.6751 4.6697 41.2476
#
#
#
# Elastic Compliance Matrix: (Units=1/GPa)
#
#
# Indices 1 2 3 4 5 6 
#
# 1 0.015365 -0.010739 0.010500 0.006385 0.017856 -0.001212
# 2 -0.010739 -0.004424 0.015211 0.008289 0.012796 -0.005152
# 3 0.010500 0.015211 0.002996 -0.030055 -0.013354 0.015505
# 4 0.006385 0.008289 -0.030055 0.034804 -0.004745 0.006045
# 5 0.017856 0.012796 -0.013354 -0.004745 0.024461 0.011014
# 6 -0.001212 -0.005152 0.015505 0.006045 0.011014 0.022462
#
#
# Mechanical properties :
#
#
# Convention : Reuss Voigt Hill
#
# Bulk Modulus (GPa) = 22.78942 41.26394 32.02668
# Shear Modulus (GPa) = 62.22989 26.64237 44.43613
#
# Velocity S-wave (km/s) = 5.02532 3.28815 4.24652
# Velocity P-wave (km/s) = 6.55135 5.58224 6.08612
#
# Compressibility (1/GPa) = 0.04388001
#
# Stress axis : x y z
#
# Youngs Moduli (GPa) = 65.08317 -226.01708 333.72625
#
# Poissons Ratio (x) = -2.42730 -3.50418
# Poissons Ratio (y) = 0.69896 -5.07624
# Poissons Ratio (z) = -0.68338 3.43790
#
# Static dielectric constant tensor:
#      x y z
#    x 2.186650 0.032830 0.115090 
#    y 0.032830 2.017470 0.197010 
#    z 0.115090 0.197010 1.230550 
# 
# From -- ./inp_files/80167.got.cif
#   From: 2010.05.17/outbox.cif.g08.bks.cpg/sg2_41_cif.got.tgz:80167.got - 2010.06.03 11:33:40.
