data_PCOD9027427
_publ_section_title
;
Structure prediction by ZEFSAII (Michael W. Deem and Ramdas Pophale) SiO2 
 PCOD9027427
Probable space group: P -1
;
_chemical_formula_sum "Si O2"
_cell_formula_units_Z 14
_cell_length_a 6.489295
_cell_length_b 10.778670
_cell_length_c 9.983211
_cell_angle_alpha 57.482489
_cell_angle_beta 96.116724
_cell_angle_gamma 86.277450
_cell_volume 579.208807
_symmetry_space_group_name_H-M "P -1"
_symmetry_group_IT_number 2
_symmetry_cell_setting 'triclinic'
loop_
_space_group_symop_operation_xyz
x,y,z
-x,-y,-z
loop_
_atom_site_type_symbol
_atom_site_label
_atom_site_fract_x
_atom_site_fract_y
_atom_site_fract_z
Si Si1 0.072177 0.246161 0.242324
Si Si2 0.534491 0.830967 0.544604
Si Si3 0.966603 0.780346 0.176599
Si Si4 0.314311 0.578222 0.783939
Si Si5 0.393740 0.260847 0.014716
Si Si6 0.325939 0.631740 0.460417
Si Si7 0.833081 0.068621 0.151559
O O1 0.892297 0.386257 0.162349
O O2 0.948997 0.112335 0.267433
O O3 0.215982 0.218409 0.399366
O O4 0.231656 0.255564 0.126943
O O5 0.433980 0.721302 0.703883
O O6 0.429948 0.779987 0.428762
O O7 0.500000 0.000000 0.500000
O O8 0.145980 0.662595 0.320931
O O9 0.750862 0.743628 0.123178
O O10 0.078602 0.850309 0.018009
O O11 0.897598 0.898362 0.220161
O O12 0.459143 0.425180 0.917666
O O13 0.239556 0.577755 0.625316
O O14 0.587519 0.130306 0.106311
O O15 0.500000 0.500000 0.500000
#
# Coordination Sequence:
#
# PCOD9027427 Si02
#       7
#     2   2   2   2   2   2   2
#     4  11  23  42  67  97 135 179 231 281 348 392
#     4  10  24  45  67  98 138 180 225 282 349 406
#     4  10  22  42  66  98 138 183 225 286 346 404
#     4  10  25  42  65 101 136 173 232 281 343 409
#     4  11  23  41  70  98 141 178 230 282 348 404
#     4  10  23  45  69  99 140 176 233 282 336 422
#     4  10  22  41  68 100 134 178 238 281 337 415
#
# _framework density 24.170904
#
# number of rings (size 3 to 8) (size 9 to 14) (size 15 to 20)
#    0.857    0.857    0.000    3.429    2.000    4.571 
#    5.143    0.000    0.000    0.000    0.000    0.000 
#    0.000    0.000    0.000    0.000    0.000    0.000 
#
# Total GULP energy -78175.969530 kJ/mol
# GULP energy per Si atom -5583.997824 kJ/mol
# Density = 2.411589 g / cm^3
# Si number density = 24.170904 Si / 1000 Ang^3
#
#
#
# Elastic Constant Matrix: (Units=GPa)
#
#
# Indices 1 2 3 4 5 6 
#
# 1 112.4662 42.7196 30.6519 -5.3150 23.7016 -12.6166
# 2 42.7196 73.8151 -2.5260 -4.4838 1.7039 -12.8445
# 3 30.6519 -2.5260 31.5273 -1.5571 15.5556 4.0553
# 4 -5.3150 -4.4838 -1.5571 42.2440 2.8785 13.3419
# 5 23.7016 1.7039 15.5556 2.8785 40.9800 2.1938
# 6 -12.6166 -12.8445 4.0553 13.3419 2.1938 40.3276
#
#
#
# Elastic Compliance Matrix: (Units=1/GPa)
#
#
# Indices 1 2 3 4 5 6 
#
# 1 0.019471 -0.011000 -0.018502 -0.000671 -0.003995 0.004888
# 2 -0.011000 0.020625 0.011704 0.000640 0.000926 0.001689
# 3 -0.018502 0.011704 0.057691 0.004592 -0.011538 -0.008753
# 4 -0.000671 0.000640 0.004592 0.026928 -0.002779 -0.009225
# 5 -0.003995 0.000926 -0.011538 -0.002779 0.031280 -0.000577
# 6 0.004888 0.001689 -0.008753 -0.009225 -0.000577 0.030828
#
#
# Mechanical properties :
#
#
# Convention : Reuss Voigt Hill
#
# Bulk Modulus (GPa) = 16.07940 39.94439 28.01190
# Shear Modulus (GPa) = 20.56353 34.50786 27.53569
#
# Velocity S-wave (km/s) = 2.91994 3.78254 3.37888
# Velocity P-wave (km/s) = 4.24675 5.96980 5.18041
#
# Compressibility (1/GPa) = 0.06219137
#
# Stress axis : x y z
#
# Youngs Moduli (GPa) = 51.35823 48.48415 17.33383
#
# Poissons Ratio (x) = 0.53332 0.32072
# Poissons Ratio (y) = 0.56493 -0.20288
# Poissons Ratio (z) = 0.95025 -0.56748
#
# Static dielectric constant tensor:
#      x y z
#    x 1.919900 0.084360 -0.028370 
#    y 0.084360 1.987230 0.030130 
#    z -0.028370 0.030130 1.968480 
# 
# From -- ./inp_files/362702.got.cif
#   From: 2010.05.17/outbox.cif.g08.bks.cpg/sg2_182_cif.got.tgz:362702.got - 2010.06.03 11:33:40.
