data_PCOD9027286
_publ_section_title
;
Structure prediction by ZEFSAII (Michael W. Deem and Ramdas Pophale) SiO2 
 PCOD9027286
Probable space group: P -1
;
_chemical_formula_sum "Si O2"
_cell_formula_units_Z 10
_cell_length_a 5.413278
_cell_length_b 14.399499
_cell_length_c 7.645830
_cell_angle_alpha 53.448498
_cell_angle_beta 54.378110
_cell_angle_gamma 85.178418
_cell_volume 356.266256
_symmetry_space_group_name_H-M "P -1"
_symmetry_group_IT_number 2
_symmetry_cell_setting 'triclinic'
loop_
_space_group_symop_operation_xyz
x,y,z
-x,-y,-z
loop_
_atom_site_type_symbol
_atom_site_label
_atom_site_fract_x
_atom_site_fract_y
_atom_site_fract_z
Si Si1 0.210468 0.092388 0.155023
Si Si2 0.879584 0.274890 0.338098
Si Si3 0.570926 0.642036 0.366727
Si Si4 0.653749 0.996796 0.244713
Si Si5 0.550339 0.638439 0.769480
O O1 0.570053 0.094143 0.048066
O O2 0.225390 0.234343 0.972744
O O3 0.000000 0.000000 0.500000
O O4 0.029357 0.028444 0.119780
O O5 0.770175 0.341308 0.471175
O O6 0.587334 0.139804 0.575068
O O7 0.806150 0.352969 0.120640
O O8 0.216663 0.272929 0.277191
O O9 0.500000 0.500000 0.500000
O O10 0.710465 0.664187 0.481768
O O11 0.500000 0.000000 0.500000
O O12 0.500000 0.500000 0.000000
#
# Coordination Sequence:
#
# PCOD9027286 Si02
#       5
#     2   2   2   2   2
#     4  10  23  43  66  99 130 176 223 277 329 393
#     4  10  23  42  66  98 134 175 224 276 334 394
#     4  10  26  44  69  98 137 178 226 275 333 399
#     4  10  22  41  67  94 133 172 223 273 333 394
#     4  10  23  43  65  97 136 174 219 275 336 399
#
# _framework density 28.068895000000001
#
# number of rings (size 3 to 8) (size 9 to 14) (size 15 to 20)
#    1.200    0.800    0.000    1.800    2.800    8.800 
#    0.000    0.000    0.000    0.000    0.000    0.000 
#    0.000    0.000    0.000    0.000    0.000    0.000 
#
# Total GULP energy -55813.738359 kJ/mol
# GULP energy per Si atom -5581.373836 kJ/mol
# Density = 2.800501 g / cm^3
# Si number density = 28.068895 Si / 1000 Ang^3
#
#
#
# Elastic Constant Matrix: (Units=GPa)
#
#
# Indices 1 2 3 4 5 6 
#
# 1 228.8672 58.1637 69.6055 -3.5382 43.3688 43.5936
# 2 58.1637 141.1565 55.7860 -35.2257 23.0494 33.5665
# 3 69.6055 55.7860 206.9193 -32.7453 33.9374 25.1090
# 4 -3.5382 -35.2257 -32.7453 47.5622 -1.4484 20.4397
# 5 43.3688 23.0494 33.9374 -1.4484 61.2166 0.1754
# 6 43.5936 33.5665 25.1090 20.4397 0.1754 64.8694
#
#
#
# Elastic Compliance Matrix: (Units=1/GPa)
#
#
# Indices 1 2 3 4 5 6 
#
# 1 0.006201 -0.000273 -0.000607 0.001557 -0.003904 -0.004271
# 2 -0.000273 0.015634 0.001564 0.018623 -0.006078 -0.014363
# 3 -0.000607 0.001564 0.007361 0.008617 -0.004018 -0.005955
# 4 0.001557 0.018623 0.008617 0.053812 -0.011530 -0.030943
# 5 -0.003904 -0.006078 -0.004018 -0.011530 0.023314 0.010894
# 6 -0.004271 -0.014363 -0.005955 -0.030943 0.010894 0.037743
#
#
# Mechanical properties :
#
#
# Convention : Reuss Voigt Hill
#
# Bulk Modulus (GPa) = 32.72012 104.89481 68.80747
# Shear Modulus (GPa) = 32.70417 60.95550 46.82984
#
# Velocity S-wave (km/s) = 3.41712 4.66514 4.08902
# Velocity P-wave (km/s) = 5.22028 8.15289 6.84547
#
# Compressibility (1/GPa) = 0.03056223
#
# Stress axis : x y z
#
# Youngs Moduli (GPa) = 161.26718 63.96256 135.85490
#
# Poissons Ratio (x) = 0.01749 0.08248
# Poissons Ratio (y) = 0.04409 -0.21244
# Poissons Ratio (z) = 0.09791 -0.10002
#
# Static dielectric constant tensor:
#      x y z
#    x 2.511160 -0.360240 -0.221210 
#    y -0.360240 2.580220 0.269620 
#    z -0.221210 0.269620 2.332650 
# 
# From -- ./inp_files/22628.got.cif
#   From: 2010.05.17/outbox.cif.g08.bks.cpg/sg2_12_cif.got.tgz:22628.got - 2010.06.03 11:33:40.
