data_PCOD9027450
_publ_section_title
;
Structure prediction by ZEFSAII (Michael W. Deem and Ramdas Pophale) SiO2 
 PCOD9027450
Probable space group: P -1
;
_chemical_formula_sum "Si O2"
_cell_formula_units_Z 16
_cell_length_a 13.299887
_cell_length_b 13.108618
_cell_length_c 21.673878
_cell_angle_alpha 32.511213
_cell_angle_beta 25.037923
_cell_angle_gamma 24.568321
_cell_volume 660.911446
_symmetry_space_group_name_H-M "P -1"
_symmetry_group_IT_number 2
_symmetry_cell_setting 'triclinic'
loop_
_space_group_symop_operation_xyz
x,y,z
-x,-y,-z
loop_
_atom_site_type_symbol
_atom_site_label
_atom_site_fract_x
_atom_site_fract_y
_atom_site_fract_z
Si Si1 0.020673 0.962844 0.605789
Si Si2 0.468890 0.572110 0.727048
Si Si3 0.727171 0.279325 0.036142
Si Si4 0.460245 0.186039 0.879217
Si Si5 0.846340 0.363850 0.398881
Si Si6 0.686231 0.694984 0.424081
Si Si7 0.788006 0.359510 0.783095
Si Si8 0.088704 0.120532 0.032487
O O1 0.985561 0.775130 0.687271
O O2 0.350850 0.871124 0.490051
O O3 0.803307 0.072443 0.728598
O O4 0.907148 0.168276 0.513963
O O5 0.323596 0.446552 0.849897
O O6 0.614632 0.597889 0.573005
O O7 0.730839 0.410446 0.716164
O O8 0.177758 0.805227 0.807897
O O9 0.442853 0.368105 0.195249
O O10 0.935276 0.274060 0.976222
O O11 0.500000 0.500000 0.000000
O O12 0.000000 0.000000 0.000000
O O13 0.287143 0.187896 0.916221
O O14 0.500000 0.000000 0.000000
O O15 0.500000 0.500000 0.500000
O O16 0.879720 0.527629 0.340855
O O17 0.875816 0.768839 0.310617
O O18 0.721249 0.172695 0.932223
#
# Coordination Sequence:
#
# PCOD9027450 Si02
#       8
#     2   2   2   2   2   2   2   2
#     4  10  22  41  68 101 139 183 239 304 361 428
#     4  11  24  44  66 101 143 190 244 297 372 440
#     4  11  24  50  75 104 150 195 248 299 370 447
#     4  12  23  44  72 102 146 194 249 309 371 440
#     4   9  20  43  64  95 136 178 240 296 362 429
#     4  11  23  42  71 102 142 186 235 296 372 441
#     4  11  25  45  70 108 144 188 242 298 368 444
#     4  11  25  44  70 105 146 192 249 304 365 445
#
# _framework density 24.208991999999999
#
# number of rings (size 3 to 8) (size 9 to 14) (size 15 to 20)
#    0.000    1.250    3.750    1.500    0.000    3.500 
#    6.750    0.000    0.000    0.000    0.000    0.000 
#    0.000    0.000    0.000    0.000    0.000    0.000 
#
# Total GULP energy -89077.511706 kJ/mol
# GULP energy per Si atom -5567.344482 kJ/mol
# Density = 2.415389 g / cm^3
# Si number density = 24.208992 Si / 1000 Ang^3
#
#
#
# Elastic Constant Matrix: (Units=GPa)
#
#
# Indices 1 2 3 4 5 6 
#
# 1 188.0868 63.2315 27.5077 -3.5895 -22.2055 -21.2382
# 2 63.2315 107.3393 23.8849 8.5619 -0.9947 -1.1192
# 3 27.5077 23.8849 39.2654 2.6596 -10.2321 3.6266
# 4 -3.5895 8.5619 2.6596 22.9945 3.1578 6.8143
# 5 -22.2055 -0.9947 -10.2321 3.1578 46.5115 -3.7443
# 6 -21.2382 -1.1192 3.6266 6.8143 -3.7443 44.3853
#
#
#
# Elastic Compliance Matrix: (Units=1/GPa)
#
#
# Indices 1 2 3 4 5 6 
#
# 1 0.007974 -0.004150 -0.002654 0.001454 0.003357 0.003988
# 2 -0.004150 0.013305 -0.005517 -0.004373 -0.002674 -0.000754
# 3 -0.002654 -0.005517 0.032590 -0.001928 0.005650 -0.003299
# 4 0.001454 -0.004373 -0.001928 0.048129 -0.003651 -0.006954
# 5 0.003357 -0.002674 0.005650 -0.003651 0.024837 0.003733
# 6 0.003988 -0.000754 -0.003299 -0.006954 0.003733 0.026071
#
#
# Mechanical properties :
#
#
# Convention : Reuss Voigt Hill
#
# Bulk Modulus (GPa) = 34.21439 62.65996 48.43718
# Shear Modulus (GPa) = 26.69632 37.44942 32.07287
#
# Velocity S-wave (km/s) = 3.32436 3.93736 3.64377
# Velocity P-wave (km/s) = 5.37576 6.82712 6.14444
#
# Compressibility (1/GPa) = 0.02922747
#
# Stress axis : x y z
#
# Youngs Moduli (GPa) = 125.39995 75.16022 30.68382
#
# Poissons Ratio (x) = 0.31194 0.08144
# Poissons Ratio (y) = 0.52046 0.16928
# Poissons Ratio (z) = 0.33282 0.41464
#
# Static dielectric constant tensor:
#      x y z
#    x 2.063650 0.195440 -0.127620 
#    y 0.195440 2.206980 -0.148480 
#    z -0.127620 -0.148480 2.028350 
# 
# From -- ./inp_files/595089.got.cif
#   From: 2010.05.17/outbox.cif.g08.bks.cpg/sg2_298_cif.got.tgz:595089.got - 2010.06.03 11:33:40.
