data_PCOD9027818
_publ_section_title
;
Structure prediction by ZEFSAII (Michael W. Deem and Ramdas Pophale) SiO2 
 PCOD9027818
Probable space group: P -1
;
_chemical_formula_sum "Si O2"
_cell_formula_units_Z 12
_cell_length_a 5.075055
_cell_length_b 9.755016
_cell_length_c 14.671899
_cell_angle_alpha 127.835293
_cell_angle_beta 125.429495
_cell_angle_gamma 69.196190
_cell_volume 467.440537
_symmetry_space_group_name_H-M "P -1"
_symmetry_group_IT_number 2
_symmetry_cell_setting 'triclinic'
loop_
_space_group_symop_operation_xyz
x,y,z
-x,-y,-z
loop_
_atom_site_type_symbol
_atom_site_label
_atom_site_fract_x
_atom_site_fract_y
_atom_site_fract_z
Si Si1 0.784753 0.104901 0.361997
Si Si2 0.789658 0.749314 0.122460
Si Si3 0.807359 0.884066 0.986375
Si Si4 0.110137 0.565768 0.872213
Si Si5 0.765846 0.683244 0.578931
Si Si6 0.158214 0.380870 0.621438
O O1 0.442927 0.181500 0.352375
O O2 0.025915 0.183872 0.519135
O O3 0.913628 0.210020 0.342198
O O4 0.794449 0.905414 0.259087
O O5 0.929539 0.822916 0.086007
O O6 0.964854 0.580874 0.128341
O O7 0.421290 0.684852 0.007154
O O8 0.808039 0.696962 0.859205
O O9 0.500000 0.000000 0.000000
O O10 0.000000 0.000000 0.000000
O O11 0.230705 0.463822 0.765460
O O12 0.871776 0.509210 0.579660
O O13 0.615454 0.632586 0.428583
#
# Coordination Sequence:
#
# PCOD9027818 Si02
#       6
#     2   2   2   2   2   2
#     4  10  22  41  69  95 142 184 235 288 351 417
#     4  11  27  47  73 106 155 191 236 298 365 432
#     4  12  27  48  76 107 139 188 250 300 354 427
#     4  11  26  49  71 110 151 194 234 297 370 431
#     4   9  21  40  68 102 140 177 239 301 348 406
#     4   9  22  39  70  98 143 184 236 291 358 416
#
# _framework density 25.671714999999999
#
# number of rings (size 3 to 8) (size 9 to 14) (size 15 to 20)
#    1.000    0.667    1.667    1.000    7.000    2.000 
#    0.000    0.833    0.000    0.000    0.000    0.000 
#    0.000    0.000    0.000    0.000    0.000    0.000 
#
# Total GULP energy -67004.150566 kJ/mol
# GULP energy per Si atom -5583.679214 kJ/mol
# Density = 2.561329 g / cm^3
# Si number density = 25.671715 Si / 1000 Ang^3
#
#
#
# Elastic Constant Matrix: (Units=GPa)
#
#
# Indices 1 2 3 4 5 6 
#
# 1 161.9731 56.3045 40.2770 9.3606 -42.5943 14.8907
# 2 56.3045 172.3313 65.6261 26.4047 -22.4933 22.1358
# 3 40.2770 65.6261 161.4189 41.4905 -26.2204 4.6479
# 4 9.3606 26.4047 41.4905 47.3549 -0.4518 -9.6479
# 5 -42.5943 -22.4933 -26.2204 -0.4518 30.9873 -2.3544
# 6 14.8907 22.1358 4.6479 -9.6479 -2.3544 25.4298
#
#
#
# Elastic Compliance Matrix: (Units=1/GPa)
#
#
# Indices 1 2 3 4 5 6 
#
# 1 0.010792 -0.000662 0.001149 -0.003861 0.014810 -0.006047
# 2 -0.000662 0.008990 -0.001137 -0.005689 0.003885 -0.009029
# 3 0.001149 -0.001137 0.010424 -0.009528 0.009104 -0.004360
# 4 -0.003861 -0.005689 -0.009528 0.037705 -0.015290 0.021844
# 5 0.014810 0.003885 0.009104 -0.015290 0.061882 -0.013790
# 6 -0.006047 -0.009029 -0.004360 0.021844 -0.013790 0.058532
#
#
# Mechanical properties :
#
#
# Convention : Reuss Voigt Hill
#
# Bulk Modulus (GPa) = 34.59446 91.12648 62.86047
# Shear Modulus (GPa) = 25.09275 42.98878 34.04076
#
# Velocity S-wave (km/s) = 3.12981 4.09658 3.64538
# Velocity P-wave (km/s) = 5.15421 7.61248 6.50060
#
# Compressibility (1/GPa) = 0.02890636
#
# Stress axis : x y z
#
# Youngs Moduli (GPa) = 92.66082 111.22903 95.93302
#
# Poissons Ratio (x) = 0.07364 -0.11019
# Poissons Ratio (y) = 0.06134 0.10904
# Poissons Ratio (z) = -0.10643 0.12643
#
# Static dielectric constant tensor:
#      x y z
#    x 2.082130 0.001870 0.070760 
#    y 0.001870 1.962120 -0.037850 
#    z 0.070760 -0.037850 2.141840 
# 
# From -- ./inp_files/479432.got.cif
#   From: 2010.05.17/outbox.cif.g08.bks.cpg/sg2_240_cif.got.tgz:479432.got - 2010.06.03 11:33:40.
