data_PCOD9027938
_publ_section_title
;
Structure prediction by ZEFSAII (Michael W. Deem and Ramdas Pophale) SiO2 
 PCOD9027938
Probable space group: P -1
;
_chemical_formula_sum "Si O2"
_cell_formula_units_Z 11
_cell_length_a 14.035014
_cell_length_b 8.329958
_cell_length_c 8.397723
_cell_angle_alpha 124.762225
_cell_angle_beta 117.379941
_cell_angle_gamma 35.967100
_cell_volume 473.708365
_symmetry_space_group_name_H-M "P -1"
_symmetry_group_IT_number 2
_symmetry_cell_setting 'triclinic'
loop_
_space_group_symop_operation_xyz
x,y,z
-x,-y,-z
loop_
_atom_site_type_symbol
_atom_site_label
_atom_site_fract_x
_atom_site_fract_y
_atom_site_fract_z
Si Si1 0.649023 0.715281 0.801217
Si Si2 0.695493 0.707129 0.485543
Si Si3 0.754170 0.239878 0.088424
Si Si4 0.000000 0.500000 0.500000
Si Si5 0.943987 0.441604 0.072134
Si Si6 0.491704 0.680728 0.886361
O O1 0.732937 0.580691 0.620816
O O2 0.539345 0.681870 0.747211
O O3 0.776776 0.574049 0.960888
O O4 0.550647 0.053235 0.912768
O O5 0.757782 0.457072 0.270829
O O6 0.809605 0.734047 0.551887
O O7 0.500000 0.000000 0.500000
O O8 0.661581 0.246415 0.160264
O O9 0.640109 0.382064 0.926444
O O10 0.926225 0.908781 0.005687
O O11 0.937000 0.565925 0.302241
O O12 0.000000 0.500000 0.000000
#
# Coordination Sequence:
#
# PCOD9027938 Si02
#       6
#     2   2   2   1   2   2
#     4  11  23  46  71 104 150 192 243 301 371 437
#     4  12  26  46  73 112 148 195 248 304 370 441
#     4  11  24  45  72 107 145 189 249 298 369 438
#     4  12  28  48  76 106 150 196 240 308 380 424
#     4  12  25  49  72 106 148 190 241 310 362 436
#     4  10  22  41  70 102 142 194 237 306 359 433
#
# _framework density 23.221036999999999
#
# number of rings (size 3 to 8) (size 9 to 14) (size 15 to 20)
#    0.000    0.727    5.455    1.091    5.091    4.364 
#    3.273    0.000    0.000    0.000    0.000    0.000 
#    0.000    0.000    0.000    0.000    0.000    0.000 
#
# Total GULP energy -61248.905495 kJ/mol
# GULP energy per Si atom -5568.082318 kJ/mol
# Density = 2.316819 g / cm^3
# Si number density = 23.221037 Si / 1000 Ang^3
#
#
#
# Elastic Constant Matrix: (Units=GPa)
#
#
# Indices 1 2 3 4 5 6 
#
# 1 100.7738 8.6223 -0.2709 -2.9431 -18.6949 -6.9961
# 2 8.6223 116.1330 10.4586 4.2799 2.6018 -9.9199
# 3 -0.2709 10.4586 76.8053 -22.9665 -24.4524 9.5778
# 4 -2.9431 4.2799 -22.9665 34.8427 6.6746 3.4210
# 5 -18.6949 2.6018 -24.4524 6.6746 32.9313 -0.3928
# 6 -6.9961 -9.9199 9.5778 3.4210 -0.3928 27.6283
#
#
#
# Elastic Compliance Matrix: (Units=1/GPa)
#
#
# Indices 1 2 3 4 5 6 
#
# 1 0.011866 -0.001342 0.003424 0.001559 0.009084 0.001272
# 2 -0.001342 0.009784 -0.004428 -0.003982 -0.003954 0.005145
# 3 0.003424 -0.004428 0.025213 0.015127 0.017817 -0.011083
# 4 0.001559 -0.003982 0.015127 0.039564 0.004281 -0.011117
# 5 0.009084 -0.003954 0.017817 0.004281 0.048136 -0.005142
# 6 0.001272 0.005145 -0.011083 -0.011117 -0.005142 0.043510
#
#
# Mechanical properties :
#
#
# Convention : Reuss Voigt Hill
#
# Bulk Modulus (GPa) = 23.71250 36.81467 30.26358
# Shear Modulus (GPa) = 25.40376 37.40726 31.40551
#
# Velocity S-wave (km/s) = 3.31115 4.01798 3.68157
# Velocity P-wave (km/s) = 4.98519 6.11670 5.57970
#
# Compressibility (1/GPa) = 0.04217185
#
# Stress axis : x y z
#
# Youngs Moduli (GPa) = 84.27214 102.20728 39.66250
#
# Poissons Ratio (x) = 0.13713 -0.13582
# Poissons Ratio (y) = 0.11307 0.17563
# Poissons Ratio (z) = -0.28857 0.45259
#
# Static dielectric constant tensor:
#      x y z
#    x 1.979080 -0.009300 -0.030870 
#    y -0.009300 1.848960 -0.004130 
#    z -0.030870 -0.004130 1.946230 
# 
# From -- ./inp_files/144967.got.cif
#   From: 2010.05.17/outbox.cif.g08.bks.cpg/sg2_73_cif.got.tgz:144967.got - 2010.06.03 11:33:40.
