data_PCOD9027914
_publ_section_title
;
Structure prediction by ZEFSAII (Michael W. Deem and Ramdas Pophale) SiO2 
 PCOD9027914
Probable space group: P -1
;
_chemical_formula_sum "Si O2"
_cell_formula_units_Z 14
_cell_length_a 11.954128
_cell_length_b 9.522344
_cell_length_c 9.253093
_cell_angle_alpha 129.128584
_cell_angle_beta 85.106243
_cell_angle_gamma 65.937321
_cell_volume 652.983812
_symmetry_space_group_name_H-M "P -1"
_symmetry_group_IT_number 2
_symmetry_cell_setting 'triclinic'
loop_
_space_group_symop_operation_xyz
x,y,z
-x,-y,-z
loop_
_atom_site_type_symbol
_atom_site_label
_atom_site_fract_x
_atom_site_fract_y
_atom_site_fract_z
Si Si1 0.336423 0.535723 0.933875
Si Si2 0.100500 0.361218 0.201891
Si Si3 0.644684 0.134761 0.656785
Si Si4 0.808906 0.026591 0.284192
Si Si5 0.934594 0.372621 0.871491
Si Si6 0.216396 0.319407 0.473820
Si Si7 0.643728 0.442439 0.383002
O O1 0.477200 0.286196 0.781749
O O2 0.344169 0.615695 0.825798
O O3 0.322091 0.706756 0.165469
O O4 0.204329 0.534691 0.965495
O O5 0.098015 0.557410 0.246905
O O6 0.182355 0.289154 0.295621
O O7 0.937213 0.468900 0.315899
O O8 0.172882 0.148749 0.949730
O O9 0.691108 0.097435 0.461330
O O10 0.726329 0.897675 0.575032
O O11 0.767052 0.240981 0.336788
O O12 0.952140 0.888396 0.270968
O O13 0.000000 0.500000 0.000000
O O14 0.331353 0.366878 0.490871
O O15 0.500000 0.500000 0.500000
#
# Coordination Sequence:
#
# PCOD9027914 Si02
#       7
#     2   2   2   2   2   2   2
#     4  11  26  45  71  98 144 178 227 284 338 411
#     4  10  23  43  69 104 138 172 230 282 338 401
#     4  11  25  46  71 102 134 185 229 275 350 402
#     4  11  23  44  71  99 139 177 229 277 340 405
#     4  10  22  41  70 101 133 177 228 275 335 399
#     4  11  25  44  71 101 139 179 226 282 342 404
#     4  12  26  44  67 102 138 178 227 279 339 405
#
# _framework density 21.44004
#
# number of rings (size 3 to 8) (size 9 to 14) (size 15 to 20)
#    0.000    1.143    2.857    2.571    4.000    8.000 
#    0.000    2.143    0.000    0.000    0.000    0.000 
#    0.000    0.000    0.000    0.000    0.000    0.000 
#
# Total GULP energy -78268.687782 kJ/mol
# GULP energy per Si atom -5590.620556 kJ/mol
# Density = 2.139124 g / cm^3
# Si number density = 21.440040 Si / 1000 Ang^3
#
#
#
# Elastic Constant Matrix: (Units=GPa)
#
#
# Indices 1 2 3 4 5 6 
#
# 1 86.9703 4.3433 48.4635 -4.8640 -20.3743 5.2913
# 2 4.3433 113.9671 19.8808 -4.8911 0.2273 -5.9748
# 3 48.4635 19.8808 112.9668 -8.8571 -10.7773 15.5865
# 4 -4.8640 -4.8911 -8.8571 33.7530 1.7802 -8.1549
# 5 -20.3743 0.2273 -10.7773 1.7802 22.1236 -4.0435
# 6 5.2913 -5.9748 15.5865 -8.1549 -4.0435 14.8056
#
#
#
# Elastic Compliance Matrix: (Units=1/GPa)
#
#
# Indices 1 2 3 4 5 6 
#
# 1 0.018840 0.001008 -0.007645 0.001691 0.014699 0.006668
# 2 0.001008 0.009837 -0.003061 0.002800 0.000676 0.008558
# 3 -0.007645 -0.003061 0.014400 -0.001272 -0.002649 -0.015086
# 4 0.001691 0.002800 -0.001272 0.035090 0.002061 0.021755
# 5 0.014699 0.000676 -0.002649 0.002061 0.060079 0.015352
# 6 0.006668 0.008558 -0.015086 0.021755 0.015352 0.100670
#
#
# Mechanical properties :
#
#
# Convention : Reuss Voigt Hill
#
# Bulk Modulus (GPa) = 42.22550 51.03104 46.62827
# Shear Modulus (GPa) = 18.78246 30.21755 24.50001
#
# Velocity S-wave (km/s) = 2.96302 3.75827 3.38408
# Velocity P-wave (km/s) = 5.60744 6.53347 6.08809
#
# Compressibility (1/GPa) = 0.02368237
#
# Stress axis : x y z
#
# Youngs Moduli (GPa) = 53.07767 101.65238 69.44602
#
# Poissons Ratio (x) = -0.10251 0.53093
# Poissons Ratio (y) = -0.05353 0.21256
# Poissons Ratio (z) = 0.40579 0.31113
#
# Static dielectric constant tensor:
#      x y z
#    x 1.782610 -0.013720 0.013300 
#    y -0.013720 1.792740 -0.005170 
#    z 0.013300 -0.005170 1.784960 
# 
# From -- ./inp_files/189570.got.cif
#   From: 2010.05.17/outbox.cif.g08.bks.cpg/sg2_95_cif.got.tgz:189570.got - 2010.06.03 11:33:40.
