data_PCOD9027563
_publ_section_title
;
Structure prediction by ZEFSAII (Michael W. Deem and Ramdas Pophale) SiO2 
 PCOD9027563
Probable space group: P -1
;
_chemical_formula_sum "Si O2"
_cell_formula_units_Z 16
_cell_length_a 12.036631
_cell_length_b 11.843389
_cell_length_c 8.580866
_cell_angle_alpha 70.664852
_cell_angle_beta 143.159662
_cell_angle_gamma 120.761073
_cell_volume 622.942625
_symmetry_space_group_name_H-M "P -1"
_symmetry_group_IT_number 2
_symmetry_cell_setting 'triclinic'
loop_
_space_group_symop_operation_xyz
x,y,z
-x,-y,-z
loop_
_atom_site_type_symbol
_atom_site_label
_atom_site_fract_x
_atom_site_fract_y
_atom_site_fract_z
Si Si1 0.048518 0.921905 0.427992
Si Si2 0.958326 0.523445 0.262528
Si Si3 0.360232 0.266415 0.459344
Si Si4 0.447064 0.435839 0.198791
Si Si5 0.304472 0.141362 0.146440
Si Si6 0.869691 0.663722 0.564344
Si Si7 0.454319 0.128186 0.890861
Si Si8 0.297163 0.807452 0.559588
O O1 0.972057 0.790110 0.509174
O O2 0.794613 0.949126 0.360678
O O3 0.176028 0.888102 0.449570
O O4 0.874583 0.945561 0.129832
O O5 0.990618 0.415301 0.243553
O O6 0.135628 0.671905 0.363336
O O7 0.000000 0.500000 0.500000
O O8 0.738292 0.524466 0.006947
O O9 0.493464 0.390935 0.441920
O O10 0.250394 0.151962 0.259430
O O11 0.199372 0.295835 0.369117
O O12 0.494192 0.220768 0.743616
O O13 0.365820 0.293899 0.088275
O O14 0.649397 0.552544 0.304205
O O15 0.508687 0.120857 0.367503
O O16 0.586300 0.211228 0.145917
O O17 0.500000 0.000000 0.000000
#
# Coordination Sequence:
#
# PCOD9027563 Si02
#       8
#     2   2   2   2   2   2   2   2
#     4  11  24  44  68 106 129 181 237 282 340 399
#     4  12  23  38  67 107 137 178 229 273 343 410
#     4  10  24  46  64 101 142 185 223 281 352 403
#     4  10  24  41  63 102 143 180 219 276 343 412
#     4  10  22  41  68  94 141 176 222 275 341 408
#     4  12  24  41  73 103 147 179 224 283 344 414
#     4  10  25  46  73  98 136 178 240 291 334 406
#     4  11  21  43  68 100 136 174 231 285 332 406
#
# _framework density 25.684546000000001
#
# number of rings (size 3 to 8) (size 9 to 14) (size 15 to 20)
#    0.750    0.500    3.750    1.125    3.500    4.000 
#    0.000   11.250    0.000    0.000    0.000    0.000 
#    0.000    0.000    0.000    0.000    0.000    0.000 
#
# Total GULP energy -89467.082300 kJ/mol
# GULP energy per Si atom -5591.692644 kJ/mol
# Density = 2.562609 g / cm^3
# Si number density = 25.684546 Si / 1000 Ang^3
#
#
#
# Elastic Constant Matrix: (Units=GPa)
#
#
# Indices 1 2 3 4 5 6 
#
# 1 110.0683 24.3872 12.4401 -14.7390 19.4803 -28.2322
# 2 24.3872 97.0862 41.0731 -11.6995 9.5532 11.7119
# 3 12.4401 41.0731 75.6697 -5.9857 17.0663 3.0415
# 4 -14.7390 -11.6995 -5.9857 46.8893 -1.4738 9.6952
# 5 19.4803 9.5532 17.0663 -1.4738 47.7948 8.8569
# 6 -28.2322 11.7119 3.0415 9.6952 8.8569 43.1336
#
#
#
# Elastic Compliance Matrix: (Units=1/GPa)
#
#
# Indices 1 2 3 4 5 6 
#
# 1 0.014625 -0.004974 0.001623 0.000790 -0.007788 0.012231
# 2 -0.004974 0.016039 -0.008048 0.003268 0.003366 -0.008469
# 3 0.001623 -0.008048 0.018608 0.000013 -0.006295 0.003225
# 4 0.000790 0.003268 0.000013 0.023629 0.000834 -0.005854
# 5 -0.007788 0.003366 -0.006295 0.000834 0.027823 -0.011468
# 6 0.012231 -0.008469 0.003225 -0.005854 -0.011468 0.036932
#
#
# Mechanical properties :
#
#
# Convention : Reuss Voigt Hill
#
# Bulk Modulus (GPa) = 37.77397 48.73610 43.25503
# Shear Modulus (GPa) = 29.53714 41.22512 35.38113
#
# Velocity S-wave (km/s) = 3.39484 4.01066 3.71553
# Velocity P-wave (km/s) = 5.48684 6.36107 5.94006
#
# Compressibility (1/GPa) = 0.02647326
#
# Stress axis : x y z
#
# Youngs Moduli (GPa) = 68.37500 62.34928 53.74028
#
# Poissons Ratio (x) = 0.31014 -0.08722
# Poissons Ratio (y) = 0.34012 0.43251
# Poissons Ratio (z) = -0.11098 0.50179
#
# Static dielectric constant tensor:
#      x y z
#    x 2.102790 0.015070 0.026090 
#    y 0.015070 2.048930 0.020390 
#    z 0.026090 0.020390 2.011300 
# 
# From -- ./inp_files/270089.got.cif
#   From: 2010.05.17/outbox.cif.g08.bks.cpg/sg2_136_cif.got.tgz:270089.got - 2010.06.03 11:33:40.
