data_PCOD9027538
_publ_section_title
;
Structure prediction by ZEFSAII (Michael W. Deem and Ramdas Pophale) SiO2 
 PCOD9027538
Probable space group: P -1
;
_chemical_formula_sum "Si O2"
_cell_formula_units_Z 14
_cell_length_a 9.532729
_cell_length_b 9.744000
_cell_length_c 11.154165
_cell_angle_alpha 115.776060
_cell_angle_beta 106.829151
_cell_angle_gamma 42.575036
_cell_volume 630.414992
_symmetry_space_group_name_H-M "P -1"
_symmetry_group_IT_number 2
_symmetry_cell_setting 'triclinic'
loop_
_space_group_symop_operation_xyz
x,y,z
-x,-y,-z
loop_
_atom_site_type_symbol
_atom_site_label
_atom_site_fract_x
_atom_site_fract_y
_atom_site_fract_z
Si Si1 0.302354 0.538296 0.983050
Si Si2 0.923495 0.916606 0.187357
Si Si3 0.278404 0.080960 0.634561
Si Si4 0.681625 0.637715 0.670025
Si Si5 0.060978 0.768093 0.567237
Si Si6 0.095119 0.530032 0.713943
Si Si7 0.522693 0.162504 0.057886
O O1 0.171716 0.596484 0.854661
O O2 0.500000 0.500000 0.000000
O O3 0.403062 0.308224 0.968544
O O4 0.147528 0.717037 0.113253
O O5 0.845259 0.853631 0.244731
O O6 0.908925 0.090241 0.313798
O O7 0.762678 0.028835 0.079348
O O8 0.259674 0.269548 0.659532
O O9 0.152148 0.080701 0.502765
O O10 0.506311 0.848276 0.626257
O O11 0.761948 0.420890 0.551697
O O12 0.582879 0.686757 0.793894
O O13 0.878244 0.605864 0.718921
O O14 0.066355 0.635332 0.620976
O O15 0.500000 0.000000 0.000000
#
# Coordination Sequence:
#
# PCOD9027538 Si02
#       7
#     2   2   2   2   2   2   2
#     4  12  26  43  65  93 129 170 208 259 324 375
#     4  11  25  43  64  95 129 164 213 264 311 375
#     4  10  22  41  68  93 122 166 210 260 316 372
#     4  10  22  41  68  95 125 166 213 260 313 372
#     4  11  24  40  62  95 133 167 207 259 313 375
#     4  11  24  41  62  94 128 164 214 262 308 374
#     4  11  24  43  69  96 125 167 215 262 311 371
#
# _framework density 22.207594
#
# number of rings (size 3 to 8) (size 9 to 14) (size 15 to 20)
#    0.000    1.143    0.000    7.286    0.000   13.143 
#    0.000    0.000    0.000    0.000    0.000    0.000 
#    0.000    0.000    0.000    0.000    0.000    0.000 
#
# Total GULP energy -78351.325179 kJ/mol
# GULP energy per Si atom -5596.523227 kJ/mol
# Density = 2.215705 g / cm^3
# Si number density = 22.207594 Si / 1000 Ang^3
#
#
#
# Elastic Constant Matrix: (Units=GPa)
#
#
# Indices 1 2 3 4 5 6 
#
# 1 59.0645 27.4113 26.2677 15.0728 11.3498 -17.1202
# 2 27.4113 105.0511 27.2277 -11.4782 7.8392 -27.2845
# 3 26.2677 27.2277 78.9328 -1.7776 22.3125 -24.6967
# 4 15.0728 -11.4782 -1.7776 39.6572 5.0957 5.4615
# 5 11.3498 7.8392 22.3125 5.0957 25.6839 -9.6361
# 6 -17.1202 -27.2845 -24.6967 5.4615 -9.6361 30.3946
#
#
#
# Elastic Compliance Matrix: (Units=1/GPa)
#
#
# Indices 1 2 3 4 5 6 
#
# 1 0.027560 -0.004923 -0.004668 -0.013385 -0.000363 0.009601
# 2 -0.004923 0.013558 -0.000518 0.004520 0.000742 0.008400
# 3 -0.004668 -0.000518 0.021130 0.002983 -0.013220 0.009347
# 4 -0.013385 0.004520 0.002983 0.034212 -0.008566 -0.009921
# 5 -0.000363 0.000742 -0.013220 -0.008566 0.055358 0.008809
# 6 0.009601 0.008400 0.009347 -0.009921 0.008809 0.058019
#
#
# Mechanical properties :
#
#
# Convention : Reuss Voigt Hill
#
# Bulk Modulus (GPa) = 23.79312 44.98465 34.38889
# Shear Modulus (GPa) = 20.48622 29.95660 25.22141
#
# Velocity S-wave (km/s) = 3.04054 3.67677 3.37369
# Velocity P-wave (km/s) = 4.80247 6.19074 5.54026
#
# Compressibility (1/GPa) = 0.04202895
#
# Stress axis : x y z
#
# Youngs Moduli (GPa) = 36.28478 73.75570 47.32588
#
# Poissons Ratio (x) = 0.36310 0.22092
# Poissons Ratio (y) = 0.17863 0.02454
# Poissons Ratio (z) = 0.16938 0.03824
#
# Static dielectric constant tensor:
#      x y z
#    x 1.804650 -0.005070 -0.011670 
#    y -0.005070 1.825650 -0.005600 
#    z -0.011670 -0.005600 1.803540 
# 
# From -- ./inp_files/381433.got.cif
#   From: 2010.05.17/outbox.cif.g08.bks.cpg/sg2_191_cif.got.tgz:381433.got - 2010.06.03 11:33:40.
