data_PCOD9027303
_publ_section_title
;
Structure prediction by ZEFSAII (Michael W. Deem and Ramdas Pophale) SiO2 
 PCOD9027303
Probable space group: P -1
;
_chemical_formula_sum "Si O2"
_cell_formula_units_Z 14
_cell_length_a 6.494536
_cell_length_b 11.914312
_cell_length_c 11.393243
_cell_angle_alpha 112.537142
_cell_angle_beta 82.022370
_cell_angle_gamma 63.058739
_cell_volume 671.599331
_symmetry_space_group_name_H-M "P -1"
_symmetry_group_IT_number 2
_symmetry_cell_setting 'triclinic'
loop_
_space_group_symop_operation_xyz
x,y,z
-x,-y,-z
loop_
_atom_site_type_symbol
_atom_site_label
_atom_site_fract_x
_atom_site_fract_y
_atom_site_fract_z
Si Si1 0.061312 0.361069 0.625960
Si Si2 0.395381 0.501490 0.137304
Si Si3 0.043524 0.783721 0.629779
Si Si4 0.150828 0.608976 0.779473
Si Si5 0.801667 0.657146 0.014768
Si Si6 0.640080 0.107648 0.471715
Si Si7 0.553318 0.055789 0.702370
O O1 0.069654 0.504430 0.691383
O O2 0.347405 0.231592 0.561441
O O3 0.881710 0.369854 0.747904
O O4 0.965734 0.330111 0.501740
O O5 0.581066 0.484650 0.216733
O O6 0.500000 0.500000 0.000000
O O7 0.365508 0.366787 0.071674
O O8 0.140830 0.709532 0.718031
O O9 0.218448 0.828596 0.575047
O O10 0.762682 0.928588 0.718000
O O11 0.965179 0.693954 0.937257
O O12 0.613396 0.783868 0.167062
O O13 0.000000 0.500000 0.000000
O O14 0.714019 0.050359 0.575457
O O15 0.632730 0.989490 0.345713
#
# Coordination Sequence:
#
# PCOD9027303 Si02
#       7
#     2   2   2   2   2   2   2
#     4  10  23  40  67  97 130 167 218 273 323 374
#     4  11  23  38  64  97 127 168 215 267 321 380
#     4  11  24  42  65  95 133 175 217 261 329 393
#     4  11  24  41  63  98 134 171 216 269 325 383
#     4  11  23  43  67  94 128 165 219 274 324 379
#     4  10  22  41  67  95 129 170 219 270 322 380
#     4  10  23  42  64  94 128 172 216 272 322 385
#
# _framework density 20.845762000000001
#
# number of rings (size 3 to 8) (size 9 to 14) (size 15 to 20)
#    0.000    1.429    1.429    3.429    2.000    8.571 
#    0.000    1.429    0.000    0.000    0.000    0.000 
#    0.000    0.000    0.000    0.000    0.000    0.000 
#
# Total GULP energy -78132.093853 kJ/mol
# GULP energy per Si atom -5580.863847 kJ/mol
# Density = 2.079832 g / cm^3
# Si number density = 20.845762 Si / 1000 Ang^3
#
#
#
# Elastic Constant Matrix: (Units=GPa)
#
#
# Indices 1 2 3 4 5 6 
#
# 1 111.1413 44.4642 46.4760 -5.2544 -4.1053 9.2297
# 2 44.4642 93.6216 39.4682 -18.2770 0.3012 1.7385
# 3 46.4760 39.4682 98.7439 9.8684 1.6950 -6.4920
# 4 -5.2544 -18.2770 9.8684 33.5224 -0.2263 0.7223
# 5 -4.1053 0.3012 1.6950 -0.2263 25.7429 4.2499
# 6 9.2297 1.7385 -6.4920 0.7223 4.2499 24.0008
#
#
#
# Elastic Compliance Matrix: (Units=1/GPa)
#
#
# Indices 1 2 3 4 5 6 
#
# 1 0.013673 -0.003519 -0.005786 0.002111 0.003828 -0.007310
# 2 -0.003519 0.017197 -0.006423 0.010758 0.000080 -0.001968
# 3 -0.005786 -0.006423 0.016974 -0.009605 -0.003399 0.008173
# 4 0.002111 0.010758 -0.009605 0.038993 0.002134 -0.005741
# 5 0.003828 0.000080 -0.003399 0.002134 0.041312 -0.009777
# 6 -0.007310 -0.001968 0.008173 -0.005741 -0.009777 0.048733
#
#
# Mechanical properties :
#
#
# Convention : Reuss Voigt Hill
#
# Bulk Modulus (GPa) = 61.02542 62.70259 61.86401
# Shear Modulus (GPa) = 23.38612 28.19314 25.78963
#
# Velocity S-wave (km/s) = 3.35306 3.68158 3.52115
# Velocity P-wave (km/s) = 6.65800 6.94382 6.80241
#
# Compressibility (1/GPa) = 0.01638661
#
# Stress axis : x y z
#
# Youngs Moduli (GPa) = 73.13494 58.14956 58.91461
#
# Poissons Ratio (x) = 0.20462 0.34091
# Poissons Ratio (y) = 0.25736 0.37843
# Poissons Ratio (z) = 0.42319 0.37352
#
# Static dielectric constant tensor:
#      x y z
#    x 1.806610 -0.013450 0.011110 
#    y -0.013450 1.759640 -0.004900 
#    z 0.011110 -0.004900 1.790010 
# 
# From -- ./inp_files/82075.got.cif
#   From: 2010.05.17/outbox.cif.g08.bks.cpg/sg2_42_cif.got.tgz:82075.got - 2010.06.03 11:33:40.
