data_PCOD9027709
_publ_section_title
;
Structure prediction by ZEFSAII (Michael W. Deem and Ramdas Pophale) SiO2 
 PCOD9027709
Probable space group: P -1
;
_chemical_formula_sum "Si O2"
_cell_formula_units_Z 14
_cell_length_a 16.212201
_cell_length_b 5.108466
_cell_length_c 9.281404
_cell_angle_alpha 72.345773
_cell_angle_beta 128.444341
_cell_angle_gamma 115.552592
_cell_volume 542.484900
_symmetry_space_group_name_H-M "P -1"
_symmetry_group_IT_number 2
_symmetry_cell_setting 'triclinic'
loop_
_space_group_symop_operation_xyz
x,y,z
-x,-y,-z
loop_
_atom_site_type_symbol
_atom_site_label
_atom_site_fract_x
_atom_site_fract_y
_atom_site_fract_z
Si Si1 0.519453 0.192270 0.300510
Si Si2 0.327246 0.955512 0.939084
Si Si3 0.250792 0.830411 0.561185
Si Si4 0.404712 0.559682 0.255692
Si Si5 0.125573 0.768634 0.973255
Si Si6 0.180329 0.205529 0.203389
Si Si7 0.960852 0.666179 0.556854
O O1 0.641711 0.189972 0.403017
O O2 0.504393 0.450346 0.334421
O O3 0.445742 0.182392 0.076471
O O4 0.447443 0.868396 0.331296
O O5 0.348463 0.646645 0.038079
O O6 0.230072 0.930800 0.954398
O O7 0.290546 0.972981 0.735207
O O8 0.182511 0.014067 0.376588
O O9 0.169195 0.502793 0.544787
O O10 0.309218 0.317249 0.273008
O O11 0.112914 0.996049 0.038496
O O12 0.149483 0.499987 0.123905
O O13 0.022059 0.648598 0.775173
O O14 0.000000 0.500000 0.500000
O O15 0.000000 0.000000 0.500000
#
# Coordination Sequence:
#
# PCOD9027709 Si02
#       7
#     2   2   2   2   2   2   2
#     4  10  22  41  69 101 140 183 228 282 347 403
#     4   9  21  44  70 100 134 190 226 282 344 408
#     4  12  27  44  70 114 136 176 246 295 330 417
#     4   9  20  41  67  94 141 195 211 266 365 415
#     4  11  23  49  74  94 145 191 228 275 361 418
#     4  11  24  45  71 107 140 187 226 284 350 417
#     4  12  28  48  76 105 133 184 237 295 342 410
#
# _framework density 25.807172000000001
#
# number of rings (size 3 to 8) (size 9 to 14) (size 15 to 20)
#    0.857    0.571    2.857    1.286    2.000    6.286 
#    2.571    0.000    0.000    0.000    0.000    0.000 
#    0.000    0.000    0.000    0.000    0.000    0.000 
#
# Total GULP energy -78453.782703 kJ/mol
# GULP energy per Si atom -5603.841622 kJ/mol
# Density = 2.574843 g / cm^3
# Si number density = 25.807172 Si / 1000 Ang^3
#
#
#
# Elastic Constant Matrix: (Units=GPa)
#
#
# Indices 1 2 3 4 5 6 
#
# 1 69.4316 23.7283 -2.1690 -7.1509 6.2927 -3.8842
# 2 23.7283 112.9764 6.5753 1.1147 -2.3398 -15.2337
# 3 -2.1690 6.5753 113.0790 5.2694 -5.4705 -7.6019
# 4 -7.1509 1.1147 5.2694 41.5080 8.4536 2.7187
# 5 6.2927 -2.3398 -5.4705 8.4536 26.6091 5.6603
# 6 -3.8842 -15.2337 -7.6019 2.7187 5.6603 41.2726
#
#
#
# Elastic Compliance Matrix: (Units=1/GPa)
#
#
# Indices 1 2 3 4 5 6 
#
# 1 0.016590 -0.003542 0.000115 0.004040 -0.005662 0.000785
# 2 -0.003542 0.010091 -0.000307 -0.001339 0.001400 0.003231
# 3 0.000115 -0.000307 0.009133 -0.001640 0.002045 0.001407
# 4 0.004040 -0.001339 -0.001640 0.027091 -0.009836 -0.000852
# 5 -0.005662 0.001400 0.002045 -0.009836 0.043647 -0.004977
# 6 0.000785 0.003231 0.001407 -0.000852 -0.004977 0.026493
#
#
# Mechanical properties :
#
#
# Convention : Reuss Voigt Hill
#
# Bulk Modulus (GPa) = 35.27983 39.08403 37.18193
# Shear Modulus (GPa) = 33.34130 39.70144 36.52137
#
# Velocity S-wave (km/s) = 3.59826 3.92648 3.76595
# Velocity P-wave (km/s) = 5.56448 5.97778 5.77483
#
# Compressibility (1/GPa) = 0.02834480
#
# Stress axis : x y z
#
# Youngs Moduli (GPa) = 60.27715 99.09692 109.48798
#
# Poissons Ratio (x) = 0.35103 -0.01257
# Poissons Ratio (y) = 0.21352 0.03366
# Poissons Ratio (z) = -0.00692 0.03046
#
# Static dielectric constant tensor:
#      x y z
#    x 2.000630 0.012710 -0.023610 
#    y 0.012710 1.955280 -0.002960 
#    z -0.023610 -0.002960 2.107910 
# 
# From -- ./inp_files/47496.got.cif
#   From: 2010.05.17/outbox.cif.g08.bks.cpg/sg2_24_cif.got.tgz:47496.got - 2010.06.03 11:33:40.
