data_PCOD9027298
_publ_section_title
;
Structure prediction by ZEFSAII (Michael W. Deem and Ramdas Pophale) SiO2 
 PCOD9027298
Probable space group: P -1
;
_chemical_formula_sum "Si O2"
_cell_formula_units_Z 16
_cell_length_a 14.406174
_cell_length_b 10.607127
_cell_length_c 10.471541
_cell_angle_alpha 85.253122
_cell_angle_beta 139.574608
_cell_angle_gamma 123.245971
_cell_volume 682.944192
_symmetry_space_group_name_H-M "P -1"
_symmetry_group_IT_number 2
_symmetry_cell_setting 'triclinic'
loop_
_space_group_symop_operation_xyz
x,y,z
-x,-y,-z
loop_
_atom_site_type_symbol
_atom_site_label
_atom_site_fract_x
_atom_site_fract_y
_atom_site_fract_z
Si Si1 0.146473 0.960475 0.756148
Si Si2 0.654214 0.506960 0.865359
Si Si3 0.679693 0.691407 0.255382
Si Si4 0.410913 0.763680 0.366862
Si Si5 0.468455 0.953446 0.158448
Si Si6 0.141653 0.559827 0.765577
Si Si7 0.662543 0.802778 0.827219
Si Si8 0.762797 0.343346 0.542526
O O1 0.902216 0.761275 0.486859
O O2 0.242527 0.127038 0.744948
O O3 0.302671 0.946474 0.933064
O O4 0.155432 0.031195 0.899094
O O5 0.424485 0.355352 0.711375
O O6 0.659537 0.411548 0.763408
O O7 0.691701 0.674392 0.846199
O O8 0.821172 0.559984 0.140613
O O9 0.500000 0.500000 0.000000
O O10 0.437628 0.886260 0.277453
O O11 0.630546 0.867749 0.663347
O O12 0.251754 0.698894 0.319525
O O13 0.690481 0.178925 0.388203
O O14 0.386290 0.779206 0.004770
O O15 0.000000 0.500000 0.500000
O O16 0.002836 0.534482 0.735402
O O17 0.428946 0.678275 0.664503
#
# Coordination Sequence:
#
# PCOD9027298 Si02
#       8
#     2   2   2   2   2   2   2   2
#     4  10  23  39  69  97 121 176 223 253 326 396
#     4  11  23  40  64  98 131 170 217 274 325 374
#     4  11  24  42  64  93 136 172 212 271 322 388
#     4   9  21  42  66  94 134 168 215 271 328 377
#     4  10  22  41  67  95 127 169 220 262 316 395
#     4  11  27  41  63  99 132 169 219 269 325 388
#     4   9  20  41  70  92 128 167 217 265 318 389
#     4   9  22  43  69  87 131 173 212 263 329 380
#
# _framework density 23.427976000000001
#
# number of rings (size 3 to 8) (size 9 to 14) (size 15 to 20)
#    0.750    1.250    1.250    0.750    7.000    2.500 
#    6.750    1.875    0.000    0.000    0.000    0.000 
#    0.000    0.000    0.000    0.000    0.000    0.000 
#
# Total GULP energy -89219.876216 kJ/mol
# GULP energy per Si atom -5576.242264 kJ/mol
# Density = 2.337465 g / cm^3
# Si number density = 23.427976 Si / 1000 Ang^3
#
#
#
# Elastic Constant Matrix: (Units=GPa)
#
#
# Indices 1 2 3 4 5 6 
#
# 1 50.9220 -0.0804 22.5952 3.6008 1.7072 11.4980
# 2 -0.0804 65.4202 20.0931 -14.6798 13.5639 6.0857
# 3 22.5952 20.0931 97.5614 5.9611 4.0532 15.5226
# 4 3.6008 -14.6798 5.9611 40.8749 -1.8705 -5.8355
# 5 1.7072 13.5639 4.0532 -1.8705 31.3637 -11.3350
# 6 11.4980 6.0857 15.5226 -5.8355 -11.3350 28.0414
#
#
#
# Elastic Compliance Matrix: (Units=1/GPa)
#
#
# Indices 1 2 3 4 5 6 
#
# 1 0.024446 0.003170 -0.004054 -0.002377 -0.006509 -0.011593
# 2 0.003170 0.020724 -0.003887 0.006294 -0.010659 -0.006645
# 3 -0.004054 -0.003887 0.013426 -0.004084 -0.002535 -0.006801
# 4 -0.002377 0.006294 -0.004084 0.028962 0.002947 0.009087
# 5 -0.006509 -0.010659 -0.002535 0.002947 0.046703 0.025877
# 6 -0.011593 -0.006645 -0.006801 0.009087 0.025877 0.057973
#
#
# Mechanical properties :
#
#
# Convention : Reuss Voigt Hill
#
# Bulk Modulus (GPa) = 20.38585 33.23549 26.81067
# Shear Modulus (GPa) = 22.92223 31.47571 27.19897
#
# Velocity S-wave (km/s) = 3.13135 3.66937 3.41098
# Velocity P-wave (km/s) = 4.66843 5.67181 5.19440
#
# Compressibility (1/GPa) = 0.04905362
#
# Stress axis : x y z
#
# Youngs Moduli (GPa) = 40.90669 48.25348 74.48047
#
# Poissons Ratio (x) = -0.15296 0.30197
# Poissons Ratio (y) = -0.12967 0.28950
# Poissons Ratio (z) = 0.16585 0.18756
#
# Static dielectric constant tensor:
#      x y z
#    x 1.912870 -0.030850 -0.050580 
#    y -0.030850 1.919080 0.007360 
#    z -0.050580 0.007360 1.897820 
# 
# From -- ./inp_files/463792.got.cif
#   From: 2010.05.17/outbox.cif.g08.bks.cpg/sg2_232_cif.got.tgz:463792.got - 2010.06.03 11:33:40.
