data_PCOD9027654
_publ_section_title
;
Structure prediction by ZEFSAII (Michael W. Deem and Ramdas Pophale) SiO2 
 PCOD9027654
Probable space group: P -1
;
_chemical_formula_sum "Si O2"
_cell_formula_units_Z 16
_cell_length_a 26.568321
_cell_length_b 5.636815
_cell_length_c 11.694008
_cell_angle_alpha 53.487293
_cell_angle_beta 149.519914
_cell_angle_gamma 133.240904
_cell_volume 647.079329
_symmetry_space_group_name_H-M "P -1"
_symmetry_group_IT_number 2
_symmetry_cell_setting 'triclinic'
loop_
_space_group_symop_operation_xyz
x,y,z
-x,-y,-z
loop_
_atom_site_type_symbol
_atom_site_label
_atom_site_fract_x
_atom_site_fract_y
_atom_site_fract_z
Si Si1 0.693644 0.204432 0.121893
Si Si2 0.493237 0.342884 0.367401
Si Si3 0.063125 0.540464 0.491405
Si Si4 0.092776 0.230885 0.254127
Si Si5 0.462428 0.793006 0.727364
Si Si6 0.921720 0.287021 0.076007
Si Si7 0.317220 0.517322 0.730070
Si Si8 0.673431 0.880452 0.721924
O O1 0.816946 0.453733 0.256517
O O2 0.680719 0.303462 0.198298
O O3 0.695814 0.855134 0.195517
O O4 0.575000 0.119255 0.856689
O O5 0.512410 0.438548 0.245182
O O6 0.592246 0.605027 0.557321
O O7 0.370815 0.245910 0.201789
O O8 0.500000 0.000000 0.500000
O O9 0.000000 0.500000 0.500000
O O10 0.089605 0.877978 0.375627
O O11 0.980688 0.292428 0.309823
O O12 0.085779 0.374592 0.074178
O O13 0.206455 0.488880 0.457925
O O14 0.993046 0.227424 0.134679
O O15 0.422183 0.697689 0.803145
O O16 0.361149 0.829526 0.458510
O O17 0.800188 0.006333 0.918450
#
# Coordination Sequence:
#
# PCOD9027654 Si02
#       8
#     2   2   2   2   2   2   2   2
#     4  11  26  44  68 101 146 188 243 299 363 441
#     4   9  22  42  58  98 136 175 232 291 364 435
#     4  11  26  47  68 105 147 195 242 301 372 443
#     4  10  23  44  69 104 141 188 246 311 354 438
#     4  11  23  39  68  98 135 188 234 299 366 434
#     4  11  22  44  74 103 137 189 250 300 373 421
#     4  11  23  45  66 103 142 187 243 304 361 434
#     4  10  22  41  68  98 139 181 239 304 363 438
#
# _framework density 24.726492
#
# number of rings (size 3 to 8) (size 9 to 14) (size 15 to 20)
#    0.000    1.500    2.500    1.125    5.250    2.500 
#    6.750    0.000    0.000    0.000    0.000    0.000 
#    0.000    0.000    0.000    0.000    0.000    0.000 
#
# Total GULP energy -89249.020053 kJ/mol
# GULP energy per Si atom -5578.063753 kJ/mol
# Density = 2.467021 g / cm^3
# Si number density = 24.726492 Si / 1000 Ang^3
#
#
#
# Elastic Constant Matrix: (Units=GPa)
#
#
# Indices 1 2 3 4 5 6 
#
# 1 178.5646 17.7179 63.5018 40.8806 14.0339 13.9890
# 2 17.7179 46.2469 26.8205 8.1191 9.5459 8.8510
# 3 63.5018 26.8205 146.0743 32.3366 18.8911 23.3151
# 4 40.8806 8.1191 32.3366 36.9279 5.7360 -2.0571
# 5 14.0339 9.5459 18.8911 5.7360 44.4948 8.5833
# 6 13.9890 8.8510 23.3151 -2.0571 8.5833 27.9435
#
#
#
# Elastic Compliance Matrix: (Units=1/GPa)
#
#
# Indices 1 2 3 4 5 6 
#
# 1 0.008204 -0.000322 -0.001067 -0.008233 -0.000305 -0.003628
# 2 -0.000322 0.025343 -0.002795 -0.002590 -0.002881 -0.004840
# 3 -0.001067 -0.002795 0.011066 -0.008164 -0.001155 -0.008060
# 4 -0.008233 -0.002590 -0.008164 0.045139 -0.002242 0.015765
# 5 -0.000305 -0.002881 -0.001155 -0.002242 0.025096 -0.005845
# 6 -0.003628 -0.004840 -0.008060 0.015765 -0.005845 0.048817
#
#
# Mechanical properties :
#
#
# Convention : Reuss Voigt Hill
#
# Bulk Modulus (GPa) = 27.58885 65.21845 46.40365
# Shear Modulus (GPa) = 27.15722 39.39628 33.27675
#
# Velocity S-wave (km/s) = 3.31766 3.99592 3.67249
# Velocity P-wave (km/s) = 5.08504 6.90819 6.06551
#
# Compressibility (1/GPa) = 0.03624653
#
# Stress axis : x y z
#
# Youngs Moduli (GPa) = 121.88591 39.45863 90.36826
#
# Poissons Ratio (x) = 0.01271 0.09639
# Poissons Ratio (y) = 0.03927 0.25254
# Poissons Ratio (z) = 0.13000 0.11027
#
# Static dielectric constant tensor:
#      x y z
#    x 1.994830 -0.004440 -0.020330 
#    y -0.004440 2.093530 -0.095290 
#    z -0.020330 -0.095290 2.024660 
# 
# From -- ./inp_files/476003.got.cif
#   From: 2010.05.17/outbox.cif.g08.bks.cpg/sg2_239_cif.got.tgz:476003.got - 2010.06.03 11:33:40.
