data_PCOD9027756
_publ_section_title
;
Structure prediction by ZEFSAII (Michael W. Deem and Ramdas Pophale) SiO2 
 PCOD9027756
Probable space group: P -1
;
_chemical_formula_sum "Si O2"
_cell_formula_units_Z 16
_cell_length_a 16.155932
_cell_length_b 8.245896
_cell_length_c 11.416478
_cell_angle_alpha 125.670262
_cell_angle_beta 70.348498
_cell_angle_gamma 66.130642
_cell_volume 720.505772
_symmetry_space_group_name_H-M "P -1"
_symmetry_group_IT_number 2
_symmetry_cell_setting 'triclinic'
loop_
_space_group_symop_operation_xyz
x,y,z
-x,-y,-z
loop_
_atom_site_type_symbol
_atom_site_label
_atom_site_fract_x
_atom_site_fract_y
_atom_site_fract_z
Si Si1 0.674521 0.252852 0.985089
Si Si2 0.605285 0.951156 0.005834
Si Si3 0.917553 0.663349 0.484479
Si Si4 0.761338 0.529067 0.120831
Si Si5 0.632875 0.448608 0.466354
Si Si6 0.895194 0.360618 0.742040
Si Si7 0.140901 0.637724 0.741973
Si Si8 0.452650 0.766760 0.464883
O O1 0.756859 0.296447 0.020470
O O2 0.513061 0.618998 0.243410
O O3 0.661940 0.049817 0.955184
O O4 0.769236 0.047835 0.737421
O O5 0.503488 0.207423 0.265190
O O6 0.745251 0.602961 0.847622
O O7 0.500000 0.000000 0.000000
O O8 0.883979 0.504162 0.388311
O O9 0.000000 0.500000 0.500000
O O10 0.025139 0.580674 0.310549
O O11 0.797108 0.539933 0.237629
O O12 0.609564 0.907634 0.336866
O O13 0.861493 0.415041 0.918783
O O14 0.758527 0.380587 0.374930
O O15 0.585135 0.488379 0.372873
O O16 0.658598 0.202707 0.425730
O O17 0.000000 0.000000 0.500000
O O18 0.000000 0.000000 0.000000
#
# Coordination Sequence:
#
# PCOD9027756 Si02
#       8
#     2   2   2   2   2   2   2   2
#     4  11  22  44  74 101 143 193 238 299 367 440
#     4  11  24  45  73 106 145 194 249 302 362 448
#     4  12  26  48  73 100 146 195 244 294 371 450
#     4  12  25  46  71 108 146 188 244 309 366 432
#     4  10  22  41  69 105 139 186 242 294 363 437
#     4  12  27  46  75 108 150 196 242 309 381 430
#     4  12  29  45  73 107 145 193 250 303 365 453
#     4  10  22  41  74 104 142 184 237 303 368 428
#
# _framework density 22.206624000000001
#
# number of rings (size 3 to 8) (size 9 to 14) (size 15 to 20)
#    0.000    0.750    5.000    1.875    1.750    0.500 
#    4.500    1.250    0.000    0.000    0.000    0.000 
#    0.000    0.000    0.000    0.000    0.000    0.000 
#
# Total GULP energy -89268.198319 kJ/mol
# GULP energy per Si atom -5579.262395 kJ/mol
# Density = 2.215608 g / cm^3
# Si number density = 22.206624 Si / 1000 Ang^3
#
#
#
# Elastic Constant Matrix: (Units=GPa)
#
#
# Indices 1 2 3 4 5 6 
#
# 1 168.9912 42.8641 48.8318 -15.1406 4.7727 19.7059
# 2 42.8641 47.8259 17.1535 -19.1337 -7.6681 16.1752
# 3 48.8318 17.1535 140.1755 -15.4218 -3.1238 21.8915
# 4 -15.1406 -19.1337 -15.4218 44.5304 14.0004 -5.7513
# 5 4.7727 -7.6681 -3.1238 14.0004 44.1788 -10.4884
# 6 19.7059 16.1752 21.8915 -5.7513 -10.4884 22.5196
#
#
#
# Elastic Compliance Matrix: (Units=1/GPa)
#
#
# Indices 1 2 3 4 5 6 
#
# 1 0.008460 -0.006671 -0.001878 -0.000065 -0.002670 -0.002046
# 2 -0.006671 0.038046 0.002346 0.012636 -0.001564 -0.021271
# 3 -0.001878 0.002346 0.009205 0.002960 -0.001835 -0.009088
# 4 -0.000065 0.012636 0.002960 0.030737 -0.009323 -0.008389
# 5 -0.002670 -0.001564 -0.001835 -0.009323 0.029408 0.016559
# 6 -0.002046 -0.021271 -0.009088 -0.008389 0.016559 0.075879
#
#
# Mechanical properties :
#
#
# Convention : Reuss Voigt Hill
#
# Bulk Modulus (GPa) = 23.09266 63.85459 43.47363
# Shear Modulus (GPa) = 22.87519 38.78864 30.83191
#
# Velocity S-wave (km/s) = 3.21301 4.18391 3.73018
# Velocity P-wave (km/s) = 4.91794 7.22200 6.17833
#
# Compressibility (1/GPa) = 0.04330380
#
# Stress axis : x y z
#
# Youngs Moduli (GPa) = 118.19728 26.28428 108.63317
#
# Poissons Ratio (x) = 0.17535 0.20402
# Poissons Ratio (y) = 0.78852 -0.25481
# Poissons Ratio (z) = 0.22198 -0.06165
#
# Static dielectric constant tensor:
#      x y z
#    x 1.840150 0.066330 0.015550 
#    y 0.066330 1.255670 -0.249300 
#    z 0.015550 -0.249300 1.748000 
# 
# From -- ./inp_files/448191.got.cif
#   From: 2010.05.17/outbox.cif.g08.bks.cpg/sg2_225_cif.got.tgz:448191.got - 2010.06.03 11:33:40.
