data_PCOD9027663
_publ_section_title
;
Structure prediction by ZEFSAII (Michael W. Deem and Ramdas Pophale) SiO2 
 PCOD9027663
Probable space group: P -1
;
_chemical_formula_sum "Si O2"
_cell_formula_units_Z 13
_cell_length_a 11.202728
_cell_length_b 7.787612
_cell_length_c 11.702091
_cell_angle_alpha 45.630645
_cell_angle_beta 49.438748
_cell_angle_gamma 59.117522
_cell_volume 551.204972
_symmetry_space_group_name_H-M "P -1"
_symmetry_group_IT_number 2
_symmetry_cell_setting 'triclinic'
loop_
_space_group_symop_operation_xyz
x,y,z
-x,-y,-z
loop_
_atom_site_type_symbol
_atom_site_label
_atom_site_fract_x
_atom_site_fract_y
_atom_site_fract_z
Si Si1 0.254587 0.012899 0.721055
Si Si2 0.105636 0.788385 0.407714
Si Si3 0.642478 0.288966 0.515198
Si Si4 0.836806 0.456712 0.759895
Si Si5 0.943123 0.250935 0.187652
Si Si6 0.000000 0.000000 0.000000
Si Si7 0.427616 0.207247 0.308661
O O1 0.087472 0.914380 0.828878
O O2 0.394628 0.803631 0.752517
O O3 0.318760 0.171702 0.506153
O O4 0.170723 0.150183 0.815362
O O5 0.254499 0.736444 0.421873
O O6 0.140272 0.661791 0.324000
O O7 0.951391 0.668649 0.602712
O O8 0.054595 0.071331 0.281862
O O9 0.500000 0.500000 0.500000
O O10 0.773076 0.302068 0.328591
O O11 0.571552 0.038874 0.648816
O O12 0.887144 0.245332 0.913100
O O13 0.657894 0.579531 0.811515
O O14 0.000000 0.500000 0.000000
#
# Coordination Sequence:
#
# PCOD9027663 Si02
#       7
#     2   2   2   2   2   1   2
#     4  10  22  41  68  99 133 173 230 273 339 398
#     4  11  23  44  68 102 131 186 226 274 339 415
#     4  11  26  41  70 104 134 185 228 273 336 411
#     4  11  23  41  71  98 136 177 231 280 337 405
#     4  11  24  44  68 105 137 177 223 289 338 394
#     4  12  24  38  68 108 124 174 228 288 328 392
#     4  10  23  45  68  97 138 183 221 278 342 407
#
# _framework density 23.584692
#
# number of rings (size 3 to 8) (size 9 to 14) (size 15 to 20)
#    0.000    1.231    4.615    1.385   10.769    0.615 
#    0.000    0.769    0.000    0.000    0.000    0.000 
#    0.000    0.000    0.000    0.000    0.000    0.000 
#
# Total GULP energy -72535.404191 kJ/mol
# GULP energy per Si atom -5579.646476 kJ/mol
# Density = 2.353101 g / cm^3
# Si number density = 23.584692 Si / 1000 Ang^3
#
#
#
# Elastic Constant Matrix: (Units=GPa)
#
#
# Indices 1 2 3 4 5 6 
#
# 1 99.9197 54.1946 39.9284 -14.4560 17.9354 -29.3325
# 2 54.1946 196.8846 66.1258 -29.5656 10.9411 -48.9572
# 3 39.9284 66.1258 95.0298 -19.0419 9.3751 -24.9913
# 4 -14.4560 -29.5656 -19.0419 49.5521 -7.7129 8.8382
# 5 17.9354 10.9411 9.3751 -7.7129 33.8093 -9.0414
# 6 -29.3325 -48.9572 -24.9913 8.8382 -9.0414 56.1200
#
#
#
# Elastic Compliance Matrix: (Units=1/GPa)
#
#
# Indices 1 2 3 4 5 6 
#
# 1 0.014239 -0.001506 -0.003351 0.000519 -0.005017 0.003747
# 2 -0.001506 0.008067 -0.003403 0.002401 0.000883 0.004499
# 3 -0.003351 -0.003403 0.015265 0.002514 -0.000346 0.001625
# 4 0.000519 0.002401 0.002514 0.023226 0.003661 0.000417
# 5 -0.005017 0.000883 -0.000346 0.003661 0.033643 0.002838
# 6 0.003747 0.004499 0.001625 0.000417 0.002838 0.024817
#
#
# Mechanical properties :
#
#
# Convention : Reuss Voigt Hill
#
# Bulk Modulus (GPa) = 47.50497 79.14794 63.32646
# Shear Modulus (GPa) = 35.01546 43.33530 39.17538
#
# Velocity S-wave (km/s) = 3.85732 4.29118 4.08002
# Velocity P-wave (km/s) = 6.32650 7.62786 7.00745
#
# Compressibility (1/GPa) = 0.02105043
#
# Stress axis : x y z
#
# Youngs Moduli (GPa) = 70.22857 123.96475 65.51131
#
# Poissons Ratio (x) = 0.18665 0.21952
# Poissons Ratio (y) = 0.10574 0.22297
# Poissons Ratio (z) = 0.23533 0.42191
#
# Static dielectric constant tensor:
#      x y z
#    x 2.769770 0.914880 0.792280 
#    y 0.914880 2.877180 0.960860 
#    z 0.792280 0.960860 2.794470 
# 
# From -- ./inp_files/517412.got.cif
#   From: 2010.05.17/outbox.cif.g08.bks.cpg/sg2_259_cif.got.tgz:517412.got - 2010.06.03 11:33:40.
