data_PCOD9027827
_publ_section_title
;
Structure prediction by ZEFSAII (Michael W. Deem and Ramdas Pophale) SiO2 
 PCOD9027827
Probable space group: P -1
;
_chemical_formula_sum "Si O2"
_cell_formula_units_Z 14
_cell_length_a 10.868575
_cell_length_b 11.924993
_cell_length_c 12.373636
_cell_angle_alpha 34.724481
_cell_angle_beta 69.884983
_cell_angle_gamma 48.618696
_cell_volume 606.256513
_symmetry_space_group_name_H-M "P -1"
_symmetry_group_IT_number 2
_symmetry_cell_setting 'triclinic'
loop_
_space_group_symop_operation_xyz
x,y,z
-x,-y,-z
loop_
_atom_site_type_symbol
_atom_site_label
_atom_site_fract_x
_atom_site_fract_y
_atom_site_fract_z
Si Si1 0.812087 0.525327 0.541638
Si Si2 0.901343 0.015514 0.618087
Si Si3 0.670688 0.930216 0.061327
Si Si4 0.516100 0.505216 0.621468
Si Si5 0.106755 0.979138 0.771296
Si Si6 0.040139 0.614369 0.062875
Si Si7 0.694770 0.893360 0.492736
O O1 0.664424 0.509183 0.601713
O O2 0.789344 0.668592 0.545127
O O3 0.011493 0.211250 0.709152
O O4 0.749544 0.727762 0.299501
O O5 0.939912 0.130219 0.613602
O O6 0.000000 0.717579 0.870671
O O7 0.000000 0.000000 0.500000
O O8 0.687256 0.218011 0.500916
O O9 0.582415 0.235362 0.871748
O O10 0.500000 0.000000 0.000000
O O11 0.842615 0.789108 0.040880
O O12 0.500000 0.500000 0.500000
O O13 0.275815 0.915123 0.712747
O O14 0.135140 0.718440 0.997329
O O15 0.170696 0.292316 0.300125
O O16 0.500000 0.000000 0.500000
#
# Coordination Sequence:
#
# PCOD9027827 Si02
#       7
#     2   2   2   2   2   2   2
#     4  12  24  41  70  97 130 176 221 273 323 389
#     4  10  22  41  69  96 134 170 208 270 342 393
#     4  12  21  37  70 105 133 165 218 274 330 391
#     4  12  20  41  65 102 133 165 217 274 328 395
#     4  10  22  45  66  95 129 167 226 271 318 389
#     4  10  23  43  69  94 134 173 217 272 333 379
#     4  12  29  46  64  95 136 177 229 271 322 396
#
# _framework density 23.092535999999999
#
# number of rings (size 3 to 8) (size 9 to 14) (size 15 to 20)
#    0.857    0.000    7.143    0.429    2.000    3.429 
#    0.000    0.714    0.000    0.000    0.000    0.000 
#    0.000    0.000    0.000    0.000    0.000    0.000 
#
# Total GULP energy -78222.893875 kJ/mol
# GULP energy per Si atom -5587.349562 kJ/mol
# Density = 2.303998 g / cm^3
# Si number density = 23.092536 Si / 1000 Ang^3
#
#
#
# Elastic Constant Matrix: (Units=GPa)
#
#
# Indices 1 2 3 4 5 6 
#
# 1 101.9871 16.1981 1.1307 3.4085 -22.4764 -35.6007
# 2 16.1981 79.8177 6.3519 13.9677 -4.7788 -24.8395
# 3 1.1307 6.3519 83.0577 21.4962 -14.9233 -3.9067
# 4 3.4085 13.9677 21.4962 28.9219 -9.8131 -4.6956
# 5 -22.4764 -4.7788 -14.9233 -9.8131 33.4311 3.2232
# 6 -35.6007 -24.8395 -3.9067 -4.6956 3.2232 49.4122
#
#
#
# Elastic Compliance Matrix: (Units=1/GPa)
#
#
# Indices 1 2 3 4 5 6 
#
# 1 0.016110 0.000427 0.001710 0.002290 0.011224 0.011442
# 2 0.000427 0.016054 0.001041 -0.007261 0.000167 0.007759
# 3 0.001710 0.001041 0.015593 -0.010300 0.005074 0.001678
# 4 0.002290 -0.007261 -0.010300 0.049125 0.010209 0.001188
# 5 0.011224 0.000167 0.005074 0.010209 0.042089 0.006797
# 6 0.011442 0.007759 0.001678 0.001188 0.006797 0.032184
#
#
# Mechanical properties :
#
#
# Convention : Reuss Voigt Hill
#
# Bulk Modulus (GPa) = 18.48019 34.69154 26.58587
# Shear Modulus (GPa) = 27.34661 38.43183 32.88922
#
# Velocity S-wave (km/s) = 3.44498 4.08395 3.77800
# Velocity P-wave (km/s) = 4.88302 6.10685 5.52890
#
# Compressibility (1/GPa) = 0.05411200
#
# Stress axis : x y z
#
# Youngs Moduli (GPa) = 62.07477 62.28795 64.13040
#
# Poissons Ratio (x) = -0.02657 -0.10968
# Poissons Ratio (y) = -0.02648 -0.06673
# Poissons Ratio (z) = -0.10616 -0.06481
#
# Static dielectric constant tensor:
#      x y z
#    x 1.921310 0.041570 -0.023280 
#    y 0.041570 1.843080 0.016590 
#    z -0.023280 0.016590 1.840760 
# 
# From -- ./inp_files/497771.got.cif
#   From: 2010.05.17/outbox.cif.g08.bks.cpg/sg2_249_cif.got.tgz:497771.got - 2010.06.03 11:33:40.
