data_PCOD9027340
_publ_section_title
;
Structure prediction by ZEFSAII (Michael W. Deem and Ramdas Pophale) SiO2 
 PCOD9027340
Probable space group: P -1
;
_chemical_formula_sum "Si O2"
_cell_formula_units_Z 16
_cell_length_a 7.410040
_cell_length_b 15.569011
_cell_length_c 5.714991
_cell_angle_alpha 77.574899
_cell_angle_beta 88.523423
_cell_angle_gamma 75.402538
_cell_volume 622.812016
_symmetry_space_group_name_H-M "P -1"
_symmetry_group_IT_number 2
_symmetry_cell_setting 'triclinic'
loop_
_space_group_symop_operation_xyz
x,y,z
-x,-y,-z
loop_
_atom_site_type_symbol
_atom_site_label
_atom_site_fract_x
_atom_site_fract_y
_atom_site_fract_z
Si Si1 0.151817 0.558715 0.750892
Si Si2 0.461502 0.294617 0.493097
Si Si3 0.283162 0.017294 0.059299
Si Si4 0.864684 0.249215 0.261212
Si Si5 0.223449 0.496277 0.285033
Si Si6 0.326167 0.827861 0.062521
Si Si7 0.902172 0.931295 0.415178
Si Si8 0.612549 0.864722 0.681933
O O1 0.059120 0.661927 0.772845
O O2 0.238413 0.555287 0.485049
O O3 0.993246 0.504536 0.746530
O O4 0.274048 0.520867 0.002388
O O5 0.656770 0.283393 0.357171
O O6 0.340265 0.396216 0.413507
O O7 0.522106 0.253539 0.772322
O O8 0.356419 0.226004 0.414296
O O9 0.123473 0.040692 0.863386
O O10 0.255991 0.116214 0.125705
O O11 0.500000 0.000000 0.000000
O O12 0.282097 0.913183 0.195178
O O13 0.983163 0.168654 0.462846
O O14 0.831905 0.212595 0.025637
O O15 0.416699 0.867759 0.812669
O O16 0.681079 0.938260 0.477898
O O17 0.000000 0.000000 0.500000
#
# Coordination Sequence:
#
# PCOD9027340 Si02
#       8
#     2   2   2   2   2   2   2   2
#     4  10  24  47  74 109 140 188 240 306 367 442
#     4  11  25  44  70 100 139 187 233 298 356 445
#     4  10  22  41  67  96 131 185 239 288 347 424
#     4  11  26  44  65 102 142 182 235 294 366 428
#     4  10  24  48  76 104 145 186 244 299 373 442
#     4  10  23  42  63 100 134 184 241 284 360 431
#     4  12  25  44  65 101 141 185 235 295 361 416
#     4  10  23  40  66  93 131 186 229 290 343 429
#
# _framework density 25.689934000000001
#
# number of rings (size 3 to 8) (size 9 to 14) (size 15 to 20)
#    0.000    1.500    1.250    2.250    7.000    5.000 
#    6.750    0.000    0.000    0.000    0.000    0.000 
#    0.000    0.000    0.000    0.000    0.000    0.000 
#
# Total GULP energy -89128.815988 kJ/mol
# GULP energy per Si atom -5570.550999 kJ/mol
# Density = 2.563146 g / cm^3
# Si number density = 25.689934 Si / 1000 Ang^3
#
#
#
# Elastic Constant Matrix: (Units=GPa)
#
#
# Indices 1 2 3 4 5 6 
#
# 1 75.9507 19.4181 32.0807 9.0816 2.0537 -6.0487
# 2 19.4181 130.2725 59.8842 4.2732 35.3024 16.5791
# 3 32.0807 59.8842 145.9688 -1.6876 43.7795 0.9022
# 4 9.0816 4.2732 -1.6876 46.5331 -1.6317 13.5092
# 5 2.0537 35.3024 43.7795 -1.6317 40.9030 -4.5639
# 6 -6.0487 16.5791 0.9022 13.5092 -4.5639 38.8246
#
#
#
# Elastic Compliance Matrix: (Units=1/GPa)
#
#
# Indices 1 2 3 4 5 6 
#
# 1 0.016859 -0.002994 -0.004796 -0.004837 0.007412 0.006571
# 2 -0.002994 0.012281 -0.001415 0.001162 -0.009694 -0.007222
# 3 -0.004796 -0.001415 0.011991 0.001794 -0.011569 -0.002406
# 4 -0.004837 0.001162 0.001794 0.025323 -0.002834 -0.010436
# 5 0.007412 -0.009694 -0.011569 -0.002834 0.046047 0.011962
# 6 0.006571 -0.007222 -0.002406 -0.010436 0.011962 0.034958
#
#
# Mechanical properties :
#
#
# Convention : Reuss Voigt Hill
#
# Bulk Modulus (GPa) = 44.01328 63.88421 53.94875
# Shear Modulus (GPa) = 28.82804 41.30608 35.06706
#
# Velocity S-wave (km/s) = 3.35349 4.01418 3.69861
# Velocity P-wave (km/s) = 5.67135 6.81221 6.26779
#
# Compressibility (1/GPa) = 0.02272041
#
# Stress axis : x y z
#
# Youngs Moduli (GPa) = 59.31488 81.42799 83.39798
#
# Poissons Ratio (x) = 0.24382 0.40000
# Poissons Ratio (y) = 0.17760 0.11797
# Poissons Ratio (z) = 0.28449 0.11518
#
# Static dielectric constant tensor:
#      x y z
#    x 2.672130 -0.461760 -0.986370 
#    y -0.461760 2.334270 0.696780 
#    z -0.986370 0.696780 3.444990 
# 
# From -- ./inp_files/37534.got.cif
#   From: 2010.05.17/outbox.cif.g08.bks.cpg/sg2_19_cif.got.tgz:37534.got - 2010.06.03 11:33:40.
