data_PCOD9027011
_publ_section_title
;
Structure prediction by ZEFSAII (Michael W. Deem and Ramdas Pophale) SiO2 
 PCOD9027011
Probable space group: P -1
;
_chemical_formula_sum "Si O2"
_cell_formula_units_Z 16
_cell_length_a 9.584357
_cell_length_b 7.981056
_cell_length_c 16.894761
_cell_angle_alpha 66.751763
_cell_angle_beta 40.097699
_cell_angle_gamma 89.382463
_cell_volume 665.832167
_symmetry_space_group_name_H-M "P -1"
_symmetry_group_IT_number 2
_symmetry_cell_setting 'triclinic'
loop_
_space_group_symop_operation_xyz
x,y,z
-x,-y,-z
loop_
_atom_site_type_symbol
_atom_site_label
_atom_site_fract_x
_atom_site_fract_y
_atom_site_fract_z
Si Si1 0.237700 0.647591 0.465133
Si Si2 0.318493 0.785882 0.952932
Si Si3 0.577034 0.977403 0.382020
Si Si4 0.610635 0.762359 0.150453
Si Si5 0.893366 0.053636 0.611413
Si Si6 0.978665 0.997439 0.751613
Si Si7 0.947773 0.649278 0.925884
Si Si8 0.764906 0.279797 0.816756
O O1 0.368254 0.830939 0.439645
O O2 0.452262 0.645156 0.318998
O O3 0.039510 0.448189 0.635659
O O4 0.101864 0.729275 0.447800
O O5 0.151619 0.589581 0.006595
O O6 0.277280 0.699757 0.076803
O O7 0.606993 0.883830 0.784675
O O8 0.274780 0.987149 0.931095
O O9 0.774765 0.891747 0.322306
O O10 0.500000 0.000000 0.500000
O O11 0.753987 0.208406 0.227130
O O12 0.421399 0.711217 0.167913
O O13 0.809540 0.697529 0.047573
O O14 0.000000 0.000000 0.500000
O O15 0.045041 0.054801 0.621593
O O16 0.773822 0.063603 0.846679
O O17 0.886984 0.756862 0.856422
#
# Coordination Sequence:
#
# PCOD9027011 Si02
#       8
#     2   2   2   2   2   2   2   2
#     4  11  25  40  69  94 140 182 210 282 354 370
#     4  11  22  40  69  96 132 179 220 270 343 388
#     4  10  22  45  63  98 137 178 227 277 319 416
#     4  11  23  43  63 103 140 164 225 292 324 404
#     4  11  24  39  60 102 131 169 221 278 329 399
#     4  10  22  41  66  94 132 172 225 272 321 396
#     4  10  24  41  69  99 129 184 225 273 329 405
#     4  12  22  42  67 102 133 177 225 280 329 407
#
# _framework density 24.030080000000002
#
# number of rings (size 3 to 8) (size 9 to 14) (size 15 to 20)
#    0.750    0.500    3.750    3.000    3.500    2.000 
#    0.000    2.500    0.000    0.000    0.000    0.000 
#    0.000    0.000    0.000    0.000    0.000    0.000 
#
# Total GULP energy -89481.633485 kJ/mol
# GULP energy per Si atom -5592.602093 kJ/mol
# Density = 2.397539 g / cm^3
# Si number density = 24.030080 Si / 1000 Ang^3
#
#
#
# Elastic Constant Matrix: (Units=GPa)
#
#
# Indices 1 2 3 4 5 6 
#
# 1 83.0299 26.0027 26.8311 -5.8448 15.0516 -3.9048
# 2 26.0027 119.3722 74.1800 7.3990 -5.5452 18.4189
# 3 26.8311 74.1800 171.9502 8.9198 22.3935 17.4888
# 4 -5.8448 7.3990 8.9198 50.9499 12.8075 0.3827
# 5 15.0516 -5.5452 22.3935 12.8075 34.5441 2.1619
# 6 -3.9048 18.4189 17.4888 0.3827 2.1619 24.9850
#
#
#
# Elastic Compliance Matrix: (Units=1/GPa)
#
#
# Indices 1 2 3 4 5 6 
#
# 1 0.016398 -0.005701 0.000258 0.005286 -0.010652 0.007425
# 2 -0.005701 0.015659 -0.006178 -0.004613 0.011277 -0.009015
# 3 0.000258 -0.006178 0.009517 0.001188 -0.007625 -0.001425
# 4 0.005286 -0.004613 0.001188 0.023917 -0.012941 0.004149
# 5 -0.010652 0.011277 -0.007625 -0.012941 0.045666 -0.008394
# 6 0.007425 -0.009015 -0.001425 0.004149 -0.008394 0.049491
#
#
# Mechanical properties :
#
#
# Convention : Reuss Voigt Hill
#
# Bulk Modulus (GPa) = 54.54672 69.82000 62.18336
# Shear Modulus (GPa) = 26.31572 38.58503 32.45038
#
# Velocity S-wave (km/s) = 3.31284 4.01146 3.67877
# Velocity P-wave (km/s) = 6.11407 7.11155 6.63159
#
# Compressibility (1/GPa) = 0.01833291
#
# Stress axis : x y z
#
# Youngs Moduli (GPa) = 60.98369 63.86066 105.07487
#
# Poissons Ratio (x) = 0.36404 -0.02715
# Poissons Ratio (y) = 0.34764 0.64919
# Poissons Ratio (z) = -0.01576 0.39455
#
# Static dielectric constant tensor:
#      x y z
#    x 1.947820 -0.003850 0.008520 
#    y -0.003850 1.924050 -0.001940 
#    z 0.008520 -0.001940 1.947720 
# 
# From -- ./inp_files/565873.got.cif
#   From: 2010.05.17/outbox.cif.g08.bks.cpg/sg2_283_cif.got.tgz:565873.got - 2010.06.03 11:33:40.
