data_PCOD9027503
_publ_section_title
;
Structure prediction by ZEFSAII (Michael W. Deem and Ramdas Pophale) SiO2 
 PCOD9027503
Probable space group: P -1
;
_chemical_formula_sum "Si O2"
_cell_formula_units_Z 14
_cell_length_a 10.894409
_cell_length_b 10.330925
_cell_length_c 13.178220
_cell_angle_alpha 37.015075
_cell_angle_beta 37.584367
_cell_angle_gamma 49.997518
_cell_volume 544.415370
_symmetry_space_group_name_H-M "P -1"
_symmetry_group_IT_number 2
_symmetry_cell_setting 'triclinic'
loop_
_space_group_symop_operation_xyz
x,y,z
-x,-y,-z
loop_
_atom_site_type_symbol
_atom_site_label
_atom_site_fract_x
_atom_site_fract_y
_atom_site_fract_z
Si Si1 0.872522 0.724747 0.445222
Si Si2 0.774152 0.522869 0.829890
Si Si3 0.213792 0.650447 0.521946
Si Si4 0.516344 0.849687 0.486210
Si Si5 0.194535 0.008731 0.151904
Si Si6 0.669425 0.516355 0.238280
Si Si7 0.545817 0.167568 0.091091
O O1 0.730169 0.672502 0.665577
O O2 0.744965 0.761024 0.406004
O O3 0.000000 0.500000 0.500000
O O4 0.000695 0.926105 0.269208
O O5 0.631117 0.653423 0.919795
O O6 0.006791 0.539774 0.693705
O O7 0.708610 0.291380 0.977552
O O8 0.192820 0.886487 0.337152
O O9 0.434406 0.568923 0.389067
O O10 0.224681 0.608186 0.660104
O O11 0.356367 0.662650 0.718219
O O12 0.500000 0.000000 0.500000
O O13 0.492342 0.963071 0.322240
O O14 0.369034 0.910689 0.024004
O O15 0.222532 0.260531 0.987585
#
# Coordination Sequence:
#
# PCOD9027503 Si02
#       7
#     2   2   2   2   2   2   2
#     4  11  22  44  74 105 136 188 243 291 351 420
#     4  10  22  41  68 107 143 186 236 297 353 424
#     4  10  23  45  73 101 146 186 238 292 352 423
#     4  12  26  46  72 102 147 182 236 309 353 422
#     4  11  24  43  76 103 139 190 238 296 352 422
#     4  11  25  45  70 106 139 189 242 290 358 430
#     4  11  23  40  72 108 141 188 240 286 370 413
#
# _framework density 25.71566
#
# number of rings (size 3 to 8) (size 9 to 14) (size 15 to 20)
#    0.000    1.143    2.857    3.857    2.000    0.571 
#    0.000    3.571    3.143    2.571    0.000    0.000 
#    0.000    0.000    0.000    0.000    0.000    0.000 
#
# Total GULP energy -78308.319372 kJ/mol
# GULP energy per Si atom -5593.451384 kJ/mol
# Density = 2.565713 g / cm^3
# Si number density = 25.715660 Si / 1000 Ang^3
#
#
#
# Elastic Constant Matrix: (Units=GPa)
#
#
# Indices 1 2 3 4 5 6 
#
# 1 137.9935 31.6468 80.3342 -47.0366 -8.3944 -8.9170
# 2 31.6468 78.1451 47.8577 -25.6102 -1.6667 12.8707
# 3 80.3342 47.8577 164.2988 -46.1904 -20.9316 14.4755
# 4 -47.0366 -25.6102 -46.1904 35.4125 12.0321 -11.7751
# 5 -8.3944 -1.6667 -20.9316 12.0321 55.8304 -7.8271
# 6 -8.9170 12.8707 14.4755 -11.7751 -7.8271 34.3261
#
#
#
# Elastic Compliance Matrix: (Units=1/GPa)
#
#
# Indices 1 2 3 4 5 6 
#
# 1 0.019304 0.000799 -0.003615 0.027266 -0.002189 0.015093
# 2 0.000799 0.018020 -0.002822 0.010645 -0.003030 -0.002398
# 3 -0.003615 -0.002822 0.010739 0.005880 0.001855 -0.001969
# 4 0.027266 0.010645 0.005880 0.093060 -0.009165 0.030445
# 5 -0.002189 -0.003030 0.001855 -0.009165 0.020342 0.001280
# 6 0.015093 -0.002398 -0.001969 0.030445 0.001280 0.045518
#
#
# Mechanical properties :
#
#
# Convention : Reuss Voigt Hill
#
# Bulk Modulus (GPa) = 27.18245 77.79053 52.48649
# Shear Modulus (GPa) = 21.69006 39.82039 30.75522
#
# Velocity S-wave (km/s) = 2.90738 3.93935 3.46204
# Velocity P-wave (km/s) = 4.67588 7.14194 6.03619
#
# Compressibility (1/GPa) = 0.03678844
#
# Stress axis : x y z
#
# Youngs Moduli (GPa) = 51.80342 55.49308 93.12044
#
# Poissons Ratio (x) = -0.04436 0.33660
# Poissons Ratio (y) = -0.04141 0.26277
# Poissons Ratio (z) = 0.18725 0.15659
#
# Static dielectric constant tensor:
#      x y z
#    x 2.001970 0.006160 -0.022310 
#    y 0.006160 2.232030 0.038020 
#    z -0.022310 0.038020 2.011260 
# 
# From -- ./inp_files/518508.got.cif
#   From: 2010.05.17/outbox.cif.g08.bks.cpg/sg2_260_cif.got.tgz:518508.got - 2010.06.03 11:33:40.
