data_PCOD9027714
_publ_section_title
;
Structure prediction by ZEFSAII (Michael W. Deem and Ramdas Pophale) SiO2 
 PCOD9027714
Probable space group: P -1
;
_chemical_formula_sum "Si O2"
_cell_formula_units_Z 12
_cell_length_a 8.452241
_cell_length_b 22.855860
_cell_length_c 14.718269
_cell_angle_alpha 18.977202
_cell_angle_beta 143.127499
_cell_angle_gamma 144.637169
_cell_volume 528.829480
_symmetry_space_group_name_H-M "P -1"
_symmetry_group_IT_number 2
_symmetry_cell_setting 'triclinic'
loop_
_space_group_symop_operation_xyz
x,y,z
-x,-y,-z
loop_
_atom_site_type_symbol
_atom_site_label
_atom_site_fract_x
_atom_site_fract_y
_atom_site_fract_z
Si Si1 0.763423 0.957658 0.292567
Si Si2 0.208028 0.338569 0.618779
Si Si3 0.749048 0.587196 0.273786
Si Si4 0.623654 0.889016 0.644587
Si Si5 0.616223 0.802955 0.258065
Si Si6 0.382364 0.672739 0.674969
O O1 0.761337 0.922893 0.234468
O O2 0.540125 0.791743 0.486595
O O3 0.069544 0.984801 0.429402
O O4 0.650671 0.137362 0.983055
O O5 0.500000 0.500000 0.500000
O O6 0.191532 0.286813 0.792653
O O7 0.205077 0.183970 0.768895
O O8 0.942600 0.405395 0.378836
O O9 0.487220 0.408691 0.439667
O O10 0.000000 0.500000 0.500000
O O11 0.681173 0.709156 0.983603
O O12 0.441747 0.810979 0.586936
O O13 0.500000 0.000000 0.500000
O O14 0.500000 0.500000 0.000000
#
# Coordination Sequence:
#
# PCOD9027714 Si02
#       6
#     2   2   2   2   2   2
#     4  11  24  42  69 100 142 182 232 293 348 414
#     4  10  24  42  72 101 131 179 244 286 332 421
#     4  11  21  44  72  97 137 188 237 278 347 426
#     4  12  27  44  69 108 149 181 232 298 362 413
#     4  10  22  41  69 102 131 179 244 287 337 407
#     4  12  27  46  71 101 145 190 231 287 371 425
#
# _framework density 22.691623
#
# number of rings (size 3 to 8) (size 9 to 14) (size 15 to 20)
#    0.000    1.000    1.667    4.500    7.000    3.333 
#    0.000    5.833    0.000    0.000    0.000    0.000 
#    0.000    0.000    0.000    0.000    0.000    0.000 
#
# Total GULP energy -67113.021727 kJ/mol
# GULP energy per Si atom -5592.751811 kJ/mol
# Density = 2.263998 g / cm^3
# Si number density = 22.691623 Si / 1000 Ang^3
#
#
#
# Elastic Constant Matrix: (Units=GPa)
#
#
# Indices 1 2 3 4 5 6 
#
# 1 128.3505 35.8007 27.9121 -1.5218 -4.7441 -12.4638
# 2 35.8007 93.9979 15.9084 19.4444 1.2468 17.3991
# 3 27.9121 15.9084 64.6989 -3.3340 -0.8757 14.9668
# 4 -1.5218 19.4444 -3.3340 31.4709 -0.0102 0.4634
# 5 -4.7441 1.2468 -0.8757 -0.0102 30.9425 1.0968
# 6 -12.4638 17.3991 14.9668 0.4634 1.0968 46.8079
#
#
#
# Elastic Compliance Matrix: (Units=1/GPa)
#
#
# Indices 1 2 3 4 5 6 
#
# 1 0.010986 -0.005228 -0.004730 0.003168 0.001538 0.006314
# 2 -0.005228 0.016173 -0.000628 -0.010208 -0.001224 -0.007073
# 3 -0.004730 -0.000628 0.019455 0.002327 0.000109 -0.007273
# 4 0.003168 -0.010208 0.002327 0.038431 0.000852 0.003493
# 5 0.001538 -0.001224 0.000109 0.000852 0.032604 0.000057
# 6 0.006314 -0.007073 -0.007273 0.003493 0.000057 0.027964
#
#
# Mechanical properties :
#
#
# Convention : Reuss Voigt Hill
#
# Bulk Modulus (GPa) = 39.30504 49.58776 44.44640
# Shear Modulus (GPa) = 28.52818 35.67266 32.10042
#
# Velocity S-wave (km/s) = 3.54957 3.96923 3.76525
# Velocity P-wave (km/s) = 5.84450 6.55032 6.20745
#
# Compressibility (1/GPa) = 0.02544203
#
# Stress axis : x y z
#
# Youngs Moduli (GPa) = 91.02865 61.83154 51.40038
#
# Poissons Ratio (x) = 0.32324 0.24314
# Poissons Ratio (y) = 0.47587 0.03226
# Poissons Ratio (z) = 0.43060 0.03881
#
# Static dielectric constant tensor:
#      x y z
#    x 1.877660 -0.033760 0.028700 
#    y -0.033760 1.920150 -0.042110 
#    z 0.028700 -0.042110 1.809640 
# 
# From -- ./inp_files/157929.got.cif
#   From: 2010.05.17/outbox.cif.g08.bks.cpg/sg2_79_cif.got.tgz:157929.got - 2010.06.03 11:33:40.
