data_PCOD9027287
_publ_section_title
;
Structure prediction by ZEFSAII (Michael W. Deem and Ramdas Pophale) SiO2 
 PCOD9027287
Probable space group: P -1
;
_chemical_formula_sum "Si O2"
_cell_formula_units_Z 16
_cell_length_a 28.562910
_cell_length_b 8.794331
_cell_length_c 12.581745
_cell_angle_alpha 145.640798
_cell_angle_beta 28.743848
_cell_angle_gamma 153.097490
_cell_volume 673.722549
_symmetry_space_group_name_H-M "P -1"
_symmetry_group_IT_number 2
_symmetry_cell_setting 'triclinic'
loop_
_space_group_symop_operation_xyz
x,y,z
-x,-y,-z
loop_
_atom_site_type_symbol
_atom_site_label
_atom_site_fract_x
_atom_site_fract_y
_atom_site_fract_z
Si Si1 0.973179 0.253877 0.159213
Si Si2 0.085307 0.986352 0.406974
Si Si3 0.711530 0.878785 0.532786
Si Si4 0.723249 0.794486 0.993546
Si Si5 0.506122 0.742196 0.717404
Si Si6 0.896505 0.875876 0.879361
Si Si7 0.632915 0.146361 0.274714
Si Si8 0.658008 0.095910 0.963284
O O1 0.075097 0.648610 0.211092
O O2 0.855090 0.182286 0.410422
O O3 0.938157 0.151162 0.047168
O O4 0.000000 0.000000 0.000000
O O5 0.021239 0.952337 0.626536
O O6 0.000000 0.000000 0.500000
O O7 0.225955 0.271612 0.251274
O O8 0.635318 0.922393 0.624632
O O9 0.696191 0.536989 0.345501
O O10 0.667727 0.866319 0.731030
O O11 0.594652 0.469764 0.110357
O O12 0.699634 0.069814 0.181455
O O13 0.824883 0.910957 0.949065
O O14 0.500000 0.500000 0.500000
O O15 0.456714 0.919949 0.858558
O O16 0.789137 0.486350 0.911758
O O17 0.500000 0.000000 0.500000
O O18 0.632334 0.986123 0.072532
#
# Coordination Sequence:
#
# PCOD9027287 Si02
#       8
#     2   2   2   2   2   2   2   2
#     4  12  25  42  71 102 132 177 232 277 333 408
#     4  10  23  43  67  96 137 170 223 282 335 391
#     4  12  23  41  69  99 130 175 227 270 331 406
#     4  10  22  41  67  94 133 174 211 273 340 391
#     4  11  20  43  70  97 129 179 218 269 329 401
#     4  10  22  45  70  93 131 175 223 274 337 399
#     4  12  23  42  62  94 140 167 216 280 333 391
#     4  11  23  40  69  98 128 175 223 275 329 399
#
# _framework density 23.748650000000001
#
# number of rings (size 3 to 8) (size 9 to 14) (size 15 to 20)
#    0.000    1.000    5.000    1.875    0.000    4.000 
#    0.000    2.500    0.000    0.000    0.000    0.000 
#    0.000    0.000    0.000    0.000    0.000    0.000 
#
# Total GULP energy -89449.987009 kJ/mol
# GULP energy per Si atom -5590.624188 kJ/mol
# Density = 2.369460 g / cm^3
# Si number density = 23.748650 Si / 1000 Ang^3
#
#
#
# Elastic Constant Matrix: (Units=GPa)
#
#
# Indices 1 2 3 4 5 6 
#
# 1 72.0640 15.1351 42.7023 -4.3253 3.1125 -6.3229
# 2 15.1351 24.3569 -1.7496 -6.5869 -11.8740 -5.5677
# 3 42.7023 -1.7496 121.6814 -9.7338 0.2934 4.4297
# 4 -4.3253 -6.5869 -9.7338 43.2751 5.3273 0.2062
# 5 3.1125 -11.8740 0.2934 5.3273 41.3880 7.6294
# 6 -6.3229 -5.5677 4.4297 0.2062 7.6294 21.3876
#
#
#
# Elastic Compliance Matrix: (Units=1/GPa)
#
#
# Indices 1 2 3 4 5 6 
#
# 1 0.023933 -0.018232 -0.009016 -0.001449 -0.008088 0.007096
# 2 -0.018232 0.064627 0.007765 0.007493 0.018298 0.003226
# 3 -0.009016 0.007765 0.011847 0.002562 0.003284 -0.004294
# 4 -0.001449 0.007493 0.002562 0.024818 -0.001170 0.001170
# 5 -0.008088 0.018298 0.003284 -0.001170 0.031932 -0.009688
# 6 0.007096 0.003226 -0.004294 0.001170 -0.009688 0.054027
#
#
# Mechanical properties :
#
#
# Convention : Reuss Voigt Hill
#
# Bulk Modulus (GPa) = 16.27544 36.69755 26.48650
# Shear Modulus (GPa) = 18.47528 32.01110 25.24319
#
# Velocity S-wave (km/s) = 2.79220 3.67538 3.26380
# Velocity P-wave (km/s) = 4.15491 5.78768 5.03788
#
# Compressibility (1/GPa) = 0.06144227
#
# Stress axis : x y z
#
# Youngs Moduli (GPa) = 41.78310 15.47334 84.40851
#
# Poissons Ratio (x) = 0.28211 0.76102
# Poissons Ratio (y) = 0.76180 -0.65547
# Poissons Ratio (z) = 0.37671 -0.12016
#
# Static dielectric constant tensor:
#      x y z
#    x 3.953220 -3.123070 0.544620 
#    y -3.123070 6.787960 -0.836560 
#    z 0.544620 -0.836560 2.027600 
# 
# From -- ./inp_files/398571.got.cif
#   From: 2010.05.17/outbox.cif.g08.bks.cpg/sg2_200_cif.got.tgz:398571.got - 2010.06.03 11:33:40.
