data_PCOD9027418
_publ_section_title
;
Structure prediction by ZEFSAII (Michael W. Deem and Ramdas Pophale) SiO2 
 PCOD9027418
Probable space group: P -1
;
_chemical_formula_sum "Si O2"
_cell_formula_units_Z 13
_cell_length_a 15.438930
_cell_length_b 11.724558
_cell_length_c 6.143916
_cell_angle_alpha 56.314417
_cell_angle_beta 59.030892
_cell_angle_gamma 37.457902
_cell_volume 556.710334
_symmetry_space_group_name_H-M "P -1"
_symmetry_group_IT_number 2
_symmetry_cell_setting 'triclinic'
loop_
_space_group_symop_operation_xyz
x,y,z
-x,-y,-z
loop_
_atom_site_type_symbol
_atom_site_label
_atom_site_fract_x
_atom_site_fract_y
_atom_site_fract_z
Si Si1 0.073440 0.634051 0.419276
Si Si2 0.533538 0.294891 0.809347
Si Si3 0.681520 0.275211 0.258616
Si Si4 0.829732 0.660831 0.743674
Si Si5 0.342214 0.317593 0.696374
Si Si6 0.000000 0.000000 0.000000
Si Si7 0.384176 0.949620 0.651368
O O1 0.115934 0.531053 0.237060
O O2 0.214253 0.505903 0.521899
O O3 0.964395 0.625566 0.666157
O O4 0.991035 0.855765 0.273354
O O5 0.661017 0.247400 0.565685
O O6 0.444065 0.490709 0.858334
O O7 0.421097 0.349151 0.718332
O O8 0.589156 0.113212 0.067049
O O9 0.832861 0.193029 0.087385
O O10 0.656748 0.160814 0.275486
O O11 0.740526 0.827435 0.495914
O O12 0.727678 0.727255 0.007517
O O13 0.467551 0.148034 0.551314
#
# Coordination Sequence:
#
# PCOD9027418 Si02
#       7
#     2   2   2   2   2   1   2
#     4  11  26  45  68  96 143 174 222 281 338 401
#     4  10  23  43  66 104 135 178 227 276 342 395
#     4  10  22  41  67  99 139 177 224 280 335 404
#     4  11  24  46  66 103 133 182 220 278 338 403
#     4  11  23  42  71  99 134 178 223 282 331 404
#     4  12  22  46  70 100 132 178 226 276 340 396
#     4  11  22  42  71  97 134 176 228 280 328 404
#
# _framework density 23.351461
#
# number of rings (size 3 to 8) (size 9 to 14) (size 15 to 20)
#    0.000    1.231    1.538    4.154    0.000    7.385 
#    5.538    2.308    0.000    0.000    0.000    0.000 
#    0.000    0.000    0.000    0.000    0.000    0.000 
#
# Total GULP energy -72540.654342 kJ/mol
# GULP energy per Si atom -5580.050334 kJ/mol
# Density = 2.329831 g / cm^3
# Si number density = 23.351461 Si / 1000 Ang^3
#
#
#
# Elastic Constant Matrix: (Units=GPa)
#
#
# Indices 1 2 3 4 5 6 
#
# 1 61.0463 14.4523 10.6314 8.4226 -2.8568 -5.5418
# 2 14.4523 58.1046 14.9953 -9.8836 1.2890 -5.2196
# 3 10.6314 14.9953 96.3073 11.1019 -15.0824 -14.4377
# 4 8.4226 -9.8836 11.1019 52.1249 -15.5866 -16.9153
# 5 -2.8568 1.2890 -15.0824 -15.5866 27.0777 3.2960
# 6 -5.5418 -5.2196 -14.4377 -16.9153 3.2960 36.0301
#
#
#
# Elastic Compliance Matrix: (Units=1/GPa)
#
#
# Indices 1 2 3 4 5 6 
#
# 1 0.018212 -0.004951 -0.000887 -0.003873 -0.000562 -0.000038
# 2 -0.004951 0.020691 -0.002761 0.006810 0.000352 0.004295
# 3 -0.000887 -0.002761 0.012525 0.000239 0.006667 0.003985
# 4 -0.003873 0.006810 0.000239 0.029769 0.014942 0.013095
# 5 -0.000562 0.000352 0.006667 0.014942 0.048535 0.005211
# 6 -0.000038 0.004295 0.003985 0.013095 0.005211 0.035639
#
#
# Mechanical properties :
#
#
# Convention : Reuss Voigt Hill
#
# Bulk Modulus (GPa) = 29.21376 32.84624 31.03000
# Shear Modulus (GPa) = 25.77613 34.73850 30.25731
#
# Velocity S-wave (km/s) = 3.32600 3.86117 3.60354
# Velocity P-wave (km/s) = 5.22373 5.82879 5.53453
#
# Compressibility (1/GPa) = 0.03423044
#
# Stress axis : x y z
#
# Youngs Moduli (GPa) = 54.90842 48.33080 79.83925
#
# Poissons Ratio (x) = 0.23928 0.07080
# Poissons Ratio (y) = 0.27184 0.22045
# Poissons Ratio (z) = 0.04869 0.13345
#
# Static dielectric constant tensor:
#      x y z
#    x 1.917800 0.038120 0.007750 
#    y 0.038120 1.848000 0.011600 
#    z 0.007750 0.011600 1.862860 
# 
# From -- ./inp_files/93115.got.cif
#   From: 2010.05.17/outbox.cif.g08.bks.cpg/sg2_47_cif.got.tgz:93115.got - 2010.06.03 11:33:40.
