data_PCOD9027642
_publ_section_title
;
Structure prediction by ZEFSAII (Michael W. Deem and Ramdas Pophale) SiO2 
 PCOD9027642
Probable space group: P -1
;
_chemical_formula_sum "Si O2"
_cell_formula_units_Z 12
_cell_length_a 5.483853
_cell_length_b 13.563758
_cell_length_c 8.986162
_cell_angle_alpha 117.632646
_cell_angle_beta 54.730997
_cell_angle_gamma 99.236380
_cell_volume 478.125752
_symmetry_space_group_name_H-M "P -1"
_symmetry_group_IT_number 2
_symmetry_cell_setting 'triclinic'
loop_
_space_group_symop_operation_xyz
x,y,z
-x,-y,-z
loop_
_atom_site_type_symbol
_atom_site_label
_atom_site_fract_x
_atom_site_fract_y
_atom_site_fract_z
Si Si1 0.520121 0.873330 0.343791
Si Si2 0.203986 0.569772 0.079488
Si Si3 0.765009 0.165370 0.289833
Si Si4 0.609181 0.934900 0.063109
Si Si5 0.140029 0.499264 0.613097
Si Si6 0.135816 0.717476 0.938911
O O1 0.371972 0.805997 0.478853
O O2 0.394365 0.888008 0.228213
O O3 0.500000 0.000000 0.500000
O O4 0.859661 0.810961 0.152802
O O5 0.977347 0.599591 0.318989
O O6 0.500000 0.500000 0.000000
O O7 0.283443 0.661371 0.998066
O O8 0.000000 0.500000 0.000000
O O9 0.659408 0.233068 0.223548
O O10 0.725307 0.036311 0.184092
O O11 0.124615 0.160772 0.150529
O O12 0.500000 0.000000 0.000000
O O13 0.500000 0.500000 0.500000
O O14 0.014668 0.617297 0.820217
O O15 0.000000 0.500000 0.500000
#
# Coordination Sequence:
#
# PCOD9027642 Si02
#       6
#     2   2   2   2   2   2
#     4   9  19  39  66  94 137 180 223 278 344 420
#     4  10  22  45  70 101 142 181 232 300 358 420
#     4   9  19  38  61  88 131 172 225 275 339 413
#     4   9  18  36  59  90 130 173 222 283 330 401
#     4  11  24  45  72 101 137 183 235 295 361 421
#     4  10  22  41  68  98 134 182 232 293 352 424
#
# _framework density 25.097999999999999
#
# number of rings (size 3 to 8) (size 9 to 14) (size 15 to 20)
#    0.000    2.333    0.000    3.000    2.333    0.667 
#   18.000    0.000    0.000    0.000    0.000    0.000 
#    0.000    0.000    0.000    0.000    0.000    0.000 
#
# Total GULP energy -66838.191058 kJ/mol
# GULP energy per Si atom -5569.849255 kJ/mol
# Density = 2.504088 g / cm^3
# Si number density = 25.098000 Si / 1000 Ang^3
#
#
#
# Elastic Constant Matrix: (Units=GPa)
#
#
# Indices 1 2 3 4 5 6 
#
# 1 124.5443 51.5511 58.0988 -17.0841 7.9789 -27.8085
# 2 51.5511 166.0760 83.3209 -58.9403 12.4636 -38.0191
# 3 58.0988 83.3209 153.9629 -53.9408 5.4388 -25.6561
# 4 -17.0841 -58.9403 -53.9408 88.5368 -7.2453 22.8246
# 5 7.9789 12.4636 5.4388 -7.2453 28.1558 -2.1392
# 6 -27.8085 -38.0191 -25.6561 22.8246 -2.1392 52.8449
#
#
#
# Elastic Compliance Matrix: (Units=1/GPa)
#
#
# Indices 1 2 3 4 5 6 
#
# 1 0.010887 -0.001367 -0.003355 -0.002030 -0.002057 0.003910
# 2 -0.001367 0.010256 -0.003116 0.003567 -0.002366 0.003510
# 3 -0.003355 -0.003116 0.010741 0.004052 0.001261 -0.000492
# 4 -0.002030 0.003567 0.004052 0.016897 0.002277 -0.003741
# 5 -0.002057 -0.002366 0.001261 0.002277 0.037365 -0.001644
# 6 0.003910 0.003510 -0.000492 -0.003741 -0.001644 0.024816
#
#
# Mechanical properties :
#
#
# Convention : Reuss Voigt Hill
#
# Bulk Modulus (GPa) = 61.70485 92.28053 76.99269
# Shear Modulus (GPa) = 37.86712 50.68166 44.27439
#
# Velocity S-wave (km/s) = 3.88850 4.49859 4.20463
# Velocity P-wave (km/s) = 6.69325 7.98943 7.36989
#
# Compressibility (1/GPa) = 0.01620618
#
# Stress axis : x y z
#
# Youngs Moduli (GPa) = 91.85568 97.50304 93.10324
#
# Poissons Ratio (x) = 0.13326 0.31240
# Poissons Ratio (y) = 0.12555 0.29016
# Poissons Ratio (z) = 0.30821 0.30387
#
# Static dielectric constant tensor:
#      x y z
#    x 2.059750 -0.034930 0.001580 
#    y -0.034930 2.202830 -0.093110 
#    z 0.001580 -0.093110 2.026320 
# 
# From -- ./inp_files/134549.got.cif
#   From: 2010.05.17/outbox.cif.g08.bks.cpg/sg2_68_cif.got.tgz:134549.got - 2010.06.03 11:33:40.
