data_PCOD9027206
_publ_section_title
;
Structure prediction by ZEFSAII (Michael W. Deem and Ramdas Pophale) SiO2 
 PCOD9027206
Probable space group: P -1
;
_chemical_formula_sum "Si O2"
_cell_formula_units_Z 16
_cell_length_a 15.652114
_cell_length_b 7.266809
_cell_length_c 15.919282
_cell_angle_alpha 54.184498
_cell_angle_beta 153.147970
_cell_angle_gamma 130.478002
_cell_volume 622.013743
_symmetry_space_group_name_H-M "P -1"
_symmetry_group_IT_number 2
_symmetry_cell_setting 'triclinic'
loop_
_space_group_symop_operation_xyz
x,y,z
-x,-y,-z
loop_
_atom_site_type_symbol
_atom_site_label
_atom_site_fract_x
_atom_site_fract_y
_atom_site_fract_z
Si Si1 0.750828 0.411186 0.516280
Si Si2 0.820482 0.258750 0.432620
Si Si3 0.326022 0.753642 0.326081
Si Si4 0.598724 0.919944 0.964692
Si Si5 0.962133 0.069556 0.354818
Si Si6 0.824378 0.880854 0.012476
Si Si7 0.650371 0.472610 0.848909
Si Si8 0.756465 0.732057 0.694457
O O1 0.691191 0.231541 0.592363
O O2 0.570135 0.520145 0.326257
O O3 0.952196 0.640732 0.648351
O O4 0.204272 0.359900 0.999176
O O5 0.000000 0.500000 0.500000
O O6 0.638732 0.213948 0.218247
O O7 0.901524 0.035915 0.556221
O O8 0.756821 0.297491 0.460840
O O9 0.547916 0.774803 0.481414
O O10 0.204172 0.470485 0.275249
O O11 0.251432 0.943393 0.160863
O O12 0.641551 0.201345 0.907579
O O13 0.729872 0.935785 0.159075
O O14 0.697346 0.820591 0.002086
O O15 0.000000 0.000000 0.500000
O O16 0.051254 0.031053 0.194673
O O17 0.720204 0.606380 0.787012
#
# Coordination Sequence:
#
# PCOD9027206 Si02
#       8
#     2   2   2   2   2   2   2   2
#     4  11  24  49  75 114 155 201 258 313 380 453
#     4  12  27  55  81 112 150 193 260 325 391 463
#     4  10  23  43  72 107 158 209 249 307 365 445
#     4  12  28  49  80 113 153 201 253 321 384 463
#     4  12  28  53  81 111 146 196 253 327 400 457
#     4  12  24  45  71 112 158 203 258 302 368 454
#     4  11  24  46  71 109 160 203 256 304 367 457
#     4  10  22  41  67 105 154 210 253 302 361 433
#
# _framework density 25.722905000000001
#
# number of rings (size 3 to 8) (size 9 to 14) (size 15 to 20)
#    0.000    0.750    5.000    1.500    1.750    5.000 
#    6.750    0.000    0.000    0.000    0.000    0.000 
#    0.000    0.000    0.000    0.000    0.000    0.000 
#
# Total GULP energy -89829.404314 kJ/mol
# GULP energy per Si atom -5614.337770 kJ/mol
# Density = 2.566436 g / cm^3
# Si number density = 25.722905 Si / 1000 Ang^3
#
#
#
# Elastic Constant Matrix: (Units=GPa)
#
#
# Indices 1 2 3 4 5 6 
#
# 1 84.6091 12.6317 20.3760 -2.0352 -21.2510 -17.8769
# 2 12.6317 102.4713 37.4665 35.8052 -10.4161 -8.3061
# 3 20.3760 37.4665 147.2289 22.3810 -16.9197 4.8381
# 4 -2.0352 35.8052 22.3810 52.2977 -3.8154 -0.0403
# 5 -21.2510 -10.4161 -16.9197 -3.8154 34.5609 0.7005
# 6 -17.8769 -8.3061 4.8381 -0.0403 0.7005 43.3626
#
#
#
# Elastic Compliance Matrix: (Units=1/GPa)
#
#
# Indices 1 2 3 4 5 6 
#
# 1 0.016002 -0.000850 -0.001566 0.002534 0.008965 0.006466
# 2 -0.000850 0.013992 -0.002019 -0.008622 0.001703 0.002520
# 3 -0.001566 -0.002019 0.008150 -0.002004 0.002237 -0.001980
# 4 0.002534 -0.008622 -0.002004 0.026043 0.000861 -0.000373
# 5 0.008965 0.001703 0.002237 0.000861 0.036086 0.003191
# 6 0.006466 0.002520 -0.001980 -0.000373 0.003191 0.026379
#
#
# Mechanical properties :
#
#
# Convention : Reuss Voigt Hill
#
# Bulk Modulus (GPa) = 34.16064 52.80643 43.48353
# Shear Modulus (GPa) = 34.41635 43.63325 39.02480
#
# Velocity S-wave (km/s) = 3.66179 4.12306 3.89925
# Velocity P-wave (km/s) = 5.58456 6.57569 6.10029
#
# Compressibility (1/GPa) = 0.02927346
#
# Stress axis : x y z
#
# Youngs Moduli (GPa) = 62.49191 71.46923 122.70589
#
# Poissons Ratio (x) = 0.06075 0.19212
# Poissons Ratio (y) = 0.05312 0.24780
# Poissons Ratio (z) = 0.09784 0.14433
#
# Static dielectric constant tensor:
#      x y z
#    x 1.998320 -0.007880 0.004730 
#    y -0.007880 2.003310 0.023150 
#    z 0.004730 0.023150 2.065920 
# 
# From -- ./inp_files/601283.got.cif
#   From: 2010.05.17/outbox.cif.g08.bks.cpg/sg2_301_cif.got.tgz:601283.got - 2010.06.03 11:33:40.
