data_PCOD9027628
_publ_section_title
;
Structure prediction by ZEFSAII (Michael W. Deem and Ramdas Pophale) SiO2 
 PCOD9027628
Probable space group: P -1
;
_chemical_formula_sum "Si O2"
_cell_formula_units_Z 16
_cell_length_a 16.026541
_cell_length_b 11.611915
_cell_length_c 8.300398
_cell_angle_alpha 126.374824
_cell_angle_beta 50.824446
_cell_angle_gamma 143.810811
_cell_volume 695.260028
_symmetry_space_group_name_H-M "P -1"
_symmetry_group_IT_number 2
_symmetry_cell_setting 'triclinic'
loop_
_space_group_symop_operation_xyz
x,y,z
-x,-y,-z
loop_
_atom_site_type_symbol
_atom_site_label
_atom_site_fract_x
_atom_site_fract_y
_atom_site_fract_z
Si Si1 0.871756 0.174413 0.993227
Si Si2 0.514566 0.267344 0.172026
Si Si3 0.057792 0.893485 0.816661
Si Si4 0.805541 0.604034 0.263387
Si Si5 0.847828 0.444395 0.665364
Si Si6 0.315624 0.720041 0.607771
Si Si7 0.801662 0.926102 0.551663
Si Si8 0.436808 0.939563 0.235424
O O1 0.051482 0.360443 0.925371
O O2 0.843042 0.059586 0.768107
O O3 0.850217 0.073409 0.108990
O O4 0.777860 0.233614 0.162142
O O5 0.674956 0.481682 0.187751
O O6 0.378301 0.243522 0.358644
O O7 0.496233 0.112768 0.181487
O O8 0.504018 0.170635 0.937633
O O9 0.910379 0.658939 0.796008
O O10 0.142724 0.963837 0.598749
O O11 0.000000 0.000000 0.000000
O O12 0.730634 0.466173 0.397162
O O13 0.857041 0.813849 0.401592
O O14 0.745270 0.348567 0.553258
O O15 0.737285 0.249065 0.749101
O O16 0.000000 0.500000 0.500000
O O17 0.490093 0.915509 0.580106
#
# Coordination Sequence:
#
# PCOD9027628 Si02
#       8
#     2   2   2   2   2   2   2   2
#     4  12  24  46  71 104 141 184 231 288 346 410
#     4  10  22  41  68  97 134 187 231 280 354 407
#     4  12  27  45  70 105 141 184 230 288 350 411
#     4  11  24  41  69 100 138 181 231 286 339 414
#     4  12  24  42  70 100 138 183 232 290 345 406
#     4  11  24  43  68 106 140 180 236 284 350 414
#     4  12  25  46  71  99 146 183 231 287 347 416
#     4  10  22  42  66  99 140 181 230 290 344 412
#
# _framework density 23.012972999999999
#
# number of rings (size 3 to 8) (size 9 to 14) (size 15 to 20)
#    0.000    0.750    3.750    3.750    1.750    0.000 
#    0.000    0.000    0.000    3.000    0.000    0.000 
#    0.000    0.000    0.000    0.000    0.000    0.000 
#
# Total GULP energy -89237.213564 kJ/mol
# GULP energy per Si atom -5577.325848 kJ/mol
# Density = 2.296059 g / cm^3
# Si number density = 23.012973 Si / 1000 Ang^3
#
#
#
# Elastic Constant Matrix: (Units=GPa)
#
#
# Indices 1 2 3 4 5 6 
#
# 1 51.4674 13.4698 19.4254 0.6594 12.1232 -1.0791
# 2 13.4698 123.6456 40.7642 1.3418 5.1118 13.1686
# 3 19.4254 40.7642 87.8123 4.2644 13.1731 -6.8332
# 4 0.6594 1.3418 4.2644 39.5159 5.9732 -3.1826
# 5 12.1232 5.1118 13.1731 5.9732 45.4531 -2.2302
# 6 -1.0791 13.1686 -6.8332 -3.1826 -2.2302 48.3523
#
#
#
# Elastic Compliance Matrix: (Units=1/GPa)
#
#
# Indices 1 2 3 4 5 6 
#
# 1 0.022241 -0.000997 -0.003766 0.000805 -0.004831 0.000066
# 2 -0.000997 0.010133 -0.004800 -0.000143 0.000367 -0.003453
# 3 -0.003766 -0.004800 0.015122 -0.000759 -0.002582 0.003191
# 4 0.000805 -0.000143 -0.000759 0.026003 -0.003322 0.001508
# 5 -0.004831 0.000367 -0.002582 -0.003322 0.024449 0.000336
# 6 0.000066 -0.003453 0.003191 0.001508 0.000336 0.022189
#
#
# Mechanical properties :
#
#
# Convention : Reuss Voigt Hill
#
# Bulk Modulus (GPa) = 35.25011 45.58266 40.41639
# Shear Modulus (GPa) = 33.61992 39.28199 36.45095
#
# Velocity S-wave (km/s) = 3.82633 4.13601 3.98418
# Velocity P-wave (km/s) = 5.90524 6.53139 6.22619
#
# Compressibility (1/GPa) = 0.02836871
#
# Stress axis : x y z
#
# Youngs Moduli (GPa) = 44.96133 98.68848 66.12924
#
# Poissons Ratio (x) = 0.09841 0.24907
# Poissons Ratio (y) = 0.04484 0.31743
# Poissons Ratio (z) = 0.16934 0.47371
#
# Static dielectric constant tensor:
#      x y z
#    x 1.624860 0.581320 0.002770 
#    y 0.581320 0.717500 0.107300 
#    z 0.002770 0.107300 2.057860 
# 
# From -- ./inp_files/333704.got.cif
#   From: 2010.05.17/outbox.cif.g08.bks.cpg/sg2_167_cif.got.tgz:333704.got - 2010.06.03 11:33:40.
