data_PCOD9027315
_publ_section_title
;
Structure prediction by ZEFSAII (Michael W. Deem and Ramdas Pophale) SiO2 
 PCOD9027315
Probable space group: P -1
;
_chemical_formula_sum "Si O2"
_cell_formula_units_Z 16
_cell_length_a 12.417856
_cell_length_b 8.374515
_cell_length_c 11.621796
_cell_angle_alpha 130.596722
_cell_angle_beta 59.317536
_cell_angle_gamma 122.002633
_cell_volume 752.107752
_symmetry_space_group_name_H-M "P -1"
_symmetry_group_IT_number 2
_symmetry_cell_setting 'triclinic'
loop_
_space_group_symop_operation_xyz
x,y,z
-x,-y,-z
loop_
_atom_site_type_symbol
_atom_site_label
_atom_site_fract_x
_atom_site_fract_y
_atom_site_fract_z
Si Si1 0.845639 0.622337 0.621015
Si Si2 0.272748 0.998856 0.233088
Si Si3 0.513620 0.756096 0.604743
Si Si4 0.148555 0.539870 0.986999
Si Si5 0.967856 0.743962 0.862731
Si Si6 0.745366 0.201546 0.338498
Si Si7 0.726710 0.811884 0.318895
Si Si8 0.921573 0.117894 0.517161
O O1 0.775745 0.797187 0.690190
O O2 0.889372 0.686086 0.757650
O O3 0.761510 0.371799 0.518431
O O4 0.979396 0.671399 0.495699
O O5 0.417671 0.110121 0.257136
O O6 0.228177 0.798748 0.074076
O O7 0.194232 0.877670 0.333070
O O8 0.500000 0.500000 0.500000
O O9 0.373081 0.780087 0.665471
O O10 0.611138 0.822254 0.472545
O O11 0.115741 0.413761 0.067934
O O12 0.245700 0.420522 0.818021
O O13 0.000000 0.500000 0.000000
O O14 0.114435 0.722688 0.764298
O O15 0.000000 0.000000 0.000000
O O16 0.714572 0.948996 0.277346
O O17 0.862168 0.959706 0.370531
O O18 0.000000 0.000000 0.500000
#
# Coordination Sequence:
#
# PCOD9027315 Si02
#       8
#     2   2   2   2   2   2   2   2
#     4  11  21  39  65  99 132 168 221 279 333 391
#     4  10  22  41  67  95 132 176 223 272 325 394
#     4  11  25  47  69  96 126 179 241 268 315 387
#     4  12  25  43  68 101 139 175 212 274 348 399
#     4  12  24  41  66 104 141 168 212 273 353 404
#     4  12  24  42  69  97 134 174 218 279 327 390
#     4  11  24  43  63  95 134 173 220 272 330 393
#     4   9  17  34  61  94 126 164 214 271 324 380
#
# _framework density 21.273548000000002
#
# number of rings (size 3 to 8) (size 9 to 14) (size 15 to 20)
#    0.000    1.000    3.750    3.750    5.250    0.000 
#    0.000    2.500    0.000    0.000    0.000    0.000 
#    0.000    0.000    0.000    0.000    0.000    0.000 
#
# Total GULP energy -89292.624012 kJ/mol
# GULP energy per Si atom -5580.789001 kJ/mol
# Density = 2.122513 g / cm^3
# Si number density = 21.273548 Si / 1000 Ang^3
#
#
#
# Elastic Constant Matrix: (Units=GPa)
#
#
# Indices 1 2 3 4 5 6 
#
# 1 157.6228 13.6622 43.4768 17.7194 9.8678 5.9825
# 2 13.6622 53.1584 9.4569 17.8360 3.7817 -1.0203
# 3 43.4768 9.4569 70.4532 34.5652 -4.5948 2.6255
# 4 17.7194 17.8360 34.5652 49.7821 0.4218 7.1138
# 5 9.8678 3.7817 -4.5948 0.4218 24.1769 2.7637
# 6 5.9825 -1.0203 2.6255 7.1138 2.7637 31.1444
#
#
#
# Elastic Compliance Matrix: (Units=1/GPa)
#
#
# Indices 1 2 3 4 5 6 
#
# 1 0.008236 -0.001437 -0.006119 0.002040 -0.004197 -0.001207
# 2 -0.001437 0.022198 0.002243 -0.009435 -0.002661 0.003205
# 3 -0.006119 0.002243 0.026655 -0.017532 0.007248 0.002363
# 4 0.002040 -0.009435 -0.017532 0.035967 -0.002491 -0.007217
# 5 -0.004197 -0.002661 0.007248 -0.002491 0.045294 -0.003342
# 6 -0.001207 0.003205 0.002363 -0.007217 -0.003342 0.034191
#
#
# Mechanical properties :
#
#
# Convention : Reuss Voigt Hill
#
# Bulk Modulus (GPa) = 21.52278 46.04734 33.78506
# Shear Modulus (GPa) = 25.16913 35.32992 30.24953
#
# Velocity S-wave (km/s) = 3.44338 4.07964 3.77494
# Velocity P-wave (km/s) = 5.09395 6.62448 5.90897
#
# Compressibility (1/GPa) = 0.04646239
#
# Stress axis : x y z
#
# Youngs Moduli (GPa) = 121.41984 45.04823 37.51648
#
# Poissons Ratio (x) = 0.06474 0.22957
# Poissons Ratio (y) = 0.17450 -0.08415
# Poissons Ratio (z) = 0.74299 -0.10104
#
# Static dielectric constant tensor:
#      x y z
#    x 1.759940 0.017390 0.009660 
#    y 0.017390 1.783950 -0.016250 
#    z 0.009660 -0.016250 1.859080 
# 
# From -- ./inp_files/405160.got.cif
#   From: 2010.05.17/outbox.cif.g08.bks.cpg/sg2_203_cif.got.tgz:405160.got - 2010.06.03 11:33:40.
