data_PCOD9027228
_publ_section_title
;
Structure prediction by ZEFSAII (Michael W. Deem and Ramdas Pophale) SiO2 
 PCOD9027228
Probable space group: P -1
;
_chemical_formula_sum "Si O2"
_cell_formula_units_Z 14
_cell_length_a 7.754393
_cell_length_b 9.684796
_cell_length_c 9.636443
_cell_angle_alpha 126.046885
_cell_angle_beta 57.626115
_cell_angle_gamma 108.317508
_cell_volume 494.186276
_symmetry_space_group_name_H-M "P -1"
_symmetry_group_IT_number 2
_symmetry_cell_setting 'triclinic'
loop_
_space_group_symop_operation_xyz
x,y,z
-x,-y,-z
loop_
_atom_site_type_symbol
_atom_site_label
_atom_site_fract_x
_atom_site_fract_y
_atom_site_fract_z
Si Si1 0.151933 0.880703 0.518505
Si Si2 0.288551 0.493315 0.901196
Si Si3 0.252100 0.319787 0.528496
Si Si4 0.879954 0.166418 0.937850
Si Si5 0.288777 0.327630 0.099990
Si Si6 0.550033 0.012331 0.799175
Si Si7 0.153649 0.677896 0.657200
O O1 0.312782 0.928220 0.358959
O O2 0.243858 0.764746 0.533001
O O3 0.039174 0.220482 0.529140
O O4 0.059961 0.046406 0.733301
O O5 0.282142 0.362643 0.701256
O O6 0.139784 0.649817 0.019092
O O7 0.512801 0.576520 0.871328
O O8 0.241372 0.408418 0.018467
O O9 0.252258 0.502657 0.561976
O O10 0.432824 0.191766 0.331398
O O11 0.871240 0.200583 0.125199
O O12 0.679195 0.070739 0.911698
O O13 0.087205 0.350612 0.290354
O O14 0.352293 0.130427 0.942824
#
# Coordination Sequence:
#
# PCOD9027228 Si02
#       7
#     2   2   2   2   2   2   2
#     4  11  23  40  65  99 128 161 208 275 311 370
#     4   9  21  39  64  91 125 165 221 250 308 373
#     4  10  22  41  67  92 122 175 214 255 305 396
#     4   9  20  41  67  91 121 177 212 247 303 407
#     4  10  23  40  64  94 129 165 210 267 309 377
#     4  10  23  42  67  92 131 162 214 258 323 367
#     4  11  24  40  70  93 128 163 221 254 319 369
#
# _framework density 28.329401000000001
#
# number of rings (size 3 to 8) (size 9 to 14) (size 15 to 20)
#    0.000    2.000    0.000    2.571   12.000    1.714 
#    0.000    7.143    6.286    0.000    0.000    0.000 
#    0.000    0.000    0.000    0.000    0.000    0.000 
#
# Total GULP energy -78767.817791 kJ/mol
# GULP energy per Si atom -5626.272699 kJ/mol
# Density = 2.826492 g / cm^3
# Si number density = 28.329401 Si / 1000 Ang^3
#
#
#
# Elastic Constant Matrix: (Units=GPa)
#
#
# Indices 1 2 3 4 5 6 
#
# 1 116.5681 53.4288 55.9748 2.4987 -2.3120 -14.2683
# 2 53.4288 181.2393 63.3784 16.0356 -5.6417 -15.5028
# 3 55.9748 63.3784 176.3705 16.2139 21.3054 -7.7126
# 4 2.4987 16.0356 16.2139 62.2907 -8.5986 0.4798
# 5 -2.3120 -5.6417 21.3054 -8.5986 63.2912 4.4455
# 6 -14.2683 -15.5028 -7.7126 0.4798 4.4455 40.8451
#
#
#
# Elastic Compliance Matrix: (Units=1/GPa)
#
#
# Indices 1 2 3 4 5 6 
#
# 1 0.011268 -0.002140 -0.002935 0.001006 0.001175 0.002430
# 2 -0.002140 0.007029 -0.001783 -0.001149 0.000887 0.001501
# 3 -0.002935 -0.001783 0.007804 -0.001892 -0.003160 0.000138
# 4 0.001006 -0.001149 -0.001892 0.017220 0.002979 -0.000968
# 5 0.001175 0.000887 -0.003160 0.002979 0.017516 -0.001791
# 6 0.002430 0.001501 0.000138 -0.000968 -0.001791 0.026134
#
#
# Mechanical properties :
#
#
# Convention : Reuss Voigt Hill
#
# Bulk Modulus (GPa) = 80.74160 91.08242 85.91201
# Shear Modulus (GPa) = 47.70259 53.37847 50.54053
#
# Velocity S-wave (km/s) = 4.10793 4.34546 4.22836
# Velocity P-wave (km/s) = 7.14584 7.57617 7.36415
#
# Compressibility (1/GPa) = 0.01238519
#
# Stress axis : x y z
#
# Youngs Moduli (GPa) = 88.74481 142.25794 128.14311
#
# Poissons Ratio (x) = 0.30443 0.37615
# Poissons Ratio (y) = 0.18991 0.22845
# Poissons Ratio (z) = 0.26050 0.25362
#
# Static dielectric constant tensor:
#      x y z
#    x 2.229000 0.088380 0.015330 
#    y 0.088380 2.210470 -0.014930 
#    z 0.015330 -0.014930 2.151730 
# 
# From -- ./inp_files/172766.got.cif
#   From: 2010.05.17/outbox.cif.g08.bks.cpg/sg2_87_cif.got.tgz:172766.got - 2010.06.03 11:33:40.
