data_PCOD9027657
_publ_section_title
;
Structure prediction by ZEFSAII (Michael W. Deem and Ramdas Pophale) SiO2 
 PCOD9027657
Probable space group: P -1
;
_chemical_formula_sum "Si O2"
_cell_formula_units_Z 16
_cell_length_a 10.237594
_cell_length_b 18.702894
_cell_length_c 7.259836
_cell_angle_alpha 146.620490
_cell_angle_beta 119.219164
_cell_angle_gamma 60.581203
_cell_volume 657.289440
_symmetry_space_group_name_H-M "P -1"
_symmetry_group_IT_number 2
_symmetry_cell_setting 'triclinic'
loop_
_space_group_symop_operation_xyz
x,y,z
-x,-y,-z
loop_
_atom_site_type_symbol
_atom_site_label
_atom_site_fract_x
_atom_site_fract_y
_atom_site_fract_z
Si Si1 0.580773 0.968580 0.290548
Si Si2 0.802616 0.759953 0.195130
Si Si3 0.143636 0.678598 0.647014
Si Si4 0.344473 0.874766 0.640547
Si Si5 0.918457 0.922550 0.930737
Si Si6 0.329541 0.613611 0.260336
Si Si7 0.383794 0.472474 0.515279
Si Si8 0.047577 0.522125 0.788392
O O1 0.609402 0.096889 0.474767
O O2 0.500000 0.000000 0.500000
O O3 0.735941 0.868498 0.230563
O O4 0.474534 0.903292 0.936637
O O5 0.814309 0.835734 0.557429
O O6 0.695245 0.649306 0.866711
O O7 0.969074 0.673511 0.096034
O O8 0.244643 0.672361 0.518259
O O9 0.257717 0.603400 0.714798
O O10 0.020260 0.580114 0.349059
O O11 0.048410 0.823565 0.915011
O O12 0.317659 0.731349 0.363065
O O13 0.192917 0.978138 0.806365
O O14 0.000000 0.000000 0.000000
O O15 0.505397 0.563539 0.316010
O O16 0.226903 0.506821 0.903769
O O17 0.500000 0.500000 0.500000
O O18 0.000000 0.500000 0.500000
#
# Coordination Sequence:
#
# PCOD9027657 Si02
#       8
#     2   2   2   2   2   2   2   2
#     4  11  24  46  70 104 149 191 242 302 369 441
#     4  11  22  43  68  98 143 189 238 303 365 431
#     4  10  22  41  68  98 142 188 235 288 366 424
#     4  11  24  43  73 109 144 193 241 303 372 441
#     4  12  23  41  72 107 147 190 243 301 363 446
#     4  11  20  45  70 101 142 182 249 301 356 440
#     4   9  21  37  69  97 134 190 239 298 355 426
#     4  11  25  43  65 102 141 194 243 299 364 433
#
# _framework density 24.342395
#
# number of rings (size 3 to 8) (size 9 to 14) (size 15 to 20)
#    0.000    1.250    5.000    0.375    5.250    0.000 
#    4.500    3.750    0.000    0.000    0.000    0.000 
#    0.000    0.000    0.000    0.000    0.000    0.000 
#
# Total GULP energy -89535.396283 kJ/mol
# GULP energy per Si atom -5595.962268 kJ/mol
# Density = 2.428699 g / cm^3
# Si number density = 24.342395 Si / 1000 Ang^3
#
#
#
# Elastic Constant Matrix: (Units=GPa)
#
#
# Indices 1 2 3 4 5 6 
#
# 1 112.1173 70.1834 28.0878 -1.4517 16.4342 8.3595
# 2 70.1834 166.7540 59.6288 30.1626 0.3619 -15.3659
# 3 28.0878 59.6288 80.9616 -8.5755 13.6483 4.6157
# 4 -1.4517 30.1626 -8.5755 33.5126 4.1690 5.5793
# 5 16.4342 0.3619 13.6483 4.1690 36.1144 -4.6877
# 6 8.3595 -15.3659 4.6157 5.5793 -4.6877 57.8138
#
#
#
# Elastic Compliance Matrix: (Units=1/GPa)
#
#
# Indices 1 2 3 4 5 6 
#
# 1 0.024764 -0.024184 0.017652 0.033051 -0.023658 -0.016525
# 2 -0.024184 0.040483 -0.034189 -0.054493 0.033046 0.024924
# 3 0.017652 -0.034189 0.043613 0.050571 -0.032953 -0.022673
# 4 0.033051 -0.054493 0.050571 0.105829 -0.050706 -0.037624
# 5 -0.023658 0.033046 -0.032953 -0.050706 0.059620 0.024562
# 6 -0.016525 0.024924 -0.022673 -0.037624 0.024562 0.033744
#
#
# Mechanical properties :
#
#
# Convention : Reuss Voigt Hill
#
# Bulk Modulus (GPa) = 36.47605 75.07034 55.77319
# Shear Modulus (GPa) = 12.54284 38.95035 25.74659
#
# Velocity S-wave (km/s) = 2.27241 4.00447 3.25574
# Velocity P-wave (km/s) = 4.67998 7.23100 6.09055
#
# Compressibility (1/GPa) = 0.02741525
#
# Stress axis : x y z
#
# Youngs Moduli (GPa) = 40.38148 24.70183 22.92914
#
# Poissons Ratio (x) = 0.59739 -0.40474
# Poissons Ratio (y) = 0.97659 0.78393
# Poissons Ratio (z) = -0.71280 0.84454
#
# Static dielectric constant tensor:
#      x y z
#    x 1.970330 -0.064460 0.020320 
#    y -0.064460 2.015510 -0.101620 
#    z 0.020320 -0.101620 2.013510 
# 
# From -- ./inp_files/283528.got.cif
#   From: 2010.05.17/outbox.cif.g08.bks.cpg/sg2_142_cif.got.tgz:283528.got - 2010.06.03 11:33:40.
