data_PCOD9027746
_publ_section_title
;
Structure prediction by ZEFSAII (Michael W. Deem and Ramdas Pophale) SiO2 
 PCOD9027746
Probable space group: P -1
;
_chemical_formula_sum "Si O2"
_cell_formula_units_Z 14
_cell_length_a 7.440122
_cell_length_b 12.962269
_cell_length_c 9.928907
_cell_angle_alpha 59.570049
_cell_angle_beta 68.481734
_cell_angle_gamma 45.885415
_cell_volume 592.616916
_symmetry_space_group_name_H-M "P -1"
_symmetry_group_IT_number 2
_symmetry_cell_setting 'triclinic'
loop_
_space_group_symop_operation_xyz
x,y,z
-x,-y,-z
loop_
_atom_site_type_symbol
_atom_site_label
_atom_site_fract_x
_atom_site_fract_y
_atom_site_fract_z
Si Si1 0.738304 0.992632 0.453564
Si Si2 0.915336 0.079991 0.825397
Si Si3 0.929769 0.648756 0.302653
Si Si4 0.212402 0.127338 0.034144
Si Si5 0.574711 0.576275 0.323819
Si Si6 0.040227 0.291583 0.246048
Si Si7 0.683842 0.685985 0.612782
O O1 0.606348 0.168233 0.418740
O O2 0.863583 0.953728 0.300730
O O3 0.500000 0.000000 0.500000
O O4 0.918903 0.853849 0.598615
O O5 0.857804 0.977883 0.833496
O O6 0.674927 0.260628 0.769192
O O7 0.000000 0.000000 0.000000
O O8 0.742819 0.617667 0.317358
O O9 0.838635 0.697848 0.447996
O O10 0.211465 0.487516 0.324886
O O11 0.910048 0.771309 0.133978
O O12 0.137739 0.243944 0.099071
O O13 0.500000 0.000000 0.000000
O O14 0.500000 0.500000 0.500000
O O15 0.759171 0.447498 0.245894
O O16 0.218073 0.310660 0.270744
#
# Coordination Sequence:
#
# PCOD9027746 Si02
#       7
#     2   2   2   2   2   2   2
#     4  10  22  41  69  98 135 184 236 282 345 426
#     4  12  29  44  71 108 147 186 236 304 366 420
#     4  10  22  41  69 104 141 189 226 298 361 426
#     4  12  26  44  70 105 149 182 237 297 369 425
#     4  11  23  45  70 102 143 185 246 296 349 427
#     4  10  23  41  74 100 137 190 237 290 356 430
#     4   9  21  39  71 102 134 185 246 278 354 430
#
# _framework density 23.624030999999999
#
# number of rings (size 3 to 8) (size 9 to 14) (size 15 to 20)
#    0.000    1.429    2.857    0.857    8.000    6.286 
#    0.000    1.429    0.000    0.000    0.000    0.000 
#    0.000    0.000    0.000    0.000    0.000    0.000 
#
# Total GULP energy -78288.486251 kJ/mol
# GULP energy per Si atom -5592.034732 kJ/mol
# Density = 2.357026 g / cm^3
# Si number density = 23.624031 Si / 1000 Ang^3
#
#
#
# Elastic Constant Matrix: (Units=GPa)
#
#
# Indices 1 2 3 4 5 6 
#
# 1 74.9873 27.4528 13.5683 4.7802 -13.2291 -2.8516
# 2 27.4528 187.2599 52.7048 -16.5301 0.3634 -16.1852
# 3 13.5683 52.7048 114.4775 -8.8846 -2.5549 -4.8384
# 4 4.7802 -16.5301 -8.8846 57.9036 4.2119 2.6673
# 5 -13.2291 0.3634 -2.5549 4.2119 30.1229 2.2150
# 6 -2.8516 -16.1852 -4.8384 2.6673 2.2150 28.7157
#
#
#
# Elastic Compliance Matrix: (Units=1/GPa)
#
#
# Indices 1 2 3 4 5 6 
#
# 1 0.015787 -0.002341 -0.000843 -0.002620 0.007272 -0.000211
# 2 -0.002341 0.006860 -0.002653 0.001730 -0.001810 0.003166
# 3 -0.000843 -0.002653 0.010132 0.000837 0.000402 0.000019
# 4 -0.002620 0.001730 0.000837 0.018399 -0.003631 -0.000573
# 5 0.007272 -0.001810 0.000402 -0.003631 0.037157 -0.002759
# 6 -0.000211 0.003166 0.000019 -0.000573 -0.002759 0.036857
#
#
# Mechanical properties :
#
#
# Convention : Reuss Voigt Hill
#
# Bulk Modulus (GPa) = 47.38473 62.68627 55.03550
# Shear Modulus (GPa) = 34.74601 42.21503 38.48052
#
# Velocity S-wave (km/s) = 3.83925 4.23182 4.04031
# Velocity P-wave (km/s) = 6.30512 7.10425 6.71658
#
# Compressibility (1/GPa) = 0.02110385
#
# Stress axis : x y z
#
# Youngs Moduli (GPa) = 63.34325 145.77346 98.70172
#
# Poissons Ratio (x) = 0.34121 0.08325
# Poissons Ratio (y) = 0.14827 0.26187
# Poissons Ratio (z) = 0.05343 0.38676
#
# Static dielectric constant tensor:
#      x y z
#    x 1.981930 0.074650 -0.007060 
#    y 0.074650 1.940000 -0.032110 
#    z -0.007060 -0.032110 1.975280 
# 
# From -- ./inp_files/195587.got.cif
#   From: 2010.05.17/outbox.cif.g08.bks.cpg/sg2_98_cif.got.tgz:195587.got - 2010.06.03 11:33:40.
