data_PCOD9027617
_publ_section_title
;
Structure prediction by ZEFSAII (Michael W. Deem and Ramdas Pophale) SiO2 
 PCOD9027617
Probable space group: P -1
;
_chemical_formula_sum "Si O2"
_cell_formula_units_Z 16
_cell_length_a 10.988325
_cell_length_b 7.803079
_cell_length_c 12.272103
_cell_angle_alpha 110.915760
_cell_angle_beta 75.538962
_cell_angle_gamma 62.908498
_cell_volume 759.945603
_symmetry_space_group_name_H-M "P -1"
_symmetry_group_IT_number 2
_symmetry_cell_setting 'triclinic'
loop_
_space_group_symop_operation_xyz
x,y,z
-x,-y,-z
loop_
_atom_site_type_symbol
_atom_site_label
_atom_site_fract_x
_atom_site_fract_y
_atom_site_fract_z
Si Si1 0.114482 0.099363 0.115620
Si Si2 0.837958 0.143445 0.268615
Si Si3 0.167572 0.249452 0.915364
Si Si4 0.634403 0.669940 0.449730
Si Si5 0.354816 0.733536 0.137887
Si Si6 0.937307 0.157431 0.654845
Si Si7 0.475844 0.119009 0.715547
Si Si8 0.976246 0.527326 0.382181
O O1 0.947237 0.140705 0.149429
O O2 0.079840 0.272331 0.257732
O O3 0.249356 0.858746 0.082069
O O4 0.171369 0.166970 0.017097
O O5 0.693078 0.406908 0.386719
O O6 0.809647 0.957624 0.205028
O O7 0.954433 0.023763 0.316895
O O8 0.309308 0.252879 0.845451
O O9 0.000000 0.500000 0.000000
O O10 0.551036 0.766805 0.372564
O O11 0.797889 0.640822 0.411530
O O12 0.536651 0.860151 0.609778
O O13 0.241927 0.720019 0.242183
O O14 0.411547 0.860484 0.225683
O O15 0.500000 0.500000 0.000000
O O16 0.969209 0.339736 0.661862
O O17 0.000000 0.000000 0.500000
O O18 0.000000 0.500000 0.500000
#
# Coordination Sequence:
#
# PCOD9027617 Si02
#       8
#     2   2   2   2   2   2   2   2
#     4  10  23  41  64  93 128 177 219 274 333 407
#     4  10  22  41  68  97 128 168 229 280 337 395
#     4  12  25  40  67  97 132 178 227 276 340 412
#     4  10  22  44  67  98 132 175 219 290 341 391
#     4  11  27  44  63  97 144 181 222 281 344 407
#     4  11  22  41  70  98 125 179 229 276 333 405
#     4  11  25  43  66  94 141 177 222 282 342 401
#     4  11  21  42  72  97 130 168 228 282 331 399
#
# _framework density 21.054137999999998
#
# number of rings (size 3 to 8) (size 9 to 14) (size 15 to 20)
#    0.000    1.250    0.000    7.125    7.000    2.000 
#    4.500    0.000    0.000    0.000    0.000    0.000 
#    0.000    0.000    0.000    0.000    0.000    0.000 
#
# Total GULP energy -89265.486200 kJ/mol
# GULP energy per Si atom -5579.092887 kJ/mol
# Density = 2.100622 g / cm^3
# Si number density = 21.054138 Si / 1000 Ang^3
#
#
#
# Elastic Constant Matrix: (Units=GPa)
#
#
# Indices 1 2 3 4 5 6 
#
# 1 57.6325 13.8578 18.3526 4.3186 -1.1548 5.4375
# 2 13.8578 80.9951 18.8285 17.4029 -12.8321 7.9931
# 3 18.3526 18.8285 97.8848 5.4721 -16.8682 -3.2204
# 4 4.3186 17.4029 5.4721 45.9921 -4.7730 2.2181
# 5 -1.1548 -12.8321 -16.8682 -4.7730 31.6024 2.3175
# 6 5.4375 7.9931 -3.2204 2.2181 2.3175 31.1746
#
#
#
# Elastic Compliance Matrix: (Units=1/GPa)
#
#
# Indices 1 2 3 4 5 6 
#
# 1 0.019346 -0.002391 -0.003586 -0.000556 -0.002046 -0.002940
# 2 -0.002391 0.015245 -0.001505 -0.004683 0.004861 -0.003675
# 3 -0.003586 -0.001505 0.012213 -0.000052 0.005632 0.001858
# 4 -0.000556 -0.004683 -0.000052 0.023773 0.001679 -0.000524
# 5 -0.002046 0.004861 0.005632 0.001679 0.037035 -0.003180
# 6 -0.002940 -0.003675 0.001858 -0.000524 -0.003180 0.033998
#
#
# Mechanical properties :
#
#
# Convention : Reuss Voigt Hill
#
# Bulk Modulus (GPa) = 31.40797 37.62111 34.51454
# Shear Modulus (GPa) = 29.90667 34.11872 32.01269
#
# Velocity S-wave (km/s) = 3.77299 4.02994 3.90358
# Velocity P-wave (km/s) = 5.82501 6.28979 6.06186
#
# Compressibility (1/GPa) = 0.03183905
#
# Stress axis : x y z
#
# Youngs Moduli (GPa) = 51.68998 65.59707 81.88303
#
# Poissons Ratio (x) = 0.15685 0.29360
# Poissons Ratio (y) = 0.12360 0.12327
# Poissons Ratio (z) = 0.18534 0.09875
#
# Static dielectric constant tensor:
#      x y z
#    x 1.981010 -0.015830 0.042530 
#    y -0.015830 1.743880 -0.002850 
#    z 0.042530 -0.002850 1.752230 
# 
# From -- ./inp_files/417824.got.cif
#   From: 2010.05.17/outbox.cif.g08.bks.cpg/sg2_209_cif.got.tgz:417824.got - 2010.06.03 11:33:40.
