data_PCOD9027928
_publ_section_title
;
Structure prediction by ZEFSAII (Michael W. Deem and Ramdas Pophale) SiO2 
 PCOD9027928
Probable space group: P -1
;
_chemical_formula_sum "Si O2"
_cell_formula_units_Z 16
_cell_length_a 8.536996
_cell_length_b 20.261070
_cell_length_c 5.747045
_cell_angle_alpha 90.787068
_cell_angle_beta 56.589881
_cell_angle_gamma 116.704327
_cell_volume 703.938041
_symmetry_space_group_name_H-M "P -1"
_symmetry_group_IT_number 2
_symmetry_cell_setting 'triclinic'
loop_
_space_group_symop_operation_xyz
x,y,z
-x,-y,-z
loop_
_atom_site_type_symbol
_atom_site_label
_atom_site_fract_x
_atom_site_fract_y
_atom_site_fract_z
Si Si1 0.390353 0.169960 0.382839
Si Si2 0.885171 0.308328 0.071576
Si Si3 0.690767 0.479724 0.634938
Si Si4 0.298375 0.011843 0.686727
Si Si5 0.742749 0.422378 0.097146
Si Si6 0.792641 0.628893 0.805622
Si Si7 0.859867 0.934314 0.799006
Si Si8 0.237279 0.281465 0.535197
O O1 0.643219 0.232781 0.235812
O O2 0.342881 0.089909 0.526217
O O3 0.313856 0.147901 0.175919
O O4 0.246912 0.206159 0.582874
O O5 0.865788 0.375735 0.971682
O O6 0.978329 0.343002 0.252363
O O7 0.061805 0.289371 0.828219
O O8 0.786225 0.468744 0.311552
O O9 0.741354 0.566270 0.640964
O O10 0.759236 0.460948 0.831927
O O11 0.422862 0.419919 0.855593
O O12 0.500000 0.000000 0.500000
O O13 0.273568 0.032235 0.968355
O O14 0.055905 0.941444 0.800046
O O15 0.488217 0.353881 0.345898
O O16 0.814559 0.706249 0.687275
O O17 0.000000 0.000000 0.500000
#
# Coordination Sequence:
#
# PCOD9027928 Si02
#       8
#     2   2   2   2   2   2   2   2
#     4  10  24  41  62  95 134 173 206 265 326 389
#     4  11  24  40  62  93 127 173 223 264 331 406
#     4  10  22  42  67  92 131 169 229 293 352 392
#     4  10  22  41  70 102 128 165 217 267 320 394
#     4  10  23  42  65  94 129 172 223 294 343 402
#     4  10  23  38  66  89 121 175 222 278 338 400
#     4   9  21  42  66  97 132 166 208 264 324 384
#     4  10  23  43  59  89 131 171 218 269 331 402
#
# _framework density 22.729274
#
# number of rings (size 3 to 8) (size 9 to 14) (size 15 to 20)
#    0.000    2.000    1.250    0.000    3.500   11.500 
#    4.500    0.000    0.000    0.000    0.000    0.000 
#    0.000    0.000    0.000    0.000    0.000    0.000 
#
# Total GULP energy -89200.424354 kJ/mol
# GULP energy per Si atom -5575.026522 kJ/mol
# Density = 2.267754 g / cm^3
# Si number density = 22.729274 Si / 1000 Ang^3
#
#
#
# Elastic Constant Matrix: (Units=GPa)
#
#
# Indices 1 2 3 4 5 6 
#
# 1 119.3309 67.3734 31.6967 11.1929 -21.6527 -8.4801
# 2 67.3734 92.7983 33.4297 0.2283 -1.1419 -0.7757
# 3 31.6967 33.4297 126.1587 26.9290 -19.5049 -10.4152
# 4 11.1929 0.2283 26.9290 30.0557 -5.1194 -5.4077
# 5 -21.6527 -1.1419 -19.5049 -5.1194 36.3253 9.3433
# 6 -8.4801 -0.7757 -10.4152 -5.4077 9.3433 49.6355
#
#
#
# Elastic Compliance Matrix: (Units=1/GPa)
#
#
# Indices 1 2 3 4 5 6 
#
# 1 0.018198 -0.013860 0.002217 -0.006756 0.010483 0.000648
# 2 -0.013860 0.022818 -0.005885 0.008568 -0.009355 -0.000552
# 3 0.002217 -0.005885 0.012159 -0.010547 0.006037 0.000553
# 4 -0.006756 0.008568 -0.010547 0.044969 -0.003691 0.002360
# 5 0.010483 -0.009355 0.006037 -0.003691 0.037369 -0.004525
# 6 0.000648 -0.000552 0.000553 0.002360 -0.004525 0.021474
#
#
# Mechanical properties :
#
#
# Convention : Reuss Voigt Hill
#
# Bulk Modulus (GPa) = 55.18931 67.03195 61.11063
# Shear Modulus (GPa) = 25.24199 36.92251 31.08225
#
# Velocity S-wave (km/s) = 3.33611 4.03482 3.70198
# Velocity P-wave (km/s) = 6.25886 7.15973 6.72440
#
# Compressibility (1/GPa) = 0.01811945
#
# Stress axis : x y z
#
# Youngs Moduli (GPa) = 54.94981 43.82549 82.24187
#
# Poissons Ratio (x) = 0.60742 -0.18231
# Poissons Ratio (y) = 0.76160 0.48398
# Poissons Ratio (z) = -0.12181 0.25790
#
# Static dielectric constant tensor:
#      x y z
#    x 1.924510 0.001300 0.018070 
#    y 0.001300 1.829520 -0.038870 
#    z 0.018070 -0.038870 1.855100 
# 
# From -- ./inp_files/53376.got.cif
#   From: 2010.05.17/outbox.cif.g08.bks.cpg/sg2_27_cif.got.tgz:53376.got - 2010.06.03 11:33:40.
