data_PCOD9027074
_publ_section_title
;
Structure prediction by ZEFSAII (Michael W. Deem and Ramdas Pophale) SiO2 
 PCOD9027074
Probable space group: P -1
;
_chemical_formula_sum "Si O2"
_cell_formula_units_Z 16
_cell_length_a 8.516637
_cell_length_b 17.579519
_cell_length_c 12.264881
_cell_angle_alpha 36.127958
_cell_angle_beta 141.012707
_cell_angle_gamma 143.990504
_cell_volume 594.448138
_symmetry_space_group_name_H-M "P -1"
_symmetry_group_IT_number 2
_symmetry_cell_setting 'triclinic'
loop_
_space_group_symop_operation_xyz
x,y,z
-x,-y,-z
loop_
_atom_site_type_symbol
_atom_site_label
_atom_site_fract_x
_atom_site_fract_y
_atom_site_fract_z
Si Si1 0.305209 0.632719 0.983034
Si Si2 0.255272 0.285306 0.682594
Si Si3 0.130135 0.895889 0.729081
Si Si4 0.539453 0.595076 0.756682
Si Si5 0.900600 0.172538 0.973100
Si Si6 0.694110 0.074379 0.728330
Si Si7 0.468139 0.745274 0.733352
Si Si8 0.700167 0.403901 0.601999
O O1 0.491405 0.686851 0.129280
O O2 0.461662 0.555187 0.092751
O O3 0.278330 0.723493 0.762100
O O4 0.000000 0.500000 0.000000
O O5 0.399959 0.309310 0.614922
O O6 0.193032 0.424141 0.506966
O O7 0.989079 0.127677 0.757625
O O8 0.865085 0.730406 0.770952
O O9 0.402988 0.923259 0.772964
O O10 0.234357 0.925793 0.876709
O O11 0.000000 0.000000 0.500000
O O12 0.411598 0.607548 0.786720
O O13 0.365014 0.610455 0.544589
O O14 0.796142 0.133230 0.837928
O O15 0.883172 0.321690 0.816782
O O16 0.209617 0.183403 0.132482
O O17 0.562802 0.152468 0.491444
#
# Coordination Sequence:
#
# PCOD9027074 Si02
#       8
#     2   2   2   2   2   2   2   2
#     4  11  25  42  66  97 139 178 212 272 338 400
#     4  10  25  41  65  95 139 174 219 262 342 394
#     4  11  22  42  66  98 131 174 224 274 330 384
#     4  10  22  41  66  96 133 169 225 269 330 390
#     4  11  22  42  69  95 133 169 224 278 327 389
#     4  12  23  43  66  98 132 176 220 277 325 390
#     4  11  23  40  68 102 131 167 224 276 328 392
#     4  10  22  44  63  98 132 175 214 277 330 401
#
# _framework density 26.915718999999999
#
# number of rings (size 3 to 8) (size 9 to 14) (size 15 to 20)
#    0.000    1.250    5.000    0.750    8.750    1.500 
#    0.000    1.250    0.000    0.000    0.000    0.000 
#    0.000    0.000    0.000    0.000    0.000    0.000 
#
# Total GULP energy -89472.173931 kJ/mol
# GULP energy per Si atom -5592.010871 kJ/mol
# Density = 2.685446 g / cm^3
# Si number density = 26.915719 Si / 1000 Ang^3
#
#
#
# Elastic Constant Matrix: (Units=GPa)
#
#
# Indices 1 2 3 4 5 6 
#
# 1 97.3554 37.3927 42.1139 1.8516 -34.8116 16.3145
# 2 37.3927 51.8991 27.3876 10.8224 8.6854 17.8393
# 3 42.1139 27.3876 176.7198 16.5322 -24.1915 -15.5833
# 4 1.8516 10.8224 16.5322 34.0139 5.4267 -0.6551
# 5 -34.8116 8.6854 -24.1915 5.4267 49.9111 0.1368
# 6 16.3145 17.8393 -15.5833 -0.6551 0.1368 56.3308
#
#
#
# Elastic Compliance Matrix: (Units=1/GPa)
#
#
# Indices 1 2 3 4 5 6 
#
# 1 0.028303 -0.024849 0.000107 0.002503 0.023845 -0.000327
# 2 -0.024849 0.050072 -0.005894 -0.007436 -0.028065 -0.010309
# 3 0.000107 -0.005894 0.007860 -0.002703 0.005193 0.003966
# 4 0.002503 -0.007436 -0.002703 0.033269 -0.001892 0.001274
# 5 0.023845 -0.028065 0.005193 -0.001892 0.044265 0.003289
# 6 -0.000327 -0.010309 0.003966 0.001274 0.003289 0.022216
#
#
# Mechanical properties :
#
#
# Convention : Reuss Voigt Hill
#
# Bulk Modulus (GPa) = 40.05566 59.97363 50.01465
# Shear Modulus (GPa) = 19.56367 42.65651 31.11009
#
# Velocity S-wave (km/s) = 2.69894 3.98530 3.40344
# Velocity P-wave (km/s) = 4.96251 6.59600 5.83668
#
# Compressibility (1/GPa) = 0.02496526
#
# Stress axis : x y z
#
# Youngs Moduli (GPa) = 35.33237 19.97115 127.22737
#
# Poissons Ratio (x) = 0.49625 -0.01367
# Poissons Ratio (y) = 0.87796 0.74985
# Poissons Ratio (z) = -0.00380 0.11770
#
# Static dielectric constant tensor:
#      x y z
#    x 2.146870 0.013210 0.062540 
#    y 0.013210 2.185790 -0.090130 
#    z 0.062540 -0.090130 2.196390 
# 
# From -- ./inp_files/404737.got.cif
#   From: 2010.05.17/outbox.cif.g08.bks.cpg/sg2_203_cif.got.tgz:404737.got - 2010.06.03 11:33:40.
