data_PCOD9027695
_publ_section_title
;
Structure prediction by ZEFSAII (Michael W. Deem and Ramdas Pophale) SiO2 
 PCOD9027695
Probable space group: P -1
;
_chemical_formula_sum "Si O2"
_cell_formula_units_Z 16
_cell_length_a 15.988317
_cell_length_b 13.873146
_cell_length_c 10.995853
_cell_angle_alpha 149.203795
_cell_angle_beta 50.134464
_cell_angle_gamma 146.390886
_cell_volume 666.944519
_symmetry_space_group_name_H-M "P -1"
_symmetry_group_IT_number 2
_symmetry_cell_setting 'triclinic'
loop_
_space_group_symop_operation_xyz
x,y,z
-x,-y,-z
loop_
_atom_site_type_symbol
_atom_site_label
_atom_site_fract_x
_atom_site_fract_y
_atom_site_fract_z
Si Si1 0.341628 0.368540 0.661917
Si Si2 0.654669 0.927189 0.071813
Si Si3 0.142201 0.128939 0.096715
Si Si4 0.348240 0.731511 0.919940
Si Si5 0.696455 0.239497 0.721290
Si Si6 0.040470 0.202620 0.863201
Si Si7 0.205650 0.885215 0.125824
Si Si8 0.400058 0.721454 0.397263
O O1 0.497295 0.607860 0.852609
O O2 0.185547 0.249226 0.745307
O O3 0.317871 0.126540 0.380200
O O4 0.347897 0.505307 0.680803
O O5 0.778823 0.978710 0.098917
O O6 0.724990 0.024784 0.976547
O O7 0.627463 0.103803 0.334054
O O8 0.284935 0.443852 0.274975
O O9 0.070253 0.042026 0.204756
O O10 0.000000 0.000000 0.000000
O O11 0.346260 0.773041 0.111309
O O12 0.201932 0.662838 0.926120
O O13 0.500000 0.000000 0.000000
O O14 0.644663 0.316421 0.743593
O O15 0.587525 0.923222 0.452491
O O16 0.882064 0.509348 0.839169
O O17 0.944876 0.167351 0.801038
#
# Coordination Sequence:
#
# PCOD9027695 Si02
#       8
#     2   2   2   2   2   2   2   2
#     4  11  23  43  68  99 143 175 230 288 334 409
#     4  11  24  42  72 104 133 182 235 277 339 419
#     4  11  25  45  71  99 137 182 227 279 347 411
#     4  11  22  40  68  99 138 179 232 274 343 412
#     4  10  22  41  69 100 139 173 224 287 331 405
#     4  10  22  46  65 104 145 170 230 292 342 403
#     4  11  24  40  68 101 140 181 227 287 344 401
#     4  11  22  46  71  96 138 182 223 286 341 403
#
# _framework density 23.990003000000002
#
# number of rings (size 3 to 8) (size 9 to 14) (size 15 to 20)
#    0.000    1.250    5.000    0.750    1.750    5.500 
#    2.250    5.625    0.000    0.000    0.000    0.000 
#    0.000    0.000    0.000    0.000    0.000    0.000 
#
# Total GULP energy -89233.703572 kJ/mol
# GULP energy per Si atom -5577.106473 kJ/mol
# Density = 2.393540 g / cm^3
# Si number density = 23.990003 Si / 1000 Ang^3
#
#
#
# Elastic Constant Matrix: (Units=GPa)
#
#
# Indices 1 2 3 4 5 6 
#
# 1 120.3407 14.7534 19.8031 1.1291 2.9618 1.6477
# 2 14.7534 138.7774 18.1168 18.8517 -9.4964 -29.0800
# 3 19.8031 18.1168 64.8391 10.0976 4.5232 -6.0996
# 4 1.1291 18.8517 10.0976 42.7221 -1.0255 -10.8833
# 5 2.9618 -9.4964 4.5232 -1.0255 34.2488 0.0999
# 6 1.6477 -29.0800 -6.0996 -10.8833 0.0999 28.1640
#
#
#
# Elastic Compliance Matrix: (Units=1/GPa)
#
#
# Indices 1 2 3 4 5 6 
#
# 1 0.008924 -0.001153 -0.002605 0.000324 -0.000731 -0.002149
# 2 -0.001153 0.009896 -0.001502 -0.001526 0.002969 0.009360
# 3 -0.002605 -0.001502 0.017419 -0.003151 -0.002589 0.001166
# 4 0.000324 -0.001526 -0.003151 0.026902 0.000747 0.008116
# 5 -0.000731 0.002969 -0.002589 0.000747 0.030441 0.002728
# 6 -0.002149 0.009360 0.001166 0.008116 0.002728 0.048676
#
#
# Mechanical properties :
#
#
# Convention : Reuss Voigt Hill
#
# Bulk Modulus (GPa) = 38.88102 47.70044 43.29073
# Shear Modulus (GPa) = 30.98830 39.11259 35.05045
#
# Velocity S-wave (km/s) = 3.59795 4.04217 3.82651
# Velocity P-wave (km/s) = 5.78815 6.45849 6.13248
#
# Compressibility (1/GPa) = 0.02571949
#
# Stress axis : x y z
#
# Youngs Moduli (GPa) = 112.05537 101.04871 57.40846
#
# Poissons Ratio (x) = 0.11651 0.14955
# Poissons Ratio (y) = 0.12920 0.08623
# Poissons Ratio (z) = 0.29190 0.15177
#
# Static dielectric constant tensor:
#      x y z
#    x 1.955240 0.062120 0.012470 
#    y 0.062120 1.968770 0.023370 
#    z 0.012470 0.023370 1.972480 
# 
# From -- ./inp_files/466152.got.cif
#   From: 2010.05.17/outbox.cif.g08.bks.cpg/sg2_234_cif.got.tgz:466152.got - 2010.06.03 11:33:40.
