data_PCOD9027805
_publ_section_title
;
Structure prediction by ZEFSAII (Michael W. Deem and Ramdas Pophale) SiO2 
 PCOD9027805
Probable space group: P -1
;
_chemical_formula_sum "Si O2"
_cell_formula_units_Z 14
_cell_length_a 12.217666
_cell_length_b 8.978173
_cell_length_c 11.716268
_cell_angle_alpha 58.415618
_cell_angle_beta 42.779895
_cell_angle_gamma 52.404651
_cell_volume 684.687300
_symmetry_space_group_name_H-M "P -1"
_symmetry_group_IT_number 2
_symmetry_cell_setting 'triclinic'
loop_
_space_group_symop_operation_xyz
x,y,z
-x,-y,-z
loop_
_atom_site_type_symbol
_atom_site_label
_atom_site_fract_x
_atom_site_fract_y
_atom_site_fract_z
Si Si1 0.156575 0.349653 0.870955
Si Si2 0.774259 0.942933 0.516325
Si Si3 0.555048 0.005716 0.088148
Si Si4 0.310870 0.639617 0.551622
Si Si5 0.114866 0.661008 0.476610
Si Si6 0.961835 0.700747 0.253035
Si Si7 0.688029 0.339548 0.893863
O O1 0.217331 0.500478 0.705541
O O2 0.103182 0.247391 0.847651
O O3 0.303751 0.198518 0.897158
O O4 0.000000 0.500000 0.000000
O O5 0.610151 0.940462 0.718243
O O6 0.828683 0.829959 0.400076
O O7 0.948475 0.849739 0.497191
O O8 0.737734 0.160915 0.429972
O O9 0.649420 0.153759 0.968987
O O10 0.500000 0.000000 0.000000
O O11 0.500000 0.500000 0.500000
O O12 0.250997 0.693470 0.445813
O O13 0.036098 0.508471 0.637695
O O14 0.227432 0.592047 0.304053
O O15 0.155345 0.701543 0.118305
O O16 0.500000 0.500000 0.000000
#
# Coordination Sequence:
#
# PCOD9027805 Si02
#       7
#     2   2   2   2   2   2   2
#     4  11  28  46  67  96 140 176 217 281 339 397
#     4  11  22  44  70  97 132 173 230 271 322 403
#     4  12  27  43  68 103 136 176 222 273 337 395
#     4  11  23  43  65  97 129 179 222 268 330 394
#     4  10  22  41  69  94 133 176 223 268 329 399
#     4  10  24  46  69  98 131 180 225 272 339 387
#     4  11  23  40  68 102 132 171 220 279 330 389
#
# _framework density 20.447289999999999
#
# number of rings (size 3 to 8) (size 9 to 14) (size 15 to 20)
#    0.000    1.143    1.429    4.714   10.000    1.143 
#    2.571    0.000    0.000    0.000    0.000    0.000 
#    0.000    0.000    0.000    0.000    0.000    0.000 
#
# Total GULP energy -78021.877749 kJ/mol
# GULP energy per Si atom -5572.991268 kJ/mol
# Density = 2.040075 g / cm^3
# Si number density = 20.447290 Si / 1000 Ang^3
#
#
#
# Elastic Constant Matrix: (Units=GPa)
#
#
# Indices 1 2 3 4 5 6 
#
# 1 132.4293 48.9340 89.0944 14.8238 3.9626 -9.2510
# 2 48.9340 132.4264 29.3573 11.4854 2.1081 -14.0208
# 3 89.0944 29.3573 49.3624 26.3538 -13.9691 -12.1285
# 4 14.8238 11.4854 26.3538 38.6596 1.1583 -10.9774
# 5 3.9626 2.1081 -13.9691 1.1583 30.4507 -5.8397
# 6 -9.2510 -14.0208 -12.1285 -10.9774 -5.8397 34.6138
#
#
#
# Elastic Compliance Matrix: (Units=1/GPa)
#
#
# Indices 1 2 3 4 5 6 
#
# 1 -0.006116 -0.001567 0.023052 -0.012117 0.012729 0.004113
# 2 -0.001567 0.008879 -0.002301 0.000204 -0.001040 0.002261
# 3 0.023052 -0.002301 -0.035148 0.014750 -0.020656 -0.005894
# 4 -0.012117 0.000204 0.014750 0.023233 0.009553 0.010992
# 5 0.012729 -0.001040 -0.020656 0.009553 0.021889 0.002466
# 6 0.004113 0.002261 -0.005894 0.010992 0.002466 0.032742
#
#
# Mechanical properties :
#
#
# Convention : Reuss Voigt Hill
#
# Bulk Modulus (GPa) = 167.11449 72.10997 119.61223
# Shear Modulus (GPa) = 549.15962 30.53365 289.84663
#
# Velocity S-wave (km/s) = 16.40599 3.86850 11.91893
# Velocity P-wave (km/s) = 20.99481 7.43616 15.74926
#
# Compressibility (1/GPa) = 0.00598392
#
# Stress axis : x y z
#
# Youngs Moduli (GPa) = -163.51482 112.63142 -28.45124
#
# Poissons Ratio (x) = 0.17646 0.65585
# Poissons Ratio (y) = -0.25618 -0.06546
# Poissons Ratio (z) = 3.76932 0.25913
#
# Static dielectric constant tensor:
#      x y z
#    x 1.603730 0.013650 -0.011080 
#    y 0.013650 1.699000 0.001610 
#    z -0.011080 0.001610 1.728180 
# 
# From -- ./inp_files/174578.got.cif
#   From: 2010.05.17/outbox.cif.g08.bks.cpg/sg2_88_cif.got.tgz:174578.got - 2010.06.03 11:33:40.
