data_PCOD9027703
_publ_section_title
;
Structure prediction by ZEFSAII (Michael W. Deem and Ramdas Pophale) SiO2 
 PCOD9027703
Probable space group: P -1
;
_chemical_formula_sum "Si O2"
_cell_formula_units_Z 16
_cell_length_a 8.937033
_cell_length_b 11.381215
_cell_length_c 11.581945
_cell_angle_alpha 82.979517
_cell_angle_beta 135.304515
_cell_angle_gamma 105.925789
_cell_volume 792.132795
_symmetry_space_group_name_H-M "P -1"
_symmetry_group_IT_number 2
_symmetry_cell_setting 'triclinic'
loop_
_space_group_symop_operation_xyz
x,y,z
-x,-y,-z
loop_
_atom_site_type_symbol
_atom_site_label
_atom_site_fract_x
_atom_site_fract_y
_atom_site_fract_z
Si Si1 0.834825 0.797409 0.596579
Si Si2 0.228451 0.422955 0.569849
Si Si3 0.586777 0.649371 0.679576
Si Si4 0.827143 0.568144 0.220438
Si Si5 0.865053 0.458216 0.814353
Si Si6 0.472228 0.747352 0.236842
Si Si7 0.458619 0.310950 0.087838
Si Si8 0.664958 0.134151 0.080682
O O1 0.872142 0.673862 0.572528
O O2 0.672236 0.758114 0.621839
O O3 0.682672 0.836497 0.408724
O O4 0.081938 0.869845 0.759091
O O5 0.340478 0.557542 0.564446
O O6 0.076443 0.404051 0.601533
O O7 0.430962 0.367556 0.732935
O O8 0.716780 0.552814 0.718491
O O9 0.628670 0.698351 0.827552
O O10 0.635339 0.443580 0.155754
O O11 0.974413 0.536387 0.204509
O O12 0.735043 0.677328 0.106236
O O13 0.714283 0.319649 0.766394
O O14 0.000000 0.500000 0.000000
O O15 0.366896 0.799338 0.065685
O O16 0.576767 0.209599 0.122925
O O17 0.500000 0.000000 0.000000
#
# Coordination Sequence:
#
# PCOD9027703 Si02
#       8
#     2   2   2   2   2   2   2   2
#     4  10  21  40  61  87 122 160 200 244 303 356
#     4   8  18  34  56  88 127 154 184 234 299 361
#     4  10  18  32  58  87 130 158 184 236 301 373
#     4  10  17  31  58  92 129 155 190 239 302 368
#     4  11  18  28  57  94 125 167 188 227 299 372
#     4   9  21  39  58  84 120 151 203 242 296 349
#     4  10  19  34  55  90 124 155 195 247 296 353
#     4  12  25  43  65  85 111 160 217 255 294 348
#
# _framework density 20.198632
#
# number of rings (size 3 to 8) (size 9 to 14) (size 15 to 20)
#    0.750    1.250    2.500    2.625    0.000    0.500 
#    2.250    2.500    0.000    0.750    0.000    0.000 
#    0.000    0.000    0.000    0.000    0.000    0.000 
#
# Total GULP energy -89089.733794 kJ/mol
# GULP energy per Si atom -5568.108362 kJ/mol
# Density = 2.015266 g / cm^3
# Si number density = 20.198632 Si / 1000 Ang^3
#
#
#
# Elastic Constant Matrix: (Units=GPa)
#
#
# Indices 1 2 3 4 5 6 
#
# 1 131.5931 1.6907 25.0275 -3.7556 -23.1713 24.0251
# 2 1.6907 21.3109 2.7959 13.5013 -7.5153 3.2476
# 3 25.0275 2.7959 91.0712 7.3749 -3.7490 16.4805
# 4 -3.7556 13.5013 7.3749 20.3460 3.1906 3.3510
# 5 -23.1713 -7.5153 -3.7490 3.1906 35.8122 -5.9833
# 6 24.0251 3.2476 16.4805 3.3510 -5.9833 16.6919
#
#
#
# Elastic Compliance Matrix: (Units=1/GPa)
#
#
# Indices 1 2 3 4 5 6 
#
# 1 0.011346 0.000966 -0.000512 0.003377 0.004681 -0.015013
# 2 0.000966 0.104393 0.003786 -0.075168 0.029674 0.000288
# 3 -0.000512 0.003786 0.013693 -0.005604 0.000346 -0.012271
# 4 0.003377 -0.075168 -0.005604 0.108474 -0.026510 -0.015983
# 5 0.004681 0.029674 0.000346 -0.026510 0.040760 0.007080
# 6 -0.015013 0.000288 -0.012271 -0.015983 0.007080 0.099324
#
#
# Mechanical properties :
#
#
# Convention : Reuss Voigt Hill
#
# Bulk Modulus (GPa) = 7.25091 33.66706 20.45898
# Shear Modulus (GPa) = 12.03423 28.86744 20.45084
#
# Velocity S-wave (km/s) = 2.44354 3.78455 3.18541
# Velocity P-wave (km/s) = 3.39982 5.98341 4.86621
#
# Compressibility (1/GPa) = 0.13791369
#
# Stress axis : x y z
#
# Youngs Moduli (GPa) = 88.13985 9.57914 73.02762
#
# Poissons Ratio (x) = -0.00925 0.03736
# Poissons Ratio (y) = -0.08514 -0.27650
# Poissons Ratio (z) = 0.04509 -0.03627
#
# Static dielectric constant tensor:
#      x y z
#    x 1.779050 0.009020 0.032130 
#    y 0.009020 1.703380 -0.026600 
#    z 0.032130 -0.026600 1.872390 
# 
# From -- ./inp_files/392534.got.cif
#   From: 2010.05.17/outbox.cif.g08.bks.cpg/sg2_197_cif.got.tgz:392534.got - 2010.06.03 11:33:40.
