data_PCOD9027476
_publ_section_title
;
Structure prediction by ZEFSAII (Michael W. Deem and Ramdas Pophale) SiO2 
 PCOD9027476
Probable space group: P -1
;
_chemical_formula_sum "Si O2"
_cell_formula_units_Z 16
_cell_length_a 8.954146
_cell_length_b 7.843814
_cell_length_c 11.943943
_cell_angle_alpha 96.607748
_cell_angle_beta 95.823925
_cell_angle_gamma 48.320687
_cell_volume 622.026226
_symmetry_space_group_name_H-M "P -1"
_symmetry_group_IT_number 2
_symmetry_cell_setting 'triclinic'
loop_
_space_group_symop_operation_xyz
x,y,z
-x,-y,-z
loop_
_atom_site_type_symbol
_atom_site_label
_atom_site_fract_x
_atom_site_fract_y
_atom_site_fract_z
Si Si1 0.138583 0.767765 0.273927
Si Si2 0.223116 0.257022 0.493835
Si Si3 0.642938 0.626032 0.178509
Si Si4 0.262347 0.058312 0.707802
Si Si5 0.499835 0.363999 0.594423
Si Si6 0.313176 0.066296 0.056233
Si Si7 0.911294 0.249797 0.976887
Si Si8 0.712514 0.699217 0.725317
O O1 0.271825 0.797286 0.355206
O O2 0.169515 0.558352 0.317112
O O3 0.900474 0.958144 0.269390
O O4 0.201095 0.685521 0.144131
O O5 0.242086 0.097814 0.575951
O O6 0.387618 0.279538 0.534635
O O7 0.266160 0.180879 0.362852
O O8 0.000000 0.500000 0.500000
O O9 0.734334 0.745234 0.230863
O O10 0.614308 0.537505 0.283987
O O11 0.778206 0.433450 0.078994
O O12 0.425949 0.834859 0.121008
O O13 0.482361 0.825464 0.733630
O O14 0.500000 0.500000 0.500000
O O15 0.220926 0.267057 0.153311
O O16 0.125245 0.180986 0.970726
O O17 0.500000 0.000000 0.000000
O O18 0.000000 0.000000 0.000000
#
# Coordination Sequence:
#
# PCOD9027476 Si02
#       8
#     2   2   2   2   2   2   2   2
#     4  12  24  43  68  99 143 179 229 284 348 409
#     4  11  21  42  71 100 137 182 230 284 343 407
#     4  10  24  44  71  99 139 182 230 288 342 409
#     4  10  22  41  68 103 136 180 230 281 344 409
#     4  11  23  43  69  98 138 185 227 280 349 406
#     4  11  24  44  70 105 136 176 237 287 342 411
#     4  12  27  45  69 100 140 185 229 279 352 415
#     4  11  22  39  72  99 136 179 230 280 342 405
#
# _framework density 25.722387000000001
#
# number of rings (size 3 to 8) (size 9 to 14) (size 15 to 20)
#    0.000    1.000    2.500    4.125    1.750    5.500 
#    0.000    0.625    2.750    0.000    0.000    0.000 
#    0.000    0.000    0.000    0.000    0.000    0.000 
#
# Total GULP energy -89402.747943 kJ/mol
# GULP energy per Si atom -5587.671746 kJ/mol
# Density = 2.566384 g / cm^3
# Si number density = 25.722387 Si / 1000 Ang^3
#
#
#
# Elastic Constant Matrix: (Units=GPa)
#
#
# Indices 1 2 3 4 5 6 
#
# 1 129.8964 18.2460 52.5033 6.0919 1.0747 -16.3235
# 2 18.2460 82.9043 3.9995 3.2211 1.6551 -6.4894
# 3 52.5033 3.9995 148.6331 -8.8511 -6.1838 6.6742
# 4 6.0919 3.2211 -8.8511 31.8100 -7.2217 -5.3039
# 5 1.0747 1.6551 -6.1838 -7.2217 44.5390 -10.4856
# 6 -16.3235 -6.4894 6.6742 -5.3039 -10.4856 38.7663
#
#
#
# Elastic Compliance Matrix: (Units=1/GPa)
#
#
# Indices 1 2 3 4 5 6 
#
# 1 0.010134 -0.001619 -0.003861 -0.002134 -0.000040 0.004358
# 2 -0.001619 0.012544 0.000123 -0.000778 -0.000248 0.001223
# 3 -0.003861 0.000123 0.008418 0.002950 0.001187 -0.002330
# 4 -0.002134 -0.000778 0.002950 0.035327 0.007470 0.005317
# 5 -0.000040 -0.000248 0.001187 0.007470 0.025651 0.007697
# 6 0.004358 0.001223 -0.002330 0.005317 0.007697 0.031046
#
#
# Mechanical properties :
#
#
# Convention : Reuss Voigt Hill
#
# Bulk Modulus (GPa) = 49.06366 56.77013 52.91690
# Shear Modulus (GPa) = 35.55468 42.13538 38.84503
#
# Velocity S-wave (km/s) = 3.72189 4.05171 3.89030
# Velocity P-wave (km/s) = 6.13072 6.63376 6.38719
#
# Compressibility (1/GPa) = 0.02038169
#
# Stress axis : x y z
#
# Youngs Moduli (GPa) = 98.67317 79.72254 118.79094
#
# Poissons Ratio (x) = 0.12910 0.45862
# Poissons Ratio (y) = 0.15979 -0.01460
# Poissons Ratio (z) = 0.38095 -0.00980
#
# Static dielectric constant tensor:
#      x y z
#    x 2.165510 0.005340 0.026830 
#    y 0.005340 2.142690 -0.004980 
#    z 0.026830 -0.004980 2.061810 
# 
# From -- ./inp_files/382304.got.cif
#   From: 2010.05.17/outbox.cif.g08.bks.cpg/sg2_192_cif.got.tgz:382304.got - 2010.06.03 11:33:40.
