data_PCOD9027722
_publ_section_title
;
Structure prediction by ZEFSAII (Michael W. Deem and Ramdas Pophale) SiO2 
 PCOD9027722
Probable space group: P -1
;
_chemical_formula_sum "Si O2"
_cell_formula_units_Z 14
_cell_length_a 6.661375
_cell_length_b 10.997280
_cell_length_c 11.001612
_cell_angle_alpha 74.286445
_cell_angle_beta 65.120198
_cell_angle_gamma 53.989276
_cell_volume 591.127488
_symmetry_space_group_name_H-M "P -1"
_symmetry_group_IT_number 2
_symmetry_cell_setting 'triclinic'
loop_
_space_group_symop_operation_xyz
x,y,z
-x,-y,-z
loop_
_atom_site_type_symbol
_atom_site_label
_atom_site_fract_x
_atom_site_fract_y
_atom_site_fract_z
Si Si1 0.854090 0.102066 0.887700
Si Si2 0.735672 0.669205 0.028155
Si Si3 0.221080 0.532986 0.394043
Si Si4 0.853234 0.621511 0.280115
Si Si5 0.649777 0.923033 0.356422
Si Si6 0.218802 0.659385 0.598049
Si Si7 0.764237 0.899877 0.789806
O O1 0.577189 0.265925 0.932549
O O2 0.066232 0.106396 0.745483
O O3 0.761032 0.010716 0.858129
O O4 0.000000 0.000000 0.000000
O O5 0.763255 0.700437 0.152591
O O6 0.781363 0.765814 0.895861
O O7 0.000000 0.500000 0.000000
O O8 0.203464 0.659193 0.454930
O O9 0.508681 0.397117 0.389891
O O10 0.000000 0.500000 0.500000
O O11 0.151378 0.561041 0.262602
O O12 0.684782 0.760985 0.377385
O O13 0.821638 0.479277 0.325764
O O14 0.500000 0.000000 0.500000
O O15 0.473250 0.025963 0.262731
O O16 0.015993 0.819709 0.660007
#
# Coordination Sequence:
#
# PCOD9027722 Si02
#       7
#     2   2   2   2   2   2   2
#     4  12  27  50  79 107 154 206 254 315 386 451
#     4  12  25  48  76 108 148 197 255 317 379 451
#     4   9  21  40  65  96 146 184 240 301 377 438
#     4  11  23  43  70 101 148 184 248 312 368 451
#     4  12  28  48  76 111 153 202 255 309 386 461
#     4  10  22  41  69 102 136 196 237 308 376 446
#     4  12  25  47  73 104 151 190 253 314 381 451
#
# _framework density 23.683554999999998
#
# number of rings (size 3 to 8) (size 9 to 14) (size 15 to 20)
#    0.000    0.857    4.286    2.143    2.000    7.429 
#    2.571    2.143    0.000    0.000    0.000    0.000 
#    0.000    0.000    0.000    0.000    0.000    0.000 
#
# Total GULP energy -78036.919874 kJ/mol
# GULP energy per Si atom -5574.065705 kJ/mol
# Density = 2.362965 g / cm^3
# Si number density = 23.683555 Si / 1000 Ang^3
#
#
#
# Elastic Constant Matrix: (Units=GPa)
#
#
# Indices 1 2 3 4 5 6 
#
# 1 118.5167 55.1281 33.8502 -10.7275 9.1553 -47.8033
# 2 55.1281 145.3624 45.4640 -0.5473 0.3685 -23.9700
# 3 33.8502 45.4640 78.6763 -7.5783 13.5046 -16.2712
# 4 -10.7275 -0.5473 -7.5783 55.7127 -13.2898 5.9307
# 5 9.1553 0.3685 13.5046 -13.2898 39.2823 -6.0116
# 6 -47.8033 -23.9700 -16.2712 5.9307 -6.0116 46.5378
#
#
#
# Elastic Compliance Matrix: (Units=1/GPa)
#
#
# Indices 1 2 3 4 5 6 
#
# 1 0.016435 -0.003232 -0.002047 0.001215 -0.000500 0.014282
# 2 -0.003232 0.009559 -0.004466 -0.000695 0.002024 0.000392
# 3 -0.002047 -0.004466 0.017290 0.000605 -0.005081 0.000909
# 4 0.001215 -0.000695 0.000605 0.019784 0.006112 -0.000630
# 5 -0.000500 0.002024 -0.005081 0.006112 0.029645 0.001803
# 6 0.014282 0.000392 0.000909 -0.000630 0.001803 0.036991
#
#
# Mechanical properties :
#
#
# Convention : Reuss Voigt Hill
#
# Bulk Modulus (GPa) = 42.02816 67.93777 54.98297
# Shear Modulus (GPa) = 31.82175 42.18075 37.00125
#
# Velocity S-wave (km/s) = 3.66952 4.22478 3.95691
# Velocity P-wave (km/s) = 5.97813 7.24888 6.64396
#
# Compressibility (1/GPa) = 0.02379357
#
# Stress axis : x y z
#
# Youngs Moduli (GPa) = 60.84719 104.61529 57.83537
#
# Poissons Ratio (x) = 0.33807 0.11839
# Poissons Ratio (y) = 0.19663 0.25832
# Poissons Ratio (z) = 0.12456 0.46726
#
# Static dielectric constant tensor:
#      x y z
#    x 1.952910 -0.051190 -0.015170 
#    y -0.051190 1.984690 -0.016600 
#    z -0.015170 -0.016600 2.046390 
# 
# From -- ./inp_files/364238.got.cif
#   From: 2010.05.17/outbox.cif.g08.bks.cpg/sg2_183_cif.got.tgz:364238.got - 2010.06.03 11:33:40.
