data_PCOD9027117
_publ_section_title
;
Structure prediction by ZEFSAII (Michael W. Deem and Ramdas Pophale) SiO2 
 PCOD9027117
Probable space group: P -1
;
_chemical_formula_sum "Si O2"
_cell_formula_units_Z 14
_cell_length_a 21.954099
_cell_length_b 5.101373
_cell_length_c 7.213886
_cell_angle_alpha 136.647087
_cell_angle_beta 110.416260
_cell_angle_gamma 67.681811
_cell_volume 509.711988
_symmetry_space_group_name_H-M "P -1"
_symmetry_group_IT_number 2
_symmetry_cell_setting 'triclinic'
loop_
_space_group_symop_operation_xyz
x,y,z
-x,-y,-z
loop_
_atom_site_type_symbol
_atom_site_label
_atom_site_fract_x
_atom_site_fract_y
_atom_site_fract_z
Si Si1 0.438542 0.628552 0.796068
Si Si2 0.205687 0.504960 0.723780
Si Si3 0.323287 0.844787 0.494867
Si Si4 0.994873 0.963552 0.253391
Si Si5 0.192047 0.668182 0.375256
Si Si6 0.421903 0.770371 0.271774
Si Si7 0.112869 0.821722 0.051792
O O1 0.384297 0.799883 0.676790
O O2 0.515838 0.575657 0.795364
O O3 0.432909 0.174808 0.578413
O O4 0.422276 0.815313 0.075004
O O5 0.180536 0.609304 0.545765
O O6 0.282159 0.288615 0.677476
O O7 0.183367 0.832822 0.024481
O O8 0.175271 0.136717 0.568172
O O9 0.270204 0.582443 0.365601
O O10 0.354423 0.712734 0.262605
O O11 0.055051 0.067107 0.246944
O O12 0.000000 0.000000 0.500000
O O13 0.000000 0.500000 0.000000
O O14 0.930768 0.179937 0.182338
O O15 0.146274 0.523916 0.098273
#
# Coordination Sequence:
#
# PCOD9027117 Si02
#       7
#     2   2   2   2   2   2   2
#     4  10  22  41  66  97 138 186 239 298 361 428
#     4  10  25  43  68 103 142 188 238 292 359 430
#     4  10  23  40  68  97 142 180 246 288 370 413
#     4  11  28  47  78 108 147 186 245 293 360 426
#     4  10  25  43  68 103 142 188 238 292 359 430
#     4  10  22  41  66  97 138 186 239 298 361 428
#     4  11  26  44  76 102 149 188 238 296 359 428
#
# _framework density 27.46649
#
# number of rings (size 3 to 8) (size 9 to 14) (size 15 to 20)
#    0.857    0.857    0.000    2.143    8.000    6.857 
#    0.000    4.286    0.000    0.000    0.000    0.000 
#    0.000    0.000    0.000    0.000    0.000    0.000 
#
# Total GULP energy -78147.246386 kJ/mol
# GULP energy per Si atom -5581.946170 kJ/mol
# Density = 2.740398 g / cm^3
# Si number density = 27.466490 Si / 1000 Ang^3
#
#
#
# Elastic Constant Matrix: (Units=GPa)
#
#
# Indices 1 2 3 4 5 6 
#
# 1 120.6718 34.7714 79.9376 -15.2726 -46.8081 -35.1118
# 2 34.7714 151.5237 66.9761 -44.5561 -10.0925 -16.4779
# 3 79.9376 66.9761 179.2549 -34.6330 -29.2320 -9.4638
# 4 -15.2726 -44.5561 -34.6330 60.1338 7.4574 11.8716
# 5 -46.8081 -10.0925 -29.2320 7.4574 54.0245 2.0969
# 6 -35.1118 -16.4779 -9.4638 11.8716 2.0969 48.7835
#
#
#
# Elastic Compliance Matrix: (Units=1/GPa)
#
#
# Indices 1 2 3 4 5 6 
#
# 1 0.024161 -0.000376 -0.007840 -0.003861 0.016534 0.015971
# 2 -0.000376 0.009381 -0.002344 0.005353 -0.000626 0.001168
# 3 -0.007840 -0.002344 0.009973 0.003305 -0.002088 -0.005214
# 4 -0.003861 0.005353 0.003305 0.023100 -0.003521 -0.005800
# 5 0.016534 -0.000626 -0.002088 -0.003521 0.031656 0.010780
# 6 0.015971 0.001168 -0.005214 -0.005800 0.010780 0.032325
#
#
# Mechanical properties :
#
#
# Convention : Reuss Voigt Hill
#
# Bulk Modulus (GPa) = 44.65283 90.53561 67.59422
# Shear Modulus (GPa) = 31.41067 50.57273 40.99170
#
# Velocity S-wave (km/s) = 3.38538 4.29564 3.86738
# Velocity P-wave (km/s) = 5.61904 7.59191 6.67872
#
# Compressibility (1/GPa) = 0.02239499
#
# Stress axis : x y z
#
# Youngs Moduli (GPa) = 41.38918 106.59670 100.26775
#
# Poissons Ratio (x) = 0.04010 0.78614
# Poissons Ratio (y) = 0.01557 0.23499
# Poissons Ratio (z) = 0.32451 0.24982
#
# Static dielectric constant tensor:
#      x y z
#    x 2.277580 0.046250 0.106320 
#    y 0.046250 2.193890 0.169040 
#    z 0.106320 0.169040 2.318020 
# 
# From -- ./inp_files/121901.got.cif
#   From: 2010.05.17/outbox.cif.g08.bks.cpg/sg2_61_cif.got.tgz:121901.got - 2010.06.03 11:33:40.
