data_PCOD9027937
_publ_section_title
;
Structure prediction by ZEFSAII (Michael W. Deem and Ramdas Pophale) SiO2 
 PCOD9027937
Probable space group: P -1
;
_chemical_formula_sum "Si O2"
_cell_formula_units_Z 14
_cell_length_a 5.852545
_cell_length_b 17.762395
_cell_length_c 8.612577
_cell_angle_alpha 62.973783
_cell_angle_beta 51.708035
_cell_angle_gamma 63.679343
_cell_volume 608.972490
_symmetry_space_group_name_H-M "P -1"
_symmetry_group_IT_number 2
_symmetry_cell_setting 'triclinic'
loop_
_space_group_symop_operation_xyz
x,y,z
-x,-y,-z
loop_
_atom_site_type_symbol
_atom_site_label
_atom_site_fract_x
_atom_site_fract_y
_atom_site_fract_z
Si Si1 0.945894 0.975892 0.719261
Si Si2 0.373783 0.811343 0.834811
Si Si3 0.527258 0.594367 0.341420
Si Si4 0.697926 0.547191 0.983224
Si Si5 0.565819 0.126375 0.913264
Si Si6 0.883439 0.715986 0.192605
Si Si7 0.085462 0.306119 0.431217
O O1 0.219976 0.902962 0.737247
O O2 0.855992 0.062835 0.778437
O O3 0.660480 0.932835 0.886135
O O4 0.000000 0.000000 0.500000
O O5 0.707732 0.775479 0.665706
O O6 0.364738 0.825142 0.009376
O O7 0.164285 0.742953 0.964582
O O8 0.500000 0.500000 0.500000
O O9 0.495391 0.592903 0.170189
O O10 0.820826 0.628574 0.225796
O O11 0.269100 0.665225 0.469446
O O12 0.500000 0.500000 0.000000
O O13 0.800728 0.613636 0.762403
O O14 0.000000 0.500000 0.000000
O O15 0.382668 0.198918 0.808334
O O16 0.884371 0.704423 0.387450
#
# Coordination Sequence:
#
# PCOD9027937 Si02
#       7
#     2   2   2   2   2   2   2
#     4  10  22  41  70 102 140 184 235 293 363 438
#     4  11  25  44  69 105 143 188 239 298 369 439
#     4  12  27  48  71 102 140 190 244 308 372 447
#     4  12  28  48  75 106 145 190 251 317 383 452
#     4  10  22  43  67 101 143 184 235 297 357 441
#     4  11  25  44  71 100 143 185 245 295 371 439
#     4  12  26  42  71  99 140 187 241 304 371 443
#
# _framework density 22.989543999999999
#
# number of rings (size 3 to 8) (size 9 to 14) (size 15 to 20)
#    0.000    0.857    1.429    4.714    4.000    6.286 
#    0.000    0.000    0.000    0.000    0.000    0.000 
#    0.000    0.000    0.000    0.000    0.000    0.000 
#
# Total GULP energy -78282.914986 kJ/mol
# GULP energy per Si atom -5591.636785 kJ/mol
# Density = 2.293722 g / cm^3
# Si number density = 22.989544 Si / 1000 Ang^3
#
#
#
# Elastic Constant Matrix: (Units=GPa)
#
#
# Indices 1 2 3 4 5 6 
#
# 1 68.8653 43.9971 22.6965 4.0322 3.0789 -7.4255
# 2 43.9971 109.5402 52.3172 20.8840 -7.4520 -21.2094
# 3 22.6965 52.3172 121.7255 0.6764 15.0020 -13.8107
# 4 4.0322 20.8840 0.6764 50.6109 -8.4443 3.7977
# 5 3.0789 -7.4520 15.0020 -8.4443 37.8046 -4.9672
# 6 -7.4255 -21.2094 -13.8107 3.7977 -4.9672 49.4138
#
#
#
# Elastic Compliance Matrix: (Units=1/GPa)
#
#
# Indices 1 2 3 4 5 6 
#
# 1 0.020087 -0.009044 0.000410 0.001655 -0.003371 -0.001215
# 2 -0.009044 0.018575 -0.006365 -0.006253 0.006309 0.005949
# 3 0.000410 -0.006365 0.011535 0.001524 -0.005541 -0.000120
# 4 0.001655 -0.006253 0.001524 0.022897 0.002683 -0.003499
# 5 -0.003371 0.006309 -0.005541 0.002683 0.031239 0.003587
# 6 -0.001215 0.005949 -0.000120 -0.003499 0.003587 0.023204
#
#
# Mechanical properties :
#
#
# Convention : Reuss Voigt Hill
#
# Bulk Modulus (GPa) = 49.50599 59.79472 54.65035
# Shear Modulus (GPa) = 30.43835 39.64053 35.03944
#
# Velocity S-wave (km/s) = 3.64264 4.15696 3.90827
# Velocity P-wave (km/s) = 6.26679 7.00759 6.64752
#
# Compressibility (1/GPa) = 0.02019958
#
# Stress axis : x y z
#
# Youngs Moduli (GPa) = 49.78407 53.83690 86.69246
#
# Poissons Ratio (x) = 0.48689 -0.03556
# Poissons Ratio (y) = 0.45024 0.55178
# Poissons Ratio (z) = -0.02042 0.34266
#
# Static dielectric constant tensor:
#      x y z
#    x 1.944060 -0.062860 -0.071020 
#    y -0.062860 1.929370 0.029690 
#    z -0.071020 0.029690 1.830350 
# 
# From -- ./inp_files/12652.got.cif
#   From: 2010.05.17/outbox.cif.g08.bks.cpg/sg2_7_cif.got.tgz:12652.got - 2010.06.03 11:33:40.
