data_PCOD9027368
_publ_section_title
;
Structure prediction by ZEFSAII (Michael W. Deem and Ramdas Pophale) SiO2 
 PCOD9027368
Probable space group: P -1
;
_chemical_formula_sum "Si O2"
_cell_formula_units_Z 16
_cell_length_a 18.130604
_cell_length_b 14.926200
_cell_length_c 24.683849
_cell_angle_alpha 158.267014
_cell_angle_beta 162.597931
_cell_angle_gamma 29.576309
_cell_volume 731.290363
_symmetry_space_group_name_H-M "P -1"
_symmetry_group_IT_number 2
_symmetry_cell_setting 'triclinic'
loop_
_space_group_symop_operation_xyz
x,y,z
-x,-y,-z
loop_
_atom_site_type_symbol
_atom_site_label
_atom_site_fract_x
_atom_site_fract_y
_atom_site_fract_z
Si Si1 0.646067 0.933752 0.512095
Si Si2 0.619514 0.768198 0.933706
Si Si3 0.736360 0.463465 0.026799
Si Si4 0.348280 0.262367 0.424265
Si Si5 0.415489 0.047461 0.763125
Si Si6 0.022086 0.598465 0.197726
Si Si7 0.196643 0.885983 0.020948
Si Si8 0.817039 0.849146 0.002866
O O1 0.500000 0.000000 0.500000
O O2 0.578296 0.134533 0.534245
O O3 0.520824 0.671923 0.255487
O O4 0.940413 0.967205 0.742998
O O5 0.417406 0.548464 0.644547
O O6 0.803327 0.843297 0.054537
O O7 0.775061 0.663818 0.031841
O O8 0.500000 0.000000 0.000000
O O9 0.714026 0.735818 0.181933
O O10 0.783654 0.304563 0.023187
O O11 0.939163 0.473892 0.127172
O O12 0.097130 0.154244 0.220460
O O13 0.285158 0.154999 0.259814
O O14 0.213466 0.842300 0.479504
O O15 0.622027 0.150681 0.921204
O O16 0.566324 0.927103 0.847407
O O17 0.144578 0.411648 0.141326
#
# Coordination Sequence:
#
# PCOD9027368 Si02
#       8
#     2   2   2   2   2   2   2   2
#     4  11  21  42  69  94 134 174 231 278 333 402
#     4  12  27  44  70 102 138 178 225 285 343 398
#     4  11  25  43  70 100 136 181 220 284 343 395
#     4  10  22  41  67  97 133 174 232 269 339 400
#     4  12  27  43  66 106 139 174 228 279 342 402
#     4  12  26  46  70  97 140 182 225 276 339 410
#     4  10  24  41  72  98 137 180 225 280 339 404
#     4  12  26  43  72  98 134 182 229 277 336 406
#
# _framework density 21.879135000000002
#
# number of rings (size 3 to 8) (size 9 to 14) (size 15 to 20)
#    0.000    0.750    2.500    3.750   10.500    1.500 
#    0.000    0.000    0.000    0.000    0.000    0.000 
#    0.000    0.000    0.000    0.000    0.000    0.000 
#
# Total GULP energy -89547.606143 kJ/mol
# GULP energy per Si atom -5596.725384 kJ/mol
# Density = 2.182934 g / cm^3
# Si number density = 21.879135 Si / 1000 Ang^3
#
#
#
# Elastic Constant Matrix: (Units=GPa)
#
#
# Indices 1 2 3 4 5 6 
#
# 1 94.0879 8.5657 0.8176 7.6260 2.4139 2.5044
# 2 8.5657 88.7484 27.4130 13.6648 -15.0311 6.0449
# 3 0.8176 27.4130 90.5582 1.7788 2.9465 -11.8911
# 4 7.6260 13.6648 1.7788 32.1520 -2.9989 -8.2079
# 5 2.4139 -15.0311 2.9465 -2.9989 19.8787 0.6870
# 6 2.5044 6.0449 -11.8911 -8.2079 0.6870 31.7325
#
#
#
# Elastic Compliance Matrix: (Units=1/GPa)
#
#
# Indices 1 2 3 4 5 6 
#
# 1 0.011042 -0.001044 0.000187 -0.002742 -0.002528 -0.001257
# 2 -0.001044 0.017366 -0.006576 -0.007547 0.013368 -0.007931
# 3 0.000187 -0.006576 0.014181 0.003250 -0.006867 0.007541
# 4 -0.002742 -0.007547 0.003250 0.037971 -0.000566 0.012706
# 5 -0.002528 0.013368 -0.006867 -0.000566 0.061874 -0.006406
# 6 -0.001257 -0.007931 0.007541 0.012706 -0.006406 0.039375
#
#
# Mechanical properties :
#
#
# Convention : Reuss Voigt Hill
#
# Bulk Modulus (GPa) = 36.06815 38.55411 37.31113
# Shear Modulus (GPa) = 24.28171 32.52585 28.40378
#
# Velocity S-wave (km/s) = 3.33500 3.85985 3.60698
# Velocity P-wave (km/s) = 5.59916 6.12570 5.86834
#
# Compressibility (1/GPa) = 0.02772529
#
# Stress axis : x y z
#
# Youngs Moduli (GPa) = 90.56019 57.58338 70.51538
#
# Poissons Ratio (x) = 0.06012 -0.01322
# Poissons Ratio (y) = 0.09454 0.46369
# Poissons Ratio (z) = -0.01697 0.37865
#
# Static dielectric constant tensor:
#      x y z
#    x 1.797860 0.031400 0.007610 
#    y 0.031400 1.779580 -0.007890 
#    z 0.007610 -0.007890 1.789930 
# 
# From -- ./inp_files/257454.got.cif
#   From: 2010.05.17/outbox.cif.g08.bks.cpg/sg2_129_cif.got.tgz:257454.got - 2010.06.03 11:33:40.
