data_PCOD9027357
_publ_section_title
;
Structure prediction by ZEFSAII (Michael W. Deem and Ramdas Pophale) SiO2 
 PCOD9027357
Probable space group: P -1
;
_chemical_formula_sum "Si O2"
_cell_formula_units_Z 16
_cell_length_a 18.098205
_cell_length_b 12.066017
_cell_length_c 5.518545
_cell_angle_alpha 84.516064
_cell_angle_beta 79.824292
_cell_angle_gamma 140.361897
_cell_volume 703.324414
_symmetry_space_group_name_H-M "P -1"
_symmetry_group_IT_number 2
_symmetry_cell_setting 'triclinic'
loop_
_space_group_symop_operation_xyz
x,y,z
-x,-y,-z
loop_
_atom_site_type_symbol
_atom_site_label
_atom_site_fract_x
_atom_site_fract_y
_atom_site_fract_z
Si Si1 0.230359 0.381032 0.139753
Si Si2 0.010643 0.883347 0.943594
Si Si3 0.655229 0.145464 0.027822
Si Si4 0.231489 0.548716 0.491472
Si Si5 0.302630 0.991817 0.319780
Si Si6 0.874568 0.378419 0.239512
Si Si7 0.447647 0.772828 0.707920
Si Si8 0.160115 0.041249 0.307575
O O1 0.189688 0.387234 0.415899
O O2 0.215429 0.231221 0.194198
O O3 0.369133 0.592870 0.958956
O O4 0.133868 0.315705 0.007892
O O5 0.081920 0.919936 0.131059
O O6 0.084807 0.955446 0.628144
O O7 0.000000 0.000000 0.000000
O O8 0.718425 0.305743 0.770389
O O9 0.637032 0.006333 0.937209
O O10 0.759215 0.250708 0.148703
O O11 0.546727 0.094598 0.212827
O O12 0.121481 0.494180 0.676561
O O13 0.354199 0.671558 0.556800
O O14 0.173775 0.773955 0.515576
O O15 0.412898 0.108208 0.430663
O O16 0.266183 0.073540 0.267892
O O17 0.000000 0.500000 0.000000
#
# Coordination Sequence:
#
# PCOD9027357 Si02
#       8
#     2   2   2   2   2   2   2   2
#     4  10  22  41  69  97 131 174 229 280 337 410
#     4  10  23  45  69  98 136 182 235 280 337 410
#     4   9  21  42  64  91 127 174 226 277 337 408
#     4   9  21  39  65  96 124 174 229 275 332 406
#     4  11  25  42  64  96 139 176 226 286 341 412
#     4  10  23  42  62  96 134 173 220 280 348 408
#     4  10  22  41  67  97 127 180 232 280 339 402
#     4  11  26  43  69 106 140 183 226 285 353 405
#
# _framework density 22.749103000000002
#
# number of rings (size 3 to 8) (size 9 to 14) (size 15 to 20)
#    0.000    2.000    0.000    1.875    7.000   13.000 
#    0.000    0.625    0.000    0.000    0.000    0.000 
#    0.000    0.000    0.000    0.000    0.000    0.000 
#
# Total GULP energy -89329.394579 kJ/mol
# GULP energy per Si atom -5583.087161 kJ/mol
# Density = 2.269733 g / cm^3
# Si number density = 22.749103 Si / 1000 Ang^3
#
#
#
# Elastic Constant Matrix: (Units=GPa)
#
#
# Indices 1 2 3 4 5 6 
#
# 1 171.8197 53.5209 52.7206 0.4817 -11.7271 -8.0887
# 2 53.5209 111.0229 41.0345 -1.8494 -12.2128 -13.9189
# 3 52.7206 41.0345 97.8336 0.8210 0.1058 1.2088
# 4 0.4817 -1.8494 0.8210 43.6369 4.2501 -0.5716
# 5 -11.7271 -12.2128 0.1058 4.2501 22.2763 -4.6828
# 6 -8.0887 -13.9189 1.2088 -0.5716 -4.6828 32.7471
#
#
#
# Elastic Compliance Matrix: (Units=1/GPa)
#
#
# Indices 1 2 3 4 5 6 
#
# 1 0.007782 -0.001887 -0.003424 -0.000422 0.003526 0.001744
# 2 -0.001887 0.013285 -0.004643 0.000009 0.007666 0.006448
# 3 -0.003424 -0.004643 0.014070 0.000037 -0.005283 -0.004094
# 4 -0.000422 0.000009 0.000037 0.023379 -0.004756 -0.000374
# 5 0.003526 0.007666 -0.005283 -0.004756 0.054410 0.012022
# 6 0.001744 0.006448 -0.004094 -0.000374 0.012022 0.035572
#
#
# Mechanical properties :
#
#
# Convention : Reuss Voigt Hill
#
# Bulk Modulus (GPa) = 65.66516 75.02536 70.34526
# Shear Modulus (GPa) = 28.82126 35.29207 32.05667
#
# Velocity S-wave (km/s) = 3.56324 3.94300 3.75792
# Velocity P-wave (km/s) = 6.77174 7.33354 7.05823
#
# Compressibility (1/GPa) = 0.01522878
#
# Stress axis : x y z
#
# Youngs Moduli (GPa) = 128.49621 75.27454 71.07179
#
# Poissons Ratio (x) = 0.14201 0.24337
# Poissons Ratio (y) = 0.24242 0.33002
# Poissons Ratio (z) = 0.44001 0.34953
#
# Static dielectric constant tensor:
#      x y z
#    x 1.804150 0.008600 0.003400 
#    y 0.008600 1.883680 0.007120 
#    z 0.003400 0.007120 2.004520 
# 
# From -- ./inp_files/94764.got.cif
#   From: 2010.05.17/outbox.cif.g08.bks.cpg/sg2_48_cif.got.tgz:94764.got - 2010.06.03 11:33:40.
