data_PCOD9027670
_publ_section_title
;
Structure prediction by ZEFSAII (Michael W. Deem and Ramdas Pophale) SiO2 
 PCOD9027670
Probable space group: P -1
;
_chemical_formula_sum "Si O2"
_cell_formula_units_Z 16
_cell_length_a 11.693180
_cell_length_b 15.103622
_cell_length_c 9.571006
_cell_angle_alpha 65.892222
_cell_angle_beta 105.714584
_cell_angle_gamma 151.550336
_cell_volume 719.707475
_symmetry_space_group_name_H-M "P -1"
_symmetry_group_IT_number 2
_symmetry_cell_setting 'triclinic'
loop_
_space_group_symop_operation_xyz
x,y,z
-x,-y,-z
loop_
_atom_site_type_symbol
_atom_site_label
_atom_site_fract_x
_atom_site_fract_y
_atom_site_fract_z
Si Si1 0.374000 0.986180 0.773847
Si Si2 0.511740 0.727238 0.234278
Si Si3 0.601907 0.797198 0.901162
Si Si4 0.943541 0.669124 0.018315
Si Si5 0.708042 0.691698 0.845533
Si Si6 0.016417 0.281367 0.421258
Si Si7 0.773926 0.775981 0.509811
Si Si8 0.808384 0.155247 0.722323
O O1 0.219077 0.897436 0.640091
O O2 0.460658 0.145495 0.777292
O O3 0.603765 0.085473 0.744973
O O4 0.179595 0.794472 0.936651
O O5 0.226957 0.493989 0.278293
O O6 0.629541 0.736477 0.376807
O O7 0.634678 0.807170 0.071543
O O8 0.313249 0.569825 0.926294
O O9 0.757096 0.830935 0.840139
O O10 0.676082 0.957883 0.782078
O O11 0.005963 0.724383 0.165407
O O12 0.912513 0.754421 0.883310
O O13 0.628517 0.646047 0.688294
O O14 0.500000 0.500000 0.000000
O O15 0.129150 0.255326 0.499812
O O16 0.944338 0.278266 0.545256
O O17 0.000000 0.000000 0.500000
#
# Coordination Sequence:
#
# PCOD9027670 Si02
#       8
#     2   2   2   2   2   2   2   2
#     4  12  25  50  65  97 140 177 234 280 330 393
#     4  12  26  43  74  98 137 183 219 272 349 402
#     4  11  25  44  70 104 132 177 225 276 342 406
#     4  11  23  45  69 100 137 171 224 287 332 398
#     4  10  22  41  68  99 137 166 213 280 331 399
#     4  12  26  46  68 103 135 176 227 278 338 404
#     4  12  23  44  71 100 139 177 211 280 344 401
#     4  12  29  42  72  98 132 184 232 280 329 398
#
# _framework density 22.231255000000001
#
# number of rings (size 3 to 8) (size 9 to 14) (size 15 to 20)
#    0.000    0.500    5.000    2.625    5.250    2.500 
#    0.000    0.000    0.000    0.000    0.000    0.000 
#    0.000    0.000    0.000    0.000    0.000    0.000 
#
# Total GULP energy -89588.983308 kJ/mol
# GULP energy per Si atom -5599.311457 kJ/mol
# Density = 2.218066 g / cm^3
# Si number density = 22.231255 Si / 1000 Ang^3
#
#
#
# Elastic Constant Matrix: (Units=GPa)
#
#
# Indices 1 2 3 4 5 6 
#
# 1 68.4687 13.8993 14.8938 16.3711 -8.7667 3.9638
# 2 13.8993 81.0004 -6.3115 8.1252 11.2421 -7.7449
# 3 14.8938 -6.3115 74.5152 11.9562 -17.9021 7.6196
# 4 16.3711 8.1252 11.9562 36.5644 -3.0547 -5.7727
# 5 -8.7667 11.2421 -17.9021 -3.0547 33.1782 -1.4285
# 6 3.9638 -7.7449 7.6196 -5.7727 -1.4285 18.3972
#
#
#
# Elastic Compliance Matrix: (Units=1/GPa)
#
#
# Indices 1 2 3 4 5 6 
#
# 1 0.018478 -0.003792 -0.000878 -0.007913 0.004649 -0.007336
# 2 -0.003792 0.014484 0.000184 -0.001097 -0.005651 0.006055
# 3 -0.000878 0.000184 0.017360 -0.005928 0.008176 -0.008149
# 4 -0.007913 -0.001097 -0.005928 0.035308 -0.001034 0.014697
# 5 0.004649 -0.005651 0.008176 -0.001034 0.037420 -0.004186
# 6 -0.007336 0.006055 -0.008149 0.014697 -0.004186 0.066148
#
#
# Mechanical properties :
#
#
# Convention : Reuss Voigt Hill
#
# Bulk Modulus (GPa) = 24.18360 29.88304 27.03332
# Shear Modulus (GPa) = 23.59025 31.06149 27.32587
#
# Velocity S-wave (km/s) = 3.26103 3.74197 3.50975
# Velocity P-wave (km/s) = 5.00809 5.66929 5.34891
#
# Compressibility (1/GPa) = 0.04135033
#
# Stress axis : x y z
#
# Youngs Moduli (GPa) = 54.11825 69.04190 57.60460
#
# Poissons Ratio (x) = 0.26181 0.05055
# Poissons Ratio (y) = 0.20522 -0.01060
# Poissons Ratio (z) = 0.04749 -0.01270
#
# Static dielectric constant tensor:
#      x y z
#    x 1.824290 0.009610 -0.003150 
#    y 0.009610 1.828040 -0.017170 
#    z -0.003150 -0.017170 1.822560 
# 
# From -- ./inp_files/272567.got.cif
#   From: 2010.05.17/outbox.cif.g08.bks.cpg/sg2_137_cif.got.tgz:272567.got - 2010.06.03 11:33:40.
