data_PCOD9027515
_publ_section_title
;
Structure prediction by ZEFSAII (Michael W. Deem and Ramdas Pophale) SiO2 
 PCOD9027515
Probable space group: P -1
;
_chemical_formula_sum "Si O2"
_cell_formula_units_Z 16
_cell_length_a 14.269895
_cell_length_b 9.554646
_cell_length_c 16.523133
_cell_angle_alpha 152.092960
_cell_angle_beta 129.150852
_cell_angle_gamma 56.391160
_cell_volume 817.619412
_symmetry_space_group_name_H-M "P -1"
_symmetry_group_IT_number 2
_symmetry_cell_setting 'triclinic'
loop_
_space_group_symop_operation_xyz
x,y,z
-x,-y,-z
loop_
_atom_site_type_symbol
_atom_site_label
_atom_site_fract_x
_atom_site_fract_y
_atom_site_fract_z
Si Si1 0.819905 0.048625 0.121292
Si Si2 0.254025 0.546252 0.565412
Si Si3 0.027278 0.799091 0.488626
Si Si4 0.303333 0.889796 0.219017
Si Si5 0.482048 0.376294 0.517202
Si Si6 0.885675 0.204250 0.067285
Si Si7 0.955542 0.160544 0.789896
Si Si8 0.299221 0.583631 0.220970
O O1 0.966350 0.020286 0.194422
O O2 0.775218 0.311618 0.290640
O O3 0.804482 0.070670 0.027997
O O4 0.753992 0.751018 0.967733
O O5 0.161426 0.678068 0.516487
O O6 0.241881 0.187340 0.375727
O O7 0.389620 0.585894 0.625036
O O8 0.940128 0.512835 0.288173
O O9 0.000000 0.000000 0.500000
O O10 0.001563 0.011465 0.657905
O O11 0.186363 0.804884 0.279197
O O12 0.344737 0.663662 0.196042
O O13 0.202256 0.750987 0.034286
O O14 0.500000 0.500000 0.500000
O O15 0.602772 0.360432 0.627820
O O16 0.414744 0.050913 0.315376
O O17 0.000000 0.000000 0.000000
O O18 0.000000 0.500000 0.000000
#
# Coordination Sequence:
#
# PCOD9027515 Si02
#       8
#     2   2   2   2   2   2   2   2
#     4  10  23  40  63  94 129 169 208 262 323 378
#     4   9  23  42  61  92 128 163 220 254 324 378
#     4  11  25  37  63  94 131 164 206 264 317 381
#     4  10  23  40  63  93 124 166 215 259 316 379
#     4  10  22  41  68  90 125 166 220 264 318 377
#     4  12  23  39  64  94 136 167 212 260 324 382
#     4   9  22  37  62  93 125 160 210 253 319 377
#     4  11  22  39  69  89 125 170 216 259 320 378
#
# _framework density 19.569006999999999
#
# number of rings (size 3 to 8) (size 9 to 14) (size 15 to 20)
#    0.750    1.000    1.250    1.875   12.250    1.500 
#    0.000    0.000    0.000    2.250    0.000    0.000 
#    0.000    0.000    0.000    0.000    0.000    0.000 
#
# Total GULP energy -89110.974361 kJ/mol
# GULP energy per Si atom -5569.435898 kJ/mol
# Density = 1.952447 g / cm^3
# Si number density = 19.569007 Si / 1000 Ang^3
#
#
#
# Elastic Constant Matrix: (Units=GPa)
#
#
# Indices 1 2 3 4 5 6 
#
# 1 80.8578 40.1498 26.8010 -4.6742 8.7169 -2.6209
# 2 40.1498 123.0455 36.7060 -15.1948 11.2009 17.5176
# 3 26.8010 36.7060 74.0102 -8.3160 -3.1058 -5.6734
# 4 -4.6742 -15.1948 -8.3160 34.8687 -6.4912 8.7678
# 5 8.7169 11.2009 -3.1058 -6.4912 30.4004 -4.0281
# 6 -2.6209 17.5176 -5.6734 8.7678 -4.0281 34.9149
#
#
#
# Elastic Compliance Matrix: (Units=1/GPa)
#
#
# Indices 1 2 3 4 5 6 
#
# 1 0.016217 -0.004548 -0.003764 -0.002100 -0.003407 0.003022
# 2 -0.004548 0.013829 -0.005523 0.005823 -0.004457 -0.010154
# 3 -0.003764 -0.005523 0.018445 0.001126 0.006020 0.005897
# 4 -0.002100 0.005823 0.001126 0.034845 0.004538 -0.011123
# 5 -0.003407 -0.004457 0.006020 0.004538 0.037918 0.006194
# 6 0.003022 -0.010154 0.005897 -0.011123 0.006194 0.038428
#
#
# Mechanical properties :
#
#
# Convention : Reuss Voigt Hill
#
# Bulk Modulus (GPa) = 48.02844 53.91411 50.97128
# Shear Modulus (GPa) = 25.73427 31.65393 28.69410
#
# Velocity S-wave (km/s) = 3.63030 4.02625 3.83339
# Velocity P-wave (km/s) = 6.49373 7.01604 6.75993
#
# Compressibility (1/GPa) = 0.02082100
#
# Stress axis : x y z
#
# Youngs Moduli (GPa) = 61.66241 72.31195 54.21516
#
# Poissons Ratio (x) = 0.32889 0.20408
# Poissons Ratio (y) = 0.28045 0.29941
# Poissons Ratio (z) = 0.23211 0.39936
#
# Static dielectric constant tensor:
#      x y z
#    x 1.790500 -0.014220 0.069960 
#    y -0.014220 1.724040 0.000140 
#    z 0.069960 0.000140 1.676760 
# 
# From -- ./inp_files/530307.got.cif
#   From: 2010.05.17/outbox.cif.g08.bks.cpg/sg2_266_cif.got.tgz:530307.got - 2010.06.03 11:33:40.
