data_PCOD9027089
_publ_section_title
;
Structure prediction by ZEFSAII (Michael W. Deem and Ramdas Pophale) SiO2 
 PCOD9027089
Probable space group: P -1
;
_chemical_formula_sum "Si O2"
_cell_formula_units_Z 14
_cell_length_a 5.188665
_cell_length_b 7.110087
_cell_length_c 22.322619
_cell_angle_alpha 116.396400
_cell_angle_beta 58.842774
_cell_angle_gamma 79.321610
_cell_volume 530.569183
_symmetry_space_group_name_H-M "P -1"
_symmetry_group_IT_number 2
_symmetry_cell_setting 'triclinic'
loop_
_space_group_symop_operation_xyz
x,y,z
-x,-y,-z
loop_
_atom_site_type_symbol
_atom_site_label
_atom_site_fract_x
_atom_site_fract_y
_atom_site_fract_z
Si Si1 0.059930 0.712294 0.658492
Si Si2 0.803720 0.771553 0.470919
Si Si3 0.608917 0.723878 0.063493
Si Si4 0.525720 0.307348 0.048369
Si Si5 0.615465 0.530141 0.292075
Si Si6 0.503348 0.027983 0.338624
Si Si7 0.652300 0.138171 0.139329
O O1 0.254769 0.455546 0.559769
O O2 0.125758 0.582401 0.697682
O O3 0.231276 0.878162 0.667722
O O4 0.696478 0.868895 0.685626
O O5 0.768235 0.854456 0.555626
O O6 0.500000 0.000000 0.500000
O O7 0.796879 0.331445 0.615790
O O8 0.395686 0.591969 0.085822
O O9 0.482662 0.973106 0.149686
O O10 0.639521 0.768137 0.995647
O O11 0.000000 0.500000 0.000000
O O12 0.473548 0.290022 0.121600
O O13 0.943180 0.093759 0.955777
O O14 0.669951 0.312891 0.210584
O O15 0.663800 0.734168 0.282331
#
# Coordination Sequence:
#
# PCOD9027089 Si02
#       7
#     2   2   2   2   2   2   2
#     4  12  27  48  76 105 142 195 242 308 364 433
#     4  12  25  49  79 100 146 195 248 305 365 433
#     4   9  18  37  67  97 128 175 231 274 338 424
#     4   9  19  40  68  96 130 185 225 275 347 433
#     4  12  28  46  67 112 149 186 245 314 358 432
#     4  12  27  47  76 105 142 198 248 292 372 442
#     4  10  22  41  66  96 138 178 227 286 357 411
#
# _framework density 26.386755000000001
#
# number of rings (size 3 to 8) (size 9 to 14) (size 15 to 20)
#    0.000    1.143    2.857    2.571    2.000    2.286 
#    7.714    0.000    0.000    0.000    0.000    0.000 
#    0.000    0.000    0.000    0.000    0.000    0.000 
#
# Total GULP energy -78370.050868 kJ/mol
# GULP energy per Si atom -5597.860776 kJ/mol
# Density = 2.632670 g / cm^3
# Si number density = 26.386755 Si / 1000 Ang^3
#
#
#
# Elastic Constant Matrix: (Units=GPa)
#
#
# Indices 1 2 3 4 5 6 
#
# 1 109.6494 47.9246 37.7575 10.9479 24.8401 -8.2616
# 2 47.9246 176.1348 73.8494 11.4525 31.9909 -6.3084
# 3 37.7575 73.8494 160.4600 1.8654 46.4411 -2.0344
# 4 10.9479 11.4525 1.8654 55.7177 2.5907 20.1053
# 5 24.8401 31.9909 46.4411 2.5907 63.3975 4.7400
# 6 -8.2616 -6.3084 -2.0344 20.1053 4.7400 63.0827
#
#
#
# Elastic Compliance Matrix: (Units=1/GPa)
#
#
# Indices 1 2 3 4 5 6 
#
# 1 0.011349 -0.001952 -0.000879 -0.002485 -0.002886 0.002271
# 2 -0.001952 0.007679 -0.002719 -0.001396 -0.001133 0.000954
# 3 -0.000879 -0.002719 0.009133 0.000628 -0.005006 0.000083
# 4 -0.002485 -0.001396 0.000628 0.021294 0.000893 -0.007298
# 5 -0.002886 -0.001133 -0.005006 0.000893 0.021296 -0.002537
# 6 0.002271 0.000954 0.000083 -0.007298 -0.002537 0.018765
#
#
# Mechanical properties :
#
#
# Convention : Reuss Voigt Hill
#
# Bulk Modulus (GPa) = 58.61367 85.03411 71.82389
# Shear Modulus (GPa) = 47.03577 55.55375 51.29476
#
# Velocity S-wave (km/s) = 4.22661 4.59340 4.41382
# Velocity P-wave (km/s) = 6.78826 7.77358 7.29757
#
# Compressibility (1/GPa) = 0.01706087
#
# Stress axis : x y z
#
# Youngs Moduli (GPa) = 88.11367 130.22132 109.49703
#
# Poissons Ratio (x) = 0.25423 0.09625
# Poissons Ratio (y) = 0.17203 0.29768
# Poissons Ratio (z) = 0.07746 0.35403
#
# Static dielectric constant tensor:
#      x y z
#    x 2.213130 0.115580 -0.093320 
#    y 0.115580 2.073270 -0.032480 
#    z -0.093320 -0.032480 2.077180 
# 
# From -- ./inp_files/603868.got.cif
#   From: 2010.05.17/outbox.cif.g08.bks.cpg/sg2_302_cif.got.tgz:603868.got - 2010.06.03 11:33:40.
