data_PCOD9027748
_publ_section_title
;
Structure prediction by ZEFSAII (Michael W. Deem and Ramdas Pophale) SiO2 
 PCOD9027748
Probable space group: P -1
;
_chemical_formula_sum "Si O2"
_cell_formula_units_Z 15
_cell_length_a 8.340925
_cell_length_b 10.306991
_cell_length_c 12.731708
_cell_angle_alpha 52.697656
_cell_angle_beta 60.720522
_cell_angle_gamma 98.346019
_cell_volume 585.798993
_symmetry_space_group_name_H-M "P -1"
_symmetry_group_IT_number 2
_symmetry_cell_setting 'triclinic'
loop_
_space_group_symop_operation_xyz
x,y,z
-x,-y,-z
loop_
_atom_site_type_symbol
_atom_site_label
_atom_site_fract_x
_atom_site_fract_y
_atom_site_fract_z
Si Si1 0.604644 0.019733 0.070743
Si Si2 0.000515 0.926508 0.200159
Si Si3 0.378934 0.184742 0.353742
Si Si4 0.500000 0.500000 0.500000
Si Si5 0.209942 0.650236 0.982334
Si Si6 0.934716 0.753375 0.698186
Si Si7 0.253069 0.404072 0.849395
Si Si8 0.102786 0.703028 0.443623
O O1 0.384288 0.815812 0.304138
O O2 0.841852 0.052427 0.959140
O O3 0.684666 0.225520 0.003371
O O4 0.500000 0.000000 0.000000
O O5 0.066021 0.846280 0.317162
O O6 0.721350 0.742001 0.362211
O O7 0.119755 0.170617 0.052762
O O8 0.504441 0.400182 0.269674
O O9 0.237428 0.194265 0.300037
O O10 0.170530 0.956352 0.578183
O O11 0.591999 0.190738 0.243273
O O12 0.336972 0.427436 0.692190
O O13 0.196706 0.449576 0.088551
O O14 0.948022 0.570771 0.091912
O O15 0.007133 0.695533 0.594406
O O16 0.000000 0.500000 0.500000
#
# Coordination Sequence:
#
# PCOD9027748 Si02
#       8
#     2   2   2   1   2   2   2   2
#     4  10  22  41  69 104 143 181 231 299 358 419
#     4  11  26  45  69 109 147 188 236 299 368 430
#     4  11  27  48  70 102 147 192 242 296 356 435
#     4  12  26  46  70 102 146 184 238 298 356 436
#     4  12  25  47  71 105 143 192 241 291 357 438
#     4  11  25  46  74 108 137 188 247 297 361 417
#     4  12  29  46  75 105 146 195 238 297 372 433
#     4  11  24  42  77 110 144 186 239 306 363 425
#
# _framework density 25.606055000000001
#
# number of rings (size 3 to 8) (size 9 to 14) (size 15 to 20)
#    0.000    0.800    2.667    3.600    7.467    4.800 
#    0.000    0.000    0.000    0.000    0.000    0.000 
#    0.000    0.000    0.000    0.000    0.000    0.000 
#
# Total GULP energy -83686.302820 kJ/mol
# GULP energy per Si atom -5579.086855 kJ/mol
# Density = 2.554777 g / cm^3
# Si number density = 25.606055 Si / 1000 Ang^3
#
#
#
# Elastic Constant Matrix: (Units=GPa)
#
#
# Indices 1 2 3 4 5 6 
#
# 1 58.5522 14.7119 34.2666 -5.3025 -25.2012 5.3404
# 2 14.7119 112.5146 50.1986 -23.2003 -9.1479 8.5802
# 3 34.2666 50.1986 146.6249 -11.2117 -41.5723 4.9160
# 4 -5.3025 -23.2003 -11.2117 64.5479 9.8295 -10.7404
# 5 -25.2012 -9.1479 -41.5723 9.8295 35.1939 -10.8598
# 6 5.3404 8.5802 4.9160 -10.7404 -10.8598 26.7512
#
#
#
# Elastic Compliance Matrix: (Units=1/GPa)
#
#
# Indices 1 2 3 4 5 6 
#
# 1 0.025355 -0.002218 -0.000041 -0.001103 0.018705 0.002808
# 2 -0.002218 0.011909 -0.005021 0.003616 -0.006565 -0.003668
# 3 -0.000041 -0.005021 0.012708 -0.001115 0.015580 0.005161
# 4 -0.001103 0.003616 -0.001115 0.017993 -0.004789 0.004545
# 5 0.018705 -0.006565 0.015580 -0.004789 0.066150 0.020439
# 6 0.002808 -0.003668 0.005161 0.004545 0.020439 0.047171
#
#
# Mechanical properties :
#
#
# Convention : Reuss Voigt Hill
#
# Bulk Modulus (GPa) = 28.23860 57.33843 42.78852
# Shear Modulus (GPa) = 24.07891 39.86625 31.97258
#
# Velocity S-wave (km/s) = 3.06986 3.95005 3.53743
# Velocity P-wave (km/s) = 4.85977 6.57609 5.78197
#
# Compressibility (1/GPa) = 0.03541252
#
# Stress axis : x y z
#
# Youngs Moduli (GPa) = 39.44004 83.96833 78.69128
#
# Poissons Ratio (x) = 0.18620 0.00326
# Poissons Ratio (y) = 0.08746 0.39510
# Poissons Ratio (z) = 0.00163 0.42160
#
# Static dielectric constant tensor:
#      x y z
#    x 2.031750 -0.015270 0.010080 
#    y -0.015270 2.090900 -0.000850 
#    z 0.010080 -0.000850 1.981280 
# 
# From -- ./inp_files/498822.got.cif
#   From: 2010.05.17/outbox.cif.g08.bks.cpg/sg2_250_cif.got.tgz:498822.got - 2010.06.03 11:33:40.
