data_PCOD9027523
_publ_section_title
;
Structure prediction by ZEFSAII (Michael W. Deem and Ramdas Pophale) SiO2 
 PCOD9027523
Probable space group: P -1
;
_chemical_formula_sum "Si O2"
_cell_formula_units_Z 14
_cell_length_a 8.802477
_cell_length_b 6.096654
_cell_length_c 15.863093
_cell_angle_alpha 121.980484
_cell_angle_beta 98.519230
_cell_angle_gamma 101.583586
_cell_volume 673.400331
_symmetry_space_group_name_H-M "P -1"
_symmetry_group_IT_number 2
_symmetry_cell_setting 'triclinic'
loop_
_space_group_symop_operation_xyz
x,y,z
-x,-y,-z
loop_
_atom_site_type_symbol
_atom_site_label
_atom_site_fract_x
_atom_site_fract_y
_atom_site_fract_z
Si Si1 0.262131 0.318299 0.333815
Si Si2 0.344349 0.810287 0.845807
Si Si3 0.017881 0.421747 0.655993
Si Si4 0.835121 0.796897 0.515150
Si Si5 0.414849 0.354679 0.048373
Si Si6 0.456409 0.180352 0.604809
Si Si7 0.405036 0.883234 0.218742
O O1 0.270358 0.340907 0.440854
O O2 0.421352 0.517604 0.342005
O O3 0.112686 0.420111 0.317904
O O4 0.266223 0.020520 0.247781
O O5 0.179274 0.598725 0.753781
O O6 0.445410 0.664621 0.880516
O O7 0.465823 0.963503 0.811510
O O8 0.313738 0.045895 0.949781
O O9 0.064237 0.377467 0.554089
O O10 0.940073 0.105114 0.615090
O O11 0.723980 0.831907 0.435324
O O12 0.333833 0.561379 0.124516
O O13 0.500000 0.500000 0.000000
O O14 0.493930 0.087782 0.680204
O O15 0.500000 0.000000 0.500000
#
# Coordination Sequence:
#
# PCOD9027523 Si02
#       7
#     2   2   2   2   2   2   2
#     4  12  23  38  58  86 127 165 202 248 303 355
#     4  10  22  41  68  91 120 157 202 253 311 356
#     4  11  24  38  56  89 125 163 201 246 306 366
#     4  11  24  39  57  84 127 168 209 247 295 358
#     4   9  20  41  67  94 114 151 206 257 301 364
#     4  12  23  39  60  90 122 164 214 246 289 357
#     4  11  22  38  65  92 122 157 207 256 298 356
#
# _framework density 20.790012000000001
#
# number of rings (size 3 to 8) (size 9 to 14) (size 15 to 20)
#    0.000    1.143    2.857    3.429    2.000    4.571 
#    0.000    0.714    0.000   14.571    0.000    0.000 
#    0.000    0.000    0.000    0.000    0.000    0.000 
#
# Total GULP energy -78193.351904 kJ/mol
# GULP energy per Si atom -5585.239422 kJ/mol
# Density = 2.074269 g / cm^3
# Si number density = 20.790012 Si / 1000 Ang^3
#
#
#
# Elastic Constant Matrix: (Units=GPa)
#
#
# Indices 1 2 3 4 5 6 
#
# 1 71.4224 29.5035 49.7550 24.2305 3.8209 -3.6924
# 2 29.5035 87.3780 59.0848 2.2159 7.0139 -7.8763
# 3 49.7550 59.0848 115.8083 18.7449 -0.7464 -17.3952
# 4 24.2305 2.2159 18.7449 50.3995 -5.2215 -21.3386
# 5 3.8209 7.0139 -0.7464 -5.2215 30.8758 5.7017
# 6 -3.6924 -7.8763 -17.3952 -21.3386 5.7017 17.0911
#
#
#
# Elastic Compliance Matrix: (Units=1/GPa)
#
#
# Indices 1 2 3 4 5 6 
#
# 1 0.034654 -0.005830 -0.014218 -0.032307 0.000494 -0.050172
# 2 -0.005830 0.019631 -0.006905 0.010645 -0.005008 0.015720
# 3 -0.014218 -0.006905 0.020803 0.012103 0.000354 0.029912
# 4 -0.032307 0.010645 0.012103 0.074089 -0.004872 0.104371
# 5 0.000494 -0.005008 0.000354 -0.004872 0.036352 -0.020050
# 6 -0.050172 0.015720 0.029912 0.104371 -0.020050 0.222356
#
#
# Mechanical properties :
#
#
# Convention : Reuss Voigt Hill
#
# Bulk Modulus (GPa) = 47.20858 61.25506 54.23182
# Shear Modulus (GPa) = 10.66435 28.75764 19.71100
#
# Velocity S-wave (km/s) = 2.26731 3.72323 3.08246
# Velocity P-wave (km/s) = 5.44159 6.92899 6.22984
#
# Compressibility (1/GPa) = 0.02118259
#
# Stress axis : x y z
#
# Youngs Moduli (GPa) = 28.85631 50.93935 48.07098
#
# Poissons Ratio (x) = 0.29697 0.68347
# Poissons Ratio (y) = 0.16823 0.33193
# Poissons Ratio (z) = 0.41028 0.35174
#
# Static dielectric constant tensor:
#      x y z
#    x 1.782800 -0.020330 -0.031630 
#    y -0.020330 1.809910 0.046410 
#    z -0.031630 0.046410 1.761320 
# 
# From -- ./inp_files/34421.got.cif
#   From: 2010.05.17/outbox.cif.g08.bks.cpg/sg2_18_cif.got.tgz:34421.got - 2010.06.03 11:33:40.
