data_PCOD9027704
_publ_section_title
;
Structure prediction by ZEFSAII (Michael W. Deem and Ramdas Pophale) SiO2 
 PCOD9027704
Probable space group: P -1
;
_chemical_formula_sum "Si O2"
_cell_formula_units_Z 16
_cell_length_a 12.064800
_cell_length_b 12.086401
_cell_length_c 11.937552
_cell_angle_alpha 70.661831
_cell_angle_beta 73.971473
_cell_angle_gamma 136.916998
_cell_volume 667.659686
_symmetry_space_group_name_H-M "P -1"
_symmetry_group_IT_number 2
_symmetry_cell_setting 'triclinic'
loop_
_space_group_symop_operation_xyz
x,y,z
-x,-y,-z
loop_
_atom_site_type_symbol
_atom_site_label
_atom_site_fract_x
_atom_site_fract_y
_atom_site_fract_z
Si Si1 0.190727 0.953776 0.756985
Si Si2 0.171741 0.713077 0.693936
Si Si3 0.296230 0.425844 0.315318
Si Si4 0.567392 0.488294 0.375542
Si Si5 0.177568 0.208938 0.198398
Si Si6 0.229230 0.865127 0.006900
Si Si7 0.855532 0.457501 0.637676
Si Si8 0.874080 0.040641 0.852446
O O1 0.120370 0.769173 0.776810
O O2 0.240501 0.970380 0.866670
O O3 0.950214 0.825303 0.848588
O O4 0.443086 0.246623 0.521222
O O5 0.038014 0.624333 0.642632
O O6 0.500000 0.000000 0.500000
O O7 0.991863 0.433927 0.868920
O O8 0.415768 0.420418 0.344893
O O9 0.113254 0.209439 0.335526
O O10 0.182086 0.436033 0.408463
O O11 0.569799 0.729475 0.079220
O O12 0.500000 0.500000 0.500000
O O13 0.892058 0.785588 0.184890
O O14 0.082235 0.989818 0.265274
O O15 0.500000 0.500000 0.000000
O O16 0.545286 0.123493 0.846969
O O17 0.123359 0.818618 0.171397
O O18 0.000000 0.500000 0.500000
#
# Coordination Sequence:
#
# PCOD9027704 Si02
#       8
#     2   2   2   2   2   2   2   2
#     4  12  25  45  67 101 142 184 232 286 352 422
#     4  12  26  50  73 103 137 185 242 298 354 418
#     4  10  23  43  69 101 143 182 228 288 354 415
#     4  12  23  39  66 105 140 180 230 283 347 424
#     4  10  22  42  66  98 141 180 226 280 351 423
#     4  11  26  47  76 101 140 190 239 296 348 418
#     4  11  24  47  74 106 140 185 240 294 351 420
#     4  10  22  41  69 101 134 183 228 283 347 421
#
# _framework density 23.964306000000001
#
# number of rings (size 3 to 8) (size 9 to 14) (size 15 to 20)
#    0.000    1.000    2.500    4.125    3.500    1.500 
#    0.000    0.000    2.750    0.000    0.000    0.000 
#    0.000    0.000    0.000    0.000    0.000    0.000 
#
# Total GULP energy -89294.665890 kJ/mol
# GULP energy per Si atom -5580.916618 kJ/mol
# Density = 2.390976 g / cm^3
# Si number density = 23.964306 Si / 1000 Ang^3
#
#
#
# Elastic Constant Matrix: (Units=GPa)
#
#
# Indices 1 2 3 4 5 6 
#
# 1 117.2818 54.3513 49.9157 -7.9327 -8.9923 -7.0840
# 2 54.3513 160.9311 24.0090 -0.5040 -7.6110 -21.0851
# 3 49.9157 24.0090 42.8634 -22.0109 -9.4141 -9.5582
# 4 -7.9327 -0.5040 -22.0109 39.9488 -3.6708 -15.7821
# 5 -8.9923 -7.6110 -9.4141 -3.6708 56.7858 -3.1159
# 6 -7.0840 -21.0851 -9.5582 -15.7821 -3.1159 61.1875
#
#
#
# Elastic Compliance Matrix: (Units=1/GPa)
#
#
# Indices 1 2 3 4 5 6 
#
# 1 0.028039 -0.004360 -0.048443 -0.026971 -0.006639 -0.013118
# 2 -0.004360 0.007749 0.002808 0.002154 0.001130 0.003217
# 3 -0.048443 0.002808 0.132978 0.080757 0.022061 0.038085
# 4 -0.026971 0.002154 0.080757 0.078000 0.016159 0.031176
# 5 -0.006639 0.001130 0.022061 0.016159 0.021870 0.008348
# 6 -0.013118 0.003217 0.038085 0.031176 0.008348 0.030349
#
#
# Mechanical properties :
#
#
# Convention : Reuss Voigt Hill
#
# Bulk Modulus (GPa) = 14.53989 64.18092 39.36040
# Shear Modulus (GPa) = 11.85115 44.43778 28.14446
#
# Velocity S-wave (km/s) = 2.22622 4.31087 3.43072
# Velocity P-wave (km/s) = 3.56210 7.18458 5.67039
#
# Compressibility (1/GPa) = 0.06877633
#
# Stress axis : x y z
#
# Youngs Moduli (GPa) = 35.66472 129.04963 7.52003
#
# Poissons Ratio (x) = 0.56260 0.36430
# Poissons Ratio (y) = 0.15548 -0.02112
# Poissons Ratio (z) = 1.72772 -0.36238
#
# Static dielectric constant tensor:
#      x y z
#    x 2.050400 -0.053220 0.082940 
#    y -0.053220 1.935340 -0.004260 
#    z 0.082940 -0.004260 2.020030 
# 
# From -- ./inp_files/427986.got.cif
#   From: 2010.05.17/outbox.cif.g08.bks.cpg/sg2_214_cif.got.tgz:427986.got - 2010.06.03 11:33:40.
