data_PCOD9027916
_publ_section_title
;
Structure prediction by ZEFSAII (Michael W. Deem and Ramdas Pophale) SiO2 
 PCOD9027916
Probable space group: P -1
;
_chemical_formula_sum "Si O2"
_cell_formula_units_Z 16
_cell_length_a 9.126081
_cell_length_b 8.409759
_cell_length_c 12.960595
_cell_angle_alpha 88.790031
_cell_angle_beta 132.349688
_cell_angle_gamma 83.250458
_cell_volume 723.188343
_symmetry_space_group_name_H-M "P -1"
_symmetry_group_IT_number 2
_symmetry_cell_setting 'triclinic'
loop_
_space_group_symop_operation_xyz
x,y,z
-x,-y,-z
loop_
_atom_site_type_symbol
_atom_site_label
_atom_site_fract_x
_atom_site_fract_y
_atom_site_fract_z
Si Si1 0.103666 0.608266 0.972143
Si Si2 0.213414 0.085875 0.153166
Si Si3 0.522100 0.627184 0.161064
Si Si4 0.097020 0.872991 0.278879
Si Si5 0.312979 0.956955 0.973060
Si Si6 0.517359 0.255899 0.426825
Si Si7 0.951097 0.536996 0.262147
Si Si8 0.656048 0.594318 0.445581
O O1 0.033250 0.583928 0.823541
O O2 0.002197 0.791838 0.950611
O O3 0.341376 0.529947 0.094979
O O4 0.000000 0.500000 0.000000
O O5 0.374705 0.175942 0.285955
O O6 0.189323 0.932635 0.216214
O O7 0.276246 0.044890 0.065683
O O8 0.385068 0.770763 0.033224
O O9 0.723257 0.565504 0.194399
O O10 0.594115 0.676577 0.306348
O O11 0.268593 0.859974 0.447421
O O12 0.025337 0.698477 0.251379
O O13 0.889264 0.998393 0.190323
O O14 0.500000 0.000000 0.000000
O O15 0.560734 0.429973 0.407358
O O16 0.421464 0.296569 0.494375
O O17 0.106397 0.464743 0.425474
#
# Coordination Sequence:
#
# PCOD9027916 Si02
#       8
#     2   2   2   2   2   2   2   2
#     4  12  26  41  70 104 133 174 232 282 330 395
#     4  12  24  43  69 101 132 176 232 276 331 402
#     4  12  25  43  69  98 138 182 219 275 345 403
#     4  11  23  42  72  99 131 181 223 272 336 401
#     4  12  26  45  67  98 138 179 222 278 346 403
#     4  10  22  42  69 102 134 167 227 289 324 391
#     4  11  24  46  68  99 141 176 222 282 337 403
#     4  10  22  41  70 101 134 176 222 276 343 393
#
# _framework density 22.12425
#
# number of rings (size 3 to 8) (size 9 to 14) (size 15 to 20)
#    0.000    0.750    3.750    3.750    7.000    0.000 
#    2.250    0.625    2.750    0.000    0.000    0.000 
#    0.000    0.000    0.000    0.000    0.000    0.000 
#
# Total GULP energy -89392.764471 kJ/mol
# GULP energy per Si atom -5587.047779 kJ/mol
# Density = 2.207389 g / cm^3
# Si number density = 22.124250 Si / 1000 Ang^3
#
#
#
# Elastic Constant Matrix: (Units=GPa)
#
#
# Indices 1 2 3 4 5 6 
#
# 1 133.2491 21.3967 29.7908 11.6347 24.2727 -3.7975
# 2 21.3967 33.4734 21.8102 -0.7416 13.8253 3.5641
# 3 29.7908 21.8102 105.5154 0.8287 27.5397 7.4518
# 4 11.6347 -0.7416 0.8287 40.9725 -2.4046 5.0367
# 5 24.2727 13.8253 27.5397 -2.4046 37.3949 -2.9344
# 6 -3.7975 3.5641 7.4518 5.0367 -2.9344 16.0557
#
#
#
# Elastic Compliance Matrix: (Units=1/GPa)
#
#
# Indices 1 2 3 4 5 6 
#
# 1 0.009547 -0.004397 -0.001099 -0.003496 -0.003660 0.004172
# 2 -0.004397 0.040515 -0.003757 0.002822 -0.010040 -0.011010
# 3 -0.001099 -0.003757 0.013194 0.000379 -0.008152 -0.007158
# 4 -0.003496 0.002822 0.000379 0.026743 0.001908 -0.009670
# 5 -0.003660 -0.010040 -0.008152 0.001908 0.039885 0.011838
# 6 0.004172 -0.011010 -0.007158 -0.009670 0.011838 0.074233
#
#
# Mechanical properties :
#
#
# Convention : Reuss Voigt Hill
#
# Bulk Modulus (GPa) = 22.34587 46.47038 34.40813
# Shear Modulus (GPa) = 21.04906 32.16729 26.60818
#
# Velocity S-wave (km/s) = 3.08783 3.81719 3.47172
# Velocity P-wave (km/s) = 4.77860 6.36222 5.62640
#
# Compressibility (1/GPa) = 0.04475100
#
# Stress axis : x y z
#
# Youngs Moduli (GPa) = 104.74237 24.68231 75.78952
#
# Poissons Ratio (x) = 0.10853 0.08327
# Poissons Ratio (y) = 0.46055 0.28475
# Poissons Ratio (z) = 0.11507 0.09273
#
# Static dielectric constant tensor:
#      x y z
#    x 4.149100 1.208080 0.822810 
#    y 1.208080 2.438540 0.372970 
#    z 0.822810 0.372970 2.087670 
# 
# From -- ./inp_files/184244.got.cif
#   From: 2010.05.17/outbox.cif.g08.bks.cpg/sg2_93_cif.got.tgz:184244.got - 2010.06.03 11:33:40.
