data_PCOD9027727
_publ_section_title
;
Structure prediction by ZEFSAII (Michael W. Deem and Ramdas Pophale) SiO2 
 PCOD9027727
Probable space group: P -1
;
_chemical_formula_sum "Si O2"
_cell_formula_units_Z 15
_cell_length_a 8.925589
_cell_length_b 20.845585
_cell_length_c 11.938368
_cell_angle_alpha 36.858386
_cell_angle_beta 152.583804
_cell_angle_gamma 132.690240
_cell_volume 609.310235
_symmetry_space_group_name_H-M "P -1"
_symmetry_group_IT_number 2
_symmetry_cell_setting 'triclinic'
loop_
_space_group_symop_operation_xyz
x,y,z
-x,-y,-z
loop_
_atom_site_type_symbol
_atom_site_label
_atom_site_fract_x
_atom_site_fract_y
_atom_site_fract_z
Si Si1 0.653708 0.959262 0.778357
Si Si2 0.115532 0.219098 0.520856
Si Si3 0.614348 0.883693 0.459405
Si Si4 0.500000 0.000000 0.000000
Si Si5 0.949388 0.586832 0.944688
Si Si6 0.193349 0.601202 0.498282
Si Si7 0.923049 0.242538 0.609335
Si Si8 0.821068 0.294862 0.883144
O O1 0.500000 0.000000 0.500000
O O2 0.386024 0.006068 0.626533
O O3 0.751076 0.831945 0.027296
O O4 0.000000 0.000000 0.000000
O O5 0.967181 0.300057 0.213147
O O6 0.456866 0.268775 0.692150
O O7 0.924934 0.238670 0.483004
O O8 0.217865 0.093257 0.740230
O O9 0.384975 0.811543 0.473365
O O10 0.466728 0.915795 0.196969
O O11 0.959794 0.813908 0.781214
O O12 0.579435 0.583807 0.749027
O O13 0.000000 0.500000 0.000000
O O14 0.143883 0.595704 0.177663
O O15 0.119232 0.645468 0.511531
O O16 0.078685 0.686911 0.204563
O O17 0.000000 0.500000 0.500000
#
# Coordination Sequence:
#
# PCOD9027727 Si02
#       8
#     2   2   2   1   2   2   2   2
#     4  10  22  41  69 102 142 190 238 301 366 439
#     4  11  26  45  73 104 141 189 241 298 362 446
#     4  11  22  45  71 102 144 191 235 300 369 442
#     4  12  22  46  70 106 148 184 242 290 372 440
#     4  11  26  48  71 101 143 185 236 300 367 439
#     4  11  26  44  74 102 137 184 241 301 357 434
#     4  11  23  47  66 104 142 182 243 305 360 432
#     4  11  24  48  69 100 142 190 231 296 369 439
#
# _framework density 24.618003000000002
#
# number of rings (size 3 to 8) (size 9 to 14) (size 15 to 20)
#    0.000    1.067    4.000    1.600    3.733    4.267 
#    9.600    0.000    0.000    0.000    0.000    0.000 
#    0.000    0.000    0.000    0.000    0.000    0.000 
#
# Total GULP energy -83550.214766 kJ/mol
# GULP energy per Si atom -5570.014318 kJ/mol
# Density = 2.456197 g / cm^3
# Si number density = 24.618003 Si / 1000 Ang^3
#
#
#
# Elastic Constant Matrix: (Units=GPa)
#
#
# Indices 1 2 3 4 5 6 
#
# 1 149.9505 32.0484 4.4847 -1.4817 1.1325 -12.6510
# 2 32.0484 66.8923 14.5815 12.4285 17.4286 -6.1521
# 3 4.4847 14.5815 30.4417 -2.6805 -5.4232 -0.4738
# 4 -1.4817 12.4285 -2.6805 16.1123 -15.6677 2.5138
# 5 1.1325 17.4286 -5.4232 -15.6677 22.3979 -25.8651
# 6 -12.6510 -6.1521 -0.4738 2.5138 -25.8651 51.8128
#
#
#
# Elastic Compliance Matrix: (Units=1/GPa)
#
#
# Indices 1 2 3 4 5 6 
#
# 1 0.006654 -0.000098 -0.002546 -0.005567 -0.006194 -0.001232
# 2 -0.000098 0.004792 0.004256 0.020050 0.025697 0.012439
# 3 -0.002546 0.004256 0.025305 -0.019562 -0.022457 -0.010146
# 4 -0.005567 0.020050 -0.019562 -0.006526 -0.054976 -0.026285
# 5 -0.006194 0.025697 -0.022457 -0.054976 -0.033788 -0.012866
# 6 -0.001232 0.012439 -0.010146 -0.026285 -0.012866 0.015236
#
#
# Mechanical properties :
#
#
# Convention : Reuss Voigt Hill
#
# Bulk Modulus (GPa) = 25.01576 38.83486 31.92531
# Shear Modulus (GPa) = 229.64015 31.14260 130.39137
#
# Velocity S-wave (km/s) = 9.66871 3.56059 7.28566
# Velocity P-wave (km/s) = 11.61158 5.71952 9.15264
#
# Compressibility (1/GPa) = 0.03997479
#
# Stress axis : x y z
#
# Youngs Moduli (GPa) = 150.29118 208.68528 39.51787
#
# Poissons Ratio (x) = 0.02043 0.10062
# Poissons Ratio (y) = 0.01472 -0.16820
# Poissons Ratio (z) = 0.38267 -0.88820
#
# Static dielectric constant tensor:
#      x y z
#    x 1.979620 -0.156590 -0.057220 
#    y -0.156590 1.921540 0.048710 
#    z -0.057220 0.048710 2.103980 
# 
# From -- ./inp_files/405464.got.cif
#   From: 2010.05.17/outbox.cif.g08.bks.cpg/sg2_203_cif.got.tgz:405464.got - 2010.06.03 11:33:40.
