data_PCOD9027691
_publ_section_title
;
Structure prediction by ZEFSAII (Michael W. Deem and Ramdas Pophale) SiO2 
 PCOD9027691
Probable space group: P -1
;
_chemical_formula_sum "Si O2"
_cell_formula_units_Z 14
_cell_length_a 16.979427
_cell_length_b 5.117458
_cell_length_c 18.606024
_cell_angle_alpha 82.707838
_cell_angle_beta 28.440246
_cell_angle_gamma 97.927261
_cell_volume 648.476289
_symmetry_space_group_name_H-M "P -1"
_symmetry_group_IT_number 2
_symmetry_cell_setting 'triclinic'
loop_
_space_group_symop_operation_xyz
x,y,z
-x,-y,-z
loop_
_atom_site_type_symbol
_atom_site_label
_atom_site_fract_x
_atom_site_fract_y
_atom_site_fract_z
Si Si1 0.628220 0.867976 0.871839
Si Si2 0.467661 0.802945 0.696875
Si Si3 0.049836 0.269556 0.007147
Si Si4 0.797740 0.894392 0.874181
Si Si5 0.840765 0.844024 0.322886
Si Si6 0.548896 0.165301 0.122803
Si Si7 0.447350 0.728570 0.495245
O O1 0.806907 0.982727 0.779360
O O2 0.633608 0.925446 0.780383
O O3 0.500000 0.500000 0.000000
O O4 0.500000 0.000000 0.000000
O O5 0.496386 0.858722 0.756338
O O6 0.500000 0.000000 0.500000
O O7 0.653866 0.819475 0.511102
O O8 0.445134 0.071057 0.668527
O O9 0.273915 0.479106 0.844305
O O10 0.000000 0.500000 0.000000
O O11 0.927295 0.103829 0.182647
O O12 0.000000 0.000000 0.000000
O O13 0.997547 0.078337 0.750329
O O14 0.709022 0.527077 0.965441
O O15 0.645081 0.967794 0.031195
O O16 0.768394 0.518407 0.351853
O O17 0.500000 0.500000 0.500000
#
# Coordination Sequence:
#
# PCOD9027691 Si02
#       7
#     2   2   2   2   2   2   2
#     4   8  16  36  65  97 130 175 220 268 328 400
#     4  12  28  46  71 103 139 176 228 286 344 401
#     4  12  30  46  70  95 132 179 234 280 336 404
#     4  10  22  41  69 100 136 177 225 274 335 405
#     4  12  28  46  71 103 139 176 228 286 344 401
#     4  10  22  41  69 100 136 177 225 274 335 405
#     4  12  26  44  66  91 132 179 222 272 338 394
#
# _framework density 21.589071000000001
#
# number of rings (size 3 to 8) (size 9 to 14) (size 15 to 20)
#    0.000    1.143    2.857    1.714   10.000    0.000 
#    0.000    0.714    0.000    0.857    0.000    0.000 
#    0.000    0.000    0.000    0.000    0.000    0.000 
#
# Total GULP energy -78233.480498 kJ/mol
# GULP energy per Si atom -5588.105750 kJ/mol
# Density = 2.153993 g / cm^3
# Si number density = 21.589071 Si / 1000 Ang^3
#
#
#
# Elastic Constant Matrix: (Units=GPa)
#
#
# Indices 1 2 3 4 5 6 
#
# 1 206.0231 40.4484 59.4220 5.3751 28.1412 40.9328
# 2 40.4484 129.1666 16.1004 -6.6825 6.7214 0.5492
# 3 59.4220 16.1004 96.8855 -1.4518 12.0647 11.3257
# 4 5.3751 -6.6825 -1.4518 28.0609 3.1649 -2.5112
# 5 28.1412 6.7214 12.0647 3.1649 35.1642 -0.6411
# 6 40.9328 0.5492 11.3257 -2.5112 -0.6411 30.2745
#
#
#
# Elastic Compliance Matrix: (Units=1/GPa)
#
#
# Indices 1 2 3 4 5 6 
#
# 1 0.009577 -0.002369 -0.003372 -0.002971 -0.006006 -0.012018
# 2 -0.002369 0.008649 -0.000365 0.002780 0.000180 0.003417
# 3 -0.003372 -0.000365 0.012697 0.001400 -0.001716 -0.000105
# 4 -0.002971 0.002780 0.001400 0.037741 -0.001912 0.006533
# 5 -0.006006 0.000180 -0.001716 -0.001912 0.034141 0.009324
# 6 -0.012018 0.003417 -0.000105 0.006533 0.009324 0.049997
#
#
# Mechanical properties :
#
#
# Convention : Reuss Voigt Hill
#
# Bulk Modulus (GPa) = 53.43978 73.77966 63.60972
# Shear Modulus (GPa) = 29.19711 39.77355 34.48533
#
# Velocity S-wave (km/s) = 3.68149 4.29686 4.00102
# Velocity P-wave (km/s) = 6.54814 7.67242 7.13247
#
# Compressibility (1/GPa) = 0.01871265
#
# Stress axis : x y z
#
# Youngs Moduli (GPa) = 104.41547 115.61855 78.75868
#
# Poissons Ratio (x) = 0.27388 0.26557
# Poissons Ratio (y) = 0.24734 0.02871
# Poissons Ratio (z) = 0.35208 0.04215
#
# Static dielectric constant tensor:
#      x y z
#    x 1.841510 -0.005480 -0.016110 
#    y -0.005480 1.812030 0.033520 
#    z -0.016110 0.033520 1.836570 
# 
# From -- ./inp_files/525681.got.cif
#   From: 2010.05.17/outbox.cif.g08.bks.cpg/sg2_263_cif.got.tgz:525681.got - 2010.06.03 11:33:40.
