data_PCOD9027387
_publ_section_title
;
Structure prediction by ZEFSAII (Michael W. Deem and Ramdas Pophale) SiO2 
 PCOD9027387
Probable space group: P -1
;
_chemical_formula_sum "Si O2"
_cell_formula_units_Z 15
_cell_length_a 11.383801
_cell_length_b 9.204071
_cell_length_c 12.235880
_cell_angle_alpha 36.930679
_cell_angle_beta 120.012891
_cell_angle_gamma 102.219557
_cell_volume 621.866535
_symmetry_space_group_name_H-M "P -1"
_symmetry_group_IT_number 2
_symmetry_cell_setting 'triclinic'
loop_
_space_group_symop_operation_xyz
x,y,z
-x,-y,-z
loop_
_atom_site_type_symbol
_atom_site_label
_atom_site_fract_x
_atom_site_fract_y
_atom_site_fract_z
Si Si1 0.783536 0.195618 0.042251
Si Si2 0.800437 0.991329 0.814876
Si Si3 0.100611 0.775385 0.471431
Si Si4 0.885423 0.386038 0.773873
Si Si5 0.761831 0.693408 0.329521
Si Si6 0.465212 0.139446 0.158314
Si Si7 0.722774 0.275105 0.218467
Si Si8 0.500000 0.000000 0.000000
O O1 0.690266 0.011417 0.080894
O O2 0.938143 0.954264 0.255453
O O3 0.749368 0.290230 0.092487
O O4 0.798522 0.396486 0.839976
O O5 0.643206 0.986728 0.766540
O O6 0.805519 0.100000 0.631826
O O7 0.843500 0.175928 0.808979
O O8 0.941503 0.722672 0.055151
O O9 0.145938 0.485319 0.616983
O O10 0.132801 0.802671 0.595388
O O11 0.840868 0.622920 0.525434
O O12 0.604773 0.676076 0.274612
O O13 0.627375 0.095628 0.302481
O O14 0.483756 0.074784 0.080097
O O15 0.373417 0.443476 0.950721
#
# Coordination Sequence:
#
# PCOD9027387 Si02
#       8
#     2   2   2   2   2   2   2   1
#     4  11  22  42  68  99 134 169 217 280 321 394
#     4   9  20  41  66  94 132 163 217 287 316 383
#     4  10  22  41  67  98 127 171 222 268 336 385
#     4   9  21  40  67 105 124 160 226 276 332 377
#     4  11  22  40  70  96 125 175 218 279 322 376
#     4  11  24  42  63  91 131 181 217 266 324 389
#     4  11  24  41  62  95 136 177 216 256 334 402
#     4  12  22  42  68  92 124 172 228 262 320 388
#
# _framework density 24.120930999999999
#
# number of rings (size 3 to 8) (size 9 to 14) (size 15 to 20)
#    0.000    1.600    2.667    2.400    1.867    0.533 
#    2.400   10.000    0.000    0.000    0.000    0.000 
#    0.000    0.000    0.000    0.000    0.000    0.000 
#
# Total GULP energy -83581.735990 kJ/mol
# GULP energy per Si atom -5572.115733 kJ/mol
# Density = 2.406603 g / cm^3
# Si number density = 24.120931 Si / 1000 Ang^3
#
#
#
# Elastic Constant Matrix: (Units=GPa)
#
#
# Indices 1 2 3 4 5 6 
#
# 1 136.7548 20.8392 0.5465 1.9239 -8.7789 15.9479
# 2 20.8392 126.3685 17.6622 13.4654 -0.5262 -32.9602
# 3 0.5465 17.6622 48.0336 8.2178 -0.4846 -10.0576
# 4 1.9239 13.4654 8.2178 33.3305 -6.0979 7.3644
# 5 -8.7789 -0.5262 -0.4846 -6.0979 44.8326 5.5938
# 6 15.9479 -32.9602 -10.0576 7.3644 5.5938 68.8543
#
#
#
# Elastic Compliance Matrix: (Units=1/GPa)
#
#
# Indices 1 2 3 4 5 6 
#
# 1 0.008199 -0.002394 -0.000204 0.001714 0.002237 -0.003440
# 2 -0.002394 0.010737 -0.001706 -0.005489 -0.001880 0.006185
# 3 -0.000204 -0.001706 0.023150 -0.005932 -0.001032 0.003331
# 4 0.001714 -0.005489 -0.005932 0.036556 0.006215 -0.008306
# 5 0.002237 -0.001880 -0.001032 0.006215 0.024078 -0.004190
# 6 -0.003440 0.006185 0.003331 -0.008306 -0.004190 0.019996
#
#
# Mechanical properties :
#
#
# Convention : Reuss Voigt Hill
#
# Bulk Modulus (GPa) = 29.86972 43.25031 36.56001
# Shear Modulus (GPa) = 35.09215 47.54408 41.31812
#
# Velocity S-wave (km/s) = 3.81838 4.44449 4.14328
# Velocity P-wave (km/s) = 5.64360 6.65639 6.17081
#
# Compressibility (1/GPa) = 0.03347872
#
# Stress axis : x y z
#
# Youngs Moduli (GPa) = 121.97170 93.13774 43.19654
#
# Poissons Ratio (x) = 0.22297 0.00880
# Poissons Ratio (y) = 0.29200 0.07367
# Poissons Ratio (z) = 0.02486 0.15885
#
# Static dielectric constant tensor:
#      x y z
#    x 2.192940 0.165900 0.021310 
#    y 0.165900 1.932990 -0.020340 
#    z 0.021310 -0.020340 2.080040 
# 
# From -- ./inp_files/416170.got.cif
#   From: 2010.05.17/outbox.cif.g08.bks.cpg/sg2_209_cif.got.tgz:416170.got - 2010.06.03 11:33:40.
