data_PCOD9027811
_publ_section_title
;
Structure prediction by ZEFSAII (Michael W. Deem and Ramdas Pophale) SiO2 
 PCOD9027811
Probable space group: P -1
;
_chemical_formula_sum "Si O2"
_cell_formula_units_Z 14
_cell_length_a 9.126391
_cell_length_b 8.949510
_cell_length_c 9.576481
_cell_angle_alpha 112.466545
_cell_angle_beta 123.365221
_cell_angle_gamma 81.538442
_cell_volume 601.662335
_symmetry_space_group_name_H-M "P -1"
_symmetry_group_IT_number 2
_symmetry_cell_setting 'triclinic'
loop_
_space_group_symop_operation_xyz
x,y,z
-x,-y,-z
loop_
_atom_site_type_symbol
_atom_site_label
_atom_site_fract_x
_atom_site_fract_y
_atom_site_fract_z
Si Si1 0.888646 0.621709 0.065598
Si Si2 0.993850 0.313218 0.369847
Si Si3 0.505111 0.481129 0.736416
Si Si4 0.245292 0.288753 0.714366
Si Si5 0.807967 0.048314 0.362171
Si Si6 0.114940 0.167153 0.109454
Si Si7 0.526393 0.248359 0.412126
O O1 0.687774 0.555318 0.918405
O O2 0.911410 0.783553 0.046475
O O3 0.910405 0.648088 0.249785
O O4 0.000000 0.500000 0.000000
O O5 0.163621 0.242168 0.504896
O O6 0.030105 0.292306 0.217354
O O7 0.000000 0.500000 0.500000
O O8 0.841614 0.180165 0.301097
O O9 0.386727 0.428338 0.788058
O O10 0.534302 0.329204 0.597421
O O11 0.438489 0.610724 0.637584
O O12 0.295324 0.131736 0.770110
O O13 0.682764 0.132964 0.434654
O O14 0.000000 0.000000 0.500000
O O15 0.325229 0.173084 0.252009
O O16 0.000000 0.000000 0.000000
#
# Coordination Sequence:
#
# PCOD9027811 Si02
#       7
#     2   2   2   2   2   2   2
#     4  11  25  40  65 100 138 174 220 285 336 398
#     4  11  22  41  70  95 132 183 233 270 333 416
#     4  10  22  41  69  95 133 175 231 272 334 406
#     4  11  22  42  60  99 136 169 223 279 346 390
#     4  10  24  38  64 101 137 170 221 288 338 398
#     4  11  24  45  68 100 137 180 227 280 343 402
#     4  10  22  43  69  99 130 180 233 275 329 417
#
# _framework density 23.268865000000002
#
# number of rings (size 3 to 8) (size 9 to 14) (size 15 to 20)
#    0.000    1.429    1.429    3.000    8.000    1.714 
#    0.000    7.857    0.000    0.000    0.000    0.000 
#    0.000    0.000    0.000    0.000    0.000    0.000 
#
# Total GULP energy -78019.597199 kJ/mol
# GULP energy per Si atom -5572.828371 kJ/mol
# Density = 2.321590 g / cm^3
# Si number density = 23.268865 Si / 1000 Ang^3
#
#
#
# Elastic Constant Matrix: (Units=GPa)
#
#
# Indices 1 2 3 4 5 6 
#
# 1 127.1212 74.9120 18.8169 8.5879 -30.8079 15.6241
# 2 74.9120 118.2395 33.0632 13.8430 -9.0719 26.2801
# 3 18.8169 33.0632 58.3184 -1.7585 -27.9082 9.0864
# 4 8.5879 13.8430 -1.7585 29.3243 7.5218 -6.2297
# 5 -30.8079 -9.0719 -27.9082 7.5218 39.3143 5.1573
# 6 15.6241 26.2801 9.0864 -6.2297 5.1573 55.5124
#
#
#
# Elastic Compliance Matrix: (Units=1/GPa)
#
#
# Indices 1 2 3 4 5 6 
#
# 1 0.020233 -0.012772 0.012524 -0.006167 0.023580 -0.004581
# 2 -0.012772 0.020434 -0.013816 -0.003769 -0.013994 -0.002940
# 3 0.012524 -0.013816 0.039547 -0.005813 0.036800 -0.007529
# 4 -0.006167 -0.003769 -0.005813 0.044855 -0.019900 0.011354
# 5 0.023580 -0.013994 0.036800 -0.019900 0.072584 -0.015012
# 6 -0.004581 -0.002940 -0.007529 0.011354 -0.015012 0.024596
#
#
# Mechanical properties :
#
#
# Convention : Reuss Voigt Hill
#
# Bulk Modulus (GPa) = 19.19870 61.91814 40.55842
# Shear Modulus (GPa) = 18.67491 36.62267 27.64879
#
# Velocity S-wave (km/s) = 2.83604 3.97153 3.45081
# Velocity P-wave (km/s) = 4.35808 6.90640 5.77457
#
# Compressibility (1/GPa) = 0.05208685
#
# Stress axis : x y z
#
# Youngs Moduli (GPa) = 49.42379 48.93895 25.28617
#
# Poissons Ratio (x) = 0.62504 -0.31669
# Poissons Ratio (y) = 0.63123 0.34936
# Poissons Ratio (z) = -0.61900 0.67615
#
# Static dielectric constant tensor:
#      x y z
#    x 1.938720 0.033830 0.017930 
#    y 0.033830 1.923100 -0.002680 
#    z 0.017930 -0.002680 1.847660 
# 
# From -- ./inp_files/159977.got.cif
#   From: 2010.05.17/outbox.cif.g08.bks.cpg/sg2_80_cif.got.tgz:159977.got - 2010.06.03 11:33:40.
