data_PCOD9027376
_publ_section_title
;
Structure prediction by ZEFSAII (Michael W. Deem and Ramdas Pophale) SiO2 
 PCOD9027376
Probable space group: P -1
;
_chemical_formula_sum "Si O2"
_cell_formula_units_Z 14
_cell_length_a 15.782058
_cell_length_b 19.072048
_cell_length_c 8.913578
_cell_angle_alpha 142.065968
_cell_angle_beta 141.578137
_cell_angle_gamma 23.719103
_cell_volume 642.708121
_symmetry_space_group_name_H-M "P -1"
_symmetry_group_IT_number 2
_symmetry_cell_setting 'triclinic'
loop_
_space_group_symop_operation_xyz
x,y,z
-x,-y,-z
loop_
_atom_site_type_symbol
_atom_site_label
_atom_site_fract_x
_atom_site_fract_y
_atom_site_fract_z
Si Si1 0.591216 0.251794 0.596998
Si Si2 0.264414 0.252290 0.150458
Si Si3 0.062591 0.912668 0.773250
Si Si4 0.364077 0.515961 0.460557
Si Si5 0.609964 0.936819 0.292605
Si Si6 0.777698 0.611820 0.137760
Si Si7 0.559174 0.215991 0.814686
O O1 0.445832 0.232063 0.339562
O O2 0.509345 0.393804 0.601169
O O3 0.552181 0.302078 0.804762
O O4 0.851029 0.064215 0.633090
O O5 0.035863 0.454449 0.218960
O O6 0.365016 0.107620 0.176252
O O7 0.251025 0.188368 0.872100
O O8 0.155721 0.725045 0.575908
O O9 0.280822 0.844804 0.935423
O O10 0.000000 0.000000 0.000000
O O11 0.500000 0.500000 0.500000
O O12 0.288429 0.446673 0.165304
O O13 0.656936 0.806936 0.254878
O O14 0.652897 0.033835 0.581025
O O15 0.681180 0.641416 0.214414
#
# Coordination Sequence:
#
# PCOD9027376 Si02
#       7
#     2   2   2   2   2   2   2
#     4  10  24  45  73  95 136 178 226 270 337 397
#     4  10  23  40  70 103 128 176 226 270 335 398
#     4  10  24  45  67  96 134 176 223 270 328 399
#     4  12  26  45  69 100 135 178 228 276 329 396
#     4  10  22  41  67  97 135 178 217 271 335 395
#     4  12  24  42  67 103 138 168 225 282 328 392
#     4  10  23  45  66 100 139 175 221 273 340 396
#
# _framework density 21.782829
#
# number of rings (size 3 to 8) (size 9 to 14) (size 15 to 20)
#    0.000    1.429    2.857    0.857    8.000    5.143 
#    2.571    2.857    0.000    0.000    0.000    0.000 
#    0.000    0.000    0.000    0.000    0.000    0.000 
#
# Total GULP energy -78144.416346 kJ/mol
# GULP energy per Si atom -5581.744025 kJ/mol
# Density = 2.173325 g / cm^3
# Si number density = 21.782829 Si / 1000 Ang^3
#
#
#
# Elastic Constant Matrix: (Units=GPa)
#
#
# Indices 1 2 3 4 5 6 
#
# 1 76.1502 59.7251 24.4347 -12.5518 -8.2457 14.4963
# 2 59.7251 119.9046 38.5414 -7.2222 -15.1225 14.7256
# 3 24.4347 38.5414 90.7603 0.0372 12.2311 -7.6733
# 4 -12.5518 -7.2222 0.0372 32.9759 -3.8878 -0.5686
# 5 -8.2457 -15.1225 12.2311 -3.8878 25.1459 -3.2407
# 6 14.4963 14.7256 -7.6733 -0.5686 -3.2407 36.9586
#
#
#
# Elastic Compliance Matrix: (Units=1/GPa)
#
#
# Indices 1 2 3 4 5 6 
#
# 1 0.024547 -0.009105 -0.003934 0.007822 0.004889 -0.006268
# 2 -0.009105 0.016605 -0.006210 0.001270 0.009771 -0.003457
# 3 -0.003934 -0.006210 0.017024 -0.004319 -0.013157 0.006332
# 4 0.007822 0.001270 -0.004319 0.034761 0.010415 -0.003023
# 5 0.004889 0.009771 -0.013157 0.010415 0.054796 -0.003578
# 6 -0.006268 -0.003457 0.006332 -0.003023 -0.003578 0.031848
#
#
# Mechanical properties :
#
#
# Convention : Reuss Voigt Hill
#
# Bulk Modulus (GPa) = 50.81644 59.13527 54.97586
# Shear Modulus (GPa) = 22.25787 29.95701 26.10744
#
# Velocity S-wave (km/s) = 3.20004 3.71247 3.46574
# Velocity P-wave (km/s) = 6.08547 6.75153 6.42714
#
# Compressibility (1/GPa) = 0.01967867
#
# Stress axis : x y z
#
# Youngs Moduli (GPa) = 40.73737 60.22389 58.73959
#
# Poissons Ratio (x) = 0.54834 0.23110
# Poissons Ratio (y) = 0.37091 0.36475
# Poissons Ratio (z) = 0.16027 0.37397
#
# Static dielectric constant tensor:
#      x y z
#    x 1.849510 -0.027470 0.014490 
#    y -0.027470 1.796260 -0.033380 
#    z 0.014490 -0.033380 1.855720 
# 
# From -- ./inp_files/337975.got.cif
#   From: 2010.05.17/outbox.cif.g08.bks.cpg/sg2_169_cif.got.tgz:337975.got - 2010.06.03 11:33:40.
