data_PCOD9027490
_publ_section_title
;
Structure prediction by ZEFSAII (Michael W. Deem and Ramdas Pophale) SiO2 
 PCOD9027490
Probable space group: P -1
;
_chemical_formula_sum "Si O2"
_cell_formula_units_Z 10
_cell_length_a 14.567860
_cell_length_b 12.099312
_cell_length_c 9.343207
_cell_angle_alpha 129.893287
_cell_angle_beta 129.669418
_cell_angle_gamma 19.397944
_cell_volume 416.029749
_symmetry_space_group_name_H-M "P -1"
_symmetry_group_IT_number 2
_symmetry_cell_setting 'triclinic'
loop_
_space_group_symop_operation_xyz
x,y,z
-x,-y,-z
loop_
_atom_site_type_symbol
_atom_site_label
_atom_site_fract_x
_atom_site_fract_y
_atom_site_fract_z
Si Si1 0.541366 0.790919 0.907788
Si Si2 0.126070 0.220666 0.102586
Si Si3 0.184901 0.396334 0.493947
Si Si4 0.448115 0.403498 0.790101
Si Si5 0.316874 0.596341 0.493630
O O1 0.617504 0.625757 0.701951
O O2 0.825565 0.476144 0.020419
O O3 0.500000 0.000000 0.000000
O O4 0.287855 0.018255 0.945913
O O5 0.102864 0.418644 0.275689
O O6 0.307546 0.952054 0.185217
O O7 0.194260 0.558244 0.666641
O O8 0.000000 0.500000 0.500000
O O9 0.500000 0.000000 0.500000
O O10 0.433829 0.460440 0.656941
O O11 0.500000 0.500000 0.000000
O O12 0.500000 0.500000 0.500000
O O13 0.000000 0.000000 0.500000
#
# Coordination Sequence:
#
# PCOD9027490 Si02
#       5
#     2   2   2   2   2
#     4  12  25  46  72 105 144 190 239 300 368 439
#     4  11  24  45  72 105 141 188 245 301 360 436
#     4  10  22  41  68 105 141 178 235 304 360 420
#     4  11  24  46  74 105 143 195 249 303 362 440
#     4  12  28  48  71 106 151 195 243 306 379 443
#
# _framework density 24.036743000000001
#
# number of rings (size 3 to 8) (size 9 to 14) (size 15 to 20)
#    0.000    0.800    0.000    7.800    0.000    8.000 
#    0.000   12.000    0.000    0.000    0.000    0.000 
#    0.000    0.000    0.000    0.000    0.000    0.000 
#
# Total GULP energy -55793.187632 kJ/mol
# GULP energy per Si atom -5579.318763 kJ/mol
# Density = 2.398203 g / cm^3
# Si number density = 24.036743 Si / 1000 Ang^3
#
#
#
# Elastic Constant Matrix: (Units=GPa)
#
#
# Indices 1 2 3 4 5 6 
#
# 1 161.6147 45.6449 56.2438 9.0769 -4.2111 -5.2277
# 2 45.6449 76.8141 35.2067 12.5059 -13.4809 -3.1285
# 3 56.2438 35.2067 227.2790 20.2423 12.6896 16.1114
# 4 9.0769 12.5059 20.2423 42.8775 12.3548 -4.5328
# 5 -4.2111 -13.4809 12.6896 12.3548 56.8647 -4.6160
# 6 -5.2277 -3.1285 16.1114 -4.5328 -4.6160 51.5754
#
#
#
# Elastic Compliance Matrix: (Units=1/GPa)
#
#
# Indices 1 2 3 4 5 6 
#
# 1 0.007829 -0.004020 -0.001411 0.000300 -0.000042 0.001013
# 2 -0.004020 0.018069 -0.001757 -0.005062 0.005582 0.001292
# 3 -0.001411 -0.001757 0.005401 -0.001519 -0.001576 -0.002211
# 4 0.000300 -0.005062 -0.001519 0.027587 -0.006668 0.002026
# 5 -0.000042 0.005582 -0.001576 -0.006668 0.020878 0.002109
# 6 0.001013 0.001292 -0.002211 0.002026 0.002109 0.020628
#
#
# Mechanical properties :
#
#
# Convention : Reuss Voigt Hill
#
# Bulk Modulus (GPa) = 59.08987 82.21093 70.65040
# Shear Modulus (GPa) = 41.52539 52.17104 46.84821
#
# Velocity S-wave (km/s) = 4.16093 4.66388 4.41957
# Velocity P-wave (km/s) = 6.90803 7.95480 7.44983
#
# Compressibility (1/GPa) = 0.01692338
#
# Stress axis : x y z
#
# Youngs Moduli (GPa) = 127.73286 55.34352 185.14781
#
# Poissons Ratio (x) = 0.22250 0.26121
# Poissons Ratio (y) = 0.51354 0.32522
# Poissons Ratio (z) = 0.18021 0.09721
#
# Static dielectric constant tensor:
#      x y z
#    x 1.875460 -0.025060 0.032630 
#    y -0.025060 1.930750 0.044870 
#    z 0.032630 0.044870 2.115110 
# 
# From -- ./inp_files/130696.got.cif
#   From: 2010.05.17/outbox.cif.g08.bks.cpg/sg2_66_cif.got.tgz:130696.got - 2010.06.03 11:33:40.
