data_PCOD9027492
_publ_section_title
;
Structure prediction by ZEFSAII (Michael W. Deem and Ramdas Pophale) SiO2 
 PCOD9027492
Probable space group: P -1
;
_chemical_formula_sum "Si O2"
_cell_formula_units_Z 14
_cell_length_a 5.738819
_cell_length_b 10.979860
_cell_length_c 20.335367
_cell_angle_alpha 31.056989
_cell_angle_beta 119.248217
_cell_angle_gamma 115.561242
_cell_volume 576.528590
_symmetry_space_group_name_H-M "P -1"
_symmetry_group_IT_number 2
_symmetry_cell_setting 'triclinic'
loop_
_space_group_symop_operation_xyz
x,y,z
-x,-y,-z
loop_
_atom_site_type_symbol
_atom_site_label
_atom_site_fract_x
_atom_site_fract_y
_atom_site_fract_z
Si Si1 0.677800 0.974253 0.468214
Si Si2 0.178408 0.312871 0.040811
Si Si3 0.501135 0.846331 0.286837
Si Si4 0.525498 0.521426 0.319943
Si Si5 0.379270 0.761688 0.063497
Si Si6 0.549343 0.399449 0.159662
Si Si7 0.089272 0.440018 0.465852
O O1 0.585319 0.170470 0.313850
O O2 0.500000 0.000000 0.500000
O O3 0.607060 0.707313 0.558425
O O4 0.000000 0.000000 0.500000
O O5 0.255116 0.378391 0.095733
O O6 0.385902 0.103489 0.152220
O O7 0.250695 0.538701 0.900883
O O8 0.892873 0.211055 0.026335
O O9 0.550603 0.748209 0.265813
O O10 0.282301 0.656120 0.371587
O O11 0.757355 0.802525 0.388641
O O12 0.352802 0.586036 0.203346
O O13 0.828030 0.444636 0.382430
O O14 0.574701 0.627685 0.104013
O O15 0.500000 0.000000 0.000000
O O16 0.000000 0.500000 0.500000
#
# Coordination Sequence:
#
# PCOD9027492 Si02
#       7
#     2   2   2   2   2   2   2
#     4  12  28  49  77 111 154 204 257 321 389 460
#     4  11  26  47  72 105 148 197 250 310 383 462
#     4  10  22  41  68 105 142 190 246 310 382 452
#     4  11  24  42  69 107 142 191 246 315 376 451
#     4  12  25  46  73 104 143 192 249 312 376 456
#     4  11  27  49  71 107 146 199 251 310 384 460
#     4   9  21  39  63 102 144 185 244 304 377 447
#
# _framework density 24.283272
#
# number of rings (size 3 to 8) (size 9 to 14) (size 15 to 20)
#    0.000    1.143    1.429    3.000    8.000    5.714 
#    2.571    0.000    0.000    0.000    0.000    0.000 
#    0.000    0.000    0.000    0.000    0.000    0.000 
#
# Total GULP energy -78293.310168 kJ/mol
# GULP energy per Si atom -5592.379298 kJ/mol
# Density = 2.422800 g / cm^3
# Si number density = 24.283272 Si / 1000 Ang^3
#
#
#
# Elastic Constant Matrix: (Units=GPa)
#
#
# Indices 1 2 3 4 5 6 
#
# 1 70.9956 22.4227 29.5724 10.2760 0.1206 10.8449
# 2 22.4227 126.0130 36.8735 -3.1144 10.6044 4.5133
# 3 29.5724 36.8735 146.2534 6.5437 -9.2874 1.3141
# 4 10.2760 -3.1144 6.5437 45.8087 -1.5007 0.8798
# 5 0.1206 10.6044 -9.2874 -1.5007 32.1358 4.8383
# 6 10.8449 4.5133 1.3141 0.8798 4.8383 44.6146
#
#
#
# Elastic Compliance Matrix: (Units=1/GPa)
#
#
# Indices 1 2 3 4 5 6 
#
# 1 0.016980 -0.002218 -0.002664 -0.003497 0.000305 -0.003789
# 2 -0.002218 0.009309 -0.002189 0.001323 -0.003639 0.000031
# 3 -0.002664 -0.002189 0.008144 -0.000622 0.003010 0.000315
# 4 -0.003497 0.001323 -0.000622 0.022802 0.000426 0.000239
# 5 0.000305 -0.003639 0.003010 0.000426 0.033728 -0.003461
# 6 -0.003789 0.000031 0.000315 0.000239 -0.003461 0.023693
#
#
# Mechanical properties :
#
#
# Convention : Reuss Voigt Hill
#
# Bulk Modulus (GPa) = 49.28509 57.88879 53.58694
# Shear Modulus (GPa) = 36.88313 41.47138 39.17725
#
# Velocity S-wave (km/s) = 3.90150 4.13706 4.02100
# Velocity P-wave (km/s) = 6.37460 6.83455 6.60858
#
# Compressibility (1/GPa) = 0.02029011
#
# Stress axis : x y z
#
# Youngs Moduli (GPa) = 58.89265 107.42556 122.78753
#
# Poissons Ratio (x) = 0.23830 0.32713
# Poissons Ratio (y) = 0.13064 0.26878
# Poissons Ratio (z) = 0.15690 0.23515
#
# Static dielectric constant tensor:
#      x y z
#    x 2.040960 -0.063230 0.009150 
#    y -0.063230 1.967320 0.031650 
#    z 0.009150 0.031650 1.910170 
# 
# From -- ./inp_files/69731.got.cif
#   From: 2010.05.17/outbox.cif.g08.bks.cpg/sg2_35_cif.got.tgz:69731.got - 2010.06.03 11:33:40.
