data_PCOD9027384
_publ_section_title
;
Structure prediction by ZEFSAII (Michael W. Deem and Ramdas Pophale) SiO2 
 PCOD9027384
Probable space group: P -1
;
_chemical_formula_sum "Si O2"
_cell_formula_units_Z 14
_cell_length_a 8.792029
_cell_length_b 17.775630
_cell_length_c 10.950043
_cell_angle_alpha 31.637138
_cell_angle_beta 50.113831
_cell_angle_gamma 38.028485
_cell_volume 550.709870
_symmetry_space_group_name_H-M "P -1"
_symmetry_group_IT_number 2
_symmetry_cell_setting 'triclinic'
loop_
_space_group_symop_operation_xyz
x,y,z
-x,-y,-z
loop_
_atom_site_type_symbol
_atom_site_label
_atom_site_fract_x
_atom_site_fract_y
_atom_site_fract_z
Si Si1 0.117846 0.695972 0.220620
Si Si2 0.601977 0.862382 0.366220
Si Si3 0.354340 0.614716 0.628899
Si Si4 0.387095 0.411059 0.118641
Si Si5 0.803874 0.019293 0.781955
Si Si6 0.111229 0.481683 0.833171
Si Si7 0.652883 0.141963 0.972360
O O1 0.352126 0.485192 0.404935
O O2 0.864300 0.727209 0.347743
O O3 0.189154 0.801935 0.123566
O O4 0.038391 0.813929 0.971805
O O5 0.503185 0.782904 0.617484
O O6 0.392553 0.970317 0.220589
O O7 0.665239 0.978099 0.249037
O O8 0.202735 0.811151 0.495306
O O9 0.183696 0.619442 0.604910
O O10 0.404403 0.454124 0.911365
O O11 0.098993 0.498851 0.167845
O O12 0.500000 0.500000 0.000000
O O13 0.710246 0.095917 0.862832
O O14 0.368177 0.301975 0.914754
O O15 0.000000 0.500000 0.000000
#
# Coordination Sequence:
#
# PCOD9027384 Si02
#       7
#     2   2   2   2   2   2   2
#     4  10  23  41  66  95 128 164 218 270 315 379
#     4  11  23  40  64  95 133 168 210 264 319 383
#     4  10  23  43  63  95 126 172 216 264 321 377
#     4  11  23  42  60  93 131 169 214 260 318 384
#     4  11  22  39  65  95 136 163 212 263 320 377
#     4   9  22  42  64  88 127 164 216 263 315 379
#     4  10  22  41  67  98 121 168 216 266 325 375
#
# _framework density 25.421733
#
# number of rings (size 3 to 8) (size 9 to 14) (size 15 to 20)
#    0.000    1.714    1.429    3.429    6.000    4.000 
#    5.143    3.571    0.000    0.000    0.000    0.000 
#    0.000    0.000    0.000    0.000    0.000    0.000 
#
# Total GULP energy -77938.689463 kJ/mol
# GULP energy per Si atom -5567.049247 kJ/mol
# Density = 2.536387 g / cm^3
# Si number density = 25.421733 Si / 1000 Ang^3
#
#
#
# Elastic Constant Matrix: (Units=GPa)
#
#
# Indices 1 2 3 4 5 6 
#
# 1 133.3618 20.8756 24.5004 -7.0181 -4.9645 -31.0314
# 2 20.8756 40.7691 -0.6051 -11.9945 11.2439 -16.7024
# 3 24.5004 -0.6051 136.4971 0.3427 7.1473 -1.3250
# 4 -7.0181 -11.9945 0.3427 25.7919 3.4547 4.6801
# 5 -4.9645 11.2439 7.1473 3.4547 34.1032 -4.3301
# 6 -31.0314 -16.7024 -1.3250 4.6801 -4.3301 32.4562
#
#
#
# Elastic Compliance Matrix: (Units=1/GPa)
#
#
# Indices 1 2 3 4 5 6 
#
# 1 0.010603 -0.003111 -0.002048 -0.000758 0.004234 0.009127
# 2 -0.003111 0.040860 0.001577 0.017568 -0.014298 0.013676
# 3 -0.002048 0.001577 0.007827 0.000665 -0.002689 -0.001282
# 4 -0.000758 0.017568 0.000665 0.048203 -0.010933 -0.000066
# 5 0.004234 -0.014298 -0.002689 -0.010933 0.036712 0.003055
# 6 0.009127 0.013676 -0.001282 -0.000066 0.003055 0.046940
#
#
# Mechanical properties :
#
#
# Convention : Reuss Voigt Hill
#
# Bulk Modulus (GPa) = 19.18459 44.46333 31.82396
# Shear Modulus (GPa) = 23.18189 36.19407 29.68798
#
# Velocity S-wave (km/s) = 3.02303 3.77735 3.42104
# Velocity P-wave (km/s) = 4.44386 6.04589 5.30569
#
# Compressibility (1/GPa) = 0.05212518
#
# Stress axis : x y z
#
# Youngs Moduli (GPa) = 94.31096 24.47409 127.75517
#
# Poissons Ratio (x) = 0.07614 0.26167
# Poissons Ratio (y) = 0.29342 -0.20146
# Poissons Ratio (z) = 0.19317 -0.03859
#
# Static dielectric constant tensor:
#      x y z
#    x 2.239500 0.024610 0.130120 
#    y 0.024610 2.060110 0.011170 
#    z 0.130120 0.011170 2.384900 
# 
# From -- ./inp_files/153715.got.cif
#   From: 2010.05.17/outbox.cif.g08.bks.cpg/sg2_77_cif.got.tgz:153715.got - 2010.06.03 11:33:40.
