data_PCOD9027539
_publ_section_title
;
Structure prediction by ZEFSAII (Michael W. Deem and Ramdas Pophale) SiO2 
 PCOD9027539
Probable space group: P -1
;
_chemical_formula_sum "Si O2"
_cell_formula_units_Z 14
_cell_length_a 13.370666
_cell_length_b 9.475105
_cell_length_c 8.051714
_cell_angle_alpha 110.205117
_cell_angle_beta 67.328090
_cell_angle_gamma 61.150570
_cell_volume 621.189710
_symmetry_space_group_name_H-M "P -1"
_symmetry_group_IT_number 2
_symmetry_cell_setting 'triclinic'
loop_
_space_group_symop_operation_xyz
x,y,z
-x,-y,-z
loop_
_atom_site_type_symbol
_atom_site_label
_atom_site_fract_x
_atom_site_fract_y
_atom_site_fract_z
Si Si1 0.323366 0.128685 0.807109
Si Si2 0.407820 0.155676 0.278799
Si Si3 0.634602 0.233447 0.516324
Si Si4 0.912426 0.426943 0.002720
Si Si5 0.118786 0.015589 0.469901
Si Si6 0.321256 0.535516 0.646216
Si Si7 0.151174 0.249759 0.315364
O O1 0.243229 0.357444 0.891883
O O2 0.500070 0.988152 0.679185
O O3 0.316099 0.984936 0.647417
O O4 0.238654 0.171907 0.052987
O O5 0.397099 0.344872 0.385532
O O6 0.244227 0.242407 0.398864
O O7 0.500000 0.000000 0.000000
O O8 0.449152 0.426105 0.669327
O O9 0.701424 0.284788 0.358702
O O10 0.720500 0.182615 0.617121
O O11 0.839092 0.387681 0.171010
O O12 0.000000 0.500000 0.000000
O O13 0.021700 0.221027 0.734978
O O14 0.141492 0.088814 0.317094
O O15 0.000000 0.000000 0.500000
O O16 0.000000 0.500000 0.500000
#
# Coordination Sequence:
#
# PCOD9027539 Si02
#       7
#     2   2   2   2   2   2   2
#     4  10  22  41  68  93 127 172 231 264 330 394
#     4   9  21  39  66  95 122 169 218 270 328 387
#     4  10  24  46  66  96 129 179 225 272 333 401
#     4  12  24  42  67 103 128 171 226 278 325 398
#     4  12  28  42  63 101 139 174 219 274 341 392
#     4  10  24  42  72  94 133 173 227 280 326 393
#     4  11  23  41  64  92 135 172 215 273 330 391
#
# _framework density 22.537396999999999
#
# number of rings (size 3 to 8) (size 9 to 14) (size 15 to 20)
#    0.000    1.429    2.857    0.857    6.000    1.714 
#    0.000    0.714    0.000    0.000    0.000    0.000 
#    0.000    0.000    0.000    0.000    0.000    0.000 
#
# Total GULP energy -78089.114390 kJ/mol
# GULP energy per Si atom -5577.793885 kJ/mol
# Density = 2.248610 g / cm^3
# Si number density = 22.537397 Si / 1000 Ang^3
#
#
#
# Elastic Constant Matrix: (Units=GPa)
#
#
# Indices 1 2 3 4 5 6 
#
# 1 143.5971 38.5190 4.2262 0.9482 -6.7505 6.5149
# 2 38.5190 115.3688 4.8178 -5.9348 -14.7903 11.1864
# 3 4.2262 4.8178 50.6607 -4.3045 -3.7025 9.3439
# 4 0.9482 -5.9348 -4.3045 30.8535 4.6522 -12.6969
# 5 -6.7505 -14.7903 -3.7025 4.6522 29.5133 0.4764
# 6 6.5149 11.1864 9.3439 -12.6969 0.4764 42.8791
#
#
#
# Elastic Compliance Matrix: (Units=1/GPa)
#
#
# Indices 1 2 3 4 5 6 
#
# 1 0.007709 -0.002453 -0.000308 -0.001197 0.000697 -0.000826
# 2 -0.002453 0.010313 0.000009 0.000450 0.004573 -0.002237
# 3 -0.000308 0.000009 0.020803 0.000774 0.002491 -0.004287
# 4 -0.001197 0.000450 0.000774 0.038213 -0.006157 0.011279
# 5 0.000697 0.004573 0.002491 -0.006157 0.037683 -0.004084
# 6 -0.000826 -0.002237 -0.004287 0.011279 -0.004084 0.028350
#
#
# Mechanical properties :
#
#
# Convention : Reuss Voigt Hill
#
# Bulk Modulus (GPa) = 30.01183 44.97251 37.49217
# Shear Modulus (GPa) = 31.31224 38.12009 34.71616
#
# Velocity S-wave (km/s) = 3.73144 4.11714 3.92903
# Velocity P-wave (km/s) = 5.64891 6.52680 6.10366
#
# Compressibility (1/GPa) = 0.03332020
#
# Stress axis : x y z
#
# Youngs Moduli (GPa) = 129.71498 96.96582 48.07102
#
# Poissons Ratio (x) = 0.23787 0.01481
# Poissons Ratio (y) = 0.31821 -0.00043
# Poissons Ratio (z) = 0.03997 -0.00087
#
# Static dielectric constant tensor:
#      x y z
#    x 1.938320 -0.020900 -0.064740 
#    y -0.020900 1.965220 -0.072380 
#    z -0.064740 -0.072380 1.920210 
# 
# From -- ./inp_files/158651.got.cif
#   From: 2010.05.17/outbox.cif.g08.bks.cpg/sg2_80_cif.got.tgz:158651.got - 2010.06.03 11:33:40.
