data_PCOD9027560
_publ_section_title
;
Structure prediction by ZEFSAII (Michael W. Deem and Ramdas Pophale) SiO2 
 PCOD9027560
Probable space group: P -1
;
_chemical_formula_sum "Si O2"
_cell_formula_units_Z 16
_cell_length_a 17.617374
_cell_length_b 20.251996
_cell_length_c 10.880551
_cell_angle_alpha 31.724064
_cell_angle_beta 29.871693
_cell_angle_gamma 21.101247
_cell_volume 677.102137
_symmetry_space_group_name_H-M "P -1"
_symmetry_group_IT_number 2
_symmetry_cell_setting 'triclinic'
loop_
_space_group_symop_operation_xyz
x,y,z
-x,-y,-z
loop_
_atom_site_type_symbol
_atom_site_label
_atom_site_fract_x
_atom_site_fract_y
_atom_site_fract_z
Si Si1 0.509328 0.660862 0.470263
Si Si2 0.331802 0.195309 0.353794
Si Si3 0.396425 0.881068 0.494601
Si Si4 0.054552 0.842295 0.752990
Si Si5 0.513972 0.687090 0.884369
Si Si6 0.614249 0.002682 0.015304
Si Si7 0.098256 0.712363 0.156017
Si Si8 0.876916 0.252180 0.650360
O O1 0.454428 0.716914 0.602548
O O2 0.331813 0.676570 0.626551
O O3 0.762877 0.450133 0.446629
O O4 0.448696 0.837322 0.230014
O O5 0.347561 0.321305 0.195101
O O6 0.438477 0.130131 0.172825
O O7 0.083112 0.287987 0.565864
O O8 0.500000 0.000000 0.500000
O O9 0.424223 0.838692 0.667298
O O10 0.559517 0.898271 0.207380
O O11 0.135201 0.077090 0.523609
O O12 0.008128 0.856961 0.942293
O O13 0.000000 0.000000 0.500000
O O14 0.879032 0.850288 0.927918
O O15 0.677545 0.490414 0.894285
O O16 0.297219 0.748337 0.146237
O O17 0.129729 0.750951 0.185832
#
# Coordination Sequence:
#
# PCOD9027560 Si02
#       8
#     2   2   2   2   2   2   2   2
#     4  11  25  47  69  99 140 181 228 279 343 407
#     4  12  23  41  66  99 134 179 231 277 332 405
#     4  12  24  43  69 103 133 182 230 279 344 401
#     4  10  22  41  68  94 131 183 218 272 342 395
#     4  12  24  40  68 100 138 173 230 286 336 405
#     4  11  24  45  68  97 140 183 226 283 338 402
#     4  12  21  43  68  99 140 176 227 283 339 399
#     4  12  25  43  69 105 138 178 227 285 340 401
#
# _framework density 23.630113000000001
#
# number of rings (size 3 to 8) (size 9 to 14) (size 15 to 20)
#    0.000    0.500    6.250    2.250    1.750    0.500 
#    0.000    3.125    0.000    0.000    0.000    0.000 
#    0.000    0.000    0.000    0.000    0.000    0.000 
#
# Total GULP energy -89418.505066 kJ/mol
# GULP energy per Si atom -5588.656567 kJ/mol
# Density = 2.357633 g / cm^3
# Si number density = 23.630113 Si / 1000 Ang^3
#
#
#
# Elastic Constant Matrix: (Units=GPa)
#
#
# Indices 1 2 3 4 5 6 
#
# 1 59.8392 21.0739 42.6730 0.6229 -5.2497 -10.3195
# 2 21.0739 114.2664 10.9020 1.1852 -20.5715 -11.3243
# 3 42.6730 10.9020 85.0107 5.2459 -29.4081 -17.3476
# 4 0.6229 1.1852 5.2459 31.3981 -15.0090 -1.7225
# 5 -5.2497 -20.5715 -29.4081 -15.0090 37.9633 -1.7954
# 6 -10.3195 -11.3243 -17.3476 -1.7225 -1.7954 31.0410
#
#
#
# Elastic Compliance Matrix: (Units=1/GPa)
#
#
# Indices 1 2 3 4 5 6 
#
# 1 0.034482 -0.008712 -0.025106 -0.007414 -0.022685 -0.007469
# 2 -0.008712 0.013172 0.009725 0.006360 0.016390 0.008645
# 3 -0.025106 0.009725 0.039964 0.013195 0.038943 0.020520
# 4 -0.007414 0.006360 0.013195 0.044990 0.030974 0.011518
# 5 -0.022685 0.016390 0.038943 0.030974 0.075742 0.026301
# 6 -0.007469 0.008645 0.020520 0.011518 0.026301 0.046515
#
#
# Mechanical properties :
#
#
# Convention : Reuss Voigt Hill
#
# Bulk Modulus (GPa) = 25.35977 45.37935 35.36956
# Shear Modulus (GPa) = 15.81309 32.37830 24.09569
#
# Velocity S-wave (km/s) = 2.58968 3.70566 3.19674
# Velocity P-wave (km/s) = 4.43815 6.12821 5.35033
#
# Compressibility (1/GPa) = 0.03943254
#
# Stress axis : x y z
#
# Youngs Moduli (GPa) = 29.00033 75.92022 25.02276
#
# Poissons Ratio (x) = 0.66138 0.62823
# Poissons Ratio (y) = 0.25264 -0.24335
# Poissons Ratio (z) = 0.72809 -0.73834
#
# Static dielectric constant tensor:
#      x y z
#    x 1.988650 0.016590 0.101680 
#    y 0.016590 1.864940 0.008710 
#    z 0.101680 0.008710 2.054720 
# 
# From -- ./inp_files/333883.got.cif
#   From: 2010.05.17/outbox.cif.g08.bks.cpg/sg2_167_cif.got.tgz:333883.got - 2010.06.03 11:33:40.
