data_PCOD9027329
_publ_section_title
;
Structure prediction by ZEFSAII (Michael W. Deem and Ramdas Pophale) SiO2 
 PCOD9027329
Probable space group: P -1
;
_chemical_formula_sum "Si O2"
_cell_formula_units_Z 16
_cell_length_a 24.480372
_cell_length_b 19.177879
_cell_length_c 6.943478
_cell_angle_alpha 59.042329
_cell_angle_beta 70.163366
_cell_angle_gamma 18.590666
_cell_volume 748.854493
_symmetry_space_group_name_H-M "P -1"
_symmetry_group_IT_number 2
_symmetry_cell_setting 'triclinic'
loop_
_space_group_symop_operation_xyz
x,y,z
-x,-y,-z
loop_
_atom_site_type_symbol
_atom_site_label
_atom_site_fract_x
_atom_site_fract_y
_atom_site_fract_z
Si Si1 0.800634 0.765304 0.618113
Si Si2 0.220995 0.687717 0.269162
Si Si3 0.831138 0.615984 0.137009
Si Si4 0.963453 0.782345 0.849033
Si Si5 0.554530 0.645997 0.911172
Si Si6 0.090221 0.787954 0.646160
Si Si7 0.506603 0.395720 0.621521
Si Si8 0.725609 0.711204 0.546678
O O1 0.822310 0.664905 0.579982
O O2 0.995440 0.555983 0.744191
O O3 0.649382 0.031114 0.324696
O O4 0.717343 0.828173 0.818231
O O5 0.370451 0.473730 0.219994
O O6 0.186991 0.661300 0.498371
O O7 0.327994 0.611766 0.380323
O O8 0.000000 0.000000 0.000000
O O9 0.719271 0.728409 0.297784
O O10 0.932747 0.408520 0.177789
O O11 0.950727 0.896314 0.666168
O O12 0.731051 0.065472 0.754300
O O13 0.109704 0.573035 0.158015
O O14 0.727648 0.467167 0.059577
O O15 0.532961 0.596242 0.141058
O O16 0.000000 0.000000 0.500000
O O17 0.500000 0.500000 0.500000
O O18 0.500000 0.000000 0.500000
#
# Coordination Sequence:
#
# PCOD9027329 Si02
#       8
#     2   2   2   2   2   2   2   2
#     4  10  22  41  67  96 127 176 221 273 337 401
#     4  11  24  43  67  93 129 179 229 274 342 401
#     4  10  23  43  66  94 137 168 224 279 334 402
#     4  11  24  43  67  99 133 177 225 279 340 401
#     4  11  23  41  67  95 130 175 228 272 337 409
#     4  11  23  43  65  92 134 174 222 281 334 398
#     4  11  26  44  67  98 138 174 226 284 339 400
#     4  11  24  42  67 100 136 176 218 277 343 405
#
# _framework density 21.365966
#
# number of rings (size 3 to 8) (size 9 to 14) (size 15 to 20)
#    0.000    1.250    1.250    4.125    0.000    9.500 
#    2.250    0.000    0.000    0.000    0.000    0.000 
#    0.000    0.000    0.000    0.000    0.000    0.000 
#
# Total GULP energy -89299.638187 kJ/mol
# GULP energy per Si atom -5581.227387 kJ/mol
# Density = 2.131734 g / cm^3
# Si number density = 21.365966 Si / 1000 Ang^3
#
#
#
# Elastic Constant Matrix: (Units=GPa)
#
#
# Indices 1 2 3 4 5 6 
#
# 1 64.8353 16.1618 41.9220 9.8230 -25.9535 -16.5873
# 2 16.1618 73.2010 29.0928 26.4734 -11.4025 -11.3988
# 3 41.9220 29.0928 107.2741 13.4974 5.6670 8.3821
# 4 9.8230 26.4734 13.4974 50.7663 -2.6068 4.9088
# 5 -25.9535 -11.4025 5.6670 -2.6068 22.9597 -8.1204
# 6 -16.5873 -11.3988 8.3821 4.9088 -8.1204 22.4552
#
#
#
# Elastic Compliance Matrix: (Units=1/GPa)
#
#
# Indices 1 2 3 4 5 6 
#
# 1 -0.009361 -0.014794 0.010718 0.008127 -0.030727 -0.031314
# 2 -0.014794 0.012469 0.004714 -0.004641 -0.016181 -0.011196
# 3 0.010718 0.004714 0.002159 -0.005827 0.019578 0.017858
# 4 0.008127 -0.004641 -0.005827 0.022212 0.012824 0.005604
# 5 -0.030727 -0.016181 0.019578 0.012824 -0.019608 -0.048114
# 6 -0.031314 -0.011196 0.017858 0.005604 -0.048114 -0.009571
#
#
# Mechanical properties :
#
#
# Convention : Reuss Voigt Hill
#
# Bulk Modulus (GPa) = 152.89518 46.62928 99.76223
# Shear Modulus (GPa) = -6280.48541 29.77850 -3125.35346
#
# Velocity S-wave (km/s) = -54.27580 3.73733 -38.28769
# Velocity P-wave (km/s) = 62.09751 6.36356 43.67840
#
# Compressibility (1/GPa) = 0.00654043
#
# Stress axis : x y z
#
# Youngs Moduli (GPa) = -106.82590 80.20206 463.25473
#
# Poissons Ratio (x) = 1.18655 -4.96514
# Poissons Ratio (y) = -1.58043 -2.18363
# Poissons Ratio (z) = 1.14495 -0.37805
#
# Static dielectric constant tensor:
#      x y z
#    x 1.680880 -0.026550 -0.031890 
#    y -0.026550 1.805180 0.009720 
#    z -0.031890 0.009720 1.773500 
# 
# From -- ./inp_files/124677.got.cif
#   From: 2010.05.17/outbox.cif.g08.bks.cpg/sg2_63_cif.got.tgz:124677.got - 2010.06.03 11:33:40.
