data_PCOD9027237
_publ_section_title
;
Structure prediction by ZEFSAII (Michael W. Deem and Ramdas Pophale) SiO2 
 PCOD9027237
Probable space group: P -1
;
_chemical_formula_sum "Si O2"
_cell_formula_units_Z 14
_cell_length_a 20.624439
_cell_length_b 5.926635
_cell_length_c 9.990853
_cell_angle_alpha 110.739586
_cell_angle_beta 40.390053
_cell_angle_gamma 86.042062
_cell_volume 613.639534
_symmetry_space_group_name_H-M "P -1"
_symmetry_group_IT_number 2
_symmetry_cell_setting 'triclinic'
loop_
_space_group_symop_operation_xyz
x,y,z
-x,-y,-z
loop_
_atom_site_type_symbol
_atom_site_label
_atom_site_fract_x
_atom_site_fract_y
_atom_site_fract_z
Si Si1 0.130408 0.365373 0.335155
Si Si2 0.963132 0.177828 0.960731
Si Si3 0.763183 0.204812 0.119642
Si Si4 0.439051 0.853787 0.147352
Si Si5 0.320892 0.387999 0.896671
Si Si6 0.832109 0.772823 0.443629
Si Si7 0.436195 0.812328 0.446021
O O1 0.137365 0.357935 0.482390
O O2 0.000000 0.500000 0.500000
O O3 0.204391 0.496219 0.191917
O O4 0.206455 0.037493 0.089512
O O5 0.082429 0.112928 0.688491
O O6 0.885794 0.099376 0.979407
O O7 0.878343 0.516561 0.207360
O O8 0.000000 0.000000 0.000000
O O9 0.722694 0.481690 0.153202
O O10 0.658949 0.275273 0.403832
O O11 0.426615 0.941618 0.341920
O O12 0.308345 0.994734 0.314536
O O13 0.500000 0.500000 0.000000
O O14 0.500000 0.000000 0.000000
O O15 0.422800 0.430778 0.800798
O O16 0.392440 0.043475 0.684363
#
# Coordination Sequence:
#
# PCOD9027237 Si02
#       7
#     2   2   2   2   2   2   2
#     4  11  24  42  64 100 135 176 226 290 357 421
#     4  11  24  43  71  98 132 185 234 295 358 426
#     4  11  23  40  70  96 128 176 230 284 350 413
#     4  12  29  46  72 106 147 193 239 297 364 432
#     4  10  22  41  67  92 131 176 228 285 348 419
#     4  11  26  45  68  99 143 183 237 293 360 431
#     4  10  23  43  66  95 133 177 233 285 344 422
#
# _framework density 22.814696000000001
#
# number of rings (size 3 to 8) (size 9 to 14) (size 15 to 20)
#    0.000    1.143    0.000    4.714    8.000    8.000 
#    0.000    0.000    0.000    0.000    0.000    0.000 
#    0.000    0.000    0.000    0.000    0.000    0.000 
#
# Total GULP energy -78146.064204 kJ/mol
# GULP energy per Si atom -5581.861729 kJ/mol
# Density = 2.276277 g / cm^3
# Si number density = 22.814696 Si / 1000 Ang^3
#
#
#
# Elastic Constant Matrix: (Units=GPa)
#
#
# Indices 1 2 3 4 5 6 
#
# 1 92.1674 13.9831 47.0197 -10.1612 -20.1887 -21.5393
# 2 13.9831 76.9340 56.0617 -21.8027 -22.7635 -13.4560
# 3 47.0197 56.0617 136.0568 -31.3965 -29.3181 -4.0370
# 4 -10.1612 -21.8027 -31.3965 60.1865 5.9190 7.8197
# 5 -20.1887 -22.7635 -29.3181 5.9190 53.9959 7.8959
# 6 -21.5393 -13.4560 -4.0370 7.8197 7.8959 44.1609
#
#
#
# Elastic Compliance Matrix: (Units=1/GPa)
#
#
# Indices 1 2 3 4 5 6 
#
# 1 0.015959 0.003851 -0.006335 -0.000546 0.003051 0.007929
# 2 0.003851 0.021781 -0.008425 0.002844 0.004802 0.006382
# 3 -0.006335 -0.008425 0.014185 0.003769 0.002160 -0.005414
# 4 -0.000546 0.002844 0.003769 0.019755 0.001283 -0.002783
# 5 0.003051 0.004802 0.002160 0.001283 0.022889 -0.001171
# 6 0.007929 0.006382 -0.005414 -0.002783 -0.001171 0.028664
#
#
# Mechanical properties :
#
#
# Convention : Reuss Voigt Hill
#
# Bulk Modulus (GPa) = 33.21609 59.92079 46.56844
# Shear Modulus (GPa) = 32.24027 44.20825 38.22426
#
# Velocity S-wave (km/s) = 3.76325 4.40672 4.09763
# Velocity P-wave (km/s) = 5.78562 7.22588 6.54548
#
# Compressibility (1/GPa) = 0.03010590
#
# Stress axis : x y z
#
# Youngs Moduli (GPa) = 62.66235 45.91221 70.49553
#
# Poissons Ratio (x) = -0.17679 0.44659
# Poissons Ratio (y) = -0.24129 0.59392
# Poissons Ratio (z) = 0.39697 0.38681
#
# Static dielectric constant tensor:
#      x y z
#    x 1.799240 0.040580 0.130790 
#    y 0.040580 1.846330 0.164040 
#    z 0.130790 0.164040 1.637920 
# 
# From -- ./inp_files/38707.got.cif
#   From: 2010.05.17/outbox.cif.g08.bks.cpg/sg2_20_cif.got.tgz:38707.got - 2010.06.03 11:33:40.
