data_PCOD9027960
_publ_section_title
;
Structure prediction by ZEFSAII (Michael W. Deem and Ramdas Pophale) SiO2 
 PCOD9027960
Probable space group: P -1
;
_chemical_formula_sum "Si O2"
_cell_formula_units_Z 14
_cell_length_a 19.076627
_cell_length_b 8.858515
_cell_length_c 7.950381
_cell_angle_alpha 76.117633
_cell_angle_beta 113.349063
_cell_angle_gamma 150.140742
_cell_volume 598.089907
_symmetry_space_group_name_H-M "P -1"
_symmetry_group_IT_number 2
_symmetry_cell_setting 'triclinic'
loop_
_space_group_symop_operation_xyz
x,y,z
-x,-y,-z
loop_
_atom_site_type_symbol
_atom_site_label
_atom_site_fract_x
_atom_site_fract_y
_atom_site_fract_z
Si Si1 0.629096 0.390598 0.055199
Si Si2 0.117687 0.343919 0.982978
Si Si3 0.673061 0.772619 0.149099
Si Si4 0.962762 0.483064 0.279485
Si Si5 0.565577 0.004915 0.316732
Si Si6 0.469746 0.592435 0.569517
Si Si7 0.215384 0.728980 0.280905
O O1 0.481890 0.161236 0.858510
O O2 0.737806 0.470697 0.028976
O O3 0.718232 0.703380 0.099393
O O4 0.573723 0.199080 0.219321
O O5 0.038789 0.336351 0.796409
O O6 0.168044 0.519424 0.155165
O O7 0.000000 0.000000 0.000000
O O8 0.658541 0.683593 0.349869
O O9 0.796118 0.123888 0.168303
O O10 0.500000 0.500000 0.000000
O O11 0.000000 0.500000 0.500000
O O12 0.083014 0.613330 0.235094
O O13 0.723843 0.240017 0.494003
O O14 0.447212 0.714708 0.412751
O O15 0.500000 0.500000 0.500000
O O16 0.632636 0.911116 0.729050
#
# Coordination Sequence:
#
# PCOD9027960 Si02
#       7
#     2   2   2   2   2   2   2
#     4  11  25  44  71 104 151 187 242 305 377 433
#     4  12  28  47  73 105 150 197 245 309 375 443
#     4  12  27  44  75 107 146 192 247 303 371 443
#     4  12  27  48  77 107 150 197 248 306 370 449
#     4   9  24  40  72 100 147 182 243 295 373 426
#     4  10  22  41  70 107 144 183 244 297 362 437
#     4  10  24  47  74 106 146 193 251 298 367 443
#
# _framework density 23.407851999999998
#
# number of rings (size 3 to 8) (size 9 to 14) (size 15 to 20)
#    0.857    0.286    0.000    4.714   12.000    6.857 
#    0.000    2.857    0.000    0.000    0.000    0.000 
#    0.000    0.000    0.000    0.000    0.000    0.000 
#
# Total GULP energy -78276.717272 kJ/mol
# GULP energy per Si atom -5591.194091 kJ/mol
# Density = 2.335457 g / cm^3
# Si number density = 23.407852 Si / 1000 Ang^3
#
#
#
# Elastic Constant Matrix: (Units=GPa)
#
#
# Indices 1 2 3 4 5 6 
#
# 1 131.6364 26.0520 29.7540 2.7898 -8.9414 -4.2948
# 2 26.0520 133.4849 28.2582 -10.9473 4.3422 -20.1981
# 3 29.7540 28.2582 129.9873 -9.2143 11.8316 -10.5371
# 4 2.7898 -10.9473 -9.2143 38.6672 -8.5195 -3.9117
# 5 -8.9414 4.3422 11.8316 -8.5195 27.1359 3.5383
# 6 -4.2948 -20.1981 -10.5371 -3.9117 3.5383 35.4394
#
#
#
# Elastic Compliance Matrix: (Units=1/GPa)
#
#
# Indices 1 2 3 4 5 6 
#
# 1 0.008639 -0.001575 -0.002125 -0.000815 0.003895 -0.000962
# 2 -0.001575 0.009024 -0.000867 0.002669 -0.001416 0.005130
# 3 -0.002125 -0.000867 0.009072 0.001352 -0.004423 0.002536
# 4 -0.000815 0.002669 0.001352 0.029035 0.007270 0.004303
# 5 0.003895 -0.001416 -0.004423 0.007270 0.043246 -0.005165
# 6 -0.000962 0.005130 0.002536 0.004303 -0.005165 0.032769
#
#
# Mechanical properties :
#
#
# Convention : Reuss Voigt Hill
#
# Bulk Modulus (GPa) = 56.81940 62.58189 59.70065
# Shear Modulus (GPa) = 34.06282 40.98480 37.52381
#
# Velocity S-wave (km/s) = 3.81883 4.18891 4.00815
# Velocity P-wave (km/s) = 6.61596 7.08445 6.85421
#
# Compressibility (1/GPa) = 0.01759962
#
# Stress axis : x y z
#
# Youngs Moduli (GPa) = 115.75033 110.81954 110.22793
#
# Poissons Ratio (x) = 0.17456 0.23427
# Poissons Ratio (y) = 0.18233 0.09559
# Poissons Ratio (z) = 0.24601 0.09610
#
# Static dielectric constant tensor:
#      x y z
#    x 1.889790 -0.004870 0.012380 
#    y -0.004870 1.852760 -0.030700 
#    z 0.012380 -0.030700 1.949790 
# 
# From -- ./inp_files/342633.got.cif
#   From: 2010.05.17/outbox.cif.g08.bks.cpg/sg2_172_cif.got.tgz:342633.got - 2010.06.03 11:33:40.
