data_PCOD9027290
_publ_section_title
;
Structure prediction by ZEFSAII (Michael W. Deem and Ramdas Pophale) SiO2 
 PCOD9027290
Probable space group: P -1
;
_chemical_formula_sum "Si O2"
_cell_formula_units_Z 14
_cell_length_a 9.573218
_cell_length_b 11.544083
_cell_length_c 8.501121
_cell_angle_alpha 88.604755
_cell_angle_beta 124.824089
_cell_angle_gamma 118.458260
_cell_volume 636.835669
_symmetry_space_group_name_H-M "P -1"
_symmetry_group_IT_number 2
_symmetry_cell_setting 'triclinic'
loop_
_space_group_symop_operation_xyz
x,y,z
-x,-y,-z
loop_
_atom_site_type_symbol
_atom_site_label
_atom_site_fract_x
_atom_site_fract_y
_atom_site_fract_z
Si Si1 0.104338 0.665652 0.584073
Si Si2 0.159599 0.456116 0.077246
Si Si3 0.488000 0.133879 0.004580
Si Si4 0.126191 0.273727 0.336303
Si Si5 0.178575 0.982328 0.066066
Si Si6 0.785342 0.205595 0.685681
Si Si7 0.523477 0.749187 0.316451
O O1 0.283468 0.728321 0.827847
O O2 0.212473 0.761146 0.496395
O O3 0.000000 0.500000 0.500000
O O4 0.939799 0.693965 0.543770
O O5 0.202695 0.405900 0.268664
O O6 0.375894 0.590718 0.159585
O O7 0.000000 0.500000 0.000000
O O8 0.024985 0.321955 0.884193
O O9 0.396696 0.148040 0.784138
O O10 0.500000 0.000000 0.000000
O O11 0.354453 0.110832 0.073348
O O12 0.293984 0.238968 0.469680
O O13 0.928249 0.146917 0.122253
O O14 0.257721 0.938752 0.267833
O O15 0.000000 0.000000 0.000000
O O16 0.627325 0.229016 0.675631
#
# Coordination Sequence:
#
# PCOD9027290 Si02
#       7
#     2   2   2   2   2   2   2
#     4  12  25  44  69 102 134 174 224 276 335 403
#     4   9  18  40  66  91 130 176 216 267 332 395
#     4  12  24  47  69  93 137 184 222 272 341 398
#     4  11  24  42  68 100 135 170 227 280 331 395
#     4  11  26  46  67  94 134 179 230 276 329 402
#     4  10  22  41  67  94 133 179 225 273 333 399
#     4  11  22  40  68  97 131 179 221 278 335 394
#
# _framework density 21.983692000000001
#
# number of rings (size 3 to 8) (size 9 to 14) (size 15 to 20)
#    0.000    1.143    2.857    4.714    4.000    2.286 
#    2.571    1.429    0.000    0.000    0.000    0.000 
#    0.000    0.000    0.000    0.000    0.000    0.000 
#
# Total GULP energy -78250.070953 kJ/mol
# GULP energy per Si atom -5589.290782 kJ/mol
# Density = 2.193366 g / cm^3
# Si number density = 21.983692 Si / 1000 Ang^3
#
#
#
# Elastic Constant Matrix: (Units=GPa)
#
#
# Indices 1 2 3 4 5 6 
#
# 1 109.2070 26.1796 14.6596 -22.7721 3.7284 0.1990
# 2 26.1796 84.3125 29.8597 -22.3131 2.5965 4.5343
# 3 14.6596 29.8597 94.7363 -30.3507 8.3133 2.1339
# 4 -22.7721 -22.3131 -30.3507 58.2914 0.5447 -6.6577
# 5 3.7284 2.5965 8.3133 0.5447 32.3212 -3.1345
# 6 0.1990 4.5343 2.1339 -6.6577 -3.1345 26.3836
#
#
#
# Elastic Compliance Matrix: (Units=1/GPa)
#
#
# Indices 1 2 3 4 5 6 
#
# 1 0.010458 -0.002480 0.000334 0.003441 -0.001048 0.001064
# 2 -0.002480 0.014611 -0.003289 0.002735 -0.000240 -0.001565
# 3 0.000334 -0.003289 0.013794 0.006154 -0.003368 0.000600
# 4 0.003441 0.002735 0.006154 0.023300 -0.002143 0.004631
# 5 -0.001048 -0.000240 -0.003368 -0.002143 0.032333 0.003622
# 6 0.001064 -0.001565 0.000600 0.004631 0.003622 0.039714
#
#
# Mechanical properties :
#
#
# Convention : Reuss Voigt Hill
#
# Bulk Modulus (GPa) = 35.72282 47.73928 41.73105
# Shear Modulus (GPa) = 32.38137 37.90304 35.14221
#
# Velocity S-wave (km/s) = 3.84210 4.15679 4.00253
# Velocity P-wave (km/s) = 5.99727 6.69338 6.35487
#
# Compressibility (1/GPa) = 0.02799331
#
# Stress axis : x y z
#
# Youngs Moduli (GPa) = 95.62047 68.44273 72.49508
#
# Poissons Ratio (x) = 0.16972 -0.02420
# Poissons Ratio (y) = 0.23711 0.23843
# Poissons Ratio (z) = -0.03192 0.22510
#
# Static dielectric constant tensor:
#      x y z
#    x 1.778150 0.015400 -0.027950 
#    y 0.015400 1.885200 -0.012510 
#    z -0.027950 -0.012510 1.854660 
# 
# From -- ./inp_files/175516.got.cif
#   From: 2010.05.17/outbox.cif.g08.bks.cpg/sg2_88_cif.got.tgz:175516.got - 2010.06.03 11:33:40.
