data_PCOD9027815
_publ_section_title
;
Structure prediction by ZEFSAII (Michael W. Deem and Ramdas Pophale) SiO2 
 PCOD9027815
Probable space group: P -1
;
_chemical_formula_sum "Si O2"
_cell_formula_units_Z 14
_cell_length_a 14.044124
_cell_length_b 5.511848
_cell_length_c 14.690070
_cell_angle_alpha 80.475667
_cell_angle_beta 150.607193
_cell_angle_gamma 103.251358
_cell_volume 541.846110
_symmetry_space_group_name_H-M "P -1"
_symmetry_group_IT_number 2
_symmetry_cell_setting 'triclinic'
loop_
_space_group_symop_operation_xyz
x,y,z
-x,-y,-z
loop_
_atom_site_type_symbol
_atom_site_label
_atom_site_fract_x
_atom_site_fract_y
_atom_site_fract_z
Si Si1 0.485986 0.222568 0.045896
Si Si2 0.343208 0.220847 0.267446
Si Si3 0.899007 0.243478 0.389572
Si Si4 0.243575 0.913221 0.369262
Si Si5 0.047556 0.418985 0.312792
Si Si6 0.762330 0.030731 0.001914
Si Si7 0.541431 0.700634 0.329866
O O1 0.689620 0.209591 0.267181
O O2 0.296177 0.170759 0.955001
O O3 0.500000 0.500000 0.000000
O O4 0.500000 0.000000 0.000000
O O5 0.567689 0.216683 0.489775
O O6 0.371492 0.515422 0.255013
O O7 0.208931 0.075999 0.242790
O O8 0.281235 0.088761 0.126983
O O9 0.000000 0.500000 0.500000
O O10 0.904310 0.317204 0.282660
O O11 0.000000 0.000000 0.500000
O O12 0.068734 0.695427 0.270059
O O13 0.343725 0.085694 0.523376
O O14 0.271271 0.420436 0.536445
O O15 0.966796 0.214359 0.180495
O O16 0.589303 0.197705 0.860419
#
# Coordination Sequence:
#
# PCOD9027815 Si02
#       7
#     2   2   2   2   2   2   2
#     4  12  27  48  72 104 146 188 238 300 363 427
#     4   9  20  39  67  97 133 177 229 285 352 425
#     4  12  28  47  75 106 144 190 244 296 364 430
#     4   9  20  40  65  98 134 177 227 288 351 420
#     4  11  25  43  67 100 139 179 232 293 350 427
#     4  11  25  43  67 100 137 180 234 288 356 425
#     4  10  22  41  69  95 137 179 231 284 358 418
#
# _framework density 25.837595
#
# number of rings (size 3 to 8) (size 9 to 14) (size 15 to 20)
#    0.000    1.429    1.429    2.143   10.000    2.857 
#    0.000    1.429    0.000    0.000    0.000    0.000 
#    0.000    0.000    0.000    0.000    0.000    0.000 
#
# Total GULP energy -78159.809333 kJ/mol
# GULP energy per Si atom -5582.843524 kJ/mol
# Density = 2.577879 g / cm^3
# Si number density = 25.837595 Si / 1000 Ang^3
#
#
#
# Elastic Constant Matrix: (Units=GPa)
#
#
# Indices 1 2 3 4 5 6 
#
# 1 124.3407 56.9408 30.5931 11.9352 -6.4651 29.1120
# 2 56.9408 181.8569 42.3228 26.3140 -1.4040 35.8821
# 3 30.5931 42.3228 110.0900 16.3886 2.8697 -0.7542
# 4 11.9352 26.3140 16.3886 45.8870 -10.2580 1.6042
# 5 -6.4651 -1.4040 2.8697 -10.2580 39.6407 1.0399
# 6 29.1120 35.8821 -0.7542 1.6042 1.0399 48.8007
#
#
#
# Elastic Compliance Matrix: (Units=1/GPa)
#
#
# Indices 1 2 3 4 5 6 
#
# 1 0.010770 -0.001726 -0.002362 -0.000359 0.001911 -0.005221
# 2 -0.001726 0.007932 -0.002093 -0.003318 -0.000584 -0.004713
# 3 -0.002362 -0.002093 0.011020 -0.002691 -0.002039 0.003250
# 4 -0.000359 -0.003318 -0.002691 0.026204 0.006758 0.001607
# 5 0.001911 -0.000584 -0.002039 0.006758 0.027454 -0.001549
# 6 -0.005221 -0.004713 0.003250 0.001607 -0.001549 0.027102
#
#
# Mechanical properties :
#
#
# Convention : Reuss Voigt Hill
#
# Bulk Modulus (GPa) = 57.59812 75.11121 66.35467
# Shear Modulus (GPa) = 38.87093 45.96109 42.41601
#
# Velocity S-wave (km/s) = 3.88291 4.22221 4.05611
# Velocity P-wave (km/s) = 6.51486 7.27345 6.90458
#
# Compressibility (1/GPa) = 0.01736168
#
# Stress axis : x y z
#
# Youngs Moduli (GPa) = 92.85050 126.07445 90.74141
#
# Poissons Ratio (x) = 0.21756 0.21430
# Poissons Ratio (y) = 0.16023 0.18991
# Poissons Ratio (z) = 0.21928 0.26386
#
# Static dielectric constant tensor:
#      x y z
#    x 2.209700 0.054290 0.123850 
#    y 0.054290 2.221940 -0.003430 
#    z 0.123850 -0.003430 2.095560 
# 
# From -- ./inp_files/37150.got.cif
#   From: 2010.05.17/outbox.cif.g08.bks.cpg/sg2_19_cif.got.tgz:37150.got - 2010.06.03 11:33:40.
