data_PCOD9027116
_publ_section_title
;
Structure prediction by ZEFSAII (Michael W. Deem and Ramdas Pophale) SiO2 
 PCOD9027116
Probable space group: P -1
;
_chemical_formula_sum "Si O2"
_cell_formula_units_Z 16
_cell_length_a 8.946723
_cell_length_b 18.788750
_cell_length_c 5.463360
_cell_angle_alpha 133.528319
_cell_angle_beta 89.804027
_cell_angle_gamma 89.690017
_cell_volume 665.813582
_symmetry_space_group_name_H-M "P -1"
_symmetry_group_IT_number 2
_symmetry_cell_setting 'triclinic'
loop_
_space_group_symop_operation_xyz
x,y,z
-x,-y,-z
loop_
_atom_site_type_symbol
_atom_site_label
_atom_site_fract_x
_atom_site_fract_y
_atom_site_fract_z
Si Si1 0.628897 0.719248 0.087223
Si Si2 0.474590 0.058890 0.890560
Si Si3 0.580647 0.534187 0.837957
Si Si4 0.166114 0.603254 0.316145
Si Si5 0.659594 0.213797 0.025295
Si Si6 0.901168 0.233596 0.698478
Si Si7 0.883399 0.664901 0.674969
Si Si8 0.816979 0.833624 0.702730
O O1 0.500322 0.756983 0.008996
O O2 0.723440 0.807803 0.399278
O O3 0.560228 0.651824 0.133525
O O4 0.738373 0.639185 0.767662
O O5 0.608543 0.139406 0.060681
O O6 0.500000 0.000000 0.500000
O O7 0.299842 0.095391 0.988726
O O8 0.500000 0.000000 0.000000
O O9 0.500000 0.500000 0.500000
O O10 0.744036 0.491707 0.811944
O O11 0.500000 0.500000 0.000000
O O12 0.146439 0.664367 0.202189
O O13 0.997680 0.588419 0.380568
O O14 0.257199 0.690008 0.656349
O O15 0.766050 0.181681 0.720598
O O16 0.006148 0.160455 0.357013
O O17 0.014823 0.270720 0.993314
O O18 0.824083 0.734870 0.628306
#
# Coordination Sequence:
#
# PCOD9027116 Si02
#       8
#     2   2   2   2   2   2   2   2
#     4  11  22  39  71  99 135 187 230 276 339 402
#     4  12  28  45  71 108 137 170 226 293 347 414
#     4  12  27  41  62 105 144 176 236 289 331 384
#     4  10  22  41  66  97 138 181 227 284 333 400
#     4  11  22  41  72  96 135 179 232 270 350 414
#     4   9  21  40  70  97 130 188 228 274 338 417
#     4   9  20  40  66  96 127 186 229 270 341 404
#     4  10  22  44  69  97 139 179 227 278 349 417
#
# _framework density 24.030754000000002
#
# number of rings (size 3 to 8) (size 9 to 14) (size 15 to 20)
#    0.000    1.500    2.500    1.500   10.500    0.500 
#    0.000    6.875    0.000    0.000    0.000    0.000 
#    0.000    0.000    0.000    0.000    0.000    0.000 
#
# Total GULP energy -89090.740607 kJ/mol
# GULP energy per Si atom -5568.171288 kJ/mol
# Density = 2.397606 g / cm^3
# Si number density = 24.030754 Si / 1000 Ang^3
#
#
#
# Elastic Constant Matrix: (Units=GPa)
#
#
# Indices 1 2 3 4 5 6 
#
# 1 104.0477 30.8540 30.7108 -10.0673 -22.2017 -14.6952
# 2 30.8540 84.7550 9.3047 -17.1109 -17.4927 0.9064
# 3 30.7108 9.3047 71.1523 -10.0262 -20.1571 -14.9709
# 4 -10.0673 -17.1109 -10.0262 28.2656 -7.9981 0.5987
# 5 -22.2017 -17.4927 -20.1571 -7.9981 40.7112 -7.5786
# 6 -14.6952 0.9064 -14.9709 0.5987 -7.5786 39.5420
#
#
#
# Elastic Compliance Matrix: (Units=1/GPa)
#
#
# Indices 1 2 3 4 5 6 
#
# 1 0.013750 -0.002203 -0.001338 0.005239 0.008057 0.006119
# 2 -0.002203 0.017562 0.004753 0.014907 0.012125 0.002676
# 3 -0.001338 0.004753 0.023962 0.015882 0.018488 0.011769
# 4 0.005239 0.014907 0.015882 0.060513 0.031382 0.012717
# 5 0.008057 0.012125 0.018488 0.031382 0.053101 0.019418
# 6 0.006119 0.002676 0.011769 0.012717 0.019418 0.035487
#
#
# Mechanical properties :
#
#
# Convention : Reuss Voigt Hill
#
# Bulk Modulus (GPa) = 17.33201 44.63265 30.98233
# Shear Modulus (GPa) = 22.60556 34.30944 28.45750
#
# Velocity S-wave (km/s) = 3.07040 3.78263 3.44497
# Velocity P-wave (km/s) = 4.44948 6.13932 5.36139
#
# Compressibility (1/GPa) = 0.05769671
#
# Stress axis : x y z
#
# Youngs Moduli (GPa) = 72.72897 56.94009 41.73245
#
# Poissons Ratio (x) = 0.12545 0.05585
# Poissons Ratio (y) = 0.16024 -0.19835
# Poissons Ratio (z) = 0.09733 -0.27063
#
# Static dielectric constant tensor:
#      x y z
#    x 2.142200 0.104850 -0.103460 
#    y 0.104850 1.973770 -0.039230 
#    z -0.103460 -0.039230 2.063990 
# 
# From -- ./inp_files/39963.got.cif
#   From: 2010.05.17/outbox.cif.g08.bks.cpg/sg2_20_cif.got.tgz:39963.got - 2010.06.03 11:33:40.
