data_PCOD9027510
_publ_section_title
;
Structure prediction by ZEFSAII (Michael W. Deem and Ramdas Pophale) SiO2 
 PCOD9027510
Probable space group: P -1
;
_chemical_formula_sum "Si O2"
_cell_formula_units_Z 16
_cell_length_a 8.602910
_cell_length_b 12.019807
_cell_length_c 9.324219
_cell_angle_alpha 51.091358
_cell_angle_beta 85.192572
_cell_angle_gamma 101.407939
_cell_volume 707.565989
_symmetry_space_group_name_H-M "P -1"
_symmetry_group_IT_number 2
_symmetry_cell_setting 'triclinic'
loop_
_space_group_symop_operation_xyz
x,y,z
-x,-y,-z
loop_
_atom_site_type_symbol
_atom_site_label
_atom_site_fract_x
_atom_site_fract_y
_atom_site_fract_z
Si Si1 0.759663 0.912606 0.643405
Si Si2 0.408916 0.124138 0.023632
Si Si3 0.170711 0.597702 0.474433
Si Si4 0.754660 0.117714 0.961435
Si Si5 0.484694 0.364789 0.224382
Si Si6 0.648036 0.589096 0.259228
Si Si7 0.024789 0.229338 0.095436
Si Si8 0.199670 0.736004 0.681149
O O1 0.628274 0.851243 0.830714
O O2 0.683017 0.778195 0.644991
O O3 0.923860 0.895279 0.715736
O O4 0.763611 0.082073 0.475843
O O5 0.248886 0.007113 0.055844
O O6 0.565143 0.065808 0.070117
O O7 0.425373 0.277560 0.814706
O O8 0.231363 0.735497 0.250305
O O9 0.280920 0.488534 0.560187
O O10 0.160196 0.662426 0.584437
O O11 0.000000 0.500000 0.500000
O O12 0.888591 0.153362 0.046688
O O13 0.515067 0.454484 0.297612
O O14 0.639546 0.302408 0.247970
O O15 0.500000 0.500000 0.000000
O O16 0.810509 0.662972 0.082807
O O17 0.944940 0.314159 0.148218
#
# Coordination Sequence:
#
# PCOD9027510 Si02
#       8
#     2   2   2   2   2   2   2   2
#     4  11  22  44  65  95 131 170 217 271 318 374
#     4  10  22  41  68  88 130 170 217 262 317 380
#     4  11  23  43  64  96 134 165 208 266 327 379
#     4  11  23  42  68  97 123 171 223 257 320 387
#     4  11  21  39  63  93 125 168 211 262 322 378
#     4  10  23  42  64  94 132 169 213 265 326 382
#     4  11  23  40  69  97 126 167 224 258 320 385
#     4  11  25  42  68  93 131 172 217 265 316 381
#
# _framework density 22.612732000000001
#
# number of rings (size 3 to 8) (size 9 to 14) (size 15 to 20)
#    0.000    1.250    5.000    1.500    0.000    5.500 
#    6.750    0.000    0.000    0.000    0.000    0.000 
#    0.000    0.000    0.000    0.000    0.000    0.000 
#
# Total GULP energy -89285.705348 kJ/mol
# GULP energy per Si atom -5580.356584 kJ/mol
# Density = 2.256126 g / cm^3
# Si number density = 22.612732 Si / 1000 Ang^3
#
#
#
# Elastic Constant Matrix: (Units=GPa)
#
#
# Indices 1 2 3 4 5 6 
#
# 1 90.8151 45.1275 34.2920 2.2316 32.8827 17.9790
# 2 45.1275 16.3162 4.7168 -43.4619 47.1267 48.1841
# 3 34.2920 4.7168 80.6137 -26.8525 32.9916 8.3466
# 4 2.2316 -43.4619 -26.8525 35.1734 -0.9178 15.4920
# 5 32.8827 47.1267 32.9916 -0.9178 34.8100 -2.7645
# 6 17.9790 48.1841 8.3466 15.4920 -2.7645 30.1093
#
#
#
# Elastic Compliance Matrix: (Units=1/GPa)
#
#
# Indices 1 2 3 4 5 6 
#
# 1 0.019536 -0.002034 -0.003040 -0.003295 -0.013470 -0.007108
# 2 -0.002034 -0.000174 -0.005997 -0.007981 0.008267 0.008021
# 3 -0.003040 -0.005997 0.014651 0.000988 -0.002343 0.006627
# 4 -0.003295 -0.007981 0.000988 0.016759 0.013988 0.007127
# 5 -0.013470 0.008267 -0.002343 0.013988 0.032151 -0.008783
# 6 -0.007108 0.008021 0.006627 0.007127 -0.008783 0.018311
#
#
# Mechanical properties :
#
#
# Convention : Reuss Voigt Hill
#
# Bulk Modulus (GPa) = 84.24531 39.55752 61.90141
# Shear Modulus (GPa) = 39.26719 26.92577 33.09648
#
# Velocity S-wave (km/s) = 4.17166 3.45445 3.82988
# Velocity P-wave (km/s) = 7.78076 5.78294 6.85502
#
# Compressibility (1/GPa) = 0.01187010
#
# Stress axis : x y z
#
# Youngs Moduli (GPa) = 51.18837 -5751.64621 68.25483
#
# Poissons Ratio (x) = -11.70124 0.20752
# Poissons Ratio (y) = 0.10414 0.40930
# Poissons Ratio (z) = 0.15563 -34.49038
#
# Static dielectric constant tensor:
#      x y z
#    x 1.900260 -0.023420 -0.069620 
#    y -0.023420 1.884530 0.019410 
#    z -0.069620 0.019410 1.795250 
# 
# From -- ./inp_files/184306.got.cif
#   From: 2010.05.17/outbox.cif.g08.bks.cpg/sg2_93_cif.got.tgz:184306.got - 2010.06.03 11:33:40.
