data_PCOD9027520
_publ_section_title
;
Structure prediction by ZEFSAII (Michael W. Deem and Ramdas Pophale) SiO2 
 PCOD9027520
Probable space group: P -1
;
_chemical_formula_sum "Si O2"
_cell_formula_units_Z 16
_cell_length_a 8.938035
_cell_length_b 20.729120
_cell_length_c 13.936205
_cell_angle_alpha 160.198812
_cell_angle_beta 134.499893
_cell_angle_gamma 48.928151
_cell_volume 623.844849
_symmetry_space_group_name_H-M "P -1"
_symmetry_group_IT_number 2
_symmetry_cell_setting 'triclinic'
loop_
_space_group_symop_operation_xyz
x,y,z
-x,-y,-z
loop_
_atom_site_type_symbol
_atom_site_label
_atom_site_fract_x
_atom_site_fract_y
_atom_site_fract_z
Si Si1 0.590205 0.061426 0.322995
Si Si2 0.564494 0.127601 0.616388
Si Si3 0.520211 0.471427 0.818294
Si Si4 0.989759 0.034780 0.659342
Si Si5 0.259691 0.557132 0.441695
Si Si6 0.160702 0.377914 0.963683
Si Si7 0.137177 0.964020 0.914404
Si Si8 0.954427 0.644981 0.600819
O O1 0.550394 0.014813 0.351818
O O2 0.643226 0.287524 0.654856
O O3 0.373978 0.027130 0.127009
O O4 0.765784 0.943596 0.181354
O O5 0.500000 0.000000 0.500000
O O6 0.811358 0.182214 0.810166
O O7 0.446866 0.327979 0.830968
O O8 0.612211 0.539072 0.851548
O O9 0.278369 0.406069 0.615255
O O10 0.897079 0.839740 0.389998
O O11 0.000000 0.000000 0.500000
O O12 0.500000 0.500000 0.500000
O O13 0.164042 0.394706 0.103499
O O14 0.132641 0.605704 0.547727
O O15 0.181205 0.743777 0.604192
O O16 0.000000 0.500000 0.000000
O O17 0.041010 0.136210 0.050819
O O18 0.000000 0.000000 0.000000
O O19 0.000000 0.500000 0.500000
#
# Coordination Sequence:
#
# PCOD9027520 Si02
#       8
#     2   2   2   2   2   2   2   2
#     4  10  22  41  68  90 134 174 221 290 339 410
#     4  11  23  37  61  99 128 174 222 274 349 401
#     4  11  23  41  63  95 132 177 225 277 347 412
#     4  10  23  41  63  95 137 173 223 283 345 404
#     4  11  26  44  75 102 138 189 234 284 355 419
#     4  12  25  45  68 100 144 182 231 286 348 413
#     4   9  22  45  67  96 130 175 230 281 343 411
#     4  10  23  46  70  99 135 178 232 297 343 415
#
# _framework density 25.647403000000001
#
# number of rings (size 3 to 8) (size 9 to 14) (size 15 to 20)
#    0.000    1.500    2.500    1.125    7.000    5.000 
#    2.250    5.625    0.000    0.000    0.000    0.000 
#    0.000    0.000    0.000    0.000    0.000    0.000 
#
# Total GULP energy -89255.185157 kJ/mol
# GULP energy per Si atom -5578.449072 kJ/mol
# Density = 2.558903 g / cm^3
# Si number density = 25.647403 Si / 1000 Ang^3
#
#
#
# Elastic Constant Matrix: (Units=GPa)
#
#
# Indices 1 2 3 4 5 6 
#
# 1 114.4429 19.9250 7.0570 9.0756 -0.8319 -21.8127
# 2 19.9250 88.0673 7.5836 15.6774 -3.9310 -8.5129
# 3 7.0570 7.5836 84.0316 26.4397 -4.6357 1.1667
# 4 9.0756 15.6774 26.4397 36.9867 2.3843 6.3562
# 5 -0.8319 -3.9310 -4.6357 2.3843 30.6538 4.4707
# 6 -21.8127 -8.5129 1.1667 6.3562 4.4707 47.2164
#
#
#
# Elastic Compliance Matrix: (Units=1/GPa)
#
#
# Indices 1 2 3 4 5 6 
#
# 1 0.010106 -0.001352 0.000050 -0.002748 -0.000382 0.004830
# 2 -0.001352 0.013043 0.001051 -0.006484 0.001951 0.002389
# 3 0.000050 0.001051 0.015793 -0.012157 0.003303 0.001146
# 4 -0.002748 -0.006484 -0.012157 0.040693 -0.004866 -0.007155
# 5 -0.000382 0.001951 0.003303 -0.004866 0.034102 -0.002480
# 6 0.004830 0.002389 0.001146 -0.007155 -0.002480 0.025011
#
#
# Mechanical properties :
#
#
# Convention : Reuss Voigt Hill
#
# Bulk Modulus (GPa) = 26.01513 39.51922 32.76717
# Shear Modulus (GPa) = 32.88135 39.76981 36.32558
#
# Velocity S-wave (km/s) = 3.58446 3.94208 3.76752
# Velocity P-wave (km/s) = 5.22461 6.01350 5.63288
#
# Compressibility (1/GPa) = 0.03843917
#
# Stress axis : x y z
#
# Youngs Moduli (GPa) = 98.95159 76.67164 63.32103
#
# Poissons Ratio (x) = 0.10364 -0.00314
# Poissons Ratio (y) = 0.13376 -0.06656
# Poissons Ratio (z) = -0.00491 -0.08059
#
# Static dielectric constant tensor:
#      x y z
#    x 1.943440 0.007880 -0.053410 
#    y 0.007880 2.082430 0.093010 
#    z -0.053410 0.093010 2.111960 
# 
# From -- ./inp_files/271405.got.cif
#   From: 2010.05.17/outbox.cif.g08.bks.cpg/sg2_136_cif.got.tgz:271405.got - 2010.06.03 11:33:40.
