data_PCOD9027082
_publ_section_title
;
Structure prediction by ZEFSAII (Michael W. Deem and Ramdas Pophale) SiO2 
 PCOD9027082
Probable space group: P -1
;
_chemical_formula_sum "Si O2"
_cell_formula_units_Z 14
_cell_length_a 7.912315
_cell_length_b 14.895398
_cell_length_c 10.106689
_cell_angle_alpha 58.855487
_cell_angle_beta 88.637517
_cell_angle_gamma 42.854213
_cell_volume 549.161693
_symmetry_space_group_name_H-M "P -1"
_symmetry_group_IT_number 2
_symmetry_cell_setting 'triclinic'
loop_
_space_group_symop_operation_xyz
x,y,z
-x,-y,-z
loop_
_atom_site_type_symbol
_atom_site_label
_atom_site_fract_x
_atom_site_fract_y
_atom_site_fract_z
Si Si1 0.989132 0.334029 0.802447
Si Si2 0.953552 0.047570 0.289489
Si Si3 0.625833 0.779400 0.890650
Si Si4 0.020325 0.362494 0.271095
Si Si5 0.614018 0.383083 0.219756
Si Si6 0.885077 0.953090 0.973042
Si Si7 0.639478 0.705561 0.445750
O O1 0.695145 0.485973 0.794488
O O2 0.035685 0.195982 0.843471
O O3 0.874053 0.485320 0.590367
O O4 0.278983 0.203373 0.996647
O O5 0.730870 0.066728 0.244606
O O6 0.827468 0.174812 0.322382
O O7 0.926018 0.146351 0.093506
O O8 0.317490 0.832192 0.425404
O O9 0.759477 0.761971 0.767910
O O10 0.797464 0.577484 0.070878
O O11 0.210333 0.296670 0.447273
O O12 0.827774 0.358348 0.304636
O O13 0.500000 0.500000 0.000000
O O14 0.000000 0.000000 0.000000
O O15 0.521401 0.156688 0.783269
#
# Coordination Sequence:
#
# PCOD9027082 Si02
#       7
#     2   2   2   2   2   2   2
#     4  11  21  38  62  85 118 154 185 233 289 342
#     4  10  20  36  54  88 118 149 192 230 281 343
#     4  10  17  31  57  82 120 158 178 226 290 340
#     4  10  18  30  53  86 124 152 186 228 274 349
#     4  12  17  32  58  90 119 156 189 218 291 343
#     4  10  22  43  62  80 111 149 197 247 287 331
#     4   9  23  38  54  92 112 151 195 233 284 339
#
# _framework density 25.493400999999999
#
# number of rings (size 3 to 8) (size 9 to 14) (size 15 to 20)
#    0.857    0.857    4.286    1.714    0.000    3.429 
#    2.571    0.714    0.000    7.714    0.000    0.000 
#    0.000    0.000    0.000    0.000    0.000    0.000 
#
# Total GULP energy -78319.191440 kJ/mol
# GULP energy per Si atom -5594.227960 kJ/mol
# Density = 2.543538 g / cm^3
# Si number density = 25.493401 Si / 1000 Ang^3
#
#
#
# Elastic Constant Matrix: (Units=GPa)
#
#
# Indices 1 2 3 4 5 6 
#
# 1 93.5456 24.9681 48.9942 1.1166 26.6083 17.6701
# 2 24.9681 83.3055 31.5804 -7.3208 3.8982 9.2336
# 3 48.9942 31.5804 128.1090 -7.0559 14.3823 26.6573
# 4 1.1166 -7.3208 -7.0559 35.2092 0.5595 -6.2516
# 5 26.6083 3.8982 14.3823 0.5595 62.5611 -0.6811
# 6 17.6701 9.2336 26.6573 -6.2516 -0.6811 52.6781
#
#
#
# Elastic Compliance Matrix: (Units=1/GPa)
#
#
# Indices 1 2 3 4 5 6 
#
# 1 0.015846 -0.002747 -0.004253 -0.002376 -0.005603 -0.003036
# 2 -0.002747 0.013892 -0.002321 0.002492 0.000814 -0.000033
# 3 -0.004253 -0.002321 0.010873 0.001214 -0.000595 -0.003533
# 4 -0.002376 0.002492 0.001214 0.029817 0.000346 0.003289
# 5 -0.005603 0.000814 -0.000595 0.000346 0.018476 0.002318
# 6 -0.003036 -0.000033 -0.003533 0.003289 0.002318 0.022215
#
#
# Mechanical properties :
#
#
# Convention : Reuss Voigt Hill
#
# Bulk Modulus (GPa) = 45.52008 57.33837 51.42922
# Shear Modulus (GPa) = 36.47369 43.38416 39.92893
#
# Velocity S-wave (km/s) = 3.78658 4.12974 3.96188
# Velocity P-wave (km/s) = 6.08375 6.72904 6.41451
#
# Compressibility (1/GPa) = 0.02196833
#
# Stress axis : x y z
#
# Youngs Moduli (GPa) = 63.10637 71.98469 91.96753
#
# Poissons Ratio (x) = 0.19776 0.39116
# Poissons Ratio (y) = 0.17336 0.21347
# Poissons Ratio (z) = 0.26840 0.16709
#
# Static dielectric constant tensor:
#      x y z
#    x 2.091290 -0.037720 -0.087370 
#    y -0.037720 2.012410 0.005510 
#    z -0.087370 0.005510 2.065530 
# 
# From -- ./inp_files/235920.got.cif
#   From: 2010.05.17/outbox.cif.g08.bks.cpg/sg2_118_cif.got.tgz:235920.got - 2010.06.03 11:33:40.
