data_PCOD9027491
_publ_section_title
;
Structure prediction by ZEFSAII (Michael W. Deem and Ramdas Pophale) SiO2 
 PCOD9027491
Probable space group: P -1
;
_chemical_formula_sum "Si O2"
_cell_formula_units_Z 16
_cell_length_a 5.081474
_cell_length_b 4.899945
_cell_length_c 25.878230
_cell_angle_alpha 87.039339
_cell_angle_beta 110.767578
_cell_angle_gamma 86.646884
_cell_volume 599.632690
_symmetry_space_group_name_H-M "P -1"
_symmetry_group_IT_number 2
_symmetry_cell_setting 'triclinic'
loop_
_space_group_symop_operation_xyz
x,y,z
-x,-y,-z
loop_
_atom_site_type_symbol
_atom_site_label
_atom_site_fract_x
_atom_site_fract_y
_atom_site_fract_z
Si Si1 0.051688 0.883241 0.113160
Si Si2 0.676168 0.583514 0.317249
Si Si3 0.031755 0.820425 0.786382
Si Si4 0.822553 0.432243 0.038356
Si Si5 0.250176 0.799185 0.497043
Si Si6 0.427367 0.646597 0.407996
Si Si7 0.902871 0.931905 0.666942
Si Si8 0.601571 0.711600 0.198970
O O1 0.876413 0.630977 0.088128
O O2 0.369283 0.739167 0.137926
O O3 0.049360 0.041195 0.166406
O O4 0.933660 0.123574 0.064342
O O5 0.469945 0.558800 0.351596
O O6 0.916254 0.334422 0.336835
O O7 0.519152 0.597957 0.250485
O O8 0.874513 0.837047 0.327048
O O9 0.832632 0.895620 0.722900
O O10 0.135640 0.501479 0.796686
O O11 0.304905 0.984004 0.790094
O O12 0.500000 0.500000 0.000000
O O13 0.000000 0.500000 0.000000
O O14 0.198525 0.658626 0.439152
O O15 0.335417 0.548089 0.544106
O O16 0.500000 0.000000 0.500000
O O17 0.000000 0.000000 0.500000
O O18 0.374353 0.972426 0.386052
#
# Coordination Sequence:
#
# PCOD9027491 Si02
#       8
#     2   2   2   2   2   2   2   2
#     4  12  25  44  77  98 146 189 246 296 370 424
#     4  10  23  41  67 104 143 182 235 292 363 436
#     4  10  22  41  68 105 142 183 234 293 361 437
#     4  12  30  50  74 108 146 194 250 307 358 421
#     4  11  28  47  70 102 139 188 249 305 360 424
#     4  11  25  40  71  94 144 184 242 294 366 428
#     4  10  23  41  67 104 143 182 235 292 363 436
#     4  10  22  41  68 105 142 183 234 293 361 437
#
# _framework density 26.683
#
# number of rings (size 3 to 8) (size 9 to 14) (size 15 to 20)
#    0.000    1.250    0.000    3.750   12.250    1.000 
#    0.000    7.500    0.000    0.000    0.000    0.000 
#    0.000    0.000    0.000    0.000    0.000    0.000 
#
# Total GULP energy -89381.921390 kJ/mol
# GULP energy per Si atom -5586.370087 kJ/mol
# Density = 2.662227 g / cm^3
# Si number density = 26.683000 Si / 1000 Ang^3
#
#
#
# Elastic Constant Matrix: (Units=GPa)
#
#
# Indices 1 2 3 4 5 6 
#
# 1 100.5530 48.7826 35.5222 -6.7655 -11.8181 -22.3511
# 2 48.7826 159.6437 29.1326 -16.1769 -0.4786 -11.9117
# 3 35.5222 29.1326 131.6950 -16.9479 -4.4078 -18.7533
# 4 -6.7655 -16.1769 -16.9479 65.6721 -12.9659 0.8641
# 5 -11.8181 -0.4786 -4.4078 -12.9659 45.1907 10.9246
# 6 -22.3511 -11.9117 -18.7533 0.8641 10.9246 51.4646
#
#
#
# Elastic Compliance Matrix: (Units=1/GPa)
#
#
# Indices 1 2 3 4 5 6 
#
# 1 0.013536 -0.003400 -0.002227 0.000427 0.002505 0.003741
# 2 -0.003400 0.007546 -0.000589 0.001247 -0.000545 0.000150
# 3 -0.002227 -0.000589 0.008876 0.001959 0.000350 0.002024
# 4 0.000427 0.001247 0.001959 0.017130 0.005284 -0.000221
# 5 0.002505 -0.000545 0.000350 0.005284 0.025389 -0.004389
# 6 0.003741 0.000150 0.002024 -0.000221 -0.004389 0.022763
#
#
# Mechanical properties :
#
#
# Convention : Reuss Voigt Hill
#
# Bulk Modulus (GPa) = 57.05536 68.75184 62.90360
# Shear Modulus (GPa) = 44.04712 51.02911 47.53811
#
# Velocity S-wave (km/s) = 4.06736 4.37787 4.22547
# Velocity P-wave (km/s) = 6.59446 7.16773 6.88707
#
# Compressibility (1/GPa) = 0.01752684
#
# Stress axis : x y z
#
# Youngs Moduli (GPa) = 73.87690 132.51714 112.66016
#
# Poissons Ratio (x) = 0.45053 0.25094
# Poissons Ratio (y) = 0.25117 0.06632
# Poissons Ratio (z) = 0.16455 0.07800
#
# Static dielectric constant tensor:
#      x y z
#    x 2.197300 0.021170 0.102020 
#    y 0.021170 2.066610 0.033920 
#    z 0.102020 0.033920 2.191410 
# 
# From -- ./inp_files/603267.got.cif
#   From: 2010.05.17/outbox.cif.g08.bks.cpg/sg2_302_cif.got.tgz:603267.got - 2010.06.03 11:33:40.
