data_PCOD9027134
_publ_section_title
;
Structure prediction by ZEFSAII (Michael W. Deem and Ramdas Pophale) SiO2 
 PCOD9027134
Probable space group: P -1
;
_chemical_formula_sum "Si O2"
_cell_formula_units_Z 14
_cell_length_a 8.506192
_cell_length_b 11.948914
_cell_length_c 8.754356
_cell_angle_alpha 60.325508
_cell_angle_beta 103.525898
_cell_angle_gamma 124.744212
_cell_volume 633.803554
_symmetry_space_group_name_H-M "P -1"
_symmetry_group_IT_number 2
_symmetry_cell_setting 'triclinic'
loop_
_space_group_symop_operation_xyz
x,y,z
-x,-y,-z
loop_
_atom_site_type_symbol
_atom_site_label
_atom_site_fract_x
_atom_site_fract_y
_atom_site_fract_z
Si Si1 0.427527 0.579437 0.318350
Si Si2 0.835932 0.114512 0.884005
Si Si3 0.401979 0.795565 0.405690
Si Si4 0.884000 0.583659 0.890110
Si Si5 0.251630 0.219118 0.991030
Si Si6 0.417775 0.675071 0.815579
Si Si7 0.722283 0.129347 0.180938
O O1 0.500000 0.500000 0.500000
O O2 0.408963 0.699207 0.333355
O O3 0.231326 0.466220 0.260769
O O4 0.587617 0.666069 0.167562
O O5 0.768934 0.178198 0.689284
O O6 0.057675 0.212840 0.916744
O O7 0.718411 0.106117 0.013814
O O8 0.793796 0.949762 0.941446
O O9 0.377024 0.706801 0.615838
O O10 0.598454 0.962865 0.340939
O O11 0.051216 0.761860 0.804078
O O12 0.722732 0.498881 0.043293
O O13 0.000000 0.500000 0.000000
O O14 0.360128 0.265724 0.147283
O O15 0.373033 0.778063 0.847254
#
# Coordination Sequence:
#
# PCOD9027134 Si02
#       7
#     2   2   2   2   2   2   2
#     4  11  25  46  66  95 133 176 218 273 325 393
#     4  11  22  39  69  96 128 169 220 268 325 383
#     4  12  23  41  72  99 127 173 226 271 319 387
#     4   9  21  42  66  89 133 174 212 259 329 389
#     4  10  22  42  62  97 133 170 210 271 328 385
#     4  10  22  41  66  98 135 171 215 269 329 391
#     4  11  21  40  67  98 126 174 219 267 318 393
#
# _framework density 22.088861000000001
#
# number of rings (size 3 to 8) (size 9 to 14) (size 15 to 20)
#    0.000    1.429    2.857    3.429    0.000    4.571 
#    2.571    8.571    0.000    0.000    0.000    0.000 
#    0.000    0.000    0.000    0.000    0.000    0.000 
#
# Total GULP energy -78264.739165 kJ/mol
# GULP energy per Si atom -5590.338512 kJ/mol
# Density = 2.203859 g / cm^3
# Si number density = 22.088861 Si / 1000 Ang^3
#
#
#
# Elastic Constant Matrix: (Units=GPa)
#
#
# Indices 1 2 3 4 5 6 
#
# 1 92.4168 48.9635 43.1814 10.6513 13.9094 24.2717
# 2 48.9635 130.9063 34.5806 -2.6948 17.7069 33.2994
# 3 43.1814 34.5806 114.5309 11.8217 25.5687 14.4383
# 4 10.6513 -2.6948 11.8217 24.7259 -1.3727 8.4964
# 5 13.9094 17.7069 25.5687 -1.3727 27.3519 8.5690
# 6 24.2717 33.2994 14.4383 8.4964 8.5690 46.5313
#
#
#
# Elastic Compliance Matrix: (Units=1/GPa)
#
#
# Indices 1 2 3 4 5 6 
#
# 1 0.016401 -0.004241 -0.003705 -0.004709 -0.001345 -0.003263
# 2 -0.004241 0.011551 -0.001269 0.005781 -0.001847 -0.006376
# 3 -0.003705 -0.001269 0.013274 -0.006087 -0.010566 0.001780
# 4 -0.004709 0.005781 -0.006087 0.050318 0.010274 -0.010872
# 5 -0.001345 -0.001847 -0.010566 0.010274 0.050684 -0.005907
# 6 -0.003263 -0.006376 0.001780 -0.010872 -0.005907 0.030277
#
#
# Mechanical properties :
#
#
# Convention : Reuss Voigt Hill
#
# Bulk Modulus (GPa) = 43.86833 65.70056 54.78445
# Shear Modulus (GPa) = 25.18453 33.79706 29.49080
#
# Velocity S-wave (km/s) = 3.38027 3.91583 3.65786
# Velocity P-wave (km/s) = 5.92773 7.08895 6.53419
#
# Compressibility (1/GPa) = 0.02279549
#
# Stress axis : x y z
#
# Youngs Moduli (GPa) = 60.97276 86.57048 75.33342
#
# Poissons Ratio (x) = 0.36711 0.27914
# Poissons Ratio (y) = 0.25856 0.09563
# Poissons Ratio (z) = 0.22593 0.10989
#
# Static dielectric constant tensor:
#      x y z
#    x 1.830350 0.031350 -0.039930 
#    y 0.031350 1.789710 0.072790 
#    z -0.039930 0.072790 1.709110 
# 
# From -- ./inp_files/182798.got.cif
#   From: 2010.05.17/outbox.cif.g08.bks.cpg/sg2_92_cif.got.tgz:182798.got - 2010.06.03 11:33:40.
