data_PCOD9027907
_publ_section_title
;
Structure prediction by ZEFSAII (Michael W. Deem and Ramdas Pophale) SiO2 
 PCOD9027907
Probable space group: P -1
;
_chemical_formula_sum "Si O2"
_cell_formula_units_Z 16
_cell_length_a 14.499853
_cell_length_b 16.080742
_cell_length_c 8.943455
_cell_angle_alpha 58.660034
_cell_angle_beta 99.485639
_cell_angle_gamma 147.971855
_cell_volume 748.728995
_symmetry_space_group_name_H-M "P -1"
_symmetry_group_IT_number 2
_symmetry_cell_setting 'triclinic'
loop_
_space_group_symop_operation_xyz
x,y,z
-x,-y,-z
loop_
_atom_site_type_symbol
_atom_site_label
_atom_site_fract_x
_atom_site_fract_y
_atom_site_fract_z
Si Si1 0.368238 0.654500 0.204372
Si Si2 0.754045 0.546079 0.166907
Si Si3 0.510353 0.611518 0.487343
Si Si4 0.042201 0.939386 0.653770
Si Si5 0.495576 0.098269 0.496686
Si Si6 0.068634 0.793054 0.589650
Si Si7 0.866652 0.179875 0.769829
Si Si8 0.300535 0.773255 0.258770
O O1 0.404316 0.592140 0.368939
O O2 0.249195 0.626124 0.296225
O O3 0.187372 0.468394 0.203783
O O4 0.611671 0.913080 0.981327
O O5 0.611851 0.481595 0.300364
O O6 0.621877 0.321987 0.290182
O O7 0.961906 0.706406 0.175134
O O8 0.845513 0.699505 0.913590
O O9 0.500000 0.500000 0.500000
O O10 0.764438 0.868033 0.353835
O O11 0.120872 0.943997 0.537215
O O12 0.000000 0.000000 0.500000
O O13 0.596436 0.162922 0.619291
O O14 0.500000 0.000000 0.500000
O O15 0.238004 0.880009 0.630550
O O16 0.102930 0.822967 0.392074
O O17 0.866658 0.295951 0.695604
O O18 0.500000 0.000000 0.000000
#
# Coordination Sequence:
#
# PCOD9027907 Si02
#       8
#     2   2   2   2   2   2   2   2
#     4  11  23  44  69 105 144 189 249 297 354 442
#     4  12  27  49  78 105 150 198 242 307 365 443
#     4  12  25  48  76 107 141 191 251 304 368 444
#     4  12  29  50  74 109 147 188 246 314 379 428
#     4  12  25  45  70 112 155 194 242 298 371 431
#     4  12  25  43  71 104 149 187 238 310 363 425
#     4  11  24  43  73 105 140 196 249 290 360 439
#     4  10  22  41  70 100 143 197 240 287 353 438
#
# _framework density 21.369548000000002
#
# number of rings (size 3 to 8) (size 9 to 14) (size 15 to 20)
#    0.000    0.500    6.250    0.750    5.250    3.000 
#    0.000    3.125    0.000    0.000    0.000    0.000 
#    0.000    0.000    0.000    0.000    0.000    0.000 
#
# Total GULP energy -89220.580432 kJ/mol
# GULP energy per Si atom -5576.286277 kJ/mol
# Density = 2.132091 g / cm^3
# Si number density = 21.369548 Si / 1000 Ang^3
#
#
#
# Elastic Constant Matrix: (Units=GPa)
#
#
# Indices 1 2 3 4 5 6 
#
# 1 157.2913 34.4052 50.7886 -4.4722 7.8845 -26.5635
# 2 34.4052 104.4564 27.7098 -25.5906 0.1385 -19.0738
# 3 50.7886 27.7098 113.9891 -1.8814 3.5762 -16.4825
# 4 -4.4722 -25.5906 -1.8814 33.2481 4.5274 -7.1793
# 5 7.8845 0.1385 3.5762 4.5274 30.0300 2.3458
# 6 -26.5635 -19.0738 -16.4825 -7.1793 2.3458 54.8393
#
#
#
# Elastic Compliance Matrix: (Units=1/GPa)
#
#
# Indices 1 2 3 4 5 6 
#
# 1 0.008159 -0.001160 -0.002848 0.000968 -0.002171 0.002912
# 2 -0.001160 0.014529 -0.001943 0.012378 -0.001835 0.005607
# 3 -0.002848 -0.001943 0.010662 -0.000990 -0.000445 0.001039
# 4 0.000968 0.012378 -0.000990 0.042947 -0.007482 0.010419
# 5 -0.002171 -0.001835 -0.000445 -0.007482 0.035397 -0.004317
# 6 0.002912 0.005607 0.001039 0.010419 -0.004317 0.023457
#
#
# Mechanical properties :
#
#
# Convention : Reuss Voigt Hill
#
# Bulk Modulus (GPa) = 46.62262 66.83822 56.73042
# Shear Modulus (GPa) = 32.42511 41.14569 36.78540
#
# Velocity S-wave (km/s) = 3.89955 4.39274 4.15347
# Velocity P-wave (km/s) = 6.49153 7.55470 7.04320
#
# Compressibility (1/GPa) = 0.02144882
#
# Stress axis : x y z
#
# Youngs Moduli (GPa) = 122.56046 68.82618 93.79269
#
# Poissons Ratio (x) = 0.07984 0.26714
# Poissons Ratio (y) = 0.14218 0.18219
# Poissons Ratio (z) = 0.34908 0.13370
#
# Static dielectric constant tensor:
#      x y z
#    x 2.244810 -0.217210 0.096520 
#    y -0.217210 1.799940 -0.073310 
#    z 0.096520 -0.073310 1.878360 
# 
# From -- ./inp_files/314956.got.cif
#   From: 2010.05.17/outbox.cif.g08.bks.cpg/sg2_158_cif.got.tgz:314956.got - 2010.06.03 11:33:40.
