data_PCOD9027814
_publ_section_title
;
Structure prediction by ZEFSAII (Michael W. Deem and Ramdas Pophale) SiO2 
 PCOD9027814
Probable space group: P -1
;
_chemical_formula_sum "Si O2"
_cell_formula_units_Z 16
_cell_length_a 9.192223
_cell_length_b 11.789459
_cell_length_c 10.253935
_cell_angle_alpha 124.855394
_cell_angle_beta 111.953772
_cell_angle_gamma 55.181737
_cell_volume 746.752440
_symmetry_space_group_name_H-M "P -1"
_symmetry_group_IT_number 2
_symmetry_cell_setting 'triclinic'
loop_
_space_group_symop_operation_xyz
x,y,z
-x,-y,-z
loop_
_atom_site_type_symbol
_atom_site_label
_atom_site_fract_x
_atom_site_fract_y
_atom_site_fract_z
Si Si1 0.710752 0.157120 0.971321
Si Si2 0.552627 0.366053 0.542057
Si Si3 0.978267 0.813011 0.772810
Si Si4 0.078182 0.738043 0.479544
Si Si5 0.983390 0.673057 0.120437
Si Si6 0.386834 0.175978 0.027488
Si Si7 0.352720 0.629425 0.128646
Si Si8 0.777974 0.622242 0.642865
O O1 0.829510 0.224832 0.129008
O O2 0.522449 0.209084 0.009065
O O3 0.675384 0.211494 0.845323
O O4 0.832242 0.970448 0.895764
O O5 0.500000 0.500000 0.500000
O O6 0.748024 0.240668 0.477530
O O7 0.581570 0.408190 0.725501
O O8 0.394739 0.321049 0.468939
O O9 0.918153 0.681378 0.692600
O O10 0.975099 0.843111 0.636298
O O11 0.137236 0.563296 0.439492
O O12 0.997892 0.730590 0.308310
O O13 0.791415 0.796899 0.086528
O O14 0.153214 0.651982 0.080520
O O15 0.000000 0.500000 0.000000
O O16 0.311095 0.300647 0.199766
O O17 0.500000 0.000000 0.000000
O O18 0.500000 0.500000 0.000000
#
# Coordination Sequence:
#
# PCOD9027814 Si02
#       8
#     2   2   2   2   2   2   2   2
#     4  11  26  43  66  96 144 177 233 290 349 418
#     4   9  22  42  64 100 136 174 220 282 350 414
#     4  11  24  43  65 101 135 186 228 289 354 409
#     4  10  22  41  69  95 136 177 230 291 346 415
#     4  11  23  43  69 100 137 177 236 291 346 419
#     4  12  24  44  67  99 136 190 232 281 353 422
#     4  11  25  42  70 105 137 181 230 292 349 407
#     4  11  21  40  70  98 130 177 242 278 349 419
#
# _framework density 21.426110000000001
#
# number of rings (size 3 to 8) (size 9 to 14) (size 15 to 20)
#    0.000    1.250    2.500    2.625    8.750    2.000 
#    2.250    2.500    0.000    0.000    0.000    0.000 
#    0.000    0.000    0.000    0.000    0.000    0.000 
#
# Total GULP energy -89313.959668 kJ/mol
# GULP energy per Si atom -5582.122479 kJ/mol
# Density = 2.137734 g / cm^3
# Si number density = 21.426110 Si / 1000 Ang^3
#
#
#
# Elastic Constant Matrix: (Units=GPa)
#
#
# Indices 1 2 3 4 5 6 
#
# 1 168.1739 38.0330 57.5554 -12.6257 -4.5521 -16.3491
# 2 38.0330 55.6702 18.2084 -18.0978 8.3386 -6.1899
# 3 57.5554 18.2084 76.3001 -16.1841 -7.8066 -16.7677
# 4 -12.6257 -18.0978 -16.1841 28.5388 -2.9108 2.8425
# 5 -4.5521 8.3386 -7.8066 -2.9108 45.4724 -4.5548
# 6 -16.3491 -6.1899 -16.7677 2.8425 -4.5548 33.5375
#
#
#
# Elastic Compliance Matrix: (Units=1/GPa)
#
#
# Indices 1 2 3 4 5 6 
#
# 1 0.009016 -0.005097 -0.005871 -0.002580 0.000748 0.000840
# 2 -0.005097 0.026773 0.000208 0.014319 -0.004392 0.000751
# 3 -0.005871 0.000208 0.021679 0.009508 0.004488 0.007819
# 4 -0.002580 0.014319 0.009508 0.048351 0.002076 0.002322
# 5 0.000748 -0.004392 0.004488 0.002076 0.024268 0.004918
# 6 0.000840 0.000751 0.007819 0.002322 0.004918 0.034745
#
#
# Mechanical properties :
#
#
# Convention : Reuss Voigt Hill
#
# Bulk Modulus (GPa) = 27.81697 58.63753 43.22725
# Shear Modulus (GPa) = 25.20973 33.93290 29.57132
#
# Velocity S-wave (km/s) = 3.43387 3.98391 3.71907
# Velocity P-wave (km/s) = 5.36030 6.97057 6.21778
#
# Compressibility (1/GPa) = 0.03594928
#
# Stress axis : x y z
#
# Youngs Moduli (GPa) = 110.90818 37.35069 46.12668
#
# Poissons Ratio (x) = 0.19038 0.27082
# Poissons Ratio (y) = 0.56531 -0.00961
# Poissons Ratio (z) = 0.65117 -0.00778
#
# Static dielectric constant tensor:
#      x y z
#    x 1.796240 0.013940 0.058150 
#    y 0.013940 1.798160 -0.035190 
#    z 0.058150 -0.035190 1.722510 
# 
# From -- ./inp_files/190270.got.cif
#   From: 2010.05.17/outbox.cif.g08.bks.cpg/sg2_96_cif.got.tgz:190270.got - 2010.06.03 11:33:40.
