data_PCOD9027765
_publ_section_title
;
Structure prediction by ZEFSAII (Michael W. Deem and Ramdas Pophale) SiO2 
 PCOD9027765
Probable space group: P -1
;
_chemical_formula_sum "Si O2"
_cell_formula_units_Z 16
_cell_length_a 8.935367
_cell_length_b 12.052937
_cell_length_c 9.042031
_cell_angle_alpha 76.181830
_cell_angle_beta 92.347079
_cell_angle_gamma 127.401707
_cell_volume 744.323283
_symmetry_space_group_name_H-M "P -1"
_symmetry_group_IT_number 2
_symmetry_cell_setting 'triclinic'
loop_
_space_group_symop_operation_xyz
x,y,z
-x,-y,-z
loop_
_atom_site_type_symbol
_atom_site_label
_atom_site_fract_x
_atom_site_fract_y
_atom_site_fract_z
Si Si1 0.339630 0.065193 0.128584
Si Si2 0.828143 0.879108 0.634911
Si Si3 0.151783 0.572147 0.348256
Si Si4 0.928718 0.249332 0.917485
Si Si5 0.969869 0.694182 0.759501
Si Si6 0.625877 0.074973 0.336519
Si Si7 0.590683 0.800826 0.378613
Si Si8 0.817774 0.836986 0.102952
O O1 0.201808 0.042206 0.263164
O O2 0.527742 0.111747 0.203184
O O3 0.246548 0.918480 0.077554
O O4 0.352144 0.183978 0.990785
O O5 0.872609 0.773317 0.729384
O O6 0.643608 0.793339 0.550503
O O7 0.000000 0.000000 0.500000
O O8 0.098314 0.655302 0.218107
O O9 0.144987 0.457772 0.278527
O O10 0.368355 0.682053 0.378625
O O11 0.000000 0.500000 0.500000
O O12 0.114318 0.259026 0.889718
O O13 0.956840 0.295670 0.074688
O O14 0.166599 0.792718 0.645731
O O15 0.500000 0.000000 0.500000
O O16 0.640417 0.956803 0.304482
O O17 0.738497 0.807421 0.274440
O O18 0.000000 0.000000 0.000000
#
# Coordination Sequence:
#
# PCOD9027765 Si02
#       8
#     2   2   2   2   2   2   2   2
#     4  11  22  38  71 106 140 171 232 295 356 411
#     4  12  23  41  72 107 143 176 236 299 349 415
#     4  12  30  50  70 100 145 195 239 289 350 426
#     4  11  24  47  70  98 144 185 231 294 353 423
#     4  12  27  46  71 101 144 191 232 290 356 416
#     4  12  22  39  69 106 138 180 238 297 349 410
#     4  12  25  44  72 104 141 189 234 287 358 415
#     4  10  22  41  69 107 136 175 226 291 354 410
#
# _framework density 21.496036
#
# number of rings (size 3 to 8) (size 9 to 14) (size 15 to 20)
#    0.000    0.500    5.000    4.125    5.250    1.500 
#    0.000    0.625    0.000    0.000    0.000    0.000 
#    0.000    0.000    0.000    0.000    0.000    0.000 
#
# Total GULP energy -89400.527760 kJ/mol
# GULP energy per Si atom -5587.532985 kJ/mol
# Density = 2.144711 g / cm^3
# Si number density = 21.496036 Si / 1000 Ang^3
#
#
#
# Elastic Constant Matrix: (Units=GPa)
#
#
# Indices 1 2 3 4 5 6 
#
# 1 92.0976 27.0647 27.5105 -1.7117 33.4562 -0.3849
# 2 27.0647 76.4593 27.9451 8.9397 20.0244 1.5906
# 3 27.5105 27.9451 105.1507 15.6654 10.2871 7.1604
# 4 -1.7117 8.9397 15.6654 24.4433 0.5258 1.1770
# 5 33.4562 20.0244 10.2871 0.5258 50.0021 11.7573
# 6 -0.3849 1.5906 7.1604 1.1770 11.7573 27.2291
#
#
#
# Elastic Compliance Matrix: (Units=1/GPa)
#
#
# Indices 1 2 3 4 5 6 
#
# 1 0.016735 -0.002328 -0.003743 0.004374 -0.010924 0.005885
# 2 -0.002328 0.016723 -0.002823 -0.004463 -0.005002 0.002085
# 3 -0.003743 -0.002823 0.012335 -0.007001 0.002044 -0.003712
# 4 0.004374 -0.004463 -0.007001 0.047331 -0.000250 0.000225
# 5 -0.010924 -0.005002 0.002044 -0.000250 0.032261 -0.014319
# 6 0.005885 0.002085 -0.003712 0.000225 -0.014319 0.043836
#
#
# Mechanical properties :
#
#
# Convention : Reuss Voigt Hill
#
# Bulk Modulus (GPa) = 35.70869 48.74978 42.22923
# Shear Modulus (GPa) = 25.46547 33.08073 29.27310
#
# Velocity S-wave (km/s) = 3.44562 3.92717 3.69425
# Velocity P-wave (km/s) = 5.69891 6.57961 6.15503
#
# Compressibility (1/GPa) = 0.02800439
#
# Stress axis : x y z
#
# Youngs Moduli (GPa) = 59.75583 59.79712 81.06696
#
# Poissons Ratio (x) = 0.13923 0.30344
# Poissons Ratio (y) = 0.13914 0.22885
# Poissons Ratio (z) = 0.22367 0.16881
#
# Static dielectric constant tensor:
#      x y z
#    x 1.827980 0.011380 -0.016960 
#    y 0.011380 1.797280 0.040390 
#    z -0.016960 0.040390 1.828250 
# 
# From -- ./inp_files/186779.got.cif
#   From: 2010.05.17/outbox.cif.g08.bks.cpg/sg2_94_cif.got.tgz:186779.got - 2010.06.03 11:33:40.
