data_PCOD9027323
_publ_section_title
;
Structure prediction by ZEFSAII (Michael W. Deem and Ramdas Pophale) SiO2 
 PCOD9027323
Probable space group: P -1
;
_chemical_formula_sum "Si O2"
_cell_formula_units_Z 16
_cell_length_a 14.574892
_cell_length_b 8.197296
_cell_length_c 14.835467
_cell_angle_alpha 90.542139
_cell_angle_beta 140.818620
_cell_angle_gamma 61.615784
_cell_volume 752.072995
_symmetry_space_group_name_H-M "P -1"
_symmetry_group_IT_number 2
_symmetry_cell_setting 'triclinic'
loop_
_space_group_symop_operation_xyz
x,y,z
-x,-y,-z
loop_
_atom_site_type_symbol
_atom_site_label
_atom_site_fract_x
_atom_site_fract_y
_atom_site_fract_z
Si Si1 0.983118 0.284246 0.020190
Si Si2 0.364750 0.599380 0.546118
Si Si3 0.748694 0.231625 0.735680
Si Si4 0.927822 0.468229 0.354412
Si Si5 0.080682 0.221664 0.780514
Si Si6 0.459271 0.726992 0.959882
Si Si7 0.268649 0.214980 0.100372
Si Si8 0.340843 0.914757 0.664775
O O1 0.859092 0.506128 0.993658
O O2 0.054744 0.057310 0.118328
O O3 0.189056 0.204528 0.133911
O O4 0.829202 0.346757 0.822655
O O5 0.586346 0.318485 0.693959
O O6 0.348214 0.701542 0.436951
O O7 0.377380 0.719831 0.635031
O O8 0.152290 0.668793 0.394170
O O9 0.946631 0.583067 0.289333
O O10 0.677238 0.626623 0.164421
O O11 0.000000 0.500000 0.500000
O O12 0.091801 0.179453 0.470246
O O13 0.180982 0.174772 0.954058
O O14 0.250834 0.966260 0.855841
O O15 0.500000 0.500000 0.000000
O O16 0.418605 0.816140 0.825709
O O17 0.514351 0.060944 0.268078
#
# Coordination Sequence:
#
# PCOD9027323 Si02
#       8
#     2   2   2   2   2   2   2   2
#     4  10  22  41  67  95 135 178 223 278 339 396
#     4  11  25  42  66  99 134 178 225 279 331 411
#     4  10  22  43  63  97 137 175 223 280 334 401
#     4  12  26  46  72 100 140 178 225 288 337 398
#     4  12  25  45  69 101 138 179 229 278 343 403
#     4  12  28  48  71 101 140 180 226 282 338 410
#     4  11  23  43  67 101 132 178 226 280 334 404
#     4  12  26  46  69 102 139 180 230 275 342 407
#
# _framework density 21.274531
#
# number of rings (size 3 to 8) (size 9 to 14) (size 15 to 20)
#    0.000    0.750    5.000    1.875    5.250    3.000 
#    0.000    1.250    0.000    0.000    0.000    0.000 
#    0.000    0.000    0.000    0.000    0.000    0.000 
#
# Total GULP energy -89370.098771 kJ/mol
# GULP energy per Si atom -5585.631173 kJ/mol
# Density = 2.122611 g / cm^3
# Si number density = 21.274531 Si / 1000 Ang^3
#
#
#
# Elastic Constant Matrix: (Units=GPa)
#
#
# Indices 1 2 3 4 5 6 
#
# 1 43.5420 5.0954 17.9603 -4.4970 22.0595 -4.0024
# 2 5.0954 104.6276 17.4065 -4.9290 2.2679 -12.5747
# 3 17.9603 17.4065 78.3809 -4.3809 18.8439 1.4727
# 4 -4.4970 -4.9290 -4.3809 39.4777 4.9561 0.3109
# 5 22.0595 2.2679 18.8439 4.9561 40.1159 4.2281
# 6 -4.0024 -12.5747 1.4727 0.3109 4.2281 30.8864
#
#
#
# Elastic Compliance Matrix: (Units=1/GPa)
#
#
# Indices 1 2 3 4 5 6 
#
# 1 0.035519 0.000446 -0.003340 0.006125 -0.019541 0.007557
# 2 0.000446 0.010532 -0.002384 0.001107 -0.000331 0.004494
# 3 -0.003340 -0.002384 0.015463 0.001721 -0.005355 -0.001425
# 4 0.006125 0.001107 0.001721 0.027324 -0.007821 0.001958
# 5 -0.019541 -0.000331 -0.005355 -0.007821 0.039997 -0.007808
# 6 0.007557 0.004494 -0.001425 0.001958 -0.007808 0.036303
#
#
# Mechanical properties :
#
#
# Convention : Reuss Voigt Hill
#
# Bulk Modulus (GPa) = 19.62343 34.16386 26.89365
# Shear Modulus (GPa) = 25.94985 34.50188 30.22586
#
# Velocity S-wave (km/s) = 3.49630 4.03146 3.77338
# Velocity P-wave (km/s) = 5.05398 6.14521 5.62612
#
# Compressibility (1/GPa) = 0.05095948
#
# Stress axis : x y z
#
# Youngs Moduli (GPa) = 28.15394 94.94857 64.66937
#
# Poissons Ratio (x) = -0.04237 0.21597
# Poissons Ratio (y) = -0.01256 0.15417
# Poissons Ratio (z) = 0.09402 0.22636
#
# Static dielectric constant tensor:
#      x y z
#    x 1.798520 0.010040 -0.004650 
#    y 0.010040 1.750170 -0.042530 
#    z -0.004650 -0.042530 1.912360 
# 
# From -- ./inp_files/529921.got.cif
#   From: 2010.05.17/outbox.cif.g08.bks.cpg/sg2_265_cif.got.tgz:529921.got - 2010.06.03 11:33:40.
