data_PCOD9027081
_publ_section_title
;
Structure prediction by ZEFSAII (Michael W. Deem and Ramdas Pophale) SiO2 
 PCOD9027081
Probable space group: P -1
;
_chemical_formula_sum "Si O2"
_cell_formula_units_Z 16
_cell_length_a 17.502974
_cell_length_b 20.571903
_cell_length_c 5.148237
_cell_angle_alpha 77.546609
_cell_angle_beta 76.160623
_cell_angle_gamma 20.896489
_cell_volume 641.829356
_symmetry_space_group_name_H-M "P -1"
_symmetry_group_IT_number 2
_symmetry_cell_setting 'triclinic'
loop_
_space_group_symop_operation_xyz
x,y,z
-x,-y,-z
loop_
_atom_site_type_symbol
_atom_site_label
_atom_site_fract_x
_atom_site_fract_y
_atom_site_fract_z
Si Si1 0.564909 0.585870 0.220917
Si Si2 0.203088 0.517388 0.479750
Si Si3 0.832993 0.191561 0.497373
Si Si4 0.427658 0.994973 0.244129
Si Si5 0.537855 0.198381 0.129088
Si Si6 0.800024 0.610050 0.122221
Si Si7 0.195315 0.135953 0.812751
Si Si8 0.262559 0.655742 0.056172
O O1 0.749554 0.460164 0.382427
O O2 0.399848 0.662067 0.408458
O O3 0.674949 0.467682 0.977583
O O4 0.441980 0.751160 0.105011
O O5 0.435999 0.307731 0.378052
O O6 0.111587 0.525369 0.697467
O O7 0.042707 0.657309 0.254628
O O8 0.851888 0.220525 0.201658
O O9 0.852203 0.226603 0.694958
O O10 0.000000 0.000000 0.500000
O O11 0.633314 0.784567 0.275506
O O12 0.335730 0.069320 0.547456
O O13 0.500000 0.000000 0.000000
O O14 0.252642 0.100795 0.097534
O O15 0.741477 0.990754 0.183427
O O16 0.350991 0.298342 0.068122
O O17 0.000000 0.500000 0.000000
O O18 0.500000 0.500000 0.000000
#
# Coordination Sequence:
#
# PCOD9027081 Si02
#       8
#     2   2   2   2   2   2   2   2
#     4  10  24  44  70  99 139 188 232 284 351 424
#     4  11  24  43  69  94 138 187 231 290 352 420
#     4  11  24  46  73 109 145 178 232 290 342 413
#     4  11  23  42  65  98 132 172 229 298 349 417
#     4  10  24  45  64  98 139 180 235 291 345 424
#     4  10  22  41  66  96 134 182 235 291 354 411
#     4  11  25  45  65  94 137 173 232 286 348 417
#     4  10  22  44  72 100 138 181 227 278 341 414
#
# _framework density 24.928744999999999
#
# number of rings (size 3 to 8) (size 9 to 14) (size 15 to 20)
#    0.000    1.500    1.250    3.000   10.500    1.500 
#    4.500    0.000    0.000    0.000    0.000    0.000 
#    0.000    0.000    0.000    0.000    0.000    0.000 
#
# Total GULP energy -89487.131994 kJ/mol
# GULP energy per Si atom -5592.945750 kJ/mol
# Density = 2.487201 g / cm^3
# Si number density = 24.928745 Si / 1000 Ang^3
#
#
#
# Elastic Constant Matrix: (Units=GPa)
#
#
# Indices 1 2 3 4 5 6 
#
# 1 83.0173 6.7807 10.8502 -1.0556 -13.2901 3.3818
# 2 6.7807 93.0963 8.5988 -14.9375 0.9184 26.9707
# 3 10.8502 8.5988 96.3693 -14.7596 1.7063 1.0401
# 4 -1.0556 -14.9375 -14.7596 36.5228 5.2481 -7.8857
# 5 -13.2901 0.9184 1.7063 5.2481 41.9376 5.1900
# 6 3.3818 26.9707 1.0401 -7.8857 5.1900 39.0116
#
#
#
# Elastic Compliance Matrix: (Units=1/GPa)
#
#
# Indices 1 2 3 4 5 6 
#
# 1 0.013110 -0.000636 -0.001727 -0.001588 0.004634 -0.001588
# 2 -0.000636 0.013984 -0.000542 0.003534 0.000174 -0.008907
# 3 -0.001727 -0.000542 0.011386 0.004900 -0.001791 0.001450
# 4 -0.001588 0.003534 0.004900 0.032599 -0.005463 0.004880
# 5 0.004634 0.000174 -0.001791 -0.005463 0.026701 -0.005131
# 6 -0.001588 -0.008907 0.001450 0.004880 -0.005131 0.033559
#
#
# Mechanical properties :
#
#
# Convention : Reuss Voigt Hill
#
# Bulk Modulus (GPa) = 30.60952 36.10469 33.35711
# Shear Modulus (GPa) = 33.77499 39.91127 36.84313
#
# Velocity S-wave (km/s) = 3.68484 4.00561 3.84857
# Velocity P-wave (km/s) = 5.51448 5.99231 5.75835
#
# Compressibility (1/GPa) = 0.03266957
#
# Stress axis : x y z
#
# Youngs Moduli (GPa) = 76.27923 71.51243 87.82593
#
# Poissons Ratio (x) = 0.04545 0.15171
# Poissons Ratio (y) = 0.04848 0.04760
# Poissons Ratio (z) = 0.13177 0.03875
#
# Static dielectric constant tensor:
#      x y z
#    x 2.035230 -0.005590 -0.046780 
#    y -0.005590 1.960510 0.017470 
#    z -0.046780 0.017470 2.021980 
# 
# From -- ./inp_files/112355.got.cif
#   From: 2010.05.17/outbox.cif.g08.bks.cpg/sg2_57_cif.got.tgz:112355.got - 2010.06.03 11:33:40.
