data_PCOD9027626
_publ_section_title
;
Structure prediction by ZEFSAII (Michael W. Deem and Ramdas Pophale) SiO2 
 PCOD9027626
Probable space group: P -1
;
_chemical_formula_sum "Si O2"
_cell_formula_units_Z 16
_cell_length_a 11.853305
_cell_length_b 11.049440
_cell_length_c 9.449841
_cell_angle_alpha 106.576982
_cell_angle_beta 129.530276
_cell_angle_gamma 49.199519
_cell_volume 704.313213
_symmetry_space_group_name_H-M "P -1"
_symmetry_group_IT_number 2
_symmetry_cell_setting 'triclinic'
loop_
_space_group_symop_operation_xyz
x,y,z
-x,-y,-z
loop_
_atom_site_type_symbol
_atom_site_label
_atom_site_fract_x
_atom_site_fract_y
_atom_site_fract_z
Si Si1 0.467498 0.773131 0.676595
Si Si2 0.520489 0.674563 0.178871
Si Si3 0.134075 0.320345 0.974554
Si Si4 0.101567 0.049579 0.358231
Si Si5 0.287271 0.693072 0.740687
Si Si6 0.328644 0.729752 0.303485
Si Si7 0.868473 0.586299 0.285308
Si Si8 0.054701 0.703833 0.941598
O O1 0.654385 0.741924 0.861465
O O2 0.373764 0.737917 0.708878
O O3 0.491666 0.660815 0.527273
O O4 0.310099 0.960946 0.558767
O O5 0.652120 0.486862 0.281932
O O6 0.395583 0.784658 0.248720
O O7 0.656221 0.697979 0.216511
O O8 0.378857 0.690678 0.959292
O O9 0.085134 0.236448 0.016649
O O10 0.095545 0.327488 0.777876
O O11 0.000000 0.500000 0.000000
O O12 0.937235 0.165270 0.377093
O O13 0.039475 0.153784 0.201446
O O14 0.141640 0.884017 0.286252
O O15 0.256208 0.643170 0.143034
O O16 0.000000 0.500000 0.500000
O O17 0.899469 0.444760 0.165732
#
# Coordination Sequence:
#
# PCOD9027626 Si02
#       8
#     2   2   2   2   2   2   2   2
#     4  10  24  40  63 100 131 174 217 268 325 396
#     4  11  21  36  68  92 127 168 222 276 321 373
#     4  10  24  42  63  93 135 172 214 277 322 386
#     4  10  22  41  68  97 133 175 215 265 334 383
#     4  11  20  40  66  93 131 169 216 279 322 375
#     4  10  24  38  68 101 127 168 219 265 330 383
#     4  11  24  42  66  93 131 174 220 271 333 384
#     4  11  21  44  66  92 134 176 216 263 322 397
#
# _framework density 22.717167
#
# number of rings (size 3 to 8) (size 9 to 14) (size 15 to 20)
#    0.750    0.750    3.750    1.500    5.250    2.000 
#    0.000    0.000    0.000    2.250    0.000    0.000 
#    0.000    0.000    0.000    0.000    0.000    0.000 
#
# Total GULP energy -89175.041778 kJ/mol
# GULP energy per Si atom -5573.440111 kJ/mol
# Density = 2.266546 g / cm^3
# Si number density = 22.717167 Si / 1000 Ang^3
#
#
#
# Elastic Constant Matrix: (Units=GPa)
#
#
# Indices 1 2 3 4 5 6 
#
# 1 138.3594 -4.7083 51.4867 -3.1323 -24.8128 -17.6262
# 2 -4.7083 26.5390 11.6803 -2.5237 9.1991 -15.9006
# 3 51.4867 11.6803 122.3128 -7.8243 -16.5078 -10.0041
# 4 -3.1323 -2.5237 -7.8243 29.1413 -7.7983 1.5035
# 5 -24.8128 9.1991 -16.5078 -7.7983 33.2458 -3.0869
# 6 -17.6262 -15.9006 -10.0041 1.5035 -3.0869 25.7465
#
#
#
# Elastic Compliance Matrix: (Units=1/GPa)
#
#
# Indices 1 2 3 4 5 6 
#
# 1 0.011803 0.009960 -0.003927 0.001941 0.005793 0.013287
# 2 0.009960 0.078627 -0.009697 -0.001259 -0.014799 0.049909
# 3 -0.003927 -0.009697 0.011486 0.003608 0.005957 -0.003710
# 4 0.001941 -0.001259 0.003608 0.038743 0.012790 0.001225
# 5 0.005793 -0.014799 0.005957 0.012790 0.044617 0.001744
# 6 0.013287 0.049909 -0.003710 0.001225 0.001744 0.077455
#
#
# Mechanical properties :
#
#
# Convention : Reuss Voigt Hill
#
# Bulk Modulus (GPa) = 10.57208 44.90318 27.73763
# Shear Modulus (GPa) = 16.57884 32.87690 24.72787
#
# Velocity S-wave (km/s) = 2.70440 3.80837 3.30284
# Velocity P-wave (km/s) = 3.79679 6.25678 5.17508
#
# Compressibility (1/GPa) = 0.09458872
#
# Stress axis : x y z
#
# Youngs Moduli (GPa) = 84.72289 12.71823 87.06202
#
# Poissons Ratio (x) = -0.12667 0.34188
# Poissons Ratio (y) = -0.84381 0.84422
# Poissons Ratio (z) = 0.33269 0.12333
#
# Static dielectric constant tensor:
#      x y z
#    x 1.902120 0.046550 -0.023770 
#    y 0.046550 1.918270 -0.013500 
#    z -0.023770 -0.013500 1.879410 
# 
# From -- ./inp_files/262721.got.cif
#   From: 2010.05.17/outbox.cif.g08.bks.cpg/sg2_132_cif.got.tgz:262721.got - 2010.06.03 11:33:40.
