data_PCOD9027181
_publ_section_title
;
Structure prediction by ZEFSAII (Michael W. Deem and Ramdas Pophale) SiO2 
 PCOD9027181
Probable space group: P -1
;
_chemical_formula_sum "Si O2"
_cell_formula_units_Z 15
_cell_length_a 9.457084
_cell_length_b 8.991171
_cell_length_c 15.812219
_cell_angle_alpha 82.285717
_cell_angle_beta 49.780655
_cell_angle_gamma 46.298462
_cell_volume 612.393863
_symmetry_space_group_name_H-M "P -1"
_symmetry_group_IT_number 2
_symmetry_cell_setting 'triclinic'
loop_
_space_group_symop_operation_xyz
x,y,z
-x,-y,-z
loop_
_atom_site_type_symbol
_atom_site_label
_atom_site_fract_x
_atom_site_fract_y
_atom_site_fract_z
Si Si1 0.875091 0.251905 0.519536
Si Si2 0.000000 0.500000 0.500000
Si Si3 0.217937 0.617758 0.045743
Si Si4 0.027179 0.417611 0.176323
Si Si5 0.932078 0.901853 0.723732
Si Si6 0.144333 0.335162 0.606579
Si Si7 0.275500 0.947255 0.675916
Si Si8 0.607857 0.549343 0.189072
O O1 0.067989 0.265281 0.479607
O O2 0.562619 0.448145 0.678941
O O3 0.860490 0.282195 0.422111
O O4 0.000000 0.000000 0.500000
O O5 0.159791 0.434799 0.345136
O O6 0.222291 0.437103 0.077697
O O7 0.902263 0.886931 0.185325
O O8 0.500000 0.500000 0.000000
O O9 0.247484 0.624774 0.934396
O O10 0.819623 0.607062 0.322446
O O11 0.840164 0.494851 0.159698
O O12 0.173167 0.171852 0.175336
O O13 0.645956 0.176543 0.774779
O O14 0.129971 0.890346 0.702575
O O15 0.203572 0.124353 0.620532
O O16 0.350695 0.281956 0.453641
#
# Coordination Sequence:
#
# PCOD9027181 Si02
#       8
#     2   1   2   2   2   2   2   2
#     4  10  23  38  67 103 138 181 232 287 365 419
#     4  12  22  38  68 108 140 184 226 292 368 434
#     4  11  24  47  71  95 139 192 229 286 355 423
#     4  11  25  43  72 104 132 180 238 288 355 424
#     4  11  22  43  69 105 135 176 232 293 353 416
#     4  10  22  41  67 101 138 172 230 297 352 418
#     4  10  22  42  68  96 137 180 230 292 349 415
#     4  11  24  44  72  95 144 188 228 290 355 424
#
# _framework density 24.494038
#
# number of rings (size 3 to 8) (size 9 to 14) (size 15 to 20)
#    0.000    1.333    2.667    2.800    3.733    6.933 
#    0.000    0.667    2.933    0.000    0.000    0.000 
#    0.000    0.000    0.000    0.000    0.000    0.000 
#
# Total GULP energy -83683.593164 kJ/mol
# GULP energy per Si atom -5578.906211 kJ/mol
# Density = 2.443829 g / cm^3
# Si number density = 24.494038 Si / 1000 Ang^3
#
#
#
# Elastic Constant Matrix: (Units=GPa)
#
#
# Indices 1 2 3 4 5 6 
#
# 1 146.9107 29.9620 40.5472 -9.8110 21.3233 13.6411
# 2 29.9620 76.4034 7.5691 -9.5379 8.1013 -5.5315
# 3 40.5472 7.5691 148.0272 -1.5962 34.7035 0.5050
# 4 -9.8110 -9.5379 -1.5962 31.0190 6.0775 -0.8502
# 5 21.3233 8.1013 34.7035 6.0775 44.4728 -6.7122
# 6 13.6411 -5.5315 0.5050 -0.8502 -6.7122 48.7429
#
#
#
# Elastic Compliance Matrix: (Units=1/GPa)
#
#
# Indices 1 2 3 4 5 6 
#
# 1 0.008722 -0.002856 -0.001419 0.002378 -0.003358 -0.003171
# 2 -0.002856 0.015062 0.000521 0.004211 -0.002009 0.002300
# 3 -0.001419 0.000521 0.008640 0.001401 -0.006422 -0.000493
# 4 0.002378 0.004211 0.001401 0.035908 -0.008010 -0.000679
# 5 -0.003358 -0.002009 -0.006422 -0.008010 0.031315 0.004951
# 6 -0.003171 0.002300 -0.000493 -0.000679 0.004951 0.022339
#
#
# Mechanical properties :
#
#
# Convention : Reuss Voigt Hill
#
# Bulk Modulus (GPa) = 40.13782 58.61089 49.37435
# Shear Modulus (GPa) = 36.28418 44.39781 40.34100
#
# Velocity S-wave (km/s) = 3.85300 4.26208 4.06269
# Velocity P-wave (km/s) = 6.01802 6.94269 6.49683
#
# Compressibility (1/GPa) = 0.02491416
#
# Stress axis : x y z
#
# Youngs Moduli (GPa) = 114.65590 66.39116 115.73943
#
# Poissons Ratio (x) = 0.18964 0.16428
# Poissons Ratio (y) = 0.32750 -0.06027
# Poissons Ratio (z) = 0.16274 -0.03458
#
# Static dielectric constant tensor:
#      x y z
#    x 2.079800 -0.035870 0.052470 
#    y -0.035870 2.017090 0.072980 
#    z 0.052470 0.072980 2.104560 
# 
# From -- ./inp_files/492873.got.cif
#   From: 2010.05.17/outbox.cif.g08.bks.cpg/sg2_247_cif.got.tgz:492873.got - 2010.06.03 11:33:40.
