data_PCOD9027692
_publ_section_title
;
Structure prediction by ZEFSAII (Michael W. Deem and Ramdas Pophale) SiO2 
 PCOD9027692
Probable space group: P -1
;
_chemical_formula_sum "Si O2"
_cell_formula_units_Z 14
_cell_length_a 9.577643
_cell_length_b 8.921021
_cell_length_c 20.833782
_cell_angle_alpha 47.563866
_cell_angle_beta 30.721890
_cell_angle_gamma 47.399862
_cell_volume 648.660592
_symmetry_space_group_name_H-M "P -1"
_symmetry_group_IT_number 2
_symmetry_cell_setting 'triclinic'
loop_
_space_group_symop_operation_xyz
x,y,z
-x,-y,-z
loop_
_atom_site_type_symbol
_atom_site_label
_atom_site_fract_x
_atom_site_fract_y
_atom_site_fract_z
Si Si1 0.900857 0.763237 0.887492
Si Si2 0.200553 0.084225 0.626973
Si Si3 0.627177 0.037773 0.028486
Si Si4 0.195809 0.567414 0.138977
Si Si5 0.785115 0.663748 0.156021
Si Si6 0.194135 0.517121 0.580214
Si Si7 0.849673 0.325610 0.585113
O O1 0.696690 0.835711 0.886030
O O2 0.016722 0.514992 0.914771
O O3 0.129743 0.897634 0.750605
O O4 0.701733 0.852730 0.000136
O O5 0.204554 0.291119 0.607442
O O6 0.984773 0.141395 0.635045
O O7 0.500000 0.000000 0.500000
O O8 0.728361 0.907861 0.089856
O O9 0.789365 0.212665 0.898811
O O10 0.943842 0.621826 0.172174
O O11 0.076089 0.436373 0.277909
O O12 0.500000 0.500000 0.000000
O O13 0.484152 0.612505 0.289410
O O14 0.500000 0.500000 0.500000
O O15 0.130183 0.682364 0.498143
O O16 0.000000 0.500000 0.500000
#
# Coordination Sequence:
#
# PCOD9027692 Si02
#       7
#     2   2   2   2   2   2   2
#     4  11  22  40  68  98 132 177 227 286 346 406
#     4  11  23  43  69 101 139 177 234 293 350 416
#     4  11  24  43  64  98 136 176 234 285 340 417
#     4  12  25  45  69 100 143 190 228 290 355 412
#     4  12  23  43  71  97 138 185 232 287 355 416
#     4  11  23  45  72  99 142 184 233 290 351 424
#     4  10  22  41  69 100 136 178 232 287 346 419
#
# _framework density 21.582937999999999
#
# number of rings (size 3 to 8) (size 9 to 14) (size 15 to 20)
#    0.000    0.857    5.714    2.571    0.000    0.000 
#    7.714    0.714    0.000    0.000    0.000    0.000 
#    0.000    0.000    0.000    0.000    0.000    0.000 
#
# Total GULP energy -77983.394003 kJ/mol
# GULP energy per Si atom -5570.242429 kJ/mol
# Density = 2.153381 g / cm^3
# Si number density = 21.582938 Si / 1000 Ang^3
#
#
#
# Elastic Constant Matrix: (Units=GPa)
#
#
# Indices 1 2 3 4 5 6 
#
# 1 105.0004 7.2976 22.3800 6.7596 -11.2759 -14.2997
# 2 7.2976 41.9951 9.4863 8.5954 -7.4848 -10.9639
# 3 22.3800 9.4863 82.7735 12.1154 -8.6280 -4.2322
# 4 6.7596 8.5954 12.1154 36.8778 -1.5838 -2.3702
# 5 -11.2759 -7.4848 -8.6280 -1.5838 39.8021 -1.8916
# 6 -14.2997 -10.9639 -4.2322 -2.3702 -1.8916 28.9873
#
#
#
# Elastic Compliance Matrix: (Units=1/GPa)
#
#
# Indices 1 2 3 4 5 6 
#
# 1 0.011113 0.000784 -0.002356 -0.000959 0.003011 0.005552
# 2 0.000784 0.029043 -0.001590 -0.005437 0.005648 0.011064
# 3 -0.002356 -0.001590 0.013621 -0.003590 0.001846 0.000052
# 4 -0.000959 -0.005437 -0.003590 0.029655 -0.000925 -0.000689
# 5 0.003011 0.005648 0.001846 -0.000925 0.027670 0.005621
# 6 0.005552 0.011064 0.000052 -0.000689 0.005621 0.041740
#
#
# Mechanical properties :
#
#
# Convention : Reuss Voigt Hill
#
# Bulk Modulus (GPa) = 21.07421 34.23299 27.65360
# Shear Modulus (GPa) = 28.57403 33.84043 31.20723
#
# Velocity S-wave (km/s) = 3.64251 3.96400 3.80665
# Velocity P-wave (km/s) = 5.24176 6.07014 5.67110
#
# Compressibility (1/GPa) = 0.04745137
#
# Stress axis : x y z
#
# Youngs Moduli (GPa) = 89.98657 34.43138 73.41628
#
# Poissons Ratio (x) = -0.02698 0.17299
# Poissons Ratio (y) = -0.07052 0.11674
# Poissons Ratio (z) = 0.21204 0.05475
#
# Static dielectric constant tensor:
#      x y z
#    x 1.883490 -0.004060 0.053410 
#    y -0.004060 1.809860 -0.006340 
#    z 0.053410 -0.006340 1.701450 
# 
# From -- ./inp_files/199911.got.cif
#   From: 2010.05.17/outbox.cif.g08.bks.cpg/sg2_100_cif.got.tgz:199911.got - 2010.06.03 11:33:40.
