data_PCOD9027997
_publ_section_title
;
Structure prediction by ZEFSAII (Michael W. Deem and Ramdas Pophale) SiO2 
 PCOD9027997
Probable space group: P -1
;
_chemical_formula_sum "Si O2"
_cell_formula_units_Z 14
_cell_length_a 12.818843
_cell_length_b 11.447402
_cell_length_c 9.329824
_cell_angle_alpha 51.473685
_cell_angle_beta 131.992338
_cell_angle_gamma 141.234031
_cell_volume 621.873974
_symmetry_space_group_name_H-M "P -1"
_symmetry_group_IT_number 2
_symmetry_cell_setting 'triclinic'
loop_
_space_group_symop_operation_xyz
x,y,z
-x,-y,-z
loop_
_atom_site_type_symbol
_atom_site_label
_atom_site_fract_x
_atom_site_fract_y
_atom_site_fract_z
Si Si1 0.486057 0.809332 0.244034
Si Si2 0.176550 0.934196 0.164961
Si Si3 0.200309 0.159654 0.524729
Si Si4 0.506698 0.852487 0.914581
Si Si5 0.214623 0.247047 0.150254
Si Si6 0.609243 0.487980 0.365429
Si Si7 0.212205 0.642749 0.557410
O O1 0.700677 0.931640 0.337410
O O2 0.431420 0.652433 0.432022
O O3 0.439656 0.942806 0.148332
O O4 0.432144 0.740139 0.083596
O O5 0.243575 0.815394 0.363603
O O6 0.312547 0.082708 0.051566
O O7 0.191420 0.062067 0.211140
O O8 0.964533 0.788787 0.041272
O O9 0.211387 0.253160 0.313926
O O10 0.292199 0.311416 0.620462
O O11 0.000000 0.000000 0.500000
O O12 0.342479 0.740742 0.738646
O O13 0.423049 0.418760 0.173906
O O14 0.728500 0.468955 0.383213
O O15 0.000000 0.500000 0.500000
#
# Coordination Sequence:
#
# PCOD9027997 Si02
#       7
#     2   2   2   2   2   2   2
#     4  10  22  41  70  95 129 173 216 271 324 388
#     4  11  22  43  68  98 133 171 219 267 329 385
#     4  11  24  41  67  93 131 174 224 267 327 392
#     4  11  22  43  68  98 133 171 219 267 329 385
#     4  10  22  41  70  95 129 173 216 271 324 388
#     4  11  23  45  68  94 134 176 215 273 331 381
#     4  12  26  41  64  98 136 176 216 270 321 394
#
# _framework density 22.512599000000002
#
# number of rings (size 3 to 8) (size 9 to 14) (size 15 to 20)
#    0.000    1.143    2.857    4.714    4.000    2.286 
#    0.000    2.857    0.000    0.000    0.000    0.000 
#    0.000    0.000    0.000    0.000    0.000    0.000 
#
# Total GULP energy -78205.786327 kJ/mol
# GULP energy per Si atom -5586.127595 kJ/mol
# Density = 2.246136 g / cm^3
# Si number density = 22.512599 Si / 1000 Ang^3
#
#
#
# Elastic Constant Matrix: (Units=GPa)
#
#
# Indices 1 2 3 4 5 6 
#
# 1 136.7664 35.5534 45.2237 24.9456 -0.3936 9.6191
# 2 35.5534 71.4622 27.3760 30.7513 -0.5193 7.8121
# 3 45.2237 27.3760 98.8977 30.3879 -6.9259 1.3556
# 4 24.9456 30.7513 30.3879 42.0280 4.3109 3.9661
# 5 -0.3936 -0.5193 -6.9259 4.3109 33.6552 3.6882
# 6 9.6191 7.8121 1.3556 3.9661 3.6882 44.5370
#
#
#
# Elastic Compliance Matrix: (Units=1/GPa)
#
#
# Indices 1 2 3 4 5 6 
#
# 1 0.009390 -0.002875 -0.003194 -0.001004 -0.000320 -0.001311
# 2 -0.002875 0.021847 -0.000184 -0.014182 0.002316 -0.002134
# 3 -0.003194 -0.000184 0.014686 -0.009075 0.004063 0.000747
# 4 -0.001004 -0.014182 -0.009075 0.042109 -0.007476 -0.000150
# 5 -0.000320 0.002316 0.004063 -0.007476 0.031805 -0.002429
# 6 -0.001311 -0.002134 0.000747 -0.000150 -0.002429 0.023303
#
#
# Mechanical properties :
#
#
# Convention : Reuss Voigt Hill
#
# Bulk Modulus (GPa) = 29.92475 58.15918 44.04196
# Shear Modulus (GPa) = 29.97914 37.30892 33.64403
#
# Velocity S-wave (km/s) = 3.65315 4.07535 3.87001
# Velocity P-wave (km/s) = 5.57811 6.93071 6.29087
#
# Compressibility (1/GPa) = 0.03341716
#
# Stress axis : x y z
#
# Youngs Moduli (GPa) = 106.50159 45.77275 68.09407
#
# Poissons Ratio (x) = 0.13160 0.21748
# Poissons Ratio (y) = 0.30620 0.01251
# Poissons Ratio (z) = 0.34014 0.00841
#
# Static dielectric constant tensor:
#      x y z
#    x 1.818540 0.037970 -0.014440 
#    y 0.037970 1.848770 -0.060300 
#    z -0.014440 -0.060300 1.899070 
# 
# From -- ./inp_files/176536.got.cif
#   From: 2010.05.17/outbox.cif.g08.bks.cpg/sg2_89_cif.got.tgz:176536.got - 2010.06.03 11:33:40.
