data_PCOD9027190
_publ_section_title
;
Structure prediction by ZEFSAII (Michael W. Deem and Ramdas Pophale) SiO2 
 PCOD9027190
Probable space group: P -1
;
_chemical_formula_sum "Si O2"
_cell_formula_units_Z 16
_cell_length_a 13.022393
_cell_length_b 21.651770
_cell_length_c 19.297115
_cell_angle_alpha 157.610047
_cell_angle_beta 149.756823
_cell_angle_gamma 20.718008
_cell_volume 733.172721
_symmetry_space_group_name_H-M "P -1"
_symmetry_group_IT_number 2
_symmetry_cell_setting 'triclinic'
loop_
_space_group_symop_operation_xyz
x,y,z
-x,-y,-z
loop_
_atom_site_type_symbol
_atom_site_label
_atom_site_fract_x
_atom_site_fract_y
_atom_site_fract_z
Si Si1 0.062319 0.951811 0.866399
Si Si2 0.476701 0.465973 0.580660
Si Si3 0.481957 0.148250 0.419327
Si Si4 0.911198 0.795220 0.962376
Si Si5 0.977143 0.506826 0.600032
Si Si6 0.291293 0.003877 0.807571
Si Si7 0.197857 0.696012 0.264776
Si Si8 0.559299 0.178083 0.910656
O O1 0.295115 0.721673 0.714253
O O2 0.967900 0.149266 0.965545
O O3 0.249147 0.899041 0.988086
O O4 0.772249 0.045155 0.830427
O O5 0.214515 0.545680 0.559107
O O6 0.737467 0.361890 0.676166
O O7 0.583818 0.250181 0.376317
O O8 0.248379 0.261068 0.337131
O O9 0.678709 0.195602 0.571007
O O10 0.271084 0.317505 0.535131
O O11 0.599586 0.903756 0.253629
O O12 0.939735 0.828945 0.093387
O O13 0.561086 0.973114 0.935669
O O14 0.023681 0.558134 0.755536
O O15 0.131061 0.115661 0.757138
O O16 0.361243 0.450119 0.070973
#
# Coordination Sequence:
#
# PCOD9027190 Si02
#       8
#     2   2   2   2   2   2   2   2
#     4  10  18  33  55  88 107 133 186 230 275 322
#     4   9  18  33  56  78 109 139 179 235 265 310
#     4  10  17  31  57  85 113 140 170 229 285 324
#     4  10  20  36  59  74 104 150 188 231 261 320
#     4   9  16  30  54  84 105 136 182 222 272 324
#     4  10  22  39  52  76 107 154 192 215 268 326
#     4  10  21  35  55  83 116 144 176 227 281 327
#     4  10  19  33  57  90 115 133 172 235 284 330
#
# _framework density 21.822960999999999
#
# number of rings (size 3 to 8) (size 9 to 14) (size 15 to 20)
#    0.000    2.250    2.500    1.125    3.500    0.500 
#    2.250    3.750    0.000    1.500    0.000    0.000 
#    0.000    0.000    0.000    0.000    0.000    0.000 
#
# Total GULP energy -89084.970838 kJ/mol
# GULP energy per Si atom -5567.810677 kJ/mol
# Density = 2.177329 g / cm^3
# Si number density = 21.822961 Si / 1000 Ang^3
#
#
#
# Elastic Constant Matrix: (Units=GPa)
#
#
# Indices 1 2 3 4 5 6 
#
# 1 55.5494 -2.8344 16.1334 0.0159 -2.9243 -5.7896
# 2 -2.8344 23.1594 23.3722 7.4652 8.2475 -4.4999
# 3 16.1334 23.3722 99.9576 20.5524 4.8030 -0.6904
# 4 0.0159 7.4652 20.5524 19.0625 -1.9667 -1.1512
# 5 -2.9243 8.2475 4.8030 -1.9667 38.0265 -0.2192
# 6 -5.7896 -4.4999 -0.6904 -1.1512 -0.2192 12.8292
#
#
#
# Elastic Compliance Matrix: (Units=1/GPa)
#
#
# Indices 1 2 3 4 5 6 
#
# 1 0.021983 0.010764 -0.006816 0.003994 0.000502 0.013696
# 2 0.010764 0.075010 -0.015975 -0.011839 -0.013868 0.029008
# 3 -0.006816 -0.015975 0.017475 -0.013117 0.000004 -0.008916
# 4 0.003994 -0.011839 -0.013117 0.072306 0.008292 0.003574
# 5 0.000502 -0.013868 0.000004 0.008292 0.029753 -0.003385
# 6 0.013696 0.029008 -0.008916 0.003574 -0.003385 0.094086
#
#
# Mechanical properties :
#
#
# Convention : Reuss Voigt Hill
#
# Bulk Modulus (GPa) = 11.06027 28.00099 19.53063
# Shear Modulus (GPa) = 13.70598 23.44998 18.57798
#
# Velocity S-wave (km/s) = 2.50882 3.28160 2.92088
# Velocity P-wave (km/s) = 3.67034 5.21702 4.51047
#
# Compressibility (1/GPa) = 0.09041373
#
# Stress axis : x y z
#
# Youngs Moduli (GPa) = 45.48873 13.33164 57.22522
#
# Poissons Ratio (x) = -0.14350 0.39003
# Poissons Ratio (y) = -0.48962 0.91417
# Poissons Ratio (z) = 0.31003 0.21297
#
# Static dielectric constant tensor:
#      x y z
#    x 1.845980 0.013770 -0.024250 
#    y 0.013770 1.823150 0.047760 
#    z -0.024250 0.047760 1.903670 
# 
# From -- ./inp_files/239815.got.cif
#   From: 2010.05.17/outbox.cif.g08.bks.cpg/sg2_120_cif.got.tgz:239815.got - 2010.06.03 11:33:40.
