data_PCOD9027099
_publ_section_title
;
Structure prediction by ZEFSAII (Michael W. Deem and Ramdas Pophale) SiO2 
 PCOD9027099
Probable space group: P -1
;
_chemical_formula_sum "Si O2"
_cell_formula_units_Z 16
_cell_length_a 10.235577
_cell_length_b 11.644238
_cell_length_c 7.999621
_cell_angle_alpha 109.262765
_cell_angle_beta 132.485877
_cell_angle_gamma 65.534390
_cell_volume 638.184498
_symmetry_space_group_name_H-M "P -1"
_symmetry_group_IT_number 2
_symmetry_cell_setting 'triclinic'
loop_
_space_group_symop_operation_xyz
x,y,z
-x,-y,-z
loop_
_atom_site_type_symbol
_atom_site_label
_atom_site_fract_x
_atom_site_fract_y
_atom_site_fract_z
Si Si1 0.015566 0.293789 0.794840
Si Si2 0.403797 0.287000 0.970776
Si Si3 0.924179 0.965984 0.737334
Si Si4 0.855912 0.548533 0.656524
Si Si5 0.219165 0.181542 0.212535
Si Si6 0.761099 0.445697 0.174805
Si Si7 0.788453 0.206885 0.278296
Si Si8 0.558766 0.982049 0.240732
O O1 0.891001 0.437577 0.770380
O O2 0.931967 0.236279 0.543219
O O3 0.219077 0.293270 0.913112
O O4 0.048738 0.210694 0.948004
O O5 0.592184 0.237318 0.210764
O O6 0.384333 0.432023 0.969971
O O7 0.421278 0.170392 0.798380
O O8 0.857579 0.846726 0.690692
O O9 0.743750 0.018729 0.485262
O O10 0.107573 0.929192 0.766707
O O11 0.000000 0.000000 0.000000
O O12 0.733968 0.684352 0.671439
O O13 0.783664 0.496075 0.404496
O O14 0.052781 0.564738 0.774074
O O15 0.389452 0.068195 0.243662
O O16 0.747198 0.304567 0.130914
O O17 0.500000 0.000000 0.000000
#
# Coordination Sequence:
#
# PCOD9027099 Si02
#       8
#     2   2   2   2   2   2   2   2
#     4  10  22  41  66  97 131 172 222 265 331 407
#     4  11  21  39  68  93 125 172 225 264 321 394
#     4  12  26  43  63 102 136 171 225 282 333 382
#     4   9  18  34  67  94 128 169 214 268 336 386
#     4  12  22  41  67  94 135 172 217 280 333 387
#     4   9  18  36  63  98 127 165 217 271 326 405
#     4  11  21  41  67  95 131 175 220 268 332 403
#     4  12  25  46  67  94 133 182 226 266 331 405
#
# _framework density 25.071120000000001
#
# number of rings (size 3 to 8) (size 9 to 14) (size 15 to 20)
#    0.000    1.250    3.750    3.375    0.000    2.000 
#    0.000    2.500    0.000    4.500    0.000    0.000 
#    0.000    0.000    0.000    0.000    0.000    0.000 
#
# Total GULP energy -89206.717863 kJ/mol
# GULP energy per Si atom -5575.419866 kJ/mol
# Density = 2.501406 g / cm^3
# Si number density = 25.071120 Si / 1000 Ang^3
#
#
#
# Elastic Constant Matrix: (Units=GPa)
#
#
# Indices 1 2 3 4 5 6 
#
# 1 42.0974 10.1008 29.0075 -19.3600 9.6714 -2.3768
# 2 10.1008 114.7218 8.3820 -3.8308 -12.1093 -0.0777
# 3 29.0075 8.3820 133.4655 -15.2196 0.9674 -1.8030
# 4 -19.3600 -3.8308 -15.2196 43.5464 0.3421 -5.5538
# 5 9.6714 -12.1093 0.9674 0.3421 30.8594 -6.8568
# 6 -2.3768 -0.0777 -1.8030 -5.5538 -6.8568 37.0847
#
#
#
# Elastic Compliance Matrix: (Units=1/GPa)
#
#
# Indices 1 2 3 4 5 6 
#
# 1 0.039325 -0.003893 -0.006439 0.015252 -0.013373 0.002011
# 2 -0.003893 0.009563 0.000124 -0.000810 0.005111 0.000600
# 3 -0.006439 0.000124 0.008910 0.000300 0.001876 0.000413
# 4 0.015252 -0.000810 0.000300 0.030417 -0.004393 0.004734
# 5 -0.013373 0.005111 0.001876 -0.004393 0.039917 0.005968
# 6 0.002011 0.000600 0.000413 0.004734 0.005968 0.028928
#
#
# Mechanical properties :
#
#
# Convention : Reuss Voigt Hill
#
# Bulk Modulus (GPa) = 26.74978 42.80725 34.77851
# Shear Modulus (GPa) = 26.32440 38.48439 32.40440
#
# Velocity S-wave (km/s) = 3.24387 3.92217 3.59903
# Velocity P-wave (km/s) = 4.97222 6.13373 5.58326
#
# Compressibility (1/GPa) = 0.03738349
#
# Stress axis : x y z
#
# Youngs Moduli (GPa) = 25.42891 104.56654 112.22733
#
# Poissons Ratio (x) = 0.40706 0.72265
# Poissons Ratio (y) = 0.09899 -0.01394
# Poissons Ratio (z) = 0.16374 -0.01299
#
# Static dielectric constant tensor:
#      x y z
#    x 2.055690 0.093460 0.007210 
#    y 0.093460 2.085790 -0.021870 
#    z 0.007210 -0.021870 2.014060 
# 
# From -- ./inp_files/270755.got.cif
#   From: 2010.05.17/outbox.cif.g08.bks.cpg/sg2_136_cif.got.tgz:270755.got - 2010.06.03 11:33:40.
