data_PCOD9027462
_publ_section_title
;
Structure prediction by ZEFSAII (Michael W. Deem and Ramdas Pophale) SiO2 
 PCOD9027462
Probable space group: P -1
;
_chemical_formula_sum "Si O2"
_cell_formula_units_Z 16
_cell_length_a 13.576801
_cell_length_b 26.032706
_cell_length_c 19.092797
_cell_angle_alpha 164.280895
_cell_angle_beta 155.568303
_cell_angle_gamma 26.070085
_cell_volume 741.651462
_symmetry_space_group_name_H-M "P -1"
_symmetry_group_IT_number 2
_symmetry_cell_setting 'triclinic'
loop_
_space_group_symop_operation_xyz
x,y,z
-x,-y,-z
loop_
_atom_site_type_symbol
_atom_site_label
_atom_site_fract_x
_atom_site_fract_y
_atom_site_fract_z
Si Si1 0.281549 0.005501 0.183890
Si Si2 0.559298 0.977101 0.849006
Si Si3 0.535104 0.311233 0.824093
Si Si4 0.722000 0.603172 0.798646
Si Si5 0.411944 0.418286 0.161927
Si Si6 0.977823 0.983074 0.705894
Si Si7 0.777102 0.632575 0.174621
Si Si8 0.388012 0.824417 0.664507
O O1 0.363747 0.165370 0.495637
O O2 0.370192 0.051356 0.223580
O O3 0.412039 0.787582 0.001208
O O4 0.000000 0.000000 0.000000
O O5 0.367491 0.178340 0.995695
O O6 0.809513 0.986268 0.063430
O O7 0.430577 0.831736 0.618669
O O8 0.805311 0.180560 0.829325
O O9 0.448036 0.365878 0.918222
O O10 0.500000 0.500000 0.000000
O O11 0.500000 0.500000 0.500000
O O12 0.736187 0.598865 0.886379
O O13 0.980093 0.486505 0.787858
O O14 0.519024 0.612761 0.497217
O O15 0.267293 0.452923 0.041784
O O16 0.824828 0.845791 0.466679
O O17 0.116690 0.867959 0.577997
O O18 0.500000 0.000000 0.000000
#
# Coordination Sequence:
#
# PCOD9027462 Si02
#       8
#     2   2   2   2   2   2   2   2
#     4  11  26  46  70  99 141 183 244 280 334 421
#     4  10  23  40  69 102 137 175 226 289 350 396
#     4  12  30  47  67 102 142 187 230 292 353 404
#     4  11  21  40  68 103 133 173 228 281 340 409
#     4  11  24  42  69 102 132 179 234 273 342 412
#     4  11  22  46  70  98 140 181 230 277 349 425
#     4  12  24  43  71  95 140 182 233 274 347 418
#     4  10  22  41  68 102 137 171 222 286 352 400
#
# _framework density 21.573475999999999
#
# number of rings (size 3 to 8) (size 9 to 14) (size 15 to 20)
#    0.000    1.000    3.750    2.250    7.000    2.000 
#    0.000    2.500    0.000    0.000    0.000    0.000 
#    0.000    0.000    0.000    0.000    0.000    0.000 
#
# Total GULP energy -89365.791234 kJ/mol
# GULP energy per Si atom -5585.361952 kJ/mol
# Density = 2.152437 g / cm^3
# Si number density = 21.573476 Si / 1000 Ang^3
#
#
#
# Elastic Constant Matrix: (Units=GPa)
#
#
# Indices 1 2 3 4 5 6 
#
# 1 91.2884 39.5385 8.7037 3.1141 10.9122 8.7190
# 2 39.5385 107.0503 40.3930 16.8046 7.3819 4.3871
# 3 8.7037 40.3930 72.9267 21.6648 4.4099 8.6009
# 4 3.1141 16.8046 21.6648 33.1585 15.2768 1.1641
# 5 10.9122 7.3819 4.4099 15.2768 34.8951 3.8711
# 6 8.7190 4.3871 8.6009 1.1641 3.8711 28.7254
#
#
#
# Elastic Compliance Matrix: (Units=1/GPa)
#
#
# Indices 1 2 3 4 5 6 
#
# 1 0.014011 -0.005671 0.001295 0.002756 -0.004183 -0.003322
# 2 -0.005671 0.014259 -0.006644 -0.002683 0.000598 0.001561
# 3 0.001295 -0.006644 0.021400 -0.012583 0.004457 -0.005877
# 4 0.002756 -0.002683 -0.012583 0.048791 -0.020522 0.004129
# 5 -0.004183 0.000598 0.004457 -0.020522 0.038765 -0.004548
# 6 -0.003322 0.001561 -0.005877 0.004129 -0.004548 0.037788
#
#
# Mechanical properties :
#
#
# Convention : Reuss Voigt Hill
#
# Bulk Modulus (GPa) = 36.19471 49.83732 43.01601
# Shear Modulus (GPa) = 24.24088 31.53116 27.88602
#
# Velocity S-wave (km/s) = 3.35571 3.82720 3.59918
# Velocity P-wave (km/s) = 5.64165 6.53309 6.10367
#
# Compressibility (1/GPa) = 0.02762835
#
# Stress axis : x y z
#
# Youngs Moduli (GPa) = 71.37481 70.13040 46.72947
#
# Poissons Ratio (x) = 0.39774 -0.06052
# Poissons Ratio (y) = 0.40480 0.31048
# Poissons Ratio (z) = -0.09244 0.46597
#
# Static dielectric constant tensor:
#      x y z
#    x 1.821810 0.054460 -0.011870 
#    y 0.054460 1.901800 0.037060 
#    z -0.011870 0.037060 1.852330 
# 
# From -- ./inp_files/571071.got.cif
#   From: 2010.05.17/outbox.cif.g08.bks.cpg/sg2_286_cif.got.tgz:571071.got - 2010.06.03 11:33:40.
