data_PCOD9027575
_publ_section_title
;
Structure prediction by ZEFSAII (Michael W. Deem and Ramdas Pophale) SiO2 
 PCOD9027575
Probable space group: P -1
;
_chemical_formula_sum "Si O2"
_cell_formula_units_Z 16
_cell_length_a 19.238622
_cell_length_b 11.864598
_cell_length_c 6.585875
_cell_angle_alpha 82.809099
_cell_angle_beta 78.020025
_cell_angle_gamma 30.236877
_cell_volume 736.040823
_symmetry_space_group_name_H-M "P -1"
_symmetry_group_IT_number 2
_symmetry_cell_setting 'triclinic'
loop_
_space_group_symop_operation_xyz
x,y,z
-x,-y,-z
loop_
_atom_site_type_symbol
_atom_site_label
_atom_site_fract_x
_atom_site_fract_y
_atom_site_fract_z
Si Si1 0.866419 0.864514 0.727141
Si Si2 0.217150 0.873142 0.666274
Si Si3 0.507516 0.167732 0.013300
Si Si4 0.597416 0.270008 0.092224
Si Si5 0.804020 0.695674 0.755800
Si Si6 0.639483 0.767535 0.582907
Si Si7 0.293397 0.510529 0.719181
Si Si8 0.953448 0.289788 0.999530
O O1 0.875295 0.720467 0.690311
O O2 0.996544 0.727174 0.812916
O O3 0.837719 0.984687 0.527611
O O4 0.730978 0.064982 0.910955
O O5 0.342675 0.770212 0.721129
O O6 0.266793 0.676992 0.638593
O O7 0.088021 0.048579 0.863808
O O8 0.434440 0.305192 0.816081
O O9 0.664469 0.908505 0.930441
O O10 0.516326 0.262994 0.137698
O O11 0.412902 0.205950 0.174050
O O12 0.500000 0.500000 0.000000
O O13 0.746589 0.721758 0.574706
O O14 0.899592 0.468839 0.854998
O O15 0.701085 0.580506 0.455483
O O16 0.500000 0.000000 0.500000
O O17 0.167824 0.634654 0.907156
#
# Coordination Sequence:
#
# PCOD9027575 Si02
#       8
#     2   2   2   2   2   2   2   2
#     4  10  26  44  67 100 130 173 226 270 324 394
#     4  11  26  45  67 101 132 176 223 267 330 395
#     4  11  23  43  67 100 135 170 214 277 334 387
#     4  10  22  41  68  95 132 171 208 268 334 389
#     4  11  23  47  68  97 137 171 222 275 330 389
#     4  12  25  39  67 105 131 174 219 272 337 388
#     4  12  25  43  69  99 136 173 222 273 328 395
#     4  11  25  47  67  93 133 183 220 272 327 386
#
# _framework density 21.737926000000002
#
# number of rings (size 3 to 8) (size 9 to 14) (size 15 to 20)
#    0.000    1.000    3.750    1.875    5.250    1.500 
#    2.250    0.000    0.000    0.000    0.000    0.000 
#    0.000    0.000    0.000    0.000    0.000    0.000 
#
# Total GULP energy -89546.019180 kJ/mol
# GULP energy per Si atom -5596.626199 kJ/mol
# Density = 2.168845 g / cm^3
# Si number density = 21.737926 Si / 1000 Ang^3
#
#
#
# Elastic Constant Matrix: (Units=GPa)
#
#
# Indices 1 2 3 4 5 6 
#
# 1 97.2892 23.2638 15.0471 -6.0586 26.0885 23.2171
# 2 23.2638 74.3129 8.3105 -12.2026 20.7679 14.7961
# 3 15.0471 8.3105 61.4809 -16.8354 18.0401 10.2403
# 4 -6.0586 -12.2026 -16.8354 37.4510 -4.8584 3.7543
# 5 26.0885 20.7679 18.0401 -4.8584 39.5502 0.6551
# 6 23.2171 14.7961 10.2403 3.7543 0.6551 40.0333
#
#
#
# Elastic Compliance Matrix: (Units=1/GPa)
#
#
# Indices 1 2 3 4 5 6 
#
# 1 0.015176 0.000341 0.001676 0.002913 -0.010439 -0.009458
# 2 0.000341 0.018939 0.004096 0.007524 -0.010969 -0.008771
# 3 0.001676 0.004096 0.023712 0.011590 -0.012492 -0.009434
# 4 0.002913 0.007524 0.011590 0.035032 -0.006680 -0.010611
# 5 -0.010439 -0.010969 -0.012492 -0.006680 0.042588 0.013233
# 6 -0.009458 -0.008771 -0.009434 -0.010611 0.013233 0.036898
#
#
# Mechanical properties :
#
#
# Convention : Reuss Voigt Hill
#
# Bulk Modulus (GPa) = 14.27490 36.25841 25.26666
# Shear Modulus (GPa) = 27.25246 35.83768 31.54507
#
# Velocity S-wave (km/s) = 3.54458 4.06473 3.81353
# Velocity P-wave (km/s) = 4.83044 6.22458 5.57129
#
# Compressibility (1/GPa) = 0.07005301
#
# Stress axis : x y z
#
# Youngs Moduli (GPa) = 65.89434 52.80088 42.17286
#
# Poissons Ratio (x) = -0.01799 -0.07069
# Poissons Ratio (y) = -0.02245 -0.17275
# Poissons Ratio (z) = -0.11044 -0.21629
#
# Static dielectric constant tensor:
#      x y z
#    x 1.795940 -0.010680 0.008910 
#    y -0.010680 1.758880 0.029250 
#    z 0.008910 0.029250 1.776730 
# 
# From -- ./inp_files/69759.got.cif
#   From: 2010.05.17/outbox.cif.g08.bks.cpg/sg2_35_cif.got.tgz:69759.got - 2010.06.03 11:33:40.
