data_PCOD9027146
_publ_section_title
;
Structure prediction by ZEFSAII (Michael W. Deem and Ramdas Pophale) SiO2 
 PCOD9027146
Probable space group: P -1
;
_chemical_formula_sum "Si O2"
_cell_formula_units_Z 16
_cell_length_a 11.731179
_cell_length_b 17.818517
_cell_length_c 9.744978
_cell_angle_alpha 37.470029
_cell_angle_beta 131.350762
_cell_angle_gamma 149.213869
_cell_volume 632.804312
_symmetry_space_group_name_H-M "P -1"
_symmetry_group_IT_number 2
_symmetry_cell_setting 'triclinic'
loop_
_space_group_symop_operation_xyz
x,y,z
-x,-y,-z
loop_
_atom_site_type_symbol
_atom_site_label
_atom_site_fract_x
_atom_site_fract_y
_atom_site_fract_z
Si Si1 0.885634 0.085269 0.004640
Si Si2 0.197242 0.592170 0.133223
Si Si3 0.639910 0.534432 0.691067
Si Si4 0.284509 0.905257 0.878348
Si Si5 0.697258 0.511208 0.356989
Si Si6 0.287723 0.878819 0.409542
Si Si7 0.940849 0.075841 0.637615
Si Si8 0.516138 0.225518 0.392596
O O1 0.089017 0.289075 0.817399
O O2 0.682892 0.023459 0.846156
O O3 0.860584 0.098744 0.126031
O O4 0.910373 0.957516 0.172791
O O5 0.351508 0.606040 0.127927
O O6 0.236436 0.529454 0.394718
O O7 0.201221 0.727777 0.010906
O O8 0.000000 0.500000 0.000000
O O9 0.500000 0.500000 0.500000
O O10 0.498717 0.507588 0.740646
O O11 0.889336 0.743584 0.587853
O O12 0.363796 0.035568 0.628019
O O13 0.500000 0.000000 0.000000
O O14 0.610235 0.373286 0.365123
O O15 0.500000 0.000000 0.500000
O O16 0.108692 0.848858 0.398054
O O17 0.278796 0.729502 0.575658
O O18 0.694436 0.861173 0.741834
#
# Coordination Sequence:
#
# PCOD9027146 Si02
#       8
#     2   2   2   2   2   2   2   2
#     4  12  26  44  70 101 142 186 233 292 352 419
#     4  11  24  43  73 105 136 181 235 290 347 415
#     4  10  23  43  68  98 137 177 229 285 346 413
#     4  12  24  45  73 101 135 188 235 285 354 422
#     4  11  25  46  68 104 142 185 231 292 354 414
#     4  10  22  41  66  99 134 173 227 290 346 407
#     4  11  25  44  72 103 137 188 236 291 351 422
#     4  11  24  46  72  99 139 185 241 287 350 428
#
# _framework density 25.284278
#
# number of rings (size 3 to 8) (size 9 to 14) (size 15 to 20)
#    0.000    1.000    2.500    3.375    1.750    8.500 
#    0.000    3.750    0.000    0.000    0.000    0.000 
#    0.000    0.000    0.000    0.000    0.000    0.000 
#
# Total GULP energy -89160.819923 kJ/mol
# GULP energy per Si atom -5572.551245 kJ/mol
# Density = 2.522673 g / cm^3
# Si number density = 25.284278 Si / 1000 Ang^3
#
#
#
# Elastic Constant Matrix: (Units=GPa)
#
#
# Indices 1 2 3 4 5 6 
#
# 1 184.5864 54.7224 35.5016 5.8792 28.5369 -10.2496
# 2 54.7224 122.3769 12.7897 -8.0767 22.4692 -26.4589
# 3 35.5016 12.7897 59.5270 -10.3316 14.5986 7.1993
# 4 5.8792 -8.0767 -10.3316 25.5568 6.3703 4.9859
# 5 28.5369 22.4692 14.5986 6.3703 42.2561 -2.8880
# 6 -10.2496 -26.4589 7.1993 4.9859 -2.8880 38.8631
#
#
#
# Elastic Compliance Matrix: (Units=1/GPa)
#
#
# Indices 1 2 3 4 5 6 
#
# 1 0.007481 -0.002583 -0.004499 -0.004306 -0.001373 0.001498
# 2 -0.002583 0.011885 0.000149 0.004356 -0.004841 0.006464
# 3 -0.004499 0.000149 0.025160 0.015008 -0.008564 -0.008308
# 4 -0.004306 0.004356 0.015008 0.052519 -0.013103 -0.008662
# 5 -0.001373 -0.004841 -0.008564 -0.013103 0.032238 0.002005
# 6 0.001498 0.006464 -0.008308 -0.008662 0.002005 0.033327
#
#
# Mechanical properties :
#
#
# Convention : Reuss Voigt Hill
#
# Bulk Modulus (GPa) = 32.61594 63.61309 48.11451
# Shear Modulus (GPa) = 26.78158 38.90030 32.84094
#
# Velocity S-wave (km/s) = 3.25809 3.92665 3.60789
# Velocity P-wave (km/s) = 5.20397 6.76549 6.03544
#
# Compressibility (1/GPa) = 0.03065986
#
# Stress axis : x y z
#
# Youngs Moduli (GPa) = 133.66890 84.13860 39.74588
#
# Poissons Ratio (x) = 0.21736 0.17880
# Poissons Ratio (y) = 0.34532 -0.00591
# Poissons Ratio (z) = 0.60131 -0.01252
#
# Static dielectric constant tensor:
#      x y z
#    x 2.037970 0.062030 -0.044410 
#    y 0.062030 1.934050 -0.066730 
#    z -0.044410 -0.066730 1.945090 
# 
# From -- ./inp_files/436569.got.cif
#   From: 2010.05.17/outbox.cif.g08.bks.cpg/sg2_219_cif.got.tgz:436569.got - 2010.06.03 11:33:40.
