data_PCOD9027514
_publ_section_title
;
Structure prediction by ZEFSAII (Michael W. Deem and Ramdas Pophale) SiO2 
 PCOD9027514
Probable space group: P -1
;
_chemical_formula_sum "Si O2"
_cell_formula_units_Z 12
_cell_length_a 25.379717
_cell_length_b 20.222453
_cell_length_c 5.361993
_cell_angle_alpha 59.472674
_cell_angle_beta 120.980218
_cell_angle_gamma 167.147473
_cell_volume 524.562847
_symmetry_space_group_name_H-M "P -1"
_symmetry_group_IT_number 2
_symmetry_cell_setting 'triclinic'
loop_
_space_group_symop_operation_xyz
x,y,z
-x,-y,-z
loop_
_atom_site_type_symbol
_atom_site_label
_atom_site_fract_x
_atom_site_fract_y
_atom_site_fract_z
Si Si1 0.842833 0.765218 0.366861
Si Si2 0.260707 0.795714 0.813359
Si Si3 0.335202 0.359989 0.220354
Si Si4 0.556023 0.179837 0.301858
Si Si5 0.476587 0.690909 0.185011
Si Si6 0.983926 0.350266 0.310346
O O1 0.695669 0.517713 0.594323
O O2 0.658482 0.606649 0.116647
O O3 0.000000 0.000000 0.500000
O O4 0.057333 0.999000 0.259561
O O5 0.103672 0.683404 0.672081
O O6 0.396283 0.959214 0.569128
O O7 0.095480 0.524220 0.000524
O O8 0.439570 0.017057 0.063880
O O9 0.500000 0.500000 0.500000
O O10 0.399697 0.520844 0.186553
O O11 0.814097 0.455126 0.439070
O O12 0.562765 0.280159 0.124569
O O13 0.750021 0.020595 0.302078
#
# Coordination Sequence:
#
# PCOD9027514 Si02
#       6
#     2   2   2   2   2   2
#     4   9  21  42  60  86 128 159 207 271 327 401
#     4  10  24  44  65  98 135 183 228 270 328 404
#     4  10  22  41  68  90 123 172 213 268 342 405
#     4  11  24  43  67  96 140 178 224 277 332 392
#     4  10  24  39  60  98 125 163 221 272 326 401
#     4  10  23  42  67  96 136 178 223 276 332 391
#
# _framework density 22.876190000000001
#
# number of rings (size 3 to 8) (size 9 to 14) (size 15 to 20)
#    0.000    2.000    0.000    1.000    4.667   16.667 
#    0.000    0.000    0.000    0.000    0.000    0.000 
#    0.000    0.000    0.000    0.000    0.000    0.000 
#
# Total GULP energy -67028.430806 kJ/mol
# GULP energy per Si atom -5585.702567 kJ/mol
# Density = 2.282412 g / cm^3
# Si number density = 22.876190 Si / 1000 Ang^3
#
#
#
# Elastic Constant Matrix: (Units=GPa)
#
#
# Indices 1 2 3 4 5 6 
#
# 1 41.8685 34.8611 36.3774 10.5823 15.8452 -2.8191
# 2 34.8611 173.4244 74.0870 11.0145 14.5494 -4.2747
# 3 36.3774 74.0870 129.1962 17.4955 7.2273 4.8745
# 4 10.5823 11.0145 17.4955 52.9026 4.6058 15.0216
# 5 15.8452 14.5494 7.2273 4.6058 34.0085 5.9881
# 6 -2.8191 -4.2747 4.8745 15.0216 5.9881 32.6911
#
#
#
# Elastic Compliance Matrix: (Units=1/GPa)
#
#
# Indices 1 2 3 4 5 6 
#
# 1 0.043380 -0.002535 -0.009259 -0.006680 -0.018226 0.011198
# 2 -0.002535 0.008153 -0.003895 -0.000282 -0.001772 0.001883
# 3 -0.009259 -0.003895 0.012604 -0.000853 0.004040 -0.003535
# 4 -0.006680 -0.000282 -0.000853 0.023735 0.002280 -0.011810
# 5 -0.018226 -0.001772 0.004040 0.002280 0.039365 -0.010664
# 6 0.011198 0.001883 -0.003535 -0.011810 -0.010664 0.039708
#
#
# Mechanical properties :
#
#
# Convention : Reuss Voigt Hill
#
# Bulk Modulus (GPa) = 30.52663 70.57112 50.54887
# Shear Modulus (GPa) = 23.89579 37.19802 30.54691
#
# Velocity S-wave (km/s) = 3.23549 4.03682 3.65816
# Velocity P-wave (km/s) = 5.22791 7.25562 6.32357
#
# Compressibility (1/GPa) = 0.03275829
#
# Stress axis : x y z
#
# Youngs Moduli (GPa) = 23.05207 122.65744 79.34239
#
# Poissons Ratio (x) = 0.31098 0.73461
# Poissons Ratio (y) = 0.05844 0.30904
# Poissons Ratio (z) = 0.21343 0.47775
#
# Static dielectric constant tensor:
#      x y z
#    x 1.960070 0.054100 -0.102690 
#    y 0.054100 1.855410 -0.016080 
#    z -0.102690 -0.016080 1.973180 
# 
# From -- ./inp_files/32349.got.cif
#   From: 2010.05.17/outbox.cif.g08.bks.cpg/sg2_17_cif.got.tgz:32349.got - 2010.06.03 11:33:40.
