data_PCOD9027830
_publ_section_title
;
Structure prediction by ZEFSAII (Michael W. Deem and Ramdas Pophale) SiO2 
 PCOD9027830
Probable space group: P -1
;
_chemical_formula_sum "Si O2"
_cell_formula_units_Z 16
_cell_length_a 12.084635
_cell_length_b 8.616332
_cell_length_c 13.996378
_cell_angle_alpha 98.080661
_cell_angle_beta 124.554077
_cell_angle_gamma 127.366923
_cell_volume 640.946012
_symmetry_space_group_name_H-M "P -1"
_symmetry_group_IT_number 2
_symmetry_cell_setting 'triclinic'
loop_
_space_group_symop_operation_xyz
x,y,z
-x,-y,-z
loop_
_atom_site_type_symbol
_atom_site_label
_atom_site_fract_x
_atom_site_fract_y
_atom_site_fract_z
Si Si1 0.225627 0.313070 0.497940
Si Si2 0.682294 0.297306 0.164836
Si Si3 0.148865 0.541554 0.382604
Si Si4 0.208916 0.051320 0.207651
Si Si5 0.852734 0.718832 0.152679
Si Si6 0.531509 0.661878 0.231561
Si Si7 0.887571 0.688117 0.846975
Si Si8 0.708886 0.186780 0.355284
O O1 0.085359 0.336239 0.406313
O O2 0.497827 0.625784 0.612754
O O3 0.292227 0.298450 0.631323
O O4 0.048402 0.017191 0.331869
O O5 0.698112 0.477073 0.137301
O O6 0.602343 0.204340 0.227507
O O7 0.947450 0.479907 0.285288
O O8 0.500000 0.000000 0.000000
O O9 0.155841 0.472868 0.275475
O O10 0.369609 0.840765 0.577957
O O11 0.093767 0.114970 0.164332
O O12 0.048456 0.809207 0.190489
O O13 0.123494 0.897656 0.050829
O O14 0.636498 0.558877 0.958592
O O15 0.346785 0.528425 0.216045
O O16 0.650246 0.947024 0.289303
O O17 0.000000 0.500000 0.500000
#
# Coordination Sequence:
#
# PCOD9027830 Si02
#       8
#     2   2   2   2   2   2   2   2
#     4  11  22  38  68 103 136 166 211 274 336 393
#     4  11  24  47  70  82 128 188 228 268 330 384
#     4  11  24  40  66 101 134 163 225 281 326 392
#     4   9  19  37  65  98 143 174 197 262 344 408
#     4  11  21  42  69  97 125 183 224 252 329 407
#     4  10  22  41  69  96 134 183 210 264 339 402
#     4   9  19  38  64 103 136 166 216 263 336 409
#     4  10  22  45  63  89 127 181 231 265 324 389
#
# _framework density 24.963101000000002
#
# number of rings (size 3 to 8) (size 9 to 14) (size 15 to 20)
#    0.000    1.750    2.500    2.625    1.750    1.500 
#    2.250    7.500    0.000    0.000    0.000    0.000 
#    0.000    0.000    0.000    0.000    0.000    0.000 
#
# Total GULP energy -89114.372999 kJ/mol
# GULP energy per Si atom -5569.648312 kJ/mol
# Density = 2.490628 g / cm^3
# Si number density = 24.963101 Si / 1000 Ang^3
#
#
#
# Elastic Constant Matrix: (Units=GPa)
#
#
# Indices 1 2 3 4 5 6 
#
# 1 63.9602 1.7542 11.7988 -10.7382 -13.7133 1.6678
# 2 1.7542 110.4425 33.6610 -1.9008 9.7245 8.6913
# 3 11.7988 33.6610 121.6836 -6.1963 -31.3191 6.3195
# 4 -10.7382 -1.9008 -6.1963 40.2877 6.0647 2.6632
# 5 -13.7133 9.7245 -31.3191 6.0647 25.8788 -1.9222
# 6 1.6678 8.6913 6.3195 2.6632 -1.9222 13.1296
#
#
#
# Elastic Compliance Matrix: (Units=1/GPa)
#
#
# Indices 1 2 3 4 5 6 
#
# 1 0.018503 -0.001851 0.002066 0.003405 0.012126 -0.001035
# 2 -0.001851 0.013184 -0.006909 0.001887 -0.015318 -0.007792
# 3 0.002066 -0.006909 0.015800 -0.000827 0.023025 0.000245
# 4 0.003405 0.001887 -0.000827 0.027242 -0.006871 -0.007815
# 5 0.012126 -0.015318 0.023025 -0.006871 0.081100 0.010784
# 6 -0.001035 -0.007792 0.000245 -0.007815 0.010784 0.084499
#
#
# Mechanical properties :
#
#
# Convention : Reuss Voigt Hill
#
# Bulk Modulus (GPa) = 29.32683 43.39048 36.35866
# Shear Modulus (GPa) = 18.86194 32.45072 25.65633
#
# Velocity S-wave (km/s) = 2.75179 3.60939 3.20936
# Velocity P-wave (km/s) = 4.67654 5.89829 5.32259
#
# Compressibility (1/GPa) = 0.03409847
#
# Stress axis : x y z
#
# Youngs Moduli (GPa) = 54.04557 75.84835 63.28923
#
# Poissons Ratio (x) = 0.14042 -0.13077
# Poissons Ratio (y) = 0.10005 0.43729
# Poissons Ratio (z) = -0.11167 0.52407
#
# Static dielectric constant tensor:
#      x y z
#    x 2.066960 0.072670 -0.053820 
#    y 0.072670 2.172870 -0.080040 
#    z -0.053820 -0.080040 2.040430 
# 
# From -- ./inp_files/528635.got.cif
#   From: 2010.05.17/outbox.cif.g08.bks.cpg/sg2_265_cif.got.tgz:528635.got - 2010.06.03 11:33:40.
