data_PCOD9027839
_publ_section_title
;
Structure prediction by ZEFSAII (Michael W. Deem and Ramdas Pophale) SiO2 
 PCOD9027839
Probable space group: P -1
;
_chemical_formula_sum "Si O2"
_cell_formula_units_Z 16
_cell_length_a 8.467953
_cell_length_b 15.368793
_cell_length_c 6.745045
_cell_angle_alpha 89.182136
_cell_angle_beta 80.277617
_cell_angle_gamma 128.669821
_cell_volume 667.284399
_symmetry_space_group_name_H-M "P -1"
_symmetry_group_IT_number 2
_symmetry_cell_setting 'triclinic'
loop_
_space_group_symop_operation_xyz
x,y,z
-x,-y,-z
loop_
_atom_site_type_symbol
_atom_site_label
_atom_site_fract_x
_atom_site_fract_y
_atom_site_fract_z
Si Si1 0.355445 0.701650 0.625416
Si Si2 0.135101 0.739861 0.006026
Si Si3 0.294077 0.307646 0.994962
Si Si4 0.214931 0.964526 0.514870
Si Si5 0.083020 0.455281 0.627654
Si Si6 0.384775 0.470259 0.319961
Si Si7 0.235261 0.130699 0.252844
Si Si8 0.384958 0.853155 0.317492
O O1 0.268249 0.575758 0.680172
O O2 0.596431 0.780421 0.625776
O O3 0.339031 0.740465 0.412362
O O4 0.238790 0.729092 0.795963
O O5 0.323398 0.840251 0.101069
O O6 0.035055 0.629526 0.166008
O O7 0.938833 0.737459 0.011365
O O8 0.355716 0.382030 0.177697
O O9 0.293866 0.203714 0.038607
O O10 0.480094 0.404899 0.810684
O O11 0.238938 0.872856 0.457370
O O12 0.992682 0.914320 0.645968
O O13 0.242733 0.030352 0.302575
O O14 0.387915 0.045656 0.644216
O O15 0.156991 0.412091 0.451041
O O16 0.000000 0.500000 0.500000
O O17 0.500000 0.500000 0.500000
#
# Coordination Sequence:
#
# PCOD9027839 Si02
#       8
#     2   2   2   2   2   2   2   2
#     4  11  24  41  64  99 135 172 224 275 326 401
#     4  12  25  41  65  98 134 182 220 271 336 395
#     4  11  25  41  68  98 137 177 223 274 324 406
#     4   9  21  45  72  96 128 171 229 282 343 391
#     4  12  24  40  65  96 136 182 219 266 327 403
#     4  11  24  44  63  97 137 184 222 263 330 397
#     4  10  22  41  69  97 128 172 215 284 333 385
#     4  10  22  45  70  93 129 177 218 281 342 398
#
# _framework density 23.977782000000001
#
# number of rings (size 3 to 8) (size 9 to 14) (size 15 to 20)
#    0.000    1.250    2.500    2.625    5.250    1.000 
#    0.000   13.750    0.000    0.000    0.000    0.000 
#    0.000    0.000    0.000    0.000    0.000    0.000 
#
# Total GULP energy -89274.291162 kJ/mol
# GULP energy per Si atom -5579.643198 kJ/mol
# Density = 2.392321 g / cm^3
# Si number density = 23.977782 Si / 1000 Ang^3
#
#
#
# Elastic Constant Matrix: (Units=GPa)
#
#
# Indices 1 2 3 4 5 6 
#
# 1 85.6984 31.4871 17.7172 4.1995 32.4177 17.2094
# 2 31.4871 67.3942 20.3468 -10.9173 6.2263 0.6863
# 3 17.7172 20.3468 88.3425 -1.1188 18.0757 -2.6770
# 4 4.1995 -10.9173 -1.1188 31.8054 -3.4025 11.9747
# 5 32.4177 6.2263 18.0757 -3.4025 38.6261 -1.1128
# 6 17.2094 0.6863 -2.6770 11.9747 -1.1128 32.3762
#
#
#
# Elastic Compliance Matrix: (Units=1/GPa)
#
#
# Indices 1 2 3 4 5 6 
#
# 1 0.026809 -0.011576 0.001356 -0.005009 -0.022079 -0.012799
# 2 -0.011576 0.022210 -0.004471 0.009120 0.009096 0.002252
# 3 0.001356 -0.004471 0.013496 -0.002409 -0.006912 0.001144
# 4 -0.005009 0.009120 -0.002409 0.040615 0.007078 -0.012509
# 5 -0.022079 0.009096 -0.006912 0.007078 0.047098 0.009972
# 6 -0.012799 0.002252 0.001144 -0.012509 0.009972 0.042706
#
#
# Mechanical properties :
#
#
# Convention : Reuss Voigt Hill
#
# Bulk Modulus (GPa) = 30.18179 42.28193 36.23186
# Shear Modulus (GPa) = 21.42591 32.02049 26.72320
#
# Velocity S-wave (km/s) = 2.99251 3.65831 3.34203
# Velocity P-wave (km/s) = 4.95529 5.95956 5.48048
#
# Compressibility (1/GPa) = 0.03313256
#
# Stress axis : x y z
#
# Youngs Moduli (GPa) = 37.30057 45.02380 74.09676
#
# Poissons Ratio (x) = 0.52120 -0.10045
# Poissons Ratio (y) = 0.43179 0.33130
# Poissons Ratio (z) = -0.05057 0.20131
#
# Static dielectric constant tensor:
#      x y z
#    x 1.994040 0.090900 0.049340 
#    y 0.090900 2.064440 0.013280 
#    z 0.049340 0.013280 1.912110 
# 
# From -- ./inp_files/47478.got.cif
#   From: 2010.05.17/outbox.cif.g08.bks.cpg/sg2_24_cif.got.tgz:47478.got - 2010.06.03 11:33:40.
