data_PCOD9027129
_publ_section_title
;
Structure prediction by ZEFSAII (Michael W. Deem and Ramdas Pophale) SiO2 
 PCOD9027129
Probable space group: P -1
;
_chemical_formula_sum "Si O2"
_cell_formula_units_Z 16
_cell_length_a 14.333782
_cell_length_b 5.371065
_cell_length_c 23.079627
_cell_angle_alpha 115.785632
_cell_angle_beta 29.723899
_cell_angle_gamma 124.047384
_cell_volume 724.279978
_symmetry_space_group_name_H-M "P -1"
_symmetry_group_IT_number 2
_symmetry_cell_setting 'triclinic'
loop_
_space_group_symop_operation_xyz
x,y,z
-x,-y,-z
loop_
_atom_site_type_symbol
_atom_site_label
_atom_site_fract_x
_atom_site_fract_y
_atom_site_fract_z
Si Si1 0.686513 0.403842 0.399992
Si Si2 0.528314 0.341916 0.123500
Si Si3 0.849629 0.533313 0.502890
Si Si4 0.942540 0.715380 0.200229
Si Si5 0.636270 0.763596 0.996583
Si Si6 0.079926 0.362130 0.996444
Si Si7 0.938080 0.860342 0.612260
Si Si8 0.533621 0.758252 0.381280
O O1 0.500000 0.500000 0.500000
O O2 0.899416 0.646594 0.284993
O O3 0.642224 0.300333 0.479692
O O4 0.640759 0.116331 0.354730
O O5 0.288612 0.256891 0.251743
O O6 0.611244 0.596240 0.054591
O O7 0.672409 0.486595 0.116141
O O8 0.554441 0.030475 0.065737
O O9 0.913785 0.701458 0.546553
O O10 0.605245 0.415547 0.614417
O O11 0.916815 0.253472 0.439899
O O12 0.964858 0.784470 0.417769
O O13 0.009697 0.484870 0.104810
O O14 0.721895 0.676453 0.289359
O O15 0.121120 0.050161 0.129475
O O16 0.500000 0.500000 0.000000
O O17 0.000000 0.500000 0.000000
O O18 0.000000 0.000000 0.000000
#
# Coordination Sequence:
#
# PCOD9027129 Si02
#       8
#     2   2   2   2   2   2   2   2
#     4   9  21  41  60  97 131 168 217 272 332 398
#     4  11  24  46  66  96 139 167 231 276 321 407
#     4  10  23  41  68  94 132 170 220 262 332 392
#     4  10  24  41  68  95 140 169 221 282 329 397
#     4  11  25  46  68  98 130 179 224 274 335 395
#     4  11  25  42  66 103 130 175 224 271 338 398
#     4  10  23  44  62  97 131 172 216 272 316 393
#     4  10  22  41  66  98 132 172 218 271 339 395
#
# _framework density 22.090903000000001
#
# number of rings (size 3 to 8) (size 9 to 14) (size 15 to 20)
#    0.000    1.750    0.000    2.625   10.500    1.000 
#   13.500    0.000    0.000    0.000    0.000    0.000 
#    0.000    0.000    0.000    0.000    0.000    0.000 
#
# Total GULP energy -89311.657040 kJ/mol
# GULP energy per Si atom -5581.978565 kJ/mol
# Density = 2.204062 g / cm^3
# Si number density = 22.090903 Si / 1000 Ang^3
#
#
#
# Elastic Constant Matrix: (Units=GPa)
#
#
# Indices 1 2 3 4 5 6 
#
# 1 76.5551 34.1165 37.9574 -19.4291 -13.2447 -13.7442
# 2 34.1165 116.9793 41.1566 -18.1981 3.6580 -12.7237
# 3 37.9574 41.1566 123.7060 -27.0745 -3.4562 -14.1332
# 4 -19.4291 -18.1981 -27.0745 29.0104 -1.0473 -2.0639
# 5 -13.2447 3.6580 -3.4562 -1.0473 30.2657 -11.4581
# 6 -13.7442 -12.7237 -14.1332 -2.0639 -11.4581 42.5552
#
#
#
# Elastic Compliance Matrix: (Units=1/GPa)
#
#
# Indices 1 2 3 4 5 6 
#
# 1 0.023185 -0.003507 -0.001403 0.013312 0.014894 0.010629
# 2 -0.003507 0.010835 -0.001930 0.002615 -0.002640 0.000882
# 3 -0.001403 -0.001930 0.011704 0.009162 0.002809 0.004057
# 4 0.013312 0.002615 0.009162 0.055118 0.013975 0.014560
# 5 0.014894 -0.002640 0.002809 0.013975 0.047674 0.018468
# 6 0.010629 0.000882 0.004057 0.014560 0.018468 0.034222
#
#
# Mechanical properties :
#
#
# Convention : Reuss Voigt Hill
#
# Bulk Modulus (GPa) = 31.20628 60.41127 45.80878
# Shear Modulus (GPa) = 24.14320 33.96692 29.05506
#
# Velocity S-wave (km/s) = 3.30949 3.92548 3.63057
# Velocity P-wave (km/s) = 5.36289 6.92473 6.19324
#
# Compressibility (1/GPa) = 0.03204483
#
# Stress axis : x y z
#
# Youngs Moduli (GPa) = 43.13198 92.28958 85.44439
#
# Poissons Ratio (x) = 0.32363 0.11989
# Poissons Ratio (y) = 0.15125 0.16487
# Poissons Ratio (z) = 0.06052 0.17808
#
# Static dielectric constant tensor:
#      x y z
#    x 1.916530 0.019640 -0.000030 
#    y 0.019640 1.801860 -0.004320 
#    z -0.000030 -0.004320 1.837370 
# 
# From -- ./inp_files/611202.got.cif
#   From: 2010.05.17/outbox.cif.g08.bks.cpg/sg2_306_cif.got.tgz:611202.got - 2010.06.03 11:33:40.
