data_PCOD9027426
_publ_section_title
;
Structure prediction by ZEFSAII (Michael W. Deem and Ramdas Pophale) SiO2 
 PCOD9027426
Probable space group: P -1
;
_chemical_formula_sum "Si O2"
_cell_formula_units_Z 15
_cell_length_a 9.250651
_cell_length_b 10.048126
_cell_length_c 16.322395
_cell_angle_alpha 31.810505
_cell_angle_beta 126.429638
_cell_angle_gamma 128.416147
_cell_volume 618.600393
_symmetry_space_group_name_H-M "P -1"
_symmetry_group_IT_number 2
_symmetry_cell_setting 'triclinic'
loop_
_space_group_symop_operation_xyz
x,y,z
-x,-y,-z
loop_
_atom_site_type_symbol
_atom_site_label
_atom_site_fract_x
_atom_site_fract_y
_atom_site_fract_z
Si Si1 0.595683 0.062561 0.588368
Si Si2 0.500000 0.000000 0.000000
Si Si3 0.726899 0.573313 0.866393
Si Si4 0.635584 0.304281 0.724563
Si Si5 0.063925 0.645319 0.815888
Si Si6 0.681371 0.615134 0.259860
Si Si7 0.314218 0.130455 0.581508
Si Si8 0.008083 0.287669 0.823031
O O1 0.677506 0.378339 0.444685
O O2 0.431168 0.985713 0.639609
O O3 0.500000 0.000000 0.500000
O O4 0.723396 0.864451 0.740726
O O5 0.618434 0.124090 0.891868
O O6 0.316260 0.104098 0.849745
O O7 0.525603 0.425936 0.833784
O O8 0.885275 0.591191 0.842694
O O9 0.772228 0.413239 0.042101
O O10 0.443617 0.233260 0.648866
O O11 0.693841 0.612206 0.605083
O O12 0.797542 0.275451 0.732454
O O13 0.045506 0.467161 0.822477
O O14 0.124065 0.941633 0.648215
O O15 0.837927 0.620190 0.243051
O O16 0.000000 0.000000 0.000000
#
# Coordination Sequence:
#
# PCOD9027426 Si02
#       8
#     2   1   2   2   2   2   2   2
#     4  10  22  41  68 100 133 181 232 282 348 412
#     4  12  20  42  70  94 144 184 218 274 350 422
#     4  10  24  43  68 101 135 181 235 290 350 414
#     4  11  26  46  71 106 144 181 232 290 354 415
#     4  11  25  44  71 100 138 183 236 291 348 417
#     4  11  23  42  67  99 134 186 225 285 351 413
#     4  11  25  47  72 104 140 184 234 294 348 412
#     4  12  27  43  68 105 134 182 236 286 350 420
#
# _framework density 24.248287000000001
#
# number of rings (size 3 to 8) (size 9 to 14) (size 15 to 20)
#    0.000    1.067    2.667    3.200    5.600    2.667 
#    0.000    0.667    0.000    0.000    0.000    0.000 
#    0.000    0.000    0.000    0.000    0.000    0.000 
#
# Total GULP energy -83722.455198 kJ/mol
# GULP energy per Si atom -5581.497013 kJ/mol
# Density = 2.419310 g / cm^3
# Si number density = 24.248287 Si / 1000 Ang^3
#
#
#
# Elastic Constant Matrix: (Units=GPa)
#
#
# Indices 1 2 3 4 5 6 
#
# 1 155.9715 3.3156 14.6553 -5.2083 -12.4795 11.8419
# 2 3.3156 48.8677 18.0965 -4.5489 -12.0780 10.4312
# 3 14.6553 18.0965 115.1498 -3.5165 -14.8789 7.0153
# 4 -5.2083 -4.5489 -3.5165 27.1707 1.8365 -2.4451
# 5 -12.4795 -12.0780 -14.8789 1.8365 46.5513 -5.0270
# 6 11.8419 10.4312 7.0153 -2.4451 -5.0270 30.9387
#
#
#
# Elastic Compliance Matrix: (Units=1/GPa)
#
#
# Indices 1 2 3 4 5 6 
#
# 1 0.006790 0.000745 -0.000608 0.001030 0.001521 -0.002384
# 2 0.000745 0.024365 -0.002800 0.002920 0.004770 -0.006859
# 3 -0.000608 -0.002800 0.009520 0.000452 0.002070 -0.000610
# 4 0.001030 0.002920 0.000452 0.037692 -0.000150 0.001473
# 5 0.001521 0.004770 0.002070 -0.000150 0.023926 0.001216
# 6 -0.002384 -0.006859 -0.000610 0.001473 0.001216 0.035999
#
#
# Mechanical properties :
#
#
# Convention : Reuss Voigt Hill
#
# Bulk Modulus (GPa) = 28.29004 43.56931 35.92968
# Shear Modulus (GPa) = 32.17478 39.86025 36.01752
#
# Velocity S-wave (km/s) = 3.64660 4.05883 3.85822
# Velocity P-wave (km/s) = 5.42424 6.32237 5.89045
#
# Compressibility (1/GPa) = 0.03534813
#
# Stress axis : x y z
#
# Youngs Moduli (GPa) = 147.27973 41.04272 105.03975
#
# Poissons Ratio (x) = -0.03058 0.06387
# Poissons Ratio (y) = -0.10974 0.29416
# Poissons Ratio (z) = 0.08955 0.11494
#
# Static dielectric constant tensor:
#      x y z
#    x 1.915210 0.076790 -0.016120 
#    y 0.076790 1.774130 0.232940 
#    z -0.016120 0.232940 1.677900 
# 
# From -- ./inp_files/237595.got.cif
#   From: 2010.05.17/outbox.cif.g08.bks.cpg/sg2_119_cif.got.tgz:237595.got - 2010.06.03 11:33:40.
