data_PCOD9027240
_publ_section_title
;
Structure prediction by ZEFSAII (Michael W. Deem and Ramdas Pophale) SiO2 
 PCOD9027240
Probable space group: P -1
;
_chemical_formula_sum "Si O2"
_cell_formula_units_Z 16
_cell_length_a 9.089433
_cell_length_b 9.036325
_cell_length_c 23.927828
_cell_angle_alpha 28.747622
_cell_angle_beta 126.239850
_cell_angle_gamma 117.210116
_cell_volume 752.868246
_symmetry_space_group_name_H-M "P -1"
_symmetry_group_IT_number 2
_symmetry_cell_setting 'triclinic'
loop_
_space_group_symop_operation_xyz
x,y,z
-x,-y,-z
loop_
_atom_site_type_symbol
_atom_site_label
_atom_site_fract_x
_atom_site_fract_y
_atom_site_fract_z
Si Si1 0.087318 0.838830 0.629916
Si Si2 0.583192 0.892948 0.831474
Si Si3 0.738373 0.804506 0.159791
Si Si4 0.987084 0.274651 0.016794
Si Si5 0.944531 0.797118 0.324893
Si Si6 0.738137 0.645489 0.432279
Si Si7 0.036189 0.574186 0.816612
Si Si8 0.552703 0.747192 0.998703
O O1 0.236611 0.541251 0.744575
O O2 0.963754 0.703339 0.696304
O O3 0.177474 0.097179 0.597832
O O4 0.000000 0.000000 0.500000
O O5 0.800356 0.893094 0.883237
O O6 0.507126 0.867531 0.885672
O O7 0.472127 0.197101 0.675881
O O8 0.540364 0.561559 0.907342
O O9 0.856331 0.776823 0.252481
O O10 0.535815 0.975161 0.073700
O O11 0.845972 0.038736 0.073040
O O12 0.936241 0.419957 0.895380
O O13 0.000000 0.500000 0.000000
O O14 0.832108 0.606753 0.404850
O O15 0.165317 0.675865 0.412030
O O16 0.911968 0.134460 0.233368
O O17 0.228279 0.353495 0.919214
#
# Coordination Sequence:
#
# PCOD9027240 Si02
#       8
#     2   2   2   2   2   2   2   2
#     4  11  23  37  56  83 118 148 192 241 272 330
#     4  10  17  33  55  85 115 140 184 249 282 314
#     4  12  21  34  57  89 115 152 186 223 293 345
#     4  11  21  34  59  87 119 147 183 235 287 348
#     4  10  17  31  59  83 105 140 198 232 272 324
#     4  10  19  34  56  86 109 144 190 243 278 317
#     4  10  21  38  57  88 117 148 184 238 290 330
#     4  10  17  31  57  86 113 137 188 246 275 323
#
# _framework density 21.252058999999999
#
# number of rings (size 3 to 8) (size 9 to 14) (size 15 to 20)
#    0.000    1.500    7.500    0.750    0.000    1.000 
#    0.000    0.625    0.000    0.000    0.000   14.875 
#    0.000    0.000    0.000    0.000    0.000    0.000 
#
# Total GULP energy -89108.585899 kJ/mol
# GULP energy per Si atom -5569.286619 kJ/mol
# Density = 2.120369 g / cm^3
# Si number density = 21.252059 Si / 1000 Ang^3
#
#
#
# Elastic Constant Matrix: (Units=GPa)
#
#
# Indices 1 2 3 4 5 6 
#
# 1 70.1149 22.4144 37.3502 0.0296 3.2979 -13.2993
# 2 22.4144 76.3524 38.2789 10.3767 -5.1142 -29.2279
# 3 37.3502 38.2789 78.0850 13.2195 9.0466 -23.3971
# 4 0.0296 10.3767 13.2195 34.4664 -12.6881 -0.2751
# 5 3.2979 -5.1142 9.0466 -12.6881 31.7559 1.5286
# 6 -13.2993 -29.2279 -23.3971 -0.2751 1.5286 28.2838
#
#
#
# Elastic Compliance Matrix: (Units=1/GPa)
#
#
# Indices 1 2 3 4 5 6 
#
# 1 0.019937 -0.001583 -0.010254 0.005417 0.002801 -0.000843
# 2 -0.001583 0.024574 -0.004677 -0.004451 0.002685 0.020593
# 3 -0.010254 -0.004677 0.028532 -0.014709 -0.014395 0.014582
# 4 0.005417 -0.004451 -0.014709 0.043624 0.021060 -0.014934
# 5 0.002801 0.002685 -0.014395 0.021060 0.044630 -0.010024
# 6 -0.000843 0.020593 0.014582 -0.014934 -0.010024 0.068700
#
#
# Mechanical properties :
#
#
# Convention : Reuss Voigt Hill
#
# Bulk Modulus (GPa) = 24.99086 46.73770 35.86428
# Shear Modulus (GPa) = 18.09209 27.33514 22.71361
#
# Velocity S-wave (km/s) = 2.92089 3.59030 3.27276
# Velocity P-wave (km/s) = 4.81251 6.26313 5.58512
#
# Compressibility (1/GPa) = 0.04001463
#
# Stress axis : x y z
#
# Youngs Moduli (GPa) = 50.15785 40.69274 35.04874
#
# Poissons Ratio (x) = 0.06441 0.35941
# Poissons Ratio (y) = 0.07940 0.16392
# Poissons Ratio (z) = 0.51434 0.19031
#
# Static dielectric constant tensor:
#      x y z
#    x 1.796180 -0.029580 -0.035040 
#    y -0.029580 1.781040 0.036910 
#    z -0.035040 0.036910 1.912540 
# 
# From -- ./inp_files/392472.got.cif
#   From: 2010.05.17/outbox.cif.g08.bks.cpg/sg2_197_cif.got.tgz:392472.got - 2010.06.03 11:33:40.
