data_PCOD9027995
_publ_section_title
;
Structure prediction by ZEFSAII (Michael W. Deem and Ramdas Pophale) SiO2 
 PCOD9027995
Probable space group: P -1
;
_chemical_formula_sum "Si O2"
_cell_formula_units_Z 14
_cell_length_a 12.243938
_cell_length_b 9.509114
_cell_length_c 21.220203
_cell_angle_alpha 151.654076
_cell_angle_beta 144.522170
_cell_angle_gamma 34.379389
_cell_volume 625.702753
_symmetry_space_group_name_H-M "P -1"
_symmetry_group_IT_number 2
_symmetry_cell_setting 'triclinic'
loop_
_space_group_symop_operation_xyz
x,y,z
-x,-y,-z
loop_
_atom_site_type_symbol
_atom_site_label
_atom_site_fract_x
_atom_site_fract_y
_atom_site_fract_z
Si Si1 0.302690 0.220356 0.033614
Si Si2 0.972277 0.377800 0.638809
Si Si3 0.002462 0.681284 0.971904
Si Si4 0.001087 0.304167 0.485135
Si Si5 0.580988 0.237930 0.265008
Si Si6 0.271181 0.578629 0.346574
Si Si7 0.298256 0.475662 0.924765
O O1 0.403665 0.416042 0.201573
O O2 0.176310 0.091619 0.973929
O O3 0.146156 0.429146 0.990104
O O4 0.500000 0.000000 0.000000
O O5 0.148840 0.436669 0.784654
O O6 0.971807 0.488209 0.610682
O O7 0.768600 0.520086 0.641407
O O8 0.000000 0.000000 0.500000
O O9 0.158153 0.732169 0.013270
O O10 0.876564 0.534838 0.810725
O O11 0.799339 0.233677 0.353608
O O12 0.000000 0.500000 0.500000
O O13 0.191526 0.962308 0.449674
O O14 0.496767 0.392462 0.353522
O O15 0.612274 0.868584 0.134769
O O16 0.500000 0.500000 0.000000
#
# Coordination Sequence:
#
# PCOD9027995 Si02
#       7
#     2   2   2   2   2   2   2
#     4  10  17  31  60  82 112 161 197 236 313 362
#     4   9  18  41  63  83 122 166 201 253 307 365
#     4   9  18  34  54  83 120 156 194 248 301 371
#     4  11  22  39  63  89 122 155 202 258 309 367
#     4  11  21  37  63  85 119 165 203 257 307 365
#     4   9  19  38  63  86 117 159 208 251 309 363
#     4  11  21  38  62  90 125 164 212 258 302 366
#
# _framework density 22.374841
#
# number of rings (size 3 to 8) (size 9 to 14) (size 15 to 20)
#    0.000    2.000    5.714    0.000    0.000    2.286 
#    2.571    6.429    6.286    0.000    0.000    0.000 
#    0.000    0.000    0.000    0.000    0.000    0.000 
#
# Total GULP energy -77942.480232 kJ/mol
# GULP energy per Si atom -5567.320017 kJ/mol
# Density = 2.232392 g / cm^3
# Si number density = 22.374841 Si / 1000 Ang^3
#
#
#
# Elastic Constant Matrix: (Units=GPa)
#
#
# Indices 1 2 3 4 5 6 
#
# 1 226.9874 47.7986 45.6208 6.3656 -7.3877 -8.0236
# 2 47.7986 54.4142 6.5306 -2.3017 1.0979 10.7066
# 3 45.6208 6.5306 46.9151 -15.2767 7.1476 10.8251
# 4 6.3656 -2.3017 -15.2767 22.4930 0.9759 -13.5119
# 5 -7.3877 1.0979 7.1476 0.9759 36.2337 -12.7428
# 6 -8.0236 10.7066 10.8251 -13.5119 -12.7428 43.9819
#
#
#
# Elastic Compliance Matrix: (Units=1/GPa)
#
#
# Indices 1 2 3 4 5 6 
#
# 1 0.009917 -0.008891 -0.014308 -0.009711 0.007752 0.006758
# 2 -0.008891 0.027646 0.010875 0.006028 -0.009114 -0.011817
# 3 -0.014308 0.010875 0.050009 0.032064 -0.018582 -0.013099
# 4 -0.009711 0.006028 0.032064 0.076041 -0.006942 0.010219
# 5 0.007752 -0.009114 -0.018582 -0.006942 0.039465 0.017508
# 6 0.006758 -0.011817 -0.013099 0.010219 0.017508 0.038282
#
#
# Mechanical properties :
#
#
# Convention : Reuss Voigt Hill
#
# Bulk Modulus (GPa) = 15.89192 58.69077 37.29135
# Shear Modulus (GPa) = 17.42263 35.76614 26.59438
#
# Velocity S-wave (km/s) = 2.79349 4.00246 3.45133
# Velocity P-wave (km/s) = 4.18603 6.90270 5.70833
#
# Compressibility (1/GPa) = 0.06292505
#
# Stress axis : x y z
#
# Youngs Moduli (GPa) = 100.83702 36.17115 19.99631
#
# Poissons Ratio (x) = 0.32159 0.28611
# Poissons Ratio (y) = 0.89653 -0.21747
# Poissons Ratio (z) = 1.44280 -0.39337
#
# Static dielectric constant tensor:
#      x y z
#    x 1.992710 0.034980 -0.032520 
#    y 0.034980 1.890390 0.025550 
#    z -0.032520 0.025550 1.906100 
# 
# From -- ./inp_files/315805.got.cif
#   From: 2010.05.17/outbox.cif.g08.bks.cpg/sg2_158_cif.got.tgz:315805.got - 2010.06.03 11:33:40.
