data_PCOD9027618
_publ_section_title
;
Structure prediction by ZEFSAII (Michael W. Deem and Ramdas Pophale) SiO2 
 PCOD9027618
Probable space group: P -1
;
_chemical_formula_sum "Si O2"
_cell_formula_units_Z 14
_cell_length_a 5.235407
_cell_length_b 11.767984
_cell_length_c 17.950570
_cell_angle_alpha 136.072674
_cell_angle_beta 129.338435
_cell_angle_gamma 59.553653
_cell_volume 590.793394
_symmetry_space_group_name_H-M "P -1"
_symmetry_group_IT_number 2
_symmetry_cell_setting 'triclinic'
loop_
_space_group_symop_operation_xyz
x,y,z
-x,-y,-z
loop_
_atom_site_type_symbol
_atom_site_label
_atom_site_fract_x
_atom_site_fract_y
_atom_site_fract_z
Si Si1 0.230091 0.193250 0.690864
Si Si2 0.398339 0.491925 0.062560
Si Si3 0.772555 0.009721 0.619795
Si Si4 0.467849 0.877796 0.047651
Si Si5 0.904873 0.613196 0.607352
Si Si6 0.863600 0.293535 0.521306
Si Si7 0.019464 0.951789 0.854065
O O1 0.418544 0.357742 0.800175
O O2 0.536469 0.055400 0.667550
O O3 0.017614 0.143968 0.699757
O O4 0.973539 0.213946 0.583372
O O5 0.500000 0.500000 0.000000
O O6 0.542364 0.315008 0.035279
O O7 0.000000 0.500000 0.000000
O O8 0.500000 0.000000 0.500000
O O9 0.971901 0.831318 0.569377
O O10 0.834447 0.918769 0.112911
O O11 0.244406 0.933221 0.961321
O O12 0.331211 0.978230 0.142596
O O13 0.971201 0.477937 0.621327
O O14 0.522514 0.676903 0.553607
O O15 0.000000 0.500000 0.500000
O O16 0.061439 0.777165 0.737814
#
# Coordination Sequence:
#
# PCOD9027618 Si02
#       7
#     2   2   2   2   2   2   2
#     4  11  24  44  70  95 131 183 220 281 337 405
#     4  12  26  45  65 103 136 169 231 284 347 398
#     4  10  22  41  68  97 128 173 228 264 325 410
#     4  10  23  46  71  99 126 184 224 280 338 400
#     4  11  26  41  63 103 137 177 219 283 344 404
#     4  10  24  42  62  96 134 176 221 268 337 410
#     4  10  23  45  72  95 134 172 233 276 336 403
#
# _framework density 23.696947000000002
#
# number of rings (size 3 to 8) (size 9 to 14) (size 15 to 20)
#    0.000    1.429    0.000    4.286   10.000    3.429 
#    5.143    0.000    0.000    0.000    0.000    0.000 
#    0.000    0.000    0.000    0.000    0.000    0.000 
#
# Total GULP energy -78271.095307 kJ/mol
# GULP energy per Si atom -5590.792522 kJ/mol
# Density = 2.364301 g / cm^3
# Si number density = 23.696947 Si / 1000 Ang^3
#
#
#
# Elastic Constant Matrix: (Units=GPa)
#
#
# Indices 1 2 3 4 5 6 
#
# 1 153.3690 44.8402 36.4978 7.2553 -1.5037 -0.7416
# 2 44.8402 106.2897 15.8274 19.1356 1.6141 -7.3951
# 3 36.4978 15.8274 95.9464 23.1185 6.4086 6.0128
# 4 7.2553 19.1356 23.1185 48.8083 3.8948 6.0385
# 5 -1.5037 1.6141 6.4086 3.8948 38.5359 12.6780
# 6 -0.7416 -7.3951 6.0128 6.0385 12.6780 38.3837
#
#
#
# Elastic Compliance Matrix: (Units=1/GPa)
#
#
# Indices 1 2 3 4 5 6 
#
# 1 0.008122 -0.003310 -0.002927 0.001470 0.000984 -0.000579
# 2 -0.003310 0.011840 0.000292 -0.004595 -0.001303 0.003325
# 3 -0.002927 0.000292 0.012985 -0.005629 -0.001502 -0.000653
# 4 0.001470 -0.004595 -0.005629 0.025229 -0.000074 -0.003920
# 5 0.000984 -0.001303 -0.001502 -0.000074 0.029501 -0.009729
# 6 -0.000579 0.003325 -0.000653 -0.003920 -0.009729 0.030614
#
#
# Mechanical properties :
#
#
# Convention : Reuss Voigt Hill
#
# Bulk Modulus (GPa) = 47.49173 61.10397 54.29785
# Shear Modulus (GPa) = 36.44292 42.37489 39.40890
#
# Velocity S-wave (km/s) = 3.92583 4.23330 4.08246
# Velocity P-wave (km/s) = 6.37450 7.05238 6.72199
#
# Compressibility (1/GPa) = 0.02105630
#
# Stress axis : x y z
#
# Youngs Moduli (GPa) = 123.12276 84.46141 77.00925
#
# Poissons Ratio (x) = 0.27960 0.22542
# Poissons Ratio (y) = 0.40758 -0.02250
# Poissons Ratio (z) = 0.36040 -0.02467
#
# Static dielectric constant tensor:
#      x y z
#    x 1.936550 0.034330 -0.000040 
#    y 0.034330 1.848330 -0.092790 
#    z -0.000040 -0.092790 1.595960 
# 
# From -- ./inp_files/583121.got.cif
#   From: 2010.05.17/outbox.cif.g08.bks.cpg/sg2_292_cif.got.tgz:583121.got - 2010.06.03 11:33:40.
