data_PCOD9027823
_publ_section_title
;
Structure prediction by ZEFSAII (Michael W. Deem and Ramdas Pophale) SiO2 
 PCOD9027823
Probable space group: P -1
;
_chemical_formula_sum "Si O2"
_cell_formula_units_Z 16
_cell_length_a 7.804585
_cell_length_b 14.520262
_cell_length_c 12.739398
_cell_angle_alpha 54.853066
_cell_angle_beta 32.273295
_cell_angle_gamma 63.829779
_cell_volume 626.860430
_symmetry_space_group_name_H-M "P -1"
_symmetry_group_IT_number 2
_symmetry_cell_setting 'triclinic'
loop_
_space_group_symop_operation_xyz
x,y,z
-x,-y,-z
loop_
_atom_site_type_symbol
_atom_site_label
_atom_site_fract_x
_atom_site_fract_y
_atom_site_fract_z
Si Si1 0.676117 0.776471 0.147361
Si Si2 0.186395 0.554518 0.534364
Si Si3 0.258053 0.987967 0.964766
Si Si4 0.232789 0.382829 0.117575
Si Si5 0.404452 0.431212 0.326780
Si Si6 0.179454 0.147794 0.214797
Si Si7 0.807348 0.951261 0.423792
Si Si8 0.611720 0.273573 0.166288
O O1 0.559597 0.886689 0.191829
O O2 0.717098 0.810080 0.982749
O O3 0.037574 0.764469 0.008785
O O4 0.449562 0.660647 0.344449
O O5 0.324218 0.447013 0.479366
O O6 0.005160 0.542782 0.746536
O O7 0.922959 0.584829 0.563191
O O8 0.073676 0.952720 0.192726
O O9 0.500330 0.896337 0.873556
O O10 0.000000 0.000000 0.000000
O O11 0.071762 0.258432 0.252906
O O12 0.509469 0.357155 0.074251
O O13 0.397987 0.451585 0.890312
O O14 0.608021 0.334086 0.242739
O O15 0.931290 0.038244 0.393552
O O16 0.675561 0.827492 0.611020
O O17 0.500000 0.000000 0.500000
#
# Coordination Sequence:
#
# PCOD9027823 Si02
#       8
#     2   2   2   2   2   2   2   2
#     4  11  22  44  61 102 138 177 227 278 343 412
#     4  10  22  41  69  96 131 176 230 280 342 403
#     4  11  25  42  65 101 140 181 227 284 341 414
#     4  11  24  45  70 101 133 179 241 280 344 408
#     4  10  23  44  71  98 135 178 235 286 344 396
#     4  11  24  41  71  94 143 183 222 287 344 413
#     4  11  23  43  65 101 140 181 229 274 346 414
#     4  11  23  41  71  97 138 183 223 289 337 408
#
# _framework density 25.524021999999999
#
# number of rings (size 3 to 8) (size 9 to 14) (size 15 to 20)
#    0.000    1.250    3.750    3.750    7.000    2.000 
#    0.000    3.750    0.000    0.000    0.000    0.000 
#    0.000    0.000    0.000    0.000    0.000    0.000 
#
# Total GULP energy -89666.465559 kJ/mol
# GULP energy per Si atom -5604.154097 kJ/mol
# Density = 2.546593 g / cm^3
# Si number density = 25.524022 Si / 1000 Ang^3
#
#
#
# Elastic Constant Matrix: (Units=GPa)
#
#
# Indices 1 2 3 4 5 6 
#
# 1 93.5817 12.4556 17.2214 2.0004 -5.6522 1.9907
# 2 12.4556 128.4340 35.8398 -2.1694 3.2191 39.1590
# 3 17.2214 35.8398 107.1706 -18.8353 -6.5680 15.2268
# 4 2.0004 -2.1694 -18.8353 44.2707 15.2564 -3.0996
# 5 -5.6522 3.2191 -6.5680 15.2564 31.3755 2.5126
# 6 1.9907 39.1590 15.2268 -3.0996 2.5126 37.5200
#
#
#
# Elastic Compliance Matrix: (Units=1/GPa)
#
#
# Indices 1 2 3 4 5 6 
#
# 1 0.011349 -0.000916 -0.001846 -0.002253 0.002789 0.000730
# 2 -0.000916 0.012106 -0.002463 -0.001066 -0.000472 -0.011643
# 3 -0.001846 -0.002463 0.011518 0.004686 0.000183 -0.001631
# 4 -0.002253 -0.001066 0.004686 0.029624 -0.013938 0.002711
# 5 0.002789 -0.000472 0.000183 -0.013938 0.039521 -0.003528
# 6 0.000730 -0.011643 -0.001631 0.002711 -0.003528 0.039887
#
#
# Mechanical properties :
#
#
# Convention : Reuss Voigt Hill
#
# Bulk Modulus (GPa) = 40.78040 51.13553 45.95797
# Shear Modulus (GPa) = 30.74463 40.21119 35.47791
#
# Velocity S-wave (km/s) = 3.47441 3.97347 3.73229
# Velocity P-wave (km/s) = 5.66633 6.41319 6.05130
#
# Compressibility (1/GPa) = 0.02452158
#
# Stress axis : x y z
#
# Youngs Moduli (GPa) = 88.11669 82.60297 86.82232
#
# Poissons Ratio (x) = 0.07567 0.16028
# Poissons Ratio (y) = 0.08072 0.21387
# Poissons Ratio (z) = 0.16267 0.20348
#
# Static dielectric constant tensor:
#      x y z
#    x 2.001010 0.020690 -0.011490 
#    y 0.020690 2.002820 0.008080 
#    z -0.011490 0.008080 1.993850 
# 
# From -- ./inp_files/504046.got.cif
#   From: 2010.05.17/outbox.cif.g08.bks.cpg/sg2_253_cif.got.tgz:504046.got - 2010.06.03 11:33:40.
