data_PCOD9027079
_publ_section_title
;
Structure prediction by ZEFSAII (Michael W. Deem and Ramdas Pophale) SiO2 
 PCOD9027079
Probable space group: P -1
;
_chemical_formula_sum "Si O2"
_cell_formula_units_Z 12
_cell_length_a 13.011054
_cell_length_b 9.814050
_cell_length_c 10.695932
_cell_angle_alpha 152.025358
_cell_angle_beta 58.321699
_cell_angle_gamma 116.014817
_cell_volume 544.121187
_symmetry_space_group_name_H-M "P -1"
_symmetry_group_IT_number 2
_symmetry_cell_setting 'triclinic'
loop_
_space_group_symop_operation_xyz
x,y,z
-x,-y,-z
loop_
_atom_site_type_symbol
_atom_site_label
_atom_site_fract_x
_atom_site_fract_y
_atom_site_fract_z
Si Si1 0.472009 0.744666 0.902483
Si Si2 0.336366 0.668846 0.430016
Si Si3 0.094630 0.003097 0.829836
Si Si4 0.333448 0.292518 0.907071
Si Si5 0.654948 0.799301 0.464408
Si Si6 0.057850 0.174762 0.714946
O O1 0.597293 0.572581 0.723368
O O2 0.391036 0.501596 0.695481
O O3 0.500000 0.000000 0.000000
O O4 0.403639 0.915870 0.199463
O O5 0.191167 0.727051 0.567639
O O6 0.378795 0.986698 0.693425
O O7 0.367561 0.566987 0.186143
O O8 0.187380 0.265869 0.984951
O O9 0.039839 0.033218 0.749678
O O10 0.000000 0.000000 0.000000
O O11 0.371913 0.258248 0.712065
O O12 0.798405 0.822437 0.395518
O O13 0.000000 0.000000 0.500000
O O14 0.000000 0.500000 0.000000
#
# Coordination Sequence:
#
# PCOD9027079 Si02
#       6
#     2   2   2   2   2   2
#     4  12  26  43  66  98 141 180 229 279 345 417
#     4  10  22  41  66  96 134 170 230 278 337 409
#     4   9  23  44  70 100 137 179 232 289 343 410
#     4   9  21  40  66  96 129 164 234 271 346 396
#     4  11  24  44  69  97 134 182 225 281 343 410
#     4  11  25  46  70 104 139 181 233 286 352 418
#
# _framework density 22.053909999999998
#
# number of rings (size 3 to 8) (size 9 to 14) (size 15 to 20)
#    1.000    0.667    0.000    3.500    4.667    6.000 
#    6.000    0.000    0.000    0.000    0.000    0.000 
#    0.000    0.000    0.000    0.000    0.000    0.000 
#
# Total GULP energy -66953.783849 kJ/mol
# GULP energy per Si atom -5579.481987 kJ/mol
# Density = 2.200371 g / cm^3
# Si number density = 22.053910 Si / 1000 Ang^3
#
#
#
# Elastic Constant Matrix: (Units=GPa)
#
#
# Indices 1 2 3 4 5 6 
#
# 1 112.0154 48.7688 61.5293 -15.2193 -12.3313 -19.1942
# 2 48.7688 122.6174 39.8689 -5.4487 -20.8495 -13.8991
# 3 61.5293 39.8689 159.6618 3.7904 -13.1313 -4.1727
# 4 -15.2193 -5.4487 3.7904 35.1602 7.7031 -3.4951
# 5 -12.3313 -20.8495 -13.1313 7.7031 51.4442 7.4618
# 6 -19.1942 -13.8991 -4.1727 -3.4951 7.4618 25.8699
#
#
#
# Elastic Compliance Matrix: (Units=1/GPa)
#
#
# Indices 1 2 3 4 5 6 
#
# 1 0.016273 -0.003348 -0.005494 0.008600 -0.001750 0.011055
# 2 -0.003348 0.010564 -0.001048 -0.000123 0.002916 0.002165
# 3 -0.005494 -0.001048 0.008777 -0.004303 0.001769 -0.004316
# 4 0.008600 -0.000123 -0.004303 0.035153 -0.006110 0.012132
# 5 -0.001750 0.002916 0.001769 -0.006110 0.022550 -0.006776
# 6 0.011055 0.002165 -0.004316 0.012132 -0.006776 0.050918
#
#
# Mechanical properties :
#
#
# Convention : Reuss Voigt Hill
#
# Bulk Modulus (GPa) = 63.16087 77.18095 70.17091
# Shear Modulus (GPa) = 29.53432 38.77004 34.15218
#
# Velocity S-wave (km/s) = 3.66346 4.19736 3.93947
# Velocity P-wave (km/s) = 6.82613 7.65264 7.25117
#
# Compressibility (1/GPa) = 0.01583259
#
# Stress axis : x y z
#
# Youngs Moduli (GPa) = 61.45073 94.66441 113.93121
#
# Poissons Ratio (x) = 0.31695 0.62598
# Poissons Ratio (y) = 0.20574 0.11943
# Poissons Ratio (z) = 0.33763 0.09923
#
# Static dielectric constant tensor:
#      x y z
#    x 1.853380 -0.002060 -0.003200 
#    y -0.002060 1.852260 -0.008010 
#    z -0.003200 -0.008010 1.786900 
# 
# From -- ./inp_files/293682.got.cif
#   From: 2010.05.17/outbox.cif.g08.bks.cpg/sg2_147_cif.got.tgz:293682.got - 2010.06.03 11:33:40.
