data_PCOD9027238
_publ_section_title
;
Structure prediction by ZEFSAII (Michael W. Deem and Ramdas Pophale) SiO2 
 PCOD9027238
Probable space group: P -1
;
_chemical_formula_sum "Si O2"
_cell_formula_units_Z 14
_cell_length_a 7.759855
_cell_length_b 14.433308
_cell_length_c 15.489406
_cell_angle_alpha 152.813839
_cell_angle_beta 89.204846
_cell_angle_gamma 74.106246
_cell_volume 617.732487
_symmetry_space_group_name_H-M "P -1"
_symmetry_group_IT_number 2
_symmetry_cell_setting 'triclinic'
loop_
_space_group_symop_operation_xyz
x,y,z
-x,-y,-z
loop_
_atom_site_type_symbol
_atom_site_label
_atom_site_fract_x
_atom_site_fract_y
_atom_site_fract_z
Si Si1 0.680582 0.915966 0.354789
Si Si2 0.889918 0.385217 0.809292
Si Si3 0.528432 0.270594 0.007477
Si Si4 0.963407 0.801752 0.528869
Si Si5 0.406528 0.712375 0.478052
Si Si6 0.578009 0.070404 0.168528
Si Si7 0.848977 0.637408 0.696878
O O1 0.905379 0.863387 0.344968
O O2 0.500000 0.000000 0.500000
O O3 0.560806 0.125249 0.452736
O O4 0.788845 0.637543 0.078835
O O5 0.021656 0.322036 0.665773
O O6 0.657702 0.487312 0.852292
O O7 0.455726 0.119557 0.935025
O O8 0.563148 0.413628 0.199286
O O9 0.731305 0.066908 0.776425
O O10 0.153855 0.829815 0.560821
O O11 0.036270 0.588811 0.422694
O O12 0.427433 0.760824 0.616772
O O13 0.387531 0.248280 0.247107
O O14 0.797742 0.879958 0.951628
O O15 0.000000 0.500000 0.500000
#
# Coordination Sequence:
#
# PCOD9027238 Si02
#       7
#     2   2   2   2   2   2   2
#     4  11  23  41  69 100 127 171 221 265 331 389
#     4  10  22  41  67  92 132 168 216 268 318 394
#     4  11  22  43  67  93 132 174 215 265 323 386
#     4  11  23  43  64  96 134 172 219 265 329 384
#     4  11  25  44  65  98 130 169 217 276 317 393
#     4  11  23  44  68  93 134 172 217 270 324 383
#     4  11  22  40  71  94 129 178 215 265 328 379
#
# _framework density 22.663532
#
# number of rings (size 3 to 8) (size 9 to 14) (size 15 to 20)
#    0.000    1.143    5.714    0.857    0.000    6.286 
#    0.000    5.714    0.000    0.000    0.000    0.000 
#    0.000    0.000    0.000    0.000    0.000    0.000 
#
# Total GULP energy -77956.967094 kJ/mol
# GULP energy per Si atom -5568.354792 kJ/mol
# Density = 2.261195 g / cm^3
# Si number density = 22.663532 Si / 1000 Ang^3
#
#
#
# Elastic Constant Matrix: (Units=GPa)
#
#
# Indices 1 2 3 4 5 6 
#
# 1 -81.4118 -99.8705 21.2898 -11.2340 -18.0587 -29.9872
# 2 -99.8705 9.4379 30.1150 -22.8559 -7.2210 -39.8677
# 3 21.2898 30.1150 200.9751 -38.1655 -31.5788 -8.9003
# 4 -11.2340 -22.8559 -38.1655 50.0372 -3.4328 -6.0120
# 5 -18.0587 -7.2210 -31.5788 -3.4328 34.7043 -8.6410
# 6 -29.9872 -39.8677 -8.9003 -6.0120 -8.6410 23.5596
#
#
#
# Elastic Compliance Matrix: (Units=1/GPa)
#
#
# Indices 1 2 3 4 5 6 
#
# 1 0.005475 -0.009477 -0.001582 -0.006149 -0.004367 -0.012838
# 2 -0.009477 0.008076 -0.000598 0.000888 -0.003640 0.000269
# 3 -0.001582 -0.000598 0.007950 0.006544 0.008082 0.004612
# 4 -0.006149 0.000888 0.006544 0.025057 0.006659 0.004985
# 5 -0.004367 -0.003640 0.008082 0.006659 0.035285 0.005975
# 6 -0.012838 0.000269 0.004612 0.004985 0.005975 0.031766
#
#
# Mechanical properties :
#
#
# Convention : Reuss Voigt Hill
#
# Bulk Modulus (GPa) = -551.27934 3.56330 -273.85802
# Shear Modulus (GPa) = 36.67876 33.49134 35.08505
#
# Velocity S-wave (km/s) = 4.02730 3.84834 3.93884
# Velocity P-wave (km/s) = 14.90462 4.61757 10.02062
#
# Compressibility (1/GPa) = -0.00181396
#
# Stress axis : x y z
#
# Youngs Moduli (GPa) = 182.65136 123.82530 125.79102
#
# Poissons Ratio (x) = 1.17353 0.19904
# Poissons Ratio (y) = 1.73104 0.07518
# Poissons Ratio (z) = 0.28901 0.07401
#
# Static dielectric constant tensor:
#      x y z
#    x 1.942620 -0.005100 0.028650 
#    y -0.005100 1.816680 -0.045560 
#    z 0.028650 -0.045560 1.943380 
# 
# From -- ./inp_files/505811.got.cif
#   From: 2010.05.17/outbox.cif.g08.bks.cpg/sg2_253_cif.got.tgz:505811.got - 2010.06.03 11:33:40.
