data_PCOD9027742
_publ_section_title
;
Structure prediction by ZEFSAII (Michael W. Deem and Ramdas Pophale) SiO2 
 PCOD9027742
Probable space group: P -1
;
_chemical_formula_sum "Si O2"
_cell_formula_units_Z 12
_cell_length_a 18.811582
_cell_length_b 5.673990
_cell_length_c 14.036926
_cell_angle_alpha 62.930106
_cell_angle_beta 155.172413
_cell_angle_gamma 104.274541
_cell_volume 501.612546
_symmetry_space_group_name_H-M "P -1"
_symmetry_group_IT_number 2
_symmetry_cell_setting 'triclinic'
loop_
_space_group_symop_operation_xyz
x,y,z
-x,-y,-z
loop_
_atom_site_type_symbol
_atom_site_label
_atom_site_fract_x
_atom_site_fract_y
_atom_site_fract_z
Si Si1 0.189794 0.243930 0.102049
Si Si2 0.210812 0.461682 0.526578
Si Si3 0.838870 0.936869 0.691613
Si Si4 0.113896 0.186627 0.639508
Si Si5 0.273462 0.665234 0.236245
Si Si6 0.518037 0.768672 0.268454
O O1 0.188898 0.056115 0.228945
O O2 0.302450 0.431223 0.229761
O O3 0.263767 0.990802 0.156876
O O4 0.974337 0.476835 0.773523
O O5 0.201573 0.274812 0.638001
O O6 0.402354 0.341159 0.720616
O O7 0.169112 0.796936 0.432918
O O8 0.653935 0.914634 0.435939
O O9 0.061626 0.717415 0.998137
O O10 0.000000 0.500000 0.500000
O O11 0.000000 0.000000 0.500000
O O12 0.295728 0.968111 0.961117
O O13 0.413257 0.489344 0.523231
#
# Coordination Sequence:
#
# PCOD9027742 Si02
#       6
#     2   2   2   2   2   2
#     4  10  17  31  59 108 135 148 189 285 349 373
#     4  11  21  41  73 100 128 171 231 277 323 389
#     4  10  18  33  68 113 136 140 214 294 350 366
#     4  12  33  51  62  88 142 193 224 269 325 389
#     4  10  17  31  59 108 135 148 189 285 349 373
#     4  11  21  41  73 100 128 171 231 277 323 389
#
# _framework density 23.922846
#
# number of rings (size 3 to 8) (size 9 to 14) (size 15 to 20)
#    0.000    1.333    5.000    2.500    4.667    0.667 
#    0.000    0.000    0.000   24.000    0.000    0.000 
#    0.000    0.000    0.000    0.000    0.000    0.000 
#
# Total GULP energy -66845.643349 kJ/mol
# GULP energy per Si atom -5570.470279 kJ/mol
# Density = 2.386840 g / cm^3
# Si number density = 23.922846 Si / 1000 Ang^3
#
#
#
# Elastic Constant Matrix: (Units=GPa)
#
#
# Indices 1 2 3 4 5 6 
#
# 1 -429.2838 329.7140 65.7970 241.7649 112.6592 98.8311
# 2 329.7140 -21.3287 36.9560 -127.0784 -45.0134 -61.7839
# 3 65.7970 36.9560 173.8018 -28.3245 15.9059 -23.3695
# 4 241.7649 -127.0784 -28.3245 -84.1531 -43.4256 -42.9644
# 5 112.6592 -45.0134 15.9059 -43.4256 14.5179 -23.1230
# 6 98.8311 -61.7839 -23.3695 -42.9644 -23.1230 16.6986
#
#
#
# Elastic Compliance Matrix: (Units=1/GPa)
#
#
# Indices 1 2 3 4 5 6 
#
# 1 0.004151 0.000684 0.000010 0.009019 0.001039 0.002617
# 2 0.000684 0.007631 -0.003051 -0.007276 -0.001527 -0.000917
# 3 0.000010 -0.003051 0.007633 0.003448 -0.004558 0.001898
# 4 0.009019 -0.007276 0.003448 0.032241 -0.009981 -0.006340
# 5 0.001039 -0.001527 -0.004558 -0.009981 0.032053 0.000523
# 6 0.002617 -0.000917 0.001898 -0.006340 0.000523 0.028074
#
#
# Mechanical properties :
#
#
# Convention : Reuss Voigt Hill
#
# Bulk Modulus (GPa) = 68.02536 65.34702 66.68619
# Shear Modulus (GPa) = 41.18635 -57.87251 -8.34308
#
# Velocity S-wave (km/s) = 4.15376 -4.92380 -1.86951
# Velocity P-wave (km/s) = 7.17649 2.22488 4.82452
#
# Compressibility (1/GPa) = 0.01470040
#
# Stress axis : x y z
#
# Youngs Moduli (GPa) = 240.89066 131.03975 131.00724
#
# Poissons Ratio (x) = -0.08958 -0.00125
# Poissons Ratio (y) = -0.16468 0.39968
# Poissons Ratio (z) = -0.00231 0.39978
#
# Static dielectric constant tensor:
#      x y z
#    x 2.002930 -0.131390 0.009660 
#    y -0.131390 2.049750 0.004590 
#    z 0.009660 0.004590 1.876700 
# 
# From -- ./inp_files/383332.got.cif
#   From: 2010.05.17/outbox.cif.g08.bks.cpg/sg2_192_cif.got.tgz:383332.got - 2010.06.03 11:33:40.
