data_PCOD9027951
_publ_section_title
;
Structure prediction by ZEFSAII (Michael W. Deem and Ramdas Pophale) SiO2 
 PCOD9027951
Probable space group: P -1
;
_chemical_formula_sum "Si O2"
_cell_formula_units_Z 16
_cell_length_a 10.623054
_cell_length_b 12.972885
_cell_length_c 14.361575
_cell_angle_alpha 41.543074
_cell_angle_beta 150.075976
_cell_angle_gamma 122.188029
_cell_volume 613.220824
_symmetry_space_group_name_H-M "P -1"
_symmetry_group_IT_number 2
_symmetry_cell_setting 'triclinic'
loop_
_space_group_symop_operation_xyz
x,y,z
-x,-y,-z
loop_
_atom_site_type_symbol
_atom_site_label
_atom_site_fract_x
_atom_site_fract_y
_atom_site_fract_z
Si Si1 0.146601 0.280385 0.711812
Si Si2 0.462262 0.230879 0.139692
Si Si3 0.384395 0.123106 0.458195
Si Si4 0.665821 0.677305 0.402294
Si Si5 0.515546 0.400632 0.240833
Si Si6 0.019746 0.388142 0.178561
Si Si7 0.926501 0.941482 0.397898
Si Si8 0.861057 0.092430 0.075144
O O1 0.826973 0.381740 0.448771
O O2 0.247370 0.345623 0.636177
O O3 0.157384 0.085445 0.844981
O O4 0.313058 0.280488 0.912555
O O5 0.405724 0.365736 0.093635
O O6 0.786871 0.177049 0.376644
O O7 0.425589 0.059809 0.265676
O O8 0.507417 0.248707 0.404813
O O9 0.219189 0.214178 0.382498
O O10 0.161569 0.096034 0.263776
O O11 0.852700 0.563599 0.679258
O O12 0.725773 0.845982 0.343620
O O13 0.361969 0.731907 0.210531
O O14 0.292149 0.569322 0.021861
O O15 0.000000 0.500000 0.000000
O O16 0.000000 0.000000 0.500000
O O17 0.797906 0.090938 0.145679
#
# Coordination Sequence:
#
# PCOD9027951 Si02
#       8
#     2   2   2   2   2   2   2   2
#     4  11  22  37  63 101 127 161 204 263 316 375
#     4  11  21  39  66  97 127 163 209 255 321 365
#     4  10  21  42  67  90 126 172 208 259 314 363
#     4  11  20  38  62  90 129 160 208 262 308 374
#     4  11  23  45  59  92 135 163 212 261 310 371
#     4  10  24  44  64  84 123 175 211 255 316 372
#     4  10  17  31  59  93 127 156 197 258 311 361
#     4  10  19  34  61  99 123 153 211 261 301 366
#
# _framework density 26.091742
#
# number of rings (size 3 to 8) (size 9 to 14) (size 15 to 20)
#    0.000    1.500    3.750    5.625    0.000    1.000 
#    6.750    1.875    0.000    0.000    0.000    0.000 
#    0.000    0.000    0.000    0.000    0.000    0.000 
#
# Total GULP energy -89318.911645 kJ/mol
# GULP energy per Si atom -5582.431978 kJ/mol
# Density = 2.603236 g / cm^3
# Si number density = 26.091742 Si / 1000 Ang^3
#
#
#
# Elastic Constant Matrix: (Units=GPa)
#
#
# Indices 1 2 3 4 5 6 
#
# 1 117.0565 41.3745 60.9416 -0.4538 -8.4584 -18.9865
# 2 41.3745 65.0781 42.0617 1.8016 8.1704 -11.9554
# 3 60.9416 42.0617 135.6596 20.4683 -11.8173 -22.9706
# 4 -0.4538 1.8016 20.4683 38.1220 -8.7612 -2.5975
# 5 -8.4584 8.1704 -11.8173 -8.7612 32.2092 -15.3653
# 6 -18.9865 -11.9554 -22.9706 -2.5975 -15.3653 52.1175
#
#
#
# Elastic Compliance Matrix: (Units=1/GPa)
#
#
# Indices 1 2 3 4 5 6 
#
# 1 0.014070 -0.006997 -0.003396 0.004358 0.007539 0.004463
# 2 -0.006997 0.024590 -0.005892 -0.001051 -0.011999 -0.003095
# 3 -0.003396 -0.005892 0.012781 -0.004893 0.006164 0.004618
# 4 0.004358 -0.001051 -0.004893 0.031497 0.009944 0.003692
# 5 0.007539 -0.011999 0.006164 0.009944 0.049533 0.017809
# 6 0.004463 -0.003095 0.004618 0.003692 0.017809 0.027573
#
#
# Mechanical properties :
#
#
# Convention : Reuss Voigt Hill
#
# Bulk Modulus (GPa) = 52.99298 67.39442 60.19370
# Shear Modulus (GPa) = 25.13788 36.05084 30.59436
#
# Velocity S-wave (km/s) = 3.10730 3.72115 3.42799
# Velocity P-wave (km/s) = 5.76438 6.65946 6.22802
#
# Compressibility (1/GPa) = 0.01887042
#
# Stress axis : x y z
#
# Youngs Moduli (GPa) = 71.07445 40.66766 78.24268
#
# Poissons Ratio (x) = 0.28456 0.26572
# Poissons Ratio (y) = 0.49733 0.46097
# Poissons Ratio (z) = 0.24137 0.23959
#
# Static dielectric constant tensor:
#      x y z
#    x 2.147260 0.004890 0.099940 
#    y 0.004890 2.115030 -0.006270 
#    z 0.099940 -0.006270 2.318250 
# 
# From -- ./inp_files/522361.got.cif
#   From: 2010.05.17/outbox.cif.g08.bks.cpg/sg2_262_cif.got.tgz:522361.got - 2010.06.03 11:33:40.
