data_PCOD9027561
_publ_section_title
;
Structure prediction by ZEFSAII (Michael W. Deem and Ramdas Pophale) SiO2 
 PCOD9027561
Probable space group: P -1
;
_chemical_formula_sum "Si O2"
_cell_formula_units_Z 14
_cell_length_a 22.958059
_cell_length_b 17.619196
_cell_length_c 9.189044
_cell_angle_alpha 149.110884
_cell_angle_beta 152.209115
_cell_angle_gamma 21.171197
_cell_volume 613.596188
_symmetry_space_group_name_H-M "P -1"
_symmetry_group_IT_number 2
_symmetry_cell_setting 'triclinic'
loop_
_space_group_symop_operation_xyz
x,y,z
-x,-y,-z
loop_
_atom_site_type_symbol
_atom_site_label
_atom_site_fract_x
_atom_site_fract_y
_atom_site_fract_z
Si Si1 0.175545 0.968757 0.188037
Si Si2 0.561759 0.545045 0.346511
Si Si3 0.123589 0.692297 0.679655
Si Si4 0.528065 0.049031 0.799725
Si Si5 0.822180 0.724004 0.411404
Si Si6 0.794959 0.615727 0.856616
Si Si7 0.512222 0.378536 0.193777
O O1 0.183981 0.091689 0.290255
O O2 0.028205 0.146278 0.270939
O O3 0.378827 0.779240 0.389090
O O4 0.127087 0.839797 0.833148
O O5 0.684212 0.571001 0.604149
O O6 0.633161 0.365112 0.323396
O O7 0.500000 0.500000 0.000000
O O8 0.082708 0.581133 0.312268
O O9 0.319025 0.513232 0.902877
O O10 0.349078 0.195192 0.746773
O O11 0.500000 0.000000 0.500000
O O12 0.673010 0.828449 0.842179
O O13 0.581556 0.168438 0.070580
O O14 0.000000 0.500000 0.500000
O O15 0.837052 0.668171 0.182490
O O16 0.500000 0.500000 0.500000
#
# Coordination Sequence:
#
# PCOD9027561 Si02
#       7
#     2   2   2   2   2   2   2
#     4  10  22  41  68  94 132 176 223 278 340 396
#     4  11  20  42  71  98 127 178 228 273 335 404
#     4  10  22  43  67  97 133 178 227 276 339 406
#     4  12  24  44  69 106 136 172 230 283 337 406
#     4  12  28  45  65 100 142 181 225 284 346 402
#     4  12  24  45  74  98 136 182 230 281 338 411
#     4  11  23  38  66 100 136 170 224 281 333 399
#
# _framework density 22.816309
#
# number of rings (size 3 to 8) (size 9 to 14) (size 15 to 20)
#    0.000    0.857    5.714    2.143    4.000    0.571 
#    0.000    0.714    0.000    0.000    0.000    0.000 
#    0.000    0.000    0.000    0.000    0.000    0.000 
#
# Total GULP energy -78186.559443 kJ/mol
# GULP energy per Si atom -5584.754246 kJ/mol
# Density = 2.276438 g / cm^3
# Si number density = 22.816309 Si / 1000 Ang^3
#
#
#
# Elastic Constant Matrix: (Units=GPa)
#
#
# Indices 1 2 3 4 5 6 
#
# 1 114.1066 49.6036 23.6038 10.5409 1.0207 45.1550
# 2 49.6036 106.7555 29.0647 23.3402 3.4493 14.7592
# 3 23.6038 29.0647 112.1356 26.1444 -10.4303 36.3128
# 4 10.5409 23.3402 26.1444 33.6339 12.1297 11.8620
# 5 1.0207 3.4493 -10.4303 12.1297 56.4226 12.9832
# 6 45.1550 14.7592 36.3128 11.8620 12.9832 50.7970
#
#
#
# Elastic Compliance Matrix: (Units=1/GPa)
#
#
# Indices 1 2 3 4 5 6 
#
# 1 0.018496 -0.007530 0.004506 0.000756 0.005161 -0.018971
# 2 -0.007530 0.014349 -0.002555 -0.007471 -0.001073 0.006370
# 3 0.004506 -0.002555 0.016829 -0.010621 0.008943 -0.015099
# 4 0.000756 -0.007471 -0.010621 0.046790 -0.011854 0.001195
# 5 0.005161 -0.001073 0.008943 -0.011854 0.025198 -0.014342
# 6 -0.018971 0.006370 -0.015099 0.001195 -0.014342 0.048879
#
#
# Mechanical properties :
#
#
# Convention : Reuss Voigt Hill
#
# Bulk Modulus (GPa) = 25.96314 59.72690 42.84502
# Shear Modulus (GPa) = 25.70184 43.55238 34.62711
#
# Velocity S-wave (km/s) = 3.35993 4.37375 3.89993
# Velocity P-wave (km/s) = 5.14355 7.19308 6.25286
#
# Compressibility (1/GPa) = 0.03851614
#
# Stress axis : x y z
#
# Youngs Moduli (GPa) = 54.06458 69.69061 59.42021
#
# Poissons Ratio (x) = 0.52479 -0.26772
# Poissons Ratio (y) = 0.40712 0.15180
# Poissons Ratio (z) = -0.24359 0.17804
#
# Static dielectric constant tensor:
#      x y z
#    x 1.940240 0.042040 0.049650 
#    y 0.042040 1.787660 -0.142780 
#    z 0.049650 -0.142780 1.693890 
# 
# From -- ./inp_files/355071.got.cif
#   From: 2010.05.17/outbox.cif.g08.bks.cpg/sg2_178_cif.got.tgz:355071.got - 2010.06.03 11:33:40.
