data_PCOD9027929
_publ_section_title
;
Structure prediction by ZEFSAII (Michael W. Deem and Ramdas Pophale) SiO2 
 PCOD9027929
Probable space group: P -1
;
_chemical_formula_sum "Si O2"
_cell_formula_units_Z 16
_cell_length_a 15.955716
_cell_length_b 9.880464
_cell_length_c 13.047791
_cell_angle_alpha 62.658642
_cell_angle_beta 155.614169
_cell_angle_gamma 129.257234
_cell_volume 611.945222
_symmetry_space_group_name_H-M "P -1"
_symmetry_group_IT_number 2
_symmetry_cell_setting 'triclinic'
loop_
_space_group_symop_operation_xyz
x,y,z
-x,-y,-z
loop_
_atom_site_type_symbol
_atom_site_label
_atom_site_fract_x
_atom_site_fract_y
_atom_site_fract_z
Si Si1 0.862011 0.673424 0.600544
Si Si2 0.767744 0.333912 0.733240
Si Si3 0.014834 0.829912 0.101382
Si Si4 0.353588 0.520010 0.090018
Si Si5 0.122557 0.871039 0.451972
Si Si6 0.600088 0.739146 0.925025
Si Si7 0.415135 0.928482 0.213263
Si Si8 0.946809 0.573336 0.525205
O O1 0.745917 0.457437 0.581967
O O2 0.638980 0.692628 0.369223
O O3 0.919247 0.694883 0.536816
O O4 0.123098 0.798975 0.904287
O O5 0.823587 0.199092 0.785854
O O6 0.555567 0.193050 0.627969
O O7 0.000000 0.500000 0.000000
O O8 0.090044 0.851447 0.297877
O O9 0.755179 0.620565 0.885657
O O10 0.000000 0.000000 0.000000
O O11 0.382583 0.406420 0.072310
O O12 0.146344 0.550273 0.812985
O O13 0.065735 0.692159 0.513682
O O14 0.421723 0.022442 0.725230
O O15 0.894476 0.875259 0.239286
O O16 0.346446 0.602197 0.755107
O O17 0.549383 0.883504 0.771320
#
# Coordination Sequence:
#
# PCOD9027929 Si02
#       8
#     2   2   2   2   2   2   2   2
#     4  10  24  45  68  99 141 192 233 280 352 429
#     4  10  22  45  67  97 144 194 235 291 356 428
#     4  11  23  42  70 110 137 178 244 305 355 416
#     4  10  22  41  70 102 132 184 233 285 349 417
#     4  11  26  42  73 106 136 185 232 293 356 414
#     4  10  22  42  66 101 136 173 230 291 350 408
#     4  11  25  43  65 101 144 180 233 293 347 418
#     4  11  23  47  71 101 141 181 237 288 350 427
#
# _framework density 26.146132000000001
#
# number of rings (size 3 to 8) (size 9 to 14) (size 15 to 20)
#    0.000    1.500    1.250    3.375    3.500    8.500 
#    0.000    2.500    0.000    0.000    0.000    0.000 
#    0.000    0.000    0.000    0.000    0.000    0.000 
#
# Total GULP energy -89205.418989 kJ/mol
# GULP energy per Si atom -5575.338687 kJ/mol
# Density = 2.608662 g / cm^3
# Si number density = 26.146132 Si / 1000 Ang^3
#
#
#
# Elastic Constant Matrix: (Units=GPa)
#
#
# Indices 1 2 3 4 5 6 
#
# 1 70.5534 56.4510 31.7807 3.3640 26.7373 31.4175
# 2 56.4510 145.7367 60.3274 -11.9446 22.2906 28.2536
# 3 31.7807 60.3274 174.9363 -0.9352 40.3405 20.1900
# 4 3.3640 -11.9446 -0.9352 37.8063 1.9123 12.0043
# 5 26.7373 22.2906 40.3405 1.9123 52.2321 7.2256
# 6 31.4175 28.2536 20.1900 12.0043 7.2256 49.1293
#
#
#
# Elastic Compliance Matrix: (Units=1/GPa)
#
#
# Indices 1 2 3 4 5 6 
#
# 1 0.030274 -0.007967 0.001426 -0.000275 -0.011302 -0.013634
# 2 -0.007967 0.011593 -0.002588 0.004840 0.001211 -0.001869
# 3 0.001426 -0.002588 0.007812 0.000115 -0.005405 -0.001867
# 4 -0.000275 0.004840 0.000115 0.031284 -0.001770 -0.010038
# 5 -0.011302 0.001211 -0.005405 -0.001770 0.027951 0.005074
# 6 -0.013634 -0.001869 -0.001867 -0.010038 0.005074 0.032622
#
#
# Mechanical properties :
#
#
# Convention : Reuss Voigt Hill
#
# Bulk Modulus (GPa) = 31.82680 76.48273 54.15477
# Shear Modulus (GPa) = 29.36534 44.01137 36.68835
#
# Velocity S-wave (km/s) = 3.35494 4.10724 3.75000
# Velocity P-wave (km/s) = 5.21599 7.19778 6.28548
#
# Compressibility (1/GPa) = 0.03142006
#
# Stress axis : x y z
#
# Youngs Moduli (GPa) = 33.03194 86.25912 128.00196
#
# Poissons Ratio (x) = 0.68727 -0.18255
# Poissons Ratio (y) = 0.26318 0.33129
# Poissons Ratio (z) = -0.04711 0.22326
#
# Static dielectric constant tensor:
#      x y z
#    x 2.074260 -0.035640 0.008540 
#    y -0.035640 2.175180 0.148390 
#    z 0.008540 0.148390 2.300780 
# 
# From -- ./inp_files/577799.got.cif
#   From: 2010.05.17/outbox.cif.g08.bks.cpg/sg2_289_cif.got.tgz:577799.got - 2010.06.03 11:33:40.
