data_PCOD9027336
_publ_section_title
;
Structure prediction by ZEFSAII (Michael W. Deem and Ramdas Pophale) SiO2 
 PCOD9027336
Probable space group: P -1
;
_chemical_formula_sum "Si O2"
_cell_formula_units_Z 14
_cell_length_a 4.896762
_cell_length_b 20.896253
_cell_length_c 5.906559
_cell_angle_alpha 93.483733
_cell_angle_beta 104.726679
_cell_angle_gamma 74.716780
_cell_volume 563.843669
_symmetry_space_group_name_H-M "P -1"
_symmetry_group_IT_number 2
_symmetry_cell_setting 'triclinic'
loop_
_space_group_symop_operation_xyz
x,y,z
-x,-y,-z
loop_
_atom_site_type_symbol
_atom_site_label
_atom_site_fract_x
_atom_site_fract_y
_atom_site_fract_z
Si Si1 0.201699 0.641128 0.926500
Si Si2 0.894848 0.174552 0.503170
Si Si3 0.820643 0.623490 0.232254
Si Si4 0.324050 0.940242 0.804661
Si Si5 0.940163 0.918296 0.102893
Si Si6 0.731349 0.740994 0.598276
Si Si7 0.341819 0.507617 0.715084
O O1 0.177631 0.584972 0.728671
O O2 0.962655 0.708477 0.832688
O O3 0.537409 0.642624 0.008762
O O4 0.110118 0.619491 0.147858
O O5 0.805463 0.110910 0.371193
O O6 0.610058 0.234702 0.415170
O O7 0.972737 0.152008 0.771674
O O8 0.165831 0.196696 0.462975
O O9 0.767773 0.683844 0.406477
O O10 0.819637 0.551136 0.311819
O O11 0.190655 0.018168 0.749328
O O12 0.672736 0.922641 0.874740
O O13 0.219062 0.930537 0.036872
O O14 0.500000 0.500000 0.500000
O O15 0.500000 0.500000 0.000000
#
# Coordination Sequence:
#
# PCOD9027336 Si02
#       7
#     2   2   2   2   2   2   2
#     4  11  26  47  70 101 138 183 234 294 358 429
#     4  12  25  42  64 101 130 184 226 284 340 425
#     4  11  26  47  70 101 138 183 234 294 358 429
#     4  10  22  41  67  96 131 173 223 286 346 407
#     4  10  22  41  67  96 131 173 223 286 346 407
#     4  12  28  41  69  94 140 184 228 278 350 424
#     4  10  25  45  79 109 142 188 242 313 375 431
#
# _framework density 24.82958
#
# number of rings (size 3 to 8) (size 9 to 14) (size 15 to 20)
#    0.000    1.143    0.000    4.286   10.000    7.429 
#    0.000    5.714    0.000    0.000    0.000    0.000 
#    0.000    0.000    0.000    0.000    0.000    0.000 
#
# Total GULP energy -78288.812354 kJ/mol
# GULP energy per Si atom -5592.058025 kJ/mol
# Density = 2.477307 g / cm^3
# Si number density = 24.829580 Si / 1000 Ang^3
#
#
#
# Elastic Constant Matrix: (Units=GPa)
#
#
# Indices 1 2 3 4 5 6 
#
# 1 76.0819 -0.4577 -1.1354 0.5569 -3.1886 4.7846
# 2 -0.4577 94.6567 30.2736 3.1683 7.2021 1.2256
# 3 -1.1354 30.2736 55.7853 -2.4842 5.1014 -0.3260
# 4 0.5569 3.1683 -2.4842 58.0587 7.7184 6.5176
# 5 -3.1886 7.2021 5.1014 7.7184 39.3317 3.3604
# 6 4.7846 1.2256 -0.3260 6.5176 3.3604 47.6948
#
#
#
# Elastic Compliance Matrix: (Units=1/GPa)
#
#
# Indices 1 2 3 4 5 6 
#
# 1 0.013286 -0.000063 0.000181 -0.000120 0.001208 -0.001399
# 2 -0.000063 0.012907 -0.006924 -0.000808 -0.001297 -0.000171
# 3 0.000181 -0.006924 0.021929 0.001539 -0.001884 0.000232
# 4 -0.000120 -0.000808 0.001539 0.018034 -0.003414 -0.002181
# 5 0.001208 -0.001297 -0.001884 -0.003414 0.026805 -0.001523
# 6 -0.001399 -0.000171 0.000232 -0.002181 -0.001523 0.021518
#
#
# Mechanical properties :
#
#
# Convention : Reuss Voigt Hill
#
# Bulk Modulus (GPa) = 28.97845 31.54276 30.26061
# Shear Modulus (GPa) = 35.81835 42.20658 39.01247
#
# Velocity S-wave (km/s) = 3.80224 4.12740 3.96815
# Velocity P-wave (km/s) = 5.56527 5.95358 5.76270
#
# Compressibility (1/GPa) = 0.03450840
#
# Stress axis : x y z
#
# Youngs Moduli (GPa) = 75.26997 77.47996 45.60152
#
# Poissons Ratio (x) = 0.00491 -0.00825
# Poissons Ratio (y) = 0.00477 0.31574
# Poissons Ratio (z) = -0.01361 0.53646
#
# Static dielectric constant tensor:
#      x y z
#    x 1.880310 -0.035010 0.056460 
#    y -0.035010 1.977190 -0.043170 
#    z 0.056460 -0.043170 2.049900 
# 
# From -- ./inp_files/9723.got.cif
#   From: 2010.05.17/outbox.cif.g08.bks.cpg/sg2_5_cif.got.tgz:9723.got - 2010.06.03 11:33:40.
