data_PCOD9027280
_publ_section_title
;
Structure prediction by ZEFSAII (Michael W. Deem and Ramdas Pophale) SiO2 
 PCOD9027280
Probable space group: P -1
;
_chemical_formula_sum "Si O2"
_cell_formula_units_Z 16
_cell_length_a 12.754270
_cell_length_b 8.698471
_cell_length_c 15.359745
_cell_angle_alpha 30.329030
_cell_angle_beta 93.512438
_cell_angle_gamma 104.345553
_cell_volume 792.064537
_symmetry_space_group_name_H-M "P -1"
_symmetry_group_IT_number 2
_symmetry_cell_setting 'triclinic'
loop_
_space_group_symop_operation_xyz
x,y,z
-x,-y,-z
loop_
_atom_site_type_symbol
_atom_site_label
_atom_site_fract_x
_atom_site_fract_y
_atom_site_fract_z
Si Si1 0.907798 0.295711 0.025812
Si Si2 0.498372 0.188130 0.096914
Si Si3 0.663810 0.388943 0.363410
Si Si4 0.071634 0.384328 0.321568
Si Si5 0.686445 0.460963 0.653836
Si Si6 0.443358 0.379931 0.272052
Si Si7 0.672641 0.869291 0.288722
Si Si8 0.072522 0.255801 0.805195
O O1 0.781281 0.188009 0.109085
O O2 0.925659 0.956698 0.174417
O O3 0.918254 0.467120 0.848312
O O4 0.000000 0.500000 0.000000
O O5 0.375037 0.911226 0.203382
O O6 0.568000 0.983007 0.240875
O O7 0.500000 0.500000 0.000000
O O8 0.557496 0.356613 0.927746
O O9 0.572697 0.409445 0.278774
O O10 0.651264 0.598613 0.343238
O O11 0.794619 0.548350 0.260458
O O12 0.628640 0.001047 0.570961
O O13 0.195867 0.479012 0.321727
O O14 0.996319 0.512621 0.317926
O O15 0.000000 0.000000 0.500000
O O16 0.604404 0.533086 0.684084
O O17 0.701298 0.712886 0.452656
O O18 0.000000 0.000000 0.000000
#
# Coordination Sequence:
#
# PCOD9027280 Si02
#       8
#     2   2   2   2   2   2   2   2
#     4  10  22  42  67  94 130 174 219 273 333 388
#     4  12  27  42  63  99 134 171 222 274 334 397
#     4  10  22  41  67  94 131 172 217 270 333 396
#     4  11  23  42  66 100 133 171 227 273 332 401
#     4  12  25  42  69  94 135 179 221 275 334 395
#     4  11  24  40  68  97 130 170 221 268 337 398
#     4  11  24  44  64  92 134 174 220 276 331 394
#     4   9  21  39  65  92 130 168 218 263 323 387
#
# _framework density 20.200374
#
# number of rings (size 3 to 8) (size 9 to 14) (size 15 to 20)
#    0.000    1.250    1.250    3.750    8.750    2.000 
#    0.000    6.875    0.000    0.000    0.000    0.000 
#    0.000    0.000    0.000    0.000    0.000    0.000 
#
# Total GULP energy -89397.892710 kJ/mol
# GULP energy per Si atom -5587.368294 kJ/mol
# Density = 2.015440 g / cm^3
# Si number density = 20.200374 Si / 1000 Ang^3
#
#
#
# Elastic Constant Matrix: (Units=GPa)
#
#
# Indices 1 2 3 4 5 6 
#
# 1 129.6728 49.4260 42.7794 -12.1865 -6.9645 26.7966
# 2 49.4260 98.8539 48.2047 -15.0728 -2.7349 29.3563
# 3 42.7794 48.2047 97.4131 -7.0435 1.8541 13.3721
# 4 -12.1865 -15.0728 -7.0435 37.5938 0.3516 -6.5361
# 5 -6.9645 -2.7349 1.8541 0.3516 33.4278 -3.5573
# 6 26.7966 29.3563 13.3721 -6.5361 -3.5573 31.6987
#
#
#
# Elastic Compliance Matrix: (Units=1/GPa)
#
#
# Indices 1 2 3 4 5 6 
#
# 1 0.010815 -0.002145 -0.002879 0.001131 0.001638 -0.005524
# 2 -0.002145 0.018229 -0.006224 0.003407 0.000106 -0.011728
# 3 -0.002879 -0.006224 0.014357 -0.000398 -0.001702 0.001868
# 4 0.001131 0.003407 -0.000398 0.028602 0.000449 0.002005
# 5 0.001638 0.000106 -0.001702 0.000449 0.030649 0.002768
# 6 -0.005524 -0.011728 0.001868 0.002005 0.002768 0.047015
#
#
# Mechanical properties :
#
#
# Convention : Reuss Voigt Hill
#
# Bulk Modulus (GPa) = 47.83707 67.41777 57.62742
# Shear Modulus (GPa) = 27.91229 32.91269 30.41249
#
# Velocity S-wave (km/s) = 3.72125 4.04085 3.88434
# Velocity P-wave (km/s) = 6.49587 7.43090 6.97906
#
# Compressibility (1/GPa) = 0.02090429
#
# Stress axis : x y z
#
# Youngs Moduli (GPa) = 92.46427 54.85745 69.65227
#
# Poissons Ratio (x) = 0.11768 0.20053
# Poissons Ratio (y) = 0.19836 0.43353
# Poissons Ratio (z) = 0.26620 0.34144
#
# Static dielectric constant tensor:
#      x y z
#    x 1.720610 -0.002870 -0.005410 
#    y -0.002870 1.706710 -0.004580 
#    z -0.005410 -0.004580 1.710690 
# 
# From -- ./inp_files/224123.got.cif
#   From: 2010.05.17/outbox.cif.g08.bks.cpg/sg2_113_cif.got.tgz:224123.got - 2010.06.03 11:33:40.
