data_PCOD9027758
_publ_section_title
;
Structure prediction by ZEFSAII (Michael W. Deem and Ramdas Pophale) SiO2 
 PCOD9027758
Probable space group: P -1
;
_chemical_formula_sum "Si O2"
_cell_formula_units_Z 15
_cell_length_a 9.490040
_cell_length_b 8.809082
_cell_length_c 16.678814
_cell_angle_alpha 53.666972
_cell_angle_beta 135.255020
_cell_angle_gamma 140.417928
_cell_volume 622.252543
_symmetry_space_group_name_H-M "P -1"
_symmetry_group_IT_number 2
_symmetry_cell_setting 'triclinic'
loop_
_space_group_symop_operation_xyz
x,y,z
-x,-y,-z
loop_
_atom_site_type_symbol
_atom_site_label
_atom_site_fract_x
_atom_site_fract_y
_atom_site_fract_z
Si Si1 0.441195 0.067035 0.370235
Si Si2 0.750011 0.785702 0.396880
Si Si3 0.964904 0.314974 0.806542
Si Si4 0.482889 0.765098 0.056937
Si Si5 0.886330 0.263045 0.375399
Si Si6 0.999220 0.952152 0.740432
Si Si7 0.500000 0.500000 0.000000
Si Si8 0.782386 0.450506 0.823047
O O1 0.710377 0.250848 0.377071
O O2 0.266913 0.143285 0.299014
O O3 0.500000 0.000000 0.500000
O O4 0.253973 0.863692 0.291225
O O5 0.473953 0.622421 0.299292
O O6 0.828774 0.637995 0.517403
O O7 0.768948 0.990525 0.390558
O O8 0.959581 0.933785 0.365319
O O9 0.838582 0.291644 0.848101
O O10 0.095793 0.575841 0.737978
O O11 0.192981 0.302790 0.916520
O O12 0.434093 0.636715 0.993502
O O13 0.271479 0.588337 0.092726
O O14 0.753727 0.845455 0.173830
O O15 0.500000 0.000000 0.000000
O O16 0.997713 0.726827 0.804729
#
# Coordination Sequence:
#
# PCOD9027758 Si02
#       8
#     2   2   2   2   2   2   1   2
#     4  12  26  44  68 107 149 189 235 297 371 434
#     4  10  22  41  69 105 142 185 237 298 361 439
#     4  12  27  48  72 106 144 195 250 302 365 443
#     4  11  27  51  76 106 149 189 248 319 360 441
#     4  11  24  41  69 103 143 188 241 299 357 439
#     4  11  23  45  68 106 142 183 239 299 366 435
#     4  12  28  50  76 108 146 192 252 304 372 430
#     4  11  25  46  76 105 139 195 245 296 381 435
#
# _framework density 24.105965999999999
#
# number of rings (size 3 to 8) (size 9 to 14) (size 15 to 20)
#    0.000    0.800    5.333    0.800    5.600    3.200 
#    0.000    2.000    0.000    0.000    0.000    0.000 
#    0.000    0.000    0.000    0.000    0.000    0.000 
#
# Total GULP energy -83559.466667 kJ/mol
# GULP energy per Si atom -5570.631111 kJ/mol
# Density = 2.405110 g / cm^3
# Si number density = 24.105966 Si / 1000 Ang^3
#
#
#
# Elastic Constant Matrix: (Units=GPa)
#
#
# Indices 1 2 3 4 5 6 
#
# 1 158.7086 8.9890 29.6065 14.8501 3.4399 -15.5887
# 2 8.9890 28.5638 3.7027 18.5751 -10.0595 -6.0315
# 3 29.6065 3.7027 58.0489 23.9238 10.2938 1.4695
# 4 14.8501 18.5751 23.9238 29.1261 11.1829 -1.8965
# 5 3.4399 -10.0595 10.2938 11.1829 38.3780 18.3704
# 6 -15.5887 -6.0315 1.4695 -1.8965 18.3704 33.5533
#
#
#
# Elastic Compliance Matrix: (Units=1/GPa)
#
#
# Indices 1 2 3 4 5 6 
#
# 1 0.008310 -0.016150 -0.008996 0.018849 -0.012487 0.009253
# 2 -0.016150 0.312684 0.102410 -0.358406 0.201786 -0.086517
# 3 -0.008996 0.102410 0.061621 -0.139558 0.067816 -0.033487
# 4 0.018849 -0.358406 -0.139558 0.471397 -0.250150 0.114044
# 5 -0.012487 0.201786 0.067816 -0.250150 0.173962 -0.081882
# 6 0.009253 -0.086517 -0.033487 0.114044 -0.081882 0.071293
#
#
# Mechanical properties :
#
#
# Convention : Reuss Voigt Hill
#
# Bulk Modulus (GPa) = 1.86171 36.65752 19.25961
# Shear Modulus (GPa) = 4.44924 33.74635 19.09779
#
# Velocity S-wave (km/s) = 1.36004 3.74561 2.81774
# Velocity P-wave (km/s) = 1.80007 5.82631 4.31197
#
# Compressibility (1/GPa) = 0.53714157
#
# Stress axis : x y z
#
# Youngs Moduli (GPa) = 120.34214 3.19812 16.22824
#
# Poissons Ratio (x) = 0.05165 0.14599
# Poissons Ratio (y) = 1.94353 -1.66193
# Poissons Ratio (z) = 1.08263 -0.32752
#
# Static dielectric constant tensor:
#      x y z
#    x 1.914040 -0.016910 0.004180 
#    y -0.016910 1.900700 0.012220 
#    z 0.004180 0.012220 2.065830 
# 
# From -- ./inp_files/140482.got.cif
#   From: 2010.05.17/outbox.cif.g08.bks.cpg/sg2_71_cif.got.tgz:140482.got - 2010.06.03 11:33:40.
