data_PCOD9027574
_publ_section_title
;
Structure prediction by ZEFSAII (Michael W. Deem and Ramdas Pophale) SiO2 
 PCOD9027574
Probable space group: P -1
;
_chemical_formula_sum "Si O2"
_cell_formula_units_Z 15
_cell_length_a 14.756702
_cell_length_b 8.103433
_cell_length_c 10.565245
_cell_angle_alpha 100.381448
_cell_angle_beta 148.951918
_cell_angle_gamma 80.824820
_cell_volume 640.904419
_symmetry_space_group_name_H-M "P -1"
_symmetry_group_IT_number 2
_symmetry_cell_setting 'triclinic'
loop_
_space_group_symop_operation_xyz
x,y,z
-x,-y,-z
loop_
_atom_site_type_symbol
_atom_site_label
_atom_site_fract_x
_atom_site_fract_y
_atom_site_fract_z
Si Si1 0.210073 0.665883 0.193660
Si Si2 0.215062 0.069132 0.630517
Si Si3 0.923097 0.644116 0.337827
Si Si4 0.413707 0.745006 0.911465
Si Si5 0.912304 0.685301 0.055326
Si Si6 0.500000 0.500000 0.500000
Si Si7 0.448900 0.513001 0.150251
Si Si8 0.944720 0.039411 0.083303
O O1 0.410871 0.686288 0.470398
O O2 0.063284 0.672022 0.126868
O O3 0.230870 0.463037 0.158442
O O4 0.149372 0.780679 0.020862
O O5 0.085024 0.178153 0.577959
O O6 0.115096 0.049463 0.375980
O O7 0.278816 0.892885 0.738378
O O8 0.392161 0.175382 0.841380
O O9 0.000569 0.649294 0.290747
O O10 0.000000 0.500000 0.500000
O O11 0.722045 0.601535 0.060011
O O12 0.415283 0.597624 0.787239
O O13 0.388397 0.663820 0.006769
O O14 0.843173 0.875882 0.990103
O O15 0.504842 0.567844 0.363123
O O16 0.000000 0.000000 0.000000
#
# Coordination Sequence:
#
# PCOD9027574 Si02
#       8
#     2   2   2   2   2   1   2   2
#     4  10  23  43  65  97 136 172 223 267 345 402
#     4  10  22  41  68  95 131 173 223 280 328 407
#     4  11  23  40  63  96 130 170 230 275 325 404
#     4   9  22  44  66  94 135 179 218 270 345 401
#     4  10  22  42  66  93 134 175 211 276 335 393
#     4  12  24  40  70  98 134 176 218 292 324 400
#     4  10  23  40  66  97 131 177 224 272 337 401
#     4  10  23  40  65 102 128 171 226 276 335 399
#
# _framework density 23.404426999999998
#
# number of rings (size 3 to 8) (size 9 to 14) (size 15 to 20)
#    0.000    1.867    1.333    0.800    5.600    6.933 
#    0.000    0.667    0.000    0.000    0.000    0.000 
#    0.000    0.000    0.000    0.000    0.000    0.000 
#
# Total GULP energy -83567.262494 kJ/mol
# GULP energy per Si atom -5571.150833 kJ/mol
# Density = 2.335116 g / cm^3
# Si number density = 23.404427 Si / 1000 Ang^3
#
#
#
# Elastic Constant Matrix: (Units=GPa)
#
#
# Indices 1 2 3 4 5 6 
#
# 1 77.5906 30.5974 43.8257 -13.7688 -25.3337 3.7765
# 2 30.5974 120.9313 60.2426 -30.3147 -12.7055 6.4767
# 3 43.8257 60.2426 126.9296 -24.3062 -26.3482 -9.4372
# 4 -13.7688 -30.3147 -24.3062 47.9705 5.0913 0.7366
# 5 -25.3337 -12.7055 -26.3482 5.0913 50.4370 -1.1849
# 6 3.7765 6.4767 -9.4372 0.7366 -1.1849 26.3222
#
#
#
# Elastic Compliance Matrix: (Units=1/GPa)
#
#
# Indices 1 2 3 4 5 6 
#
# 1 0.018414 -0.001157 -0.004437 0.001686 0.006383 -0.003708
# 2 -0.001157 0.012593 -0.005098 0.005195 -0.000712 -0.004938
# 3 -0.004437 -0.005098 0.013404 0.001825 0.003465 0.006801
# 4 0.001686 0.005195 0.001825 0.025508 0.000497 -0.001557
# 5 0.006383 -0.000712 0.003465 0.000497 0.024651 0.001598
# 6 -0.003708 -0.004938 0.006801 -0.001557 0.001598 0.042292
#
#
# Mechanical properties :
#
#
# Convention : Reuss Voigt Hill
#
# Bulk Modulus (GPa) = 43.42486 66.08699 54.75592
# Shear Modulus (GPa) = 30.13489 37.66500 33.89995
#
# Velocity S-wave (km/s) = 3.59217 4.01597 3.80997
# Velocity P-wave (km/s) = 5.98325 7.05708 6.54223
#
# Compressibility (1/GPa) = 0.02302828
#
# Stress axis : x y z
#
# Youngs Moduli (GPa) = 54.30659 79.40881 74.60433
#
# Poissons Ratio (x) = 0.09189 0.33100
# Poissons Ratio (y) = 0.06284 0.38030
# Poissons Ratio (z) = 0.24094 0.40479
#
# Static dielectric constant tensor:
#      x y z
#    x 0.590350 -0.153110 -2.476990 
#    y -0.153110 1.936960 -0.244440 
#    z -2.476990 -0.244440 -2.566290 
# 
# From -- ./inp_files/298613.got.cif
#   From: 2010.05.17/outbox.cif.g08.bks.cpg/sg2_150_cif.got.tgz:298613.got - 2010.06.03 11:33:40.
