data_PCOD9027533
_publ_section_title
;
Structure prediction by ZEFSAII (Michael W. Deem and Ramdas Pophale) SiO2 
 PCOD9027533
Probable space group: P -1
;
_chemical_formula_sum "Si O2"
_cell_formula_units_Z 16
_cell_length_a 13.564986
_cell_length_b 12.709190
_cell_length_c 6.647412
_cell_angle_alpha 134.755356
_cell_angle_beta 114.709575
_cell_angle_gamma 85.122115
_cell_volume 699.305803
_symmetry_space_group_name_H-M "P -1"
_symmetry_group_IT_number 2
_symmetry_cell_setting 'triclinic'
loop_
_space_group_symop_operation_xyz
x,y,z
-x,-y,-z
loop_
_atom_site_type_symbol
_atom_site_label
_atom_site_fract_x
_atom_site_fract_y
_atom_site_fract_z
Si Si1 0.338427 0.661116 0.752476
Si Si2 0.948029 0.401148 0.018325
Si Si3 0.563039 0.733299 0.304655
Si Si4 0.750739 0.058190 0.861851
Si Si5 0.100201 0.079603 0.972491
Si Si6 0.856351 0.044950 0.532655
Si Si7 0.570316 0.459471 0.691566
Si Si8 0.156423 0.425948 0.537069
O O1 0.349562 0.615079 0.468612
O O2 0.271155 0.509935 0.624118
O O3 0.460107 0.735692 0.069514
O O4 0.270329 0.783779 0.881946
O O5 0.860913 0.472249 0.154088
O O6 0.052987 0.417060 0.282333
O O7 0.892155 0.215647 0.689433
O O8 0.000000 0.500000 0.000000
O O9 0.508453 0.658023 0.368809
O O10 0.650424 0.905214 0.641952
O O11 0.619320 0.617948 0.078551
O O12 0.761266 0.042002 0.609948
O O13 0.868564 0.046869 0.037627
O O14 0.969782 0.033765 0.727013
O O15 0.172606 0.087111 0.838901
O O16 0.138592 0.247275 0.335092
O O17 0.500000 0.500000 0.500000
#
# Coordination Sequence:
#
# PCOD9027533 Si02
#       8
#     2   2   2   2   2   2   2   2
#     4  11  24  42  68  96 135 167 218 271 320 382
#     4  10  22  41  68  92 132 169 215 264 326 382
#     4  10  24  43  67  98 128 173 215 268 325 384
#     4  12  25  41  68  95 134 171 214 270 324 384
#     4  10  25  40  67  94 133 171 217 263 325 381
#     4  10  23  45  62  98 132 171 215 267 323 388
#     4   9  22  43  68  91 129 165 218 268 318 382
#     4  10  23  41  64  99 127 167 220 266 315 389
#
# _framework density 22.879833999999999
#
# number of rings (size 3 to 8) (size 9 to 14) (size 15 to 20)
#    0.000    1.750    1.250    0.750    8.750    6.500 
#    0.000    0.000    0.000    0.000    0.000    0.000 
#    0.000    0.000    0.000    0.000    0.000    0.000 
#
# Total GULP energy -89466.729648 kJ/mol
# GULP energy per Si atom -5591.670603 kJ/mol
# Density = 2.282776 g / cm^3
# Si number density = 22.879834 Si / 1000 Ang^3
#
#
#
# Elastic Constant Matrix: (Units=GPa)
#
#
# Indices 1 2 3 4 5 6 
#
# 1 77.9977 26.5669 26.7265 -6.2380 -36.2877 3.3161
# 2 26.5669 88.6336 14.5327 -8.8829 -9.6474 -4.8025
# 3 26.7265 14.5327 49.5262 -9.7981 -11.9191 -6.9830
# 4 -6.2380 -8.8829 -9.7981 29.2857 5.7791 -8.6402
# 5 -36.2877 -9.6474 -11.9191 5.7791 44.2269 1.0676
# 6 3.3161 -4.8025 -6.9830 -8.6402 1.0676 38.9858
#
#
#
# Elastic Compliance Matrix: (Units=1/GPa)
#
#
# Indices 1 2 3 4 5 6 
#
# 1 0.026710 -0.005108 -0.010239 -0.004869 0.018830 -0.006330
# 2 -0.005108 0.013225 -0.000389 0.004060 -0.002013 0.002949
# 3 -0.010239 -0.000389 0.028423 0.010097 -0.002343 0.008216
# 4 -0.004869 0.004060 0.010097 0.042591 -0.006251 0.012333
# 5 0.018830 -0.002013 -0.002343 -0.006251 0.037920 -0.004693
# 6 -0.006330 0.002949 0.008216 0.012333 -0.004693 0.030885
#
#
# Mechanical properties :
#
#
# Convention : Reuss Voigt Hill
#
# Bulk Modulus (GPa) = 27.11183 39.08995 33.10089
# Shear Modulus (GPa) = 22.36916 32.38842 27.37879
#
# Velocity S-wave (km/s) = 3.13018 3.76651 3.46299
# Velocity P-wave (km/s) = 4.99394 6.00312 5.52163
#
# Compressibility (1/GPa) = 0.03688427
#
# Stress axis : x y z
#
# Youngs Moduli (GPa) = 37.43970 75.61423 35.18320
#
# Poissons Ratio (x) = 0.38627 0.36023
# Poissons Ratio (y) = 0.19126 0.01370
# Poissons Ratio (z) = 0.38333 0.02945
#
# Static dielectric constant tensor:
#      x y z
#    x 1.911710 -0.039360 -0.010120 
#    y -0.039360 1.843260 -0.035670 
#    z -0.010120 -0.035670 1.836870 
# 
# From -- ./inp_files/95672.got.cif
#   From: 2010.05.17/outbox.cif.g08.bks.cpg/sg2_48_cif.got.tgz:95672.got - 2010.06.03 11:33:40.
