data_PCOD9027328
_publ_section_title
;
Structure prediction by ZEFSAII (Michael W. Deem and Ramdas Pophale) SiO2 
 PCOD9027328
Probable space group: P -1
;
_chemical_formula_sum "Si O2"
_cell_formula_units_Z 16
_cell_length_a 6.637234
_cell_length_b 14.231443
_cell_length_c 9.209997
_cell_angle_alpha 110.658539
_cell_angle_beta 77.284623
_cell_angle_gamma 108.950678
_cell_volume 764.399519
_symmetry_space_group_name_H-M "P -1"
_symmetry_group_IT_number 2
_symmetry_cell_setting 'triclinic'
loop_
_space_group_symop_operation_xyz
x,y,z
-x,-y,-z
loop_
_atom_site_type_symbol
_atom_site_label
_atom_site_fract_x
_atom_site_fract_y
_atom_site_fract_z
Si Si1 0.799091 0.041826 0.077603
Si Si2 0.720817 0.502278 0.383113
Si Si3 0.951558 0.608418 0.675691
Si Si4 0.534646 0.457667 0.813896
Si Si5 0.406499 0.774419 0.339249
Si Si6 0.361231 0.903525 0.144085
Si Si7 0.958336 0.192943 0.374643
Si Si8 0.222160 0.077252 0.448699
O O1 0.816036 0.092537 0.260061
O O2 0.594736 0.942975 0.058645
O O3 0.787762 0.116638 0.984816
O O4 0.000000 0.000000 0.000000
O O5 0.500000 0.500000 0.500000
O O6 0.902200 0.575766 0.495731
O O7 0.666314 0.534922 0.251042
O O8 0.816623 0.402387 0.316093
O O9 0.756890 0.533968 0.755873
O O10 0.951356 0.727295 0.726965
O O11 0.551159 0.339038 0.740124
O O12 0.500000 0.500000 0.000000
O O13 0.351105 0.813758 0.212704
O O14 0.204901 0.770987 0.473904
O O15 0.610023 0.861583 0.423635
O O16 0.317701 0.001947 0.291524
O O17 0.148569 0.164323 0.415306
O O18 0.000000 0.000000 0.500000
#
# Coordination Sequence:
#
# PCOD9027328 Si02
#       8
#     2   2   2   2   2   2   2   2
#     4  11  24  42  63  94 140 175 209 271 329 387
#     4   9  18  40  65  88 124 161 210 274 320 367
#     4  10  22  41  67  96 127 168 224 271 318 393
#     4  11  26  46  64  96 139 173 218 278 332 388
#     4  12  25  42  70  96 130 179 226 267 331 396
#     4  11  24  43  63  98 138 173 218 270 328 395
#     4  12  23  40  70  99 128 176 225 264 333 389
#     4  12  23  42  69 102 135 170 222 276 322 395
#
# _framework density 20.931462
#
# number of rings (size 3 to 8) (size 9 to 14) (size 15 to 20)
#    0.000    1.000    3.750    4.125    0.000    3.500 
#    0.000    0.000    0.000    0.000    0.000    0.000 
#    0.000    0.000    0.000    0.000    0.000    0.000 
#
# Total GULP energy -89265.359272 kJ/mol
# GULP energy per Si atom -5579.084955 kJ/mol
# Density = 2.088382 g / cm^3
# Si number density = 20.931462 Si / 1000 Ang^3
#
#
#
# Elastic Constant Matrix: (Units=GPa)
#
#
# Indices 1 2 3 4 5 6 
#
# 1 119.8166 47.9993 35.4559 -20.5749 -0.2083 -28.9128
# 2 47.9993 95.2033 26.3238 -18.7915 -8.1582 -17.1588
# 3 35.4559 26.3238 100.3178 -20.5822 9.4435 -16.7838
# 4 -20.5749 -18.7915 -20.5822 24.0630 -4.7175 0.5908
# 5 -0.2083 -8.1582 9.4435 -4.7175 34.1244 -7.1204
# 6 -28.9128 -17.1588 -16.7838 0.5908 -7.1204 40.3329
#
#
#
# Elastic Compliance Matrix: (Units=1/GPa)
#
#
# Indices 1 2 3 4 5 6 
#
# 1 0.013281 -0.003093 -0.001055 0.008323 0.002470 0.008079
# 2 -0.003093 0.015752 -0.000684 0.010204 0.006429 0.005185
# 3 -0.001055 -0.000684 0.013311 0.009518 -0.001692 0.004053
# 4 0.008323 0.010204 0.009518 0.066819 0.012321 0.015464
# 5 0.002470 0.006429 -0.001692 0.012321 0.035076 0.009813
# 6 0.008079 0.005185 0.004053 0.015464 0.009813 0.035984
#
#
# Mechanical properties :
#
#
# Convention : Reuss Voigt Hill
#
# Bulk Modulus (GPa) = 30.60180 59.43288 45.01734
# Shear Modulus (GPa) = 24.90272 33.40796 29.15534
#
# Velocity S-wave (km/s) = 3.45298 3.99941 3.73620
# Velocity P-wave (km/s) = 5.52713 7.05569 6.33766
#
# Compressibility (1/GPa) = 0.03267782
#
# Stress axis : x y z
#
# Youngs Moduli (GPa) = 75.29691 63.48357 75.12567
#
# Poissons Ratio (x) = 0.19638 0.07928
# Poissons Ratio (y) = 0.23292 0.05141
# Poissons Ratio (z) = 0.07946 0.04344
#
# Static dielectric constant tensor:
#      x y z
#    x 1.748480 -0.016120 0.027980 
#    y -0.016120 1.849570 0.031950 
#    z 0.027980 0.031950 1.734460 
# 
# From -- ./inp_files/135036.got.cif
#   From: 2010.05.17/outbox.cif.g08.bks.cpg/sg2_68_cif.got.tgz:135036.got - 2010.06.03 11:33:40.
