data_PCOD9027866
_publ_section_title
;
Structure prediction by ZEFSAII (Michael W. Deem and Ramdas Pophale) SiO2 
 PCOD9027866
Probable space group: P -1
;
_chemical_formula_sum "Si O2"
_cell_formula_units_Z 16
_cell_length_a 11.446921
_cell_length_b 9.930416
_cell_length_c 12.829852
_cell_angle_alpha 142.011811
_cell_angle_beta 46.629619
_cell_angle_gamma 117.265093
_cell_volume 641.168055
_symmetry_space_group_name_H-M "P -1"
_symmetry_group_IT_number 2
_symmetry_cell_setting 'triclinic'
loop_
_space_group_symop_operation_xyz
x,y,z
-x,-y,-z
loop_
_atom_site_type_symbol
_atom_site_label
_atom_site_fract_x
_atom_site_fract_y
_atom_site_fract_z
Si Si1 0.344218 0.161766 0.143565
Si Si2 0.875033 0.350868 0.896753
Si Si3 0.663975 0.244731 0.631424
Si Si4 0.567308 0.346249 0.987239
Si Si5 0.992244 0.695399 0.881458
Si Si6 0.336951 0.432761 0.516281
Si Si7 0.775435 0.783470 0.357995
Si Si8 0.002353 0.846525 0.738977
O O1 0.329503 0.360575 0.357685
O O2 0.165175 0.108522 0.197841
O O3 0.416018 0.226413 0.028214
O O4 0.500000 0.000000 0.000000
O O5 0.721804 0.242898 0.898726
O O6 0.917712 0.502009 0.865841
O O7 0.038465 0.178317 0.718397
O O8 0.814150 0.536179 0.134891
O O9 0.638215 0.328724 0.817565
O O10 0.836309 0.275540 0.495545
O O11 0.672632 0.980348 0.474556
O O12 0.504146 0.400462 0.776295
O O13 0.186477 0.634738 0.743577
O O14 0.965217 0.718931 0.789183
O O15 0.942953 0.929763 0.113140
O O16 0.500000 0.500000 0.500000
O O17 0.302474 0.236881 0.494249
#
# Coordination Sequence:
#
# PCOD9027866 Si02
#       8
#     2   2   2   2   2   2   2   2
#     4  12  27  45  71 104 138 186 231 291 348 412
#     4  10  22  43  69  96 136 176 230 283 341 412
#     4  11  25  44  65 102 136 184 224 283 347 414
#     4  11  27  43  65 100 143 177 227 284 348 407
#     4  10  23  44  69 101 131 188 226 287 345 413
#     4  11  23  42  69 102 139 179 233 286 347 410
#     4  10  22  41  69  98 130 183 230 278 343 408
#     4  11  25  44  72  98 141 179 237 280 351 421
#
# _framework density 24.954457000000001
#
# number of rings (size 3 to 8) (size 9 to 14) (size 15 to 20)
#    0.000    1.250    1.250    3.000    8.750    2.000 
#    2.250    0.000    0.000    0.000    0.000    0.000 
#    0.000    0.000    0.000    0.000    0.000    0.000 
#
# Total GULP energy -89433.380713 kJ/mol
# GULP energy per Si atom -5589.586295 kJ/mol
# Density = 2.489766 g / cm^3
# Si number density = 24.954457 Si / 1000 Ang^3
#
#
#
# Elastic Constant Matrix: (Units=GPa)
#
#
# Indices 1 2 3 4 5 6 
#
# 1 98.4366 28.7027 29.7675 -29.5467 -11.2308 3.8141
# 2 28.7027 75.1976 32.8727 -24.5049 7.9557 -9.7747
# 3 29.7675 32.8727 138.7683 -25.6551 2.3501 -0.7131
# 4 -29.5467 -24.5049 -25.6551 39.4372 -5.7570 -3.2880
# 5 -11.2308 7.9557 2.3501 -5.7570 33.2375 -5.2849
# 6 3.8141 -9.7747 -0.7131 -3.2880 -5.2849 43.0758
#
#
#
# Elastic Compliance Matrix: (Units=1/GPa)
#
#
# Indices 1 2 3 4 5 6 
#
# 1 0.015180 -0.003010 -0.000815 0.010053 0.007594 -0.000342
# 2 -0.003010 0.019019 -0.002304 0.007983 -0.003268 0.004753
# 3 -0.000815 -0.002304 0.008585 0.003585 0.000290 0.000001
# 4 0.010053 0.007983 0.003585 0.041991 0.009354 0.005334
# 5 0.007594 -0.003268 0.000290 0.009354 0.035619 0.003675
# 6 -0.000342 0.004753 0.000001 0.005334 0.003675 0.025182
#
#
# Mechanical properties :
#
#
# Convention : Reuss Voigt Hill
#
# Bulk Modulus (GPa) = 32.75887 55.00981 43.88434
# Shear Modulus (GPa) = 29.76032 37.88742 33.82387
#
# Velocity S-wave (km/s) = 3.45713 3.90072 3.68560
# Velocity P-wave (km/s) = 5.39367 6.50994 5.97792
#
# Compressibility (1/GPa) = 0.03052608
#
# Stress axis : x y z
#
# Youngs Moduli (GPa) = 65.87611 52.57764 116.48555
#
# Poissons Ratio (x) = 0.15825 0.09496
# Poissons Ratio (y) = 0.19827 0.26840
# Poissons Ratio (z) = 0.05370 0.12115
#
# Static dielectric constant tensor:
#      x y z
#    x 1.977930 -0.074000 -0.007140 
#    y -0.074000 2.057320 0.072060 
#    z -0.007140 0.072060 2.059960 
# 
# From -- ./inp_files/519901.got.cif
#   From: 2010.05.17/outbox.cif.g08.bks.cpg/sg2_260_cif.got.tgz:519901.got - 2010.06.03 11:33:40.
