data_PCOD9027779
_publ_section_title
;
Structure prediction by ZEFSAII (Michael W. Deem and Ramdas Pophale) SiO2 
 PCOD9027779
Probable space group: P -1
;
_chemical_formula_sum "Si O2"
_cell_formula_units_Z 16
_cell_length_a 16.744969
_cell_length_b 12.771481
_cell_length_c 10.718493
_cell_angle_alpha 110.018764
_cell_angle_beta 134.093503
_cell_angle_gamma 34.516633
_cell_volume 768.008045
_symmetry_space_group_name_H-M "P -1"
_symmetry_group_IT_number 2
_symmetry_cell_setting 'triclinic'
loop_
_space_group_symop_operation_xyz
x,y,z
-x,-y,-z
loop_
_atom_site_type_symbol
_atom_site_label
_atom_site_fract_x
_atom_site_fract_y
_atom_site_fract_z
Si Si1 0.723077 0.733755 0.144225
Si Si2 0.862079 0.487050 0.444610
Si Si3 0.638880 0.336995 0.282565
Si Si4 0.749846 0.477109 0.942221
Si Si5 0.056195 0.124032 0.333034
Si Si6 0.922274 0.003980 0.236072
Si Si7 0.497750 0.369308 0.473485
Si Si8 0.456366 0.721487 0.223327
O O1 0.760758 0.650911 0.290220
O O2 0.944307 0.615382 0.314494
O O3 0.709456 0.639378 0.001159
O O4 0.500000 0.000000 0.000000
O O5 0.984036 0.276545 0.421251
O O6 0.654923 0.630506 0.362906
O O7 0.440212 0.437890 0.167474
O O8 0.778447 0.137237 0.260755
O O9 0.537096 0.531215 0.180735
O O10 0.822581 0.231643 0.534579
O O11 0.731957 0.472674 0.773864
O O12 0.973006 0.244127 0.159695
O O13 0.935940 0.112807 0.229860
O O14 0.313104 0.864820 0.492764
O O15 0.782080 0.048812 0.007722
O O16 0.500000 0.500000 0.500000
O O17 0.551634 0.293933 0.644000
#
# Coordination Sequence:
#
# PCOD9027779 Si02
#       8
#     2   2   2   2   2   2   2   2
#     4  10  22  41  69  91 119 156 214 272 312 357
#     4  10  23  41  65  97 117 160 215 260 314 365
#     4  11  21  34  57  93 123 158 203 251 306 381
#     4  11  22  39  60  89 123 169 209 253 313 368
#     4  11  20  37  63  82 128 165 204 254 307 369
#     4  11  20  32  57  86 121 164 195 245 314 360
#     4  12  24  39  57  93 134 171 207 242 303 385
#     4  12  23  39  59  90 136 161 200 257 307 374
#
# _framework density 20.833114999999999
#
# number of rings (size 3 to 8) (size 9 to 14) (size 15 to 20)
#    0.000    1.000    5.000    2.625    0.000    4.000 
#    0.000    0.625    0.000   10.500    0.000    0.000 
#    0.000    0.000    0.000    0.000    0.000    0.000 
#
# Total GULP energy -89299.574536 kJ/mol
# GULP energy per Si atom -5581.223408 kJ/mol
# Density = 2.078570 g / cm^3
# Si number density = 20.833115 Si / 1000 Ang^3
#
#
#
# Elastic Constant Matrix: (Units=GPa)
#
#
# Indices 1 2 3 4 5 6 
#
# 1 64.7857 4.0213 26.8092 2.2958 13.9038 -1.4472
# 2 4.0213 65.5504 32.3742 -17.5669 6.0071 11.0163
# 3 26.8092 32.3742 131.2450 5.5741 5.4689 8.3671
# 4 2.2958 -17.5669 5.5741 35.9556 1.7087 -0.5708
# 5 13.9038 6.0071 5.4689 1.7087 34.9558 6.1599
# 6 -1.4472 11.0163 8.3671 -0.5708 6.1599 22.1850
#
#
#
# Elastic Compliance Matrix: (Units=1/GPa)
#
#
# Indices 1 2 3 4 5 6 
#
# 1 0.018816 0.000878 -0.004033 0.000295 -0.007809 0.004488
# 2 0.000878 0.022815 -0.005693 0.011965 -0.002535 -0.008113
# 3 -0.004033 -0.005693 0.010074 -0.004186 0.001522 -0.001766
# 4 0.000295 0.011965 -0.004186 0.034374 -0.002723 -0.002703
# 5 -0.007809 -0.002535 0.001522 -0.002723 0.033673 -0.009245
# 6 0.004488 -0.008113 -0.001766 -0.002703 -0.009245 0.052561
#
#
# Mechanical properties :
#
#
# Convention : Reuss Voigt Hill
#
# Bulk Modulus (GPa) = 29.40304 43.11006 36.25655
# Shear Modulus (GPa) = 24.83282 31.84436 28.33859
#
# Velocity S-wave (km/s) = 3.45626 3.91390 3.69218
# Velocity P-wave (km/s) = 5.48379 6.41583 5.96803
#
# Compressibility (1/GPa) = 0.03401009
#
# Stress axis : x y z
#
# Youngs Moduli (GPa) = 53.14671 43.83010 99.26191
#
# Poissons Ratio (x) = -0.03849 0.40036
# Poissons Ratio (y) = -0.04667 0.56505
# Poissons Ratio (z) = 0.21436 0.24951
#
# Static dielectric constant tensor:
#      x y z
#    x 1.762170 -0.041040 -0.026980 
#    y -0.041040 1.767920 -0.011400 
#    z -0.026980 -0.011400 1.819040 
# 
# From -- ./inp_files/464700.got.cif
#   From: 2010.05.17/outbox.cif.g08.bks.cpg/sg2_233_cif.got.tgz:464700.got - 2010.06.03 11:33:40.
