data_PCOD9027460
_publ_section_title
;
Structure prediction by ZEFSAII (Michael W. Deem and Ramdas Pophale) SiO2 
 PCOD9027460
Probable space group: P -1
;
_chemical_formula_sum "Si O2"
_cell_formula_units_Z 14
_cell_length_a 13.199239
_cell_length_b 10.568937
_cell_length_c 14.757878
_cell_angle_alpha 119.543005
_cell_angle_beta 141.378117
_cell_angle_gamma 32.829149
_cell_volume 610.025763
_symmetry_space_group_name_H-M "P -1"
_symmetry_group_IT_number 2
_symmetry_cell_setting 'triclinic'
loop_
_space_group_symop_operation_xyz
x,y,z
-x,-y,-z
loop_
_atom_site_type_symbol
_atom_site_label
_atom_site_fract_x
_atom_site_fract_y
_atom_site_fract_z
Si Si1 0.553911 0.715388 0.888121
Si Si2 0.828255 0.021807 0.454786
Si Si3 0.861710 0.530890 0.749322
Si Si4 0.884933 0.483707 0.535173
Si Si5 0.956335 0.140724 0.735744
Si Si6 0.043249 0.857853 0.062259
Si Si7 0.477216 0.095304 0.717333
O O1 0.414463 0.860036 0.743753
O O2 0.690658 0.452346 0.881757
O O3 0.290994 0.903920 0.844970
O O4 0.823753 0.622425 0.067038
O O5 0.775897 0.166744 0.554063
O O6 0.000000 0.000000 0.500000
O O7 0.055596 0.722660 0.533808
O O8 0.846700 0.507097 0.623789
O O9 0.855300 0.385054 0.748000
O O10 0.595483 0.842491 0.696441
O O11 0.622926 0.762433 0.398671
O O12 0.194531 0.326349 0.666519
O O13 0.924385 0.103111 0.801087
O O14 0.750176 0.979243 0.905613
O O15 0.000000 0.000000 0.000000
#
# Coordination Sequence:
#
# PCOD9027460 Si02
#       7
#     2   2   2   2   2   2   2
#     4  10  23  42  68 102 134 172 222 279 336 394
#     4  10  22  41  68 102 133 176 218 275 336 398
#     4  11  22  41  73 101 131 172 229 276 330 401
#     4  11  22  46  68  95 144 174 222 277 327 406
#     4  11  24  42  69 102 131 182 219 274 346 389
#     4  11  27  45  66  98 139 176 227 282 330 407
#     4  10  26  43  66 100 130 186 222 273 336 392
#
# _framework density 22.949850999999999
#
# number of rings (size 3 to 8) (size 9 to 14) (size 15 to 20)
#    0.000    1.429    2.857    1.714    8.000    2.286 
#   12.857    0.000    0.000    0.000    0.000    0.000 
#    0.000    0.000    0.000    0.000    0.000    0.000 
#
# Total GULP energy -78320.339552 kJ/mol
# GULP energy per Si atom -5594.309968 kJ/mol
# Density = 2.289762 g / cm^3
# Si number density = 22.949851 Si / 1000 Ang^3
#
#
#
# Elastic Constant Matrix: (Units=GPa)
#
#
# Indices 1 2 3 4 5 6 
#
# 1 87.4768 23.7665 18.3106 1.7508 -36.1086 -2.1324
# 2 23.7665 100.1123 33.6258 -8.3943 -16.3645 2.4710
# 3 18.3106 33.6258 83.6581 -3.4576 -12.2085 -5.4445
# 4 1.7508 -8.3943 -3.4576 37.5026 -3.9280 -3.1877
# 5 -36.1086 -16.3645 -12.2085 -3.9280 41.6380 -4.6536
# 6 -2.1324 2.4710 -5.4445 -3.1877 -4.6536 39.1472
#
#
#
# Elastic Compliance Matrix: (Units=1/GPa)
#
#
# Indices 1 2 3 4 5 6 
#
# 1 0.018534 -0.001562 -0.000948 0.000571 0.015556 0.002872
# 2 -0.001562 0.012429 -0.004254 0.002635 0.002425 -0.000958
# 3 -0.000948 -0.004254 0.014375 0.000851 0.002084 0.002533
# 4 0.000571 0.002635 0.000851 0.028044 0.004742 0.002830
# 5 0.015556 0.002425 0.002084 0.004742 0.040205 0.006150
# 6 0.002872 -0.000958 0.002533 0.002830 0.006150 0.027075
#
#
# Mechanical properties :
#
#
# Convention : Reuss Voigt Hill
#
# Bulk Modulus (GPa) = 31.43561 46.96145 39.19853
# Shear Modulus (GPa) = 30.34097 36.69386 33.51742
#
# Velocity S-wave (km/s) = 3.63995 4.00293 3.82575
# Velocity P-wave (km/s) = 5.60294 6.47083 6.05246
#
# Compressibility (1/GPa) = 0.03181106
#
# Stress axis : x y z
#
# Youngs Moduli (GPa) = 53.95448 80.45548 69.56593
#
# Poissons Ratio (x) = 0.12564 0.06597
# Poissons Ratio (y) = 0.08426 0.29591
# Poissons Ratio (z) = 0.05117 0.34223
#
# Static dielectric constant tensor:
#      x y z
#    x 1.903790 -0.017260 0.052710 
#    y -0.017260 1.853380 -0.024780 
#    z 0.052710 -0.024780 1.888560 
# 
# From -- ./inp_files/532609.got.cif
#   From: 2010.05.17/outbox.cif.g08.bks.cpg/sg2_267_cif.got.tgz:532609.got - 2010.06.03 11:33:40.
