data_PCOD9027993
_publ_section_title
;
Structure prediction by ZEFSAII (Michael W. Deem and Ramdas Pophale) SiO2 
 PCOD9027993
Probable space group: P -1
;
_chemical_formula_sum "Si O2"
_cell_formula_units_Z 16
_cell_length_a 8.794425
_cell_length_b 19.211460
_cell_length_c 13.545284
_cell_angle_alpha 42.625630
_cell_angle_beta 149.949416
_cell_angle_gamma 123.866346
_cell_volume 754.384426
_symmetry_space_group_name_H-M "P -1"
_symmetry_group_IT_number 2
_symmetry_cell_setting 'triclinic'
loop_
_space_group_symop_operation_xyz
x,y,z
-x,-y,-z
loop_
_atom_site_type_symbol
_atom_site_label
_atom_site_fract_x
_atom_site_fract_y
_atom_site_fract_z
Si Si1 0.636218 0.900773 0.416617
Si Si2 0.348127 0.440702 0.396827
Si Si3 0.623254 0.489073 0.971114
Si Si4 0.404361 0.277730 0.027904
Si Si5 0.619549 0.879532 0.655896
Si Si6 0.383782 0.861747 0.893169
Si Si7 0.376480 0.809895 0.168142
Si Si8 0.210232 0.579748 0.502640
O O1 0.534602 0.872766 0.498954
O O2 0.498403 0.855763 0.288976
O O3 0.014742 0.865466 0.668473
O O4 0.558569 0.027254 0.227509
O O5 0.500000 0.500000 0.500000
O O6 0.469618 0.315241 0.609601
O O7 0.502113 0.470234 0.353035
O O8 0.981024 0.481297 0.159382
O O9 0.563478 0.376500 0.019605
O O10 0.500000 0.500000 0.000000
O O11 0.402586 0.595266 0.689820
O O12 0.510530 0.194876 0.262505
O O13 0.447758 0.226678 0.997150
O O14 0.032264 0.325102 0.781479
O O15 0.500000 0.000000 0.500000
O O16 0.998267 0.845343 0.913944
O O17 0.471172 0.845905 0.074698
O O18 0.000000 0.500000 0.500000
#
# Coordination Sequence:
#
# PCOD9027993 Si02
#       8
#     2   2   2   2   2   2   2   2
#     4  10  22  44  66  99 135 183 233 283 348 420
#     4  12  25  45  69  98 140 183 230 294 354 416
#     4  11  26  43  69 103 136 183 239 292 355 427
#     4  11  22  45  69 100 139 183 232 292 358 417
#     4  11  23  45  69 100 145 184 230 293 349 420
#     4  10  22  41  70  94 140 179 227 292 347 416
#     4  11  25  42  68 103 135 184 238 281 355 425
#     4  10  23  44  69  97 136 175 232 290 353 421
#
# _framework density 21.209344999999999
#
# number of rings (size 3 to 8) (size 9 to 14) (size 15 to 20)
#    0.000    1.250    2.500    3.000    5.250    1.500 
#    4.500    0.000    0.000    0.000    0.000    0.000 
#    0.000    0.000    0.000    0.000    0.000    0.000 
#
# Total GULP energy -89229.767968 kJ/mol
# GULP energy per Si atom -5576.860498 kJ/mol
# Density = 2.116107 g / cm^3
# Si number density = 21.209345 Si / 1000 Ang^3
#
#
#
# Elastic Constant Matrix: (Units=GPa)
#
#
# Indices 1 2 3 4 5 6 
#
# 1 120.2080 26.5458 39.7103 10.3150 -19.1455 -1.6680
# 2 26.5458 94.0064 40.2390 10.6678 -8.2476 -13.3693
# 3 39.7103 40.2390 92.9771 13.4386 -12.9281 9.3587
# 4 10.3150 10.6678 13.4386 31.9036 -5.2944 -13.0923
# 5 -19.1455 -8.2476 -12.9281 -5.2944 51.7812 4.9065
# 6 -1.6680 -13.3693 9.3587 -13.0923 4.9065 30.9293
#
#
#
# Elastic Compliance Matrix: (Units=1/GPa)
#
#
# Indices 1 2 3 4 5 6 
#
# 1 0.010183 -0.001016 -0.003447 -0.000924 0.002615 0.000347
# 2 -0.001016 0.015273 -0.007603 0.002421 -0.000537 0.009958
# 3 -0.003447 -0.007603 0.018543 -0.009238 0.002468 -0.013385
# 4 -0.000924 0.002421 -0.009238 0.043921 0.000109 0.022366
# 5 0.002615 -0.000537 0.002468 0.000109 0.021215 -0.004157
# 6 0.000347 0.009958 -0.013385 0.022366 -0.004157 0.050832
#
#
# Mechanical properties :
#
#
# Convention : Reuss Voigt Hill
#
# Bulk Modulus (GPa) = 50.33427 57.79796 54.06612
# Shear Modulus (GPa) = 26.21621 36.30259 31.25940
#
# Velocity S-wave (km/s) = 3.51959 4.14168 3.84324
# Velocity P-wave (km/s) = 6.34825 7.08390 6.72614
#
# Compressibility (1/GPa) = 0.01986718
#
# Stress axis : x y z
#
# Youngs Moduli (GPa) = 98.20651 65.47405 53.92738
#
# Poissons Ratio (x) = 0.06655 0.18588
# Poissons Ratio (y) = 0.09982 0.41000
# Poissons Ratio (z) = 0.33850 0.49779
#
# Static dielectric constant tensor:
#      x y z
#    x 1.765730 0.004380 -0.031490 
#    y 0.004380 1.747800 0.021550 
#    z -0.031490 0.021550 1.764550 
# 
# From -- ./inp_files/403064.got.cif
#   From: 2010.05.17/outbox.cif.g08.bks.cpg/sg2_202_cif.got.tgz:403064.got - 2010.06.03 11:33:40.
