data_PCOD9027749
_publ_section_title
;
Structure prediction by ZEFSAII (Michael W. Deem and Ramdas Pophale) SiO2 
 PCOD9027749
Probable space group: P -1
;
_chemical_formula_sum "Si O2"
_cell_formula_units_Z 16
_cell_length_a 5.112768
_cell_length_b 11.721305
_cell_length_c 11.913084
_cell_angle_alpha 115.972787
_cell_angle_beta 103.528972
_cell_angle_gamma 77.907010
_cell_volume 619.318374
_symmetry_space_group_name_H-M "P -1"
_symmetry_group_IT_number 2
_symmetry_cell_setting 'triclinic'
loop_
_space_group_symop_operation_xyz
x,y,z
-x,-y,-z
loop_
_atom_site_type_symbol
_atom_site_label
_atom_site_fract_x
_atom_site_fract_y
_atom_site_fract_z
Si Si1 0.289897 0.125603 0.434266
Si Si2 0.367923 0.423326 0.051691
Si Si3 0.016176 0.219754 0.913521
Si Si4 0.758490 0.140043 0.660908
Si Si5 0.212751 0.410455 0.554881
Si Si6 0.424880 0.977826 0.809994
Si Si7 0.736120 0.164340 0.059855
Si Si8 0.186120 0.601254 0.317171
O O1 0.475888 0.138617 0.567555
O O2 0.153883 0.266888 0.458325
O O3 0.461857 0.080007 0.320480
O O4 0.121226 0.008471 0.390865
O O5 0.888699 0.645131 0.043546
O O6 0.551667 0.297124 0.066922
O O7 0.284725 0.517253 0.185300
O O8 0.500000 0.500000 0.000000
O O9 0.742075 0.197638 0.810218
O O10 0.006035 0.193226 0.034000
O O11 0.215105 0.105205 0.830777
O O12 0.887641 0.248950 0.654189
O O13 0.536876 0.412849 0.584438
O O14 0.000000 0.500000 0.500000
O O15 0.088161 0.440818 0.678854
O O16 0.291954 0.875821 0.831312
O O17 0.655134 0.039117 0.931605
#
# Coordination Sequence:
#
# PCOD9027749 Si02
#       8
#     2   2   2   2   2   2   2   2
#     4  10  23  45  74 108 144 198 240 317 380 446
#     4  11  27  44  71 103 147 198 250 310 388 443
#     4  11  23  42  73 106 143 198 248 314 375 458
#     4  10  23  43  71 104 147 181 260 303 375 439
#     4  11  27  51  76 107 153 194 259 307 379 459
#     4  10  22  41  69 104 150 185 245 304 378 450
#     4  10  22  43  64 105 146 188 245 305 370 455
#     4  11  27  48  74 109 148 200 248 322 372 448
#
# _framework density 25.834854
#
# number of rings (size 3 to 8) (size 9 to 14) (size 15 to 20)
#    0.000    1.500    1.250    1.500    7.000    6.000 
#    2.250    0.000    0.000    0.000    0.000    0.000 
#    0.000    0.000    0.000    0.000    0.000    0.000 
#
# Total GULP energy -89430.223878 kJ/mol
# GULP energy per Si atom -5589.388992 kJ/mol
# Density = 2.577605 g / cm^3
# Si number density = 25.834854 Si / 1000 Ang^3
#
#
#
# Elastic Constant Matrix: (Units=GPa)
#
#
# Indices 1 2 3 4 5 6 
#
# 1 89.2634 37.9316 41.0129 0.8135 -11.9129 17.5776
# 2 37.9316 191.9539 56.9618 14.6195 1.3418 4.4844
# 3 41.0129 56.9618 112.1439 8.3833 -13.8300 12.5454
# 4 0.8135 14.6195 8.3833 37.7751 4.8956 -8.5641
# 5 -11.9129 1.3418 -13.8300 4.8956 46.8922 2.6058
# 6 17.5776 4.4844 12.5454 -8.5641 2.6058 40.3936
#
#
#
# Elastic Compliance Matrix: (Units=1/GPa)
#
#
# Indices 1 2 3 4 5 6 
#
# 1 0.015136 -0.001784 -0.003568 -0.000530 0.003211 -0.005600
# 2 -0.001784 0.006495 -0.002772 -0.001534 -0.001334 0.000677
# 3 -0.003568 -0.002772 0.012558 -0.002708 0.003317 -0.002828
# 4 -0.000530 -0.001534 -0.002708 0.030048 -0.004465 0.007901
# 5 0.003211 -0.001334 0.003317 -0.004465 0.023889 -0.004767
# 6 -0.005600 0.000677 -0.002828 0.007901 -0.004767 0.029979
#
#
# Mechanical properties :
#
#
# Convention : Reuss Voigt Hill
#
# Bulk Modulus (GPa) = 55.73587 73.90819 64.82203
# Shear Modulus (GPa) = 35.62973 42.17585 38.90279
#
# Velocity S-wave (km/s) = 3.71770 4.04483 3.88471
# Velocity P-wave (km/s) = 6.32844 7.10522 6.72805
#
# Compressibility (1/GPa) = 0.01794177
#
# Stress axis : x y z
#
# Youngs Moduli (GPa) = 66.06820 153.96340 79.63149
#
# Poissons Ratio (x) = 0.27461 0.28409
# Poissons Ratio (y) = 0.11784 0.22077
# Poissons Ratio (z) = 0.23570 0.42685
#
# Static dielectric constant tensor:
#      x y z
#    x 2.180350 -0.044990 0.040380 
#    y -0.044990 2.081400 -0.088750 
#    z 0.040380 -0.088750 2.113270 
# 
# From -- ./inp_files/365029.got.cif
#   From: 2010.05.17/outbox.cif.g08.bks.cpg/sg2_183_cif.got.tgz:365029.got - 2010.06.03 11:33:40.
