data_PCOD9027314
_publ_section_title
;
Structure prediction by ZEFSAII (Michael W. Deem and Ramdas Pophale) SiO2 
 PCOD9027314
Probable space group: P -1
;
_chemical_formula_sum "Si O2"
_cell_formula_units_Z 14
_cell_length_a 9.376697
_cell_length_b 11.893537
_cell_length_c 14.643286
_cell_angle_alpha 28.968553
_cell_angle_beta 53.224439
_cell_angle_gamma 50.452549
_cell_volume 606.087024
_symmetry_space_group_name_H-M "P -1"
_symmetry_group_IT_number 2
_symmetry_cell_setting 'triclinic'
loop_
_space_group_symop_operation_xyz
x,y,z
-x,-y,-z
loop_
_atom_site_type_symbol
_atom_site_label
_atom_site_fract_x
_atom_site_fract_y
_atom_site_fract_z
Si Si1 0.612416 0.234396 0.683820
Si Si2 0.368845 0.976113 0.876420
Si Si3 0.438747 0.799428 0.611106
Si Si4 0.137706 0.485494 0.540676
Si Si5 0.791289 0.425328 0.802697
Si Si6 0.816201 0.952252 0.635435
Si Si7 0.696933 0.538348 0.970187
O O1 0.500000 0.500000 0.500000
O O2 0.753642 0.309940 0.645586
O O3 0.747422 0.085203 0.660981
O O4 0.463290 0.074188 0.857806
O O5 0.528376 0.769355 0.908308
O O6 0.285081 0.220835 0.678174
O O7 0.208018 0.843292 0.038485
O O8 0.634367 0.590477 0.677863
O O9 0.333615 0.919997 0.475870
O O10 0.500000 0.000000 0.500000
O O11 0.309968 0.684805 0.805947
O O12 0.000000 0.500000 0.500000
O O13 0.986821 0.488581 0.678154
O O14 0.707196 0.478621 0.900688
O O15 0.858424 0.662843 0.833921
O O16 0.000000 0.000000 0.500000
#
# Coordination Sequence:
#
# PCOD9027314 Si02
#       7
#     2   2   2   2   2   2   2
#     4   9  21  40  62  82 127 168 202 262 321 373
#     4   9  20  41  63  86 128 167 199 263 325 369
#     4  11  23  37  68  97 127 174 215 258 328 386
#     4  11  24  39  65  95 122 166 223 262 317 388
#     4  11  22  38  67  96 127 167 215 272 317 375
#     4  11  23  41  65  93 134 165 212 269 324 379
#     4  10  22  41  67  95 132 166 214 266 320 381
#
# _framework density 23.098993
#
# number of rings (size 3 to 8) (size 9 to 14) (size 15 to 20)
#    0.000    1.714    1.429    3.000    8.000    0.571 
#    0.000    0.714   15.714    0.000    0.000    0.000 
#    0.000    0.000    0.000    0.000    0.000    0.000 
#
# Total GULP energy -77974.792369 kJ/mol
# GULP energy per Si atom -5569.628026 kJ/mol
# Density = 2.304642 g / cm^3
# Si number density = 23.098993 Si / 1000 Ang^3
#
#
#
# Elastic Constant Matrix: (Units=GPa)
#
#
# Indices 1 2 3 4 5 6 
#
# 1 101.0536 22.4838 28.1948 -17.2542 -23.1757 20.8981
# 2 22.4838 49.8291 24.8223 -9.6501 -8.3711 20.8050
# 3 28.1948 24.8223 118.9496 -17.2546 -25.7750 16.0753
# 4 -17.2542 -9.6501 -17.2546 31.4066 12.2000 -14.1906
# 5 -23.1757 -8.3711 -25.7750 12.2000 49.8864 1.3196
# 6 20.8981 20.8050 16.0753 -14.1906 1.3196 37.1036
#
#
#
# Elastic Compliance Matrix: (Units=1/GPa)
#
#
# Indices 1 2 3 4 5 6 
#
# 1 0.013149 -0.002169 -0.000548 0.001784 0.005170 -0.005454
# 2 -0.002169 0.028759 -0.003157 -0.001707 0.002983 -0.014296
# 3 -0.000548 -0.003157 0.010681 0.002073 0.004278 -0.001908
# 4 0.001784 -0.001707 0.002073 0.044670 -0.009747 0.016485
# 5 0.005170 0.002983 0.004278 -0.009747 0.027837 -0.011155
# 6 -0.005454 -0.014296 -0.001908 0.016485 -0.011155 0.045568
#
#
# Mechanical properties :
#
#
# Convention : Reuss Voigt Hill
#
# Bulk Modulus (GPa) = 24.48456 46.75936 35.62196
# Shear Modulus (GPa) = 25.50687 36.63474 31.07081
#
# Velocity S-wave (km/s) = 3.32662 3.98677 3.67156
# Velocity P-wave (km/s) = 5.03766 6.44045 5.78176
#
# Compressibility (1/GPa) = 0.04084207
#
# Stress axis : x y z
#
# Youngs Moduli (GPa) = 76.04928 34.77163 93.62320
#
# Poissons Ratio (x) = 0.07542 0.05132
# Poissons Ratio (y) = 0.16495 0.29553
# Poissons Ratio (z) = 0.04169 0.10976
#
# Static dielectric constant tensor:
#      x y z
#    x 1.958260 -0.002700 -0.089820 
#    y -0.002700 2.047770 -0.015450 
#    z -0.089820 -0.015450 2.049540 
# 
# From -- ./inp_files/498679.got.cif
#   From: 2010.05.17/outbox.cif.g08.bks.cpg/sg2_250_cif.got.tgz:498679.got - 2010.06.03 11:33:40.
