data_PCOD9027062
_publ_section_title
;
Structure prediction by ZEFSAII (Michael W. Deem and Ramdas Pophale) SiO2 
 PCOD9027062
Probable space group: P -1
;
_chemical_formula_sum "Si O2"
_cell_formula_units_Z 14
_cell_length_a 14.377248
_cell_length_b 7.205245
_cell_length_c 8.405161
_cell_angle_alpha 125.381118
_cell_angle_beta 99.321256
_cell_angle_gamma 108.949912
_cell_volume 598.283944
_symmetry_space_group_name_H-M "P -1"
_symmetry_group_IT_number 2
_symmetry_cell_setting 'triclinic'
loop_
_space_group_symop_operation_xyz
x,y,z
-x,-y,-z
loop_
_atom_site_type_symbol
_atom_site_label
_atom_site_fract_x
_atom_site_fract_y
_atom_site_fract_z
Si Si1 0.877307 0.103824 0.942689
Si Si2 0.668849 0.270773 0.422360
Si Si3 0.664214 0.895351 0.970994
Si Si4 0.122882 0.408371 0.165821
Si Si5 0.562301 0.911702 0.641759
Si Si6 0.720111 0.538599 0.018310
Si Si7 0.278000 0.222739 0.525795
O O1 0.883423 0.851971 0.885782
O O2 0.827604 0.025292 0.712237
O O3 0.000397 0.354419 0.111177
O O4 0.783143 0.100466 0.023965
O O5 0.779692 0.347476 0.587291
O O6 0.692928 0.529715 0.458709
O O7 0.637933 0.041509 0.172493
O O8 0.564391 0.185611 0.462888
O O9 0.676956 0.668873 0.944341
O O10 0.576892 0.792774 0.753754
O O11 0.168875 0.426435 0.010096
O O12 0.622292 0.832230 0.487892
O O13 0.631959 0.227084 0.853265
O O14 0.738744 0.695079 0.264921
#
# Coordination Sequence:
#
# PCOD9027062 Si02
#       7
#     2   2   2   2   2   2   2
#     4   8  18  41  65  88 130 167 208 266 316 375
#     4  11  22  42  67  92 132 174 210 259 325 376
#     4  10  22  41  66  96 129 167 213 261 321 380
#     4   9  20  39  63  94 126 167 215 260 314 382
#     4  11  24  45  63  93 135 170 210 266 311 384
#     4  11  24  41  65  99 130 165 217 260 318 382
#     4  10  22  41  67  94 127 171 212 262 322 375
#
# _framework density 23.400261
#
# number of rings (size 3 to 8) (size 9 to 14) (size 15 to 20)
#    0.000    2.000    1.429    1.714    2.000    2.286 
#    0.000    2.857    0.000    0.000    0.000    0.000 
#    0.000    0.000    0.000    0.000    0.000    0.000 
#
# Total GULP energy -78399.800021 kJ/mol
# GULP energy per Si atom -5599.985716 kJ/mol
# Density = 2.334700 g / cm^3
# Si number density = 23.400261 Si / 1000 Ang^3
#
#
#
# Elastic Constant Matrix: (Units=GPa)
#
#
# Indices 1 2 3 4 5 6 
#
# 1 99.4124 26.2993 50.8161 -2.9293 12.7481 10.8768
# 2 26.2993 83.3014 33.0443 -8.9897 11.9296 -1.4297
# 3 50.8161 33.0443 100.8529 -22.5989 -11.9040 26.9249
# 4 -2.9293 -8.9897 -22.5989 33.5714 5.5784 -4.2583
# 5 12.7481 11.9296 -11.9040 5.5784 41.1817 3.5273
# 6 10.8768 -1.4297 26.9249 -4.2583 3.5273 34.8456
#
#
#
# Elastic Compliance Matrix: (Units=1/GPa)
#
#
# Indices 1 2 3 4 5 6 
#
# 1 0.016192 0.000029 -0.011067 -0.004224 -0.007972 0.003789
# 2 0.000029 0.016744 -0.008344 0.001249 -0.008134 0.008101
# 3 -0.011067 -0.008344 0.026933 0.010385 0.013748 -0.017822
# 4 -0.004224 0.001249 0.010385 0.036617 -0.000833 -0.002096
# 5 -0.007972 -0.008134 0.013748 -0.000833 0.034224 -0.012035
# 6 0.003789 0.008101 -0.017822 -0.002096 -0.012035 0.042580
#
#
# Mechanical properties :
#
#
# Convention : Reuss Voigt Hill
#
# Bulk Modulus (GPa) = 47.38155 55.98735 51.68445
# Shear Modulus (GPa) = 22.82169 33.48018 28.15094
#
# Velocity S-wave (km/s) = 3.12633 3.78664 3.47222
# Velocity P-wave (km/s) = 5.77271 6.56476 6.18143
#
# Compressibility (1/GPa) = 0.02110526
#
# Stress axis : x y z
#
# Youngs Moduli (GPa) = 61.75970 59.72271 37.12863
#
# Poissons Ratio (x) = -0.00174 0.41091
# Poissons Ratio (y) = -0.00180 0.30980
# Poissons Ratio (z) = 0.68350 0.49832
#
# Static dielectric constant tensor:
#      x y z
#    x 1.866040 -0.031170 0.022850 
#    y -0.031170 1.944240 0.006910 
#    z 0.022850 0.006910 1.841360 
# 
# From -- ./inp_files/180869.got.cif
#   From: 2010.05.17/outbox.cif.g08.bks.cpg/sg2_91_cif.got.tgz:180869.got - 2010.06.03 11:33:40.
