data_PCOD9027468
_publ_section_title
;
Structure prediction by ZEFSAII (Michael W. Deem and Ramdas Pophale) SiO2 
 PCOD9027468
Probable space group: P -1
;
_chemical_formula_sum "Si O2"
_cell_formula_units_Z 14
_cell_length_a 9.589587
_cell_length_b 5.365061
_cell_length_c 14.236872
_cell_angle_alpha 70.107584
_cell_angle_beta 114.047933
_cell_angle_gamma 88.583798
_cell_volume 617.495612
_symmetry_space_group_name_H-M "P -1"
_symmetry_group_IT_number 2
_symmetry_cell_setting 'triclinic'
loop_
_space_group_symop_operation_xyz
x,y,z
-x,-y,-z
loop_
_atom_site_type_symbol
_atom_site_label
_atom_site_fract_x
_atom_site_fract_y
_atom_site_fract_z
Si Si1 0.346938 0.017083 0.523023
Si Si2 0.673544 0.037164 0.256198
Si Si3 0.688883 0.399542 0.566770
Si Si4 0.395286 0.299987 0.034299
Si Si5 0.192768 0.404226 0.793272
Si Si6 0.875861 0.310510 0.994669
Si Si7 0.917397 0.185241 0.810544
O O1 0.371779 0.982744 0.644892
O O2 0.268769 0.779649 0.490950
O O3 0.500000 0.000000 0.500000
O O4 0.252721 0.319466 0.447955
O O5 0.511631 0.072365 0.149607
O O6 0.753356 0.304992 0.235324
O O7 0.778007 0.771419 0.271880
O O8 0.500000 0.500000 0.500000
O O9 0.768825 0.217968 0.697984
O O10 0.279239 0.489423 0.046639
O O11 0.500000 0.500000 0.000000
O O12 0.298457 0.233737 0.926875
O O13 0.017933 0.411164 0.781171
O O14 0.861803 0.193891 0.902011
O O15 0.000000 0.500000 0.000000
O O16 0.950056 0.085725 0.119470
#
# Coordination Sequence:
#
# PCOD9027468 Si02
#       7
#     2   2   2   2   2   2   2
#     4  10  23  44  65 102 129 175 236 286 342 386
#     4  11  24  42  72  99 143 183 234 284 341 418
#     4  10  24  43  69  94 135 176 231 289 339 386
#     4  10  22  41  68 102 143 179 229 280 346 420
#     4  11  23  44  66 102 141 190 222 280 357 416
#     4  11  24  42  68 106 140 185 229 275 370 408
#     4  11  25  43  68  99 144 182 229 292 339 427
#
# _framework density 22.672228
#
# number of rings (size 3 to 8) (size 9 to 14) (size 15 to 20)
#    0.000    1.429    1.429    3.000    6.000    2.286 
#    2.571    4.286    0.000    0.000    0.000    0.000 
#    0.000    0.000    0.000    0.000    0.000    0.000 
#
# Total GULP energy -78094.441855 kJ/mol
# GULP energy per Si atom -5578.174418 kJ/mol
# Density = 2.262062 g / cm^3
# Si number density = 22.672228 Si / 1000 Ang^3
#
#
#
# Elastic Constant Matrix: (Units=GPa)
#
#
# Indices 1 2 3 4 5 6 
#
# 1 85.5753 6.6701 16.4405 5.0376 -3.6519 -4.0486
# 2 6.6701 124.9937 10.2509 10.1086 -6.3505 -12.0189
# 3 16.4405 10.2509 130.3553 17.3768 -5.4635 -4.9159
# 4 5.0376 10.1086 17.3768 30.6255 -5.1112 -11.1539
# 5 -3.6519 -6.3505 -5.4635 -5.1112 33.3906 10.9702
# 6 -4.0486 -12.0189 -4.9159 -11.1539 10.9702 32.3684
#
#
#
# Elastic Compliance Matrix: (Units=1/GPa)
#
#
# Indices 1 2 3 4 5 6 
#
# 1 0.012078 -0.000374 -0.001341 -0.000740 0.000694 0.000678
# 2 -0.000374 0.008423 -0.000290 -0.001631 0.000507 0.002303
# 3 -0.001341 -0.000290 0.008487 -0.004686 0.000751 -0.000855
# 4 -0.000740 -0.001631 -0.004686 0.040598 0.001039 0.012228
# 5 0.000694 0.000507 0.000751 0.001039 0.033936 -0.010754
# 6 0.000678 0.002303 -0.000855 0.012228 -0.010754 0.039563
#
#
# Mechanical properties :
#
#
# Convention : Reuss Voigt Hill
#
# Bulk Modulus (GPa) = 40.03381 45.29416 42.66399
# Shear Modulus (GPa) = 32.17098 39.78110 35.97604
#
# Velocity S-wave (km/s) = 3.77100 4.19336 3.98777
# Velocity P-wave (km/s) = 6.05446 6.59294 6.32943
#
# Compressibility (1/GPa) = 0.02497888
#
# Stress axis : x y z
#
# Youngs Moduli (GPa) = 82.79805 118.71907 117.82727
#
# Poissons Ratio (x) = 0.04443 0.15795
# Poissons Ratio (y) = 0.03099 0.03413
# Poissons Ratio (z) = 0.11099 0.03439
#
# Static dielectric constant tensor:
#      x y z
#    x 1.813950 -0.002960 -0.020210 
#    y -0.002960 1.874500 -0.005800 
#    z -0.020210 -0.005800 1.868450 
# 
# From -- ./inp_files/134953.got.cif
#   From: 2010.05.17/outbox.cif.g08.bks.cpg/sg2_68_cif.got.tgz:134953.got - 2010.06.03 11:33:40.
