data_PCOD9027090
_publ_section_title
;
Structure prediction by ZEFSAII (Michael W. Deem and Ramdas Pophale) SiO2 
 PCOD9027090
Probable space group: P -1
;
_chemical_formula_sum "Si O2"
_cell_formula_units_Z 16
_cell_length_a 8.493159
_cell_length_b 9.052209
_cell_length_c 16.251052
_cell_angle_alpha 56.528864
_cell_angle_beta 43.766049
_cell_angle_gamma 56.069554
_cell_volume 692.681398
_symmetry_space_group_name_H-M "P -1"
_symmetry_group_IT_number 2
_symmetry_cell_setting 'triclinic'
loop_
_space_group_symop_operation_xyz
x,y,z
-x,-y,-z
loop_
_atom_site_type_symbol
_atom_site_label
_atom_site_fract_x
_atom_site_fract_y
_atom_site_fract_z
Si Si1 0.879840 0.363668 0.434917
Si Si2 0.130647 0.697541 0.073186
Si Si3 0.977795 0.759603 0.406581
Si Si4 0.541712 0.246030 0.346530
Si Si5 0.725591 0.485106 0.768007
Si Si6 0.279635 0.953497 0.813425
Si Si7 0.270711 0.475834 0.717584
Si Si8 0.681129 0.116036 0.669487
O O1 0.729415 0.518983 0.384069
O O2 0.791759 0.181663 0.524982
O O3 0.904057 0.383963 0.518308
O O4 0.139818 0.359897 0.308596
O O5 0.975239 0.558728 0.150838
O O6 0.315361 0.606542 0.103379
O O7 0.935005 0.870334 0.135579
O O8 0.233736 0.780735 0.932205
O O9 0.697124 0.795328 0.515590
O O10 0.084235 0.671691 0.307876
O O11 0.102859 0.919471 0.336203
O O12 0.466009 0.412172 0.256447
O O13 0.692020 0.079882 0.284622
O O14 0.682005 0.334031 0.331603
O O15 0.520939 0.985782 0.747800
O O16 0.481226 0.300709 0.718408
#
# Coordination Sequence:
#
# PCOD9027090 Si02
#       8
#     2   2   2   2   2   2   2   2
#     4   8  16  28  51  80 111 139 177 214 263 328
#     4   9  22  41  59  70 113 150 192 215 272 326
#     4   9  18  32  53  84 116 137 172 223 277 331
#     4  11  20  32  60  88 113 129 188 232 276 310
#     4  10  17  35  59  86 106 144 179 233 267 323
#     4  10  22  39  55  80 107 155 182 225 268 325
#     4  10  17  31  57  83 103 148 185 222 264 327
#     4   9  17  31  54  75 112 148 175 209 277 334
#
# _framework density 23.098642000000002
#
# number of rings (size 3 to 8) (size 9 to 14) (size 15 to 20)
#    0.750    1.750    1.250    2.625    0.000    3.500 
#    0.000    3.125    2.750    0.000    0.000    0.000 
#    0.000    0.000    0.000    0.000    0.000    0.000 
#
# Total GULP energy -89069.727675 kJ/mol
# GULP energy per Si atom -5566.857980 kJ/mol
# Density = 2.304607 g / cm^3
# Si number density = 23.098642 Si / 1000 Ang^3
#
#
#
# Elastic Constant Matrix: (Units=GPa)
#
#
# Indices 1 2 3 4 5 6 
#
# 1 70.9571 27.5036 31.0364 -14.6876 -2.7336 21.9100
# 2 27.5036 45.1970 31.6614 27.3190 -20.1042 2.5926
# 3 31.0364 31.6614 103.3097 -10.1272 6.0130 15.9238
# 4 -14.6876 27.3190 -10.1272 34.1892 11.9074 1.0971
# 5 -2.7336 -20.1042 6.0130 11.9074 15.4682 -18.2436
# 6 21.9100 2.5926 15.9238 1.0971 -18.2436 28.0641
#
#
#
# Elastic Compliance Matrix: (Units=1/GPa)
#
#
# Indices 1 2 3 4 5 6 
#
# 1 0.015287 0.003747 -0.007004 -0.003353 0.013856 0.000832
# 2 0.003747 0.004872 0.002460 0.007025 -0.022805 -0.019870
# 3 -0.007004 0.002460 0.009693 -0.004274 0.005887 0.003735
# 4 -0.003353 0.007025 -0.004274 0.012146 0.023452 0.019164
# 5 0.013856 -0.022805 0.005887 0.023452 0.007809 -0.007891
# 6 0.000832 -0.019870 0.003735 0.019164 -0.007891 0.028820
#
#
# Mechanical properties :
#
#
# Convention : Reuss Voigt Hill
#
# Bulk Modulus (GPa) = 35.39003 44.42960 39.90982
# Shear Modulus (GPa) = 55.77672 24.16181 39.96927
#
# Velocity S-wave (km/s) = 4.91931 3.23774 4.16429
# Velocity P-wave (km/s) = 6.90077 5.76661 6.35903
#
# Compressibility (1/GPa) = 0.02825655
#
# Stress axis : x y z
#
# Youngs Moduli (GPa) = 65.41363 205.24534 103.17126
#
# Poissons Ratio (x) = -0.76895 0.72263
# Poissons Ratio (y) = -0.24507 -0.25379
# Poissons Ratio (z) = 0.45817 -0.50488
#
# Static dielectric constant tensor:
#      x y z
#    x 1.949180 0.005540 -0.027950 
#    y 0.005540 2.009280 0.007710 
#    z -0.027950 0.007710 1.853750 
# 
# From -- ./inp_files/494594.got.cif
#   From: 2010.05.17/outbox.cif.g08.bks.cpg/sg2_248_cif.got.tgz:494594.got - 2010.06.03 11:33:40.
