data_PCOD9027562
_publ_section_title
;
Structure prediction by ZEFSAII (Michael W. Deem and Ramdas Pophale) SiO2 
 PCOD9027562
Probable space group: P -1
;
_chemical_formula_sum "Si O2"
_cell_formula_units_Z 12
_cell_length_a 6.584486
_cell_length_b 9.809006
_cell_length_c 12.635915
_cell_angle_alpha 33.959561
_cell_angle_beta 67.699921
_cell_angle_gamma 66.521320
_cell_volume 416.229457
_symmetry_space_group_name_H-M "P -1"
_symmetry_group_IT_number 2
_symmetry_cell_setting 'triclinic'
loop_
_space_group_symop_operation_xyz
x,y,z
-x,-y,-z
loop_
_atom_site_type_symbol
_atom_site_label
_atom_site_fract_x
_atom_site_fract_y
_atom_site_fract_z
Si Si1 0.998046 0.243650 0.959727
Si Si2 0.619842 0.138767 0.587631
Si Si3 0.279973 0.377359 0.000126
Si Si4 0.629166 0.005890 0.099101
Si Si5 0.734414 0.099179 0.374378
Si Si6 0.136514 0.377139 0.450855
O O1 0.064738 0.361595 0.980010
O O2 0.817667 0.056849 0.114568
O O3 0.918054 0.440577 0.755798
O O4 0.226315 0.089989 0.966998
O O5 0.781272 0.184096 0.429808
O O6 0.390069 0.301605 0.486226
O O7 0.685827 0.834755 0.780246
O O8 0.544995 0.164155 0.711336
O O9 0.483892 0.273462 0.948726
O O10 0.311981 0.651339 0.843924
O O11 0.500000 0.000000 0.500000
O O12 0.907355 0.887665 0.418992
O O13 0.000000 0.500000 0.500000
#
# Coordination Sequence:
#
# PCOD9027562 Si02
#       6
#     2   2   2   2   2   2
#     4  11  21  40  68 100 138 172 224 277 332 390
#     4   9  21  42  68  96 131 178 223 266 339 396
#     4  10  22  43  66  98 136 177 220 277 330 399
#     4   9  20  39  68  96 135 177 220 270 329 396
#     4  10  22  41  68  94 134 177 221 273 336 397
#     4  11  21  40  64  98 130 169 226 273 327 397
#
# _framework density 28.830251000000001
#
# number of rings (size 3 to 8) (size 9 to 14) (size 15 to 20)
#    1.000    1.000    1.667    2.500    0.000    3.333 
#    3.000    1.667    0.000    0.000    0.000    0.000 
#    0.000    0.000    0.000    0.000    0.000    0.000 
#
# Total GULP energy -66837.889766 kJ/mol
# GULP energy per Si atom -5569.824147 kJ/mol
# Density = 2.876463 g / cm^3
# Si number density = 28.830251 Si / 1000 Ang^3
#
#
#
# Elastic Constant Matrix: (Units=GPa)
#
#
# Indices 1 2 3 4 5 6 
#
# 1 53.5087 50.2775 10.9089 13.2824 1.8668 0.4028
# 2 50.2775 134.4097 42.3345 -5.9451 2.5424 -6.2663
# 3 10.9089 42.3345 159.6330 -14.7207 19.0545 -20.0320
# 4 13.2824 -5.9451 -14.7207 46.5447 2.8386 12.1001
# 5 1.8668 2.5424 19.0545 2.8386 44.0235 4.1413
# 6 0.4028 -6.2663 -20.0320 12.1001 4.1413 45.1245
#
#
#
# Elastic Compliance Matrix: (Units=1/GPa)
#
#
# Indices 1 2 3 4 5 6 
#
# 1 0.033942 -0.013243 0.000282 -0.011564 -0.000154 0.001098
# 2 -0.013243 0.013299 -0.002287 0.004825 0.000509 -0.000391
# 3 0.000282 -0.002287 0.007813 0.001522 -0.003649 0.003075
# 4 -0.011564 0.004825 0.001522 0.027484 -0.001676 -0.005767
# 5 -0.000154 0.000509 -0.003649 -0.001676 0.024696 -0.003365
# 6 0.001098 -0.000391 0.003075 -0.005767 -0.003365 0.025317
#
#
# Mechanical properties :
#
#
# Convention : Reuss Voigt Hill
#
# Bulk Modulus (GPa) = 40.71644 61.62145 51.16894
# Shear Modulus (GPa) = 29.20007 43.40725 36.30366
#
# Velocity S-wave (km/s) = 3.18595 3.88443 3.55240
# Velocity P-wave (km/s) = 5.26186 6.44505 5.88328
#
# Compressibility (1/GPa) = 0.02456011
#
# Stress axis : x y z
#
# Youngs Moduli (GPa) = 29.46244 75.19189 127.98596
#
# Poissons Ratio (x) = 0.99573 -0.03613
# Poissons Ratio (y) = 0.39016 0.29268
# Poissons Ratio (z) = -0.00832 0.17195
#
# Static dielectric constant tensor:
#      x y z
#    x 2.500840 0.124460 -0.027450 
#    y 0.124460 2.371340 0.029830 
#    z -0.027450 0.029830 2.201640 
# 
# From -- ./inp_files/460260.got.cif
#   From: 2010.05.17/outbox.cif.g08.bks.cpg/sg2_231_cif.got.tgz:460260.got - 2010.06.03 11:33:40.
