data_PCOD9027909
_publ_section_title
;
Structure prediction by ZEFSAII (Michael W. Deem and Ramdas Pophale) SiO2 
 PCOD9027909
Probable space group: P -1
;
_chemical_formula_sum "Si O2"
_cell_formula_units_Z 16
_cell_length_a 8.761628
_cell_length_b 8.733419
_cell_length_c 20.632700
_cell_angle_alpha 143.703482
_cell_angle_beta 133.214990
_cell_angle_gamma 49.875032
_cell_volume 665.249697
_symmetry_space_group_name_H-M "P -1"
_symmetry_group_IT_number 2
_symmetry_cell_setting 'triclinic'
loop_
_space_group_symop_operation_xyz
x,y,z
-x,-y,-z
loop_
_atom_site_type_symbol
_atom_site_label
_atom_site_fract_x
_atom_site_fract_y
_atom_site_fract_z
Si Si1 0.678278 0.355704 0.149175
Si Si2 0.960374 0.715948 0.371619
Si Si3 0.408327 0.843402 0.077090
Si Si4 0.669317 0.646434 0.852332
Si Si5 0.159526 0.065811 0.718808
Si Si6 0.942977 0.147138 0.916624
Si Si7 0.220725 0.920599 0.294214
Si Si8 0.828789 0.507600 0.512041
O O1 0.727926 0.638486 0.278374
O O2 0.536360 0.261306 0.130523
O O3 0.904902 0.147323 0.137224
O O4 0.569951 0.332113 0.041068
O O5 0.080979 0.529147 0.400318
O O6 0.988039 0.740931 0.310367
O O7 0.000000 0.000000 0.500000
O O8 0.219397 0.800277 0.053271
O O9 0.341651 0.148549 0.138430
O O10 0.638934 0.815206 0.165595
O O11 0.659628 0.349154 0.729578
O O12 0.885858 0.665256 0.961129
O O13 0.248193 0.766008 0.615346
O O14 0.017890 0.033981 0.729047
O O15 0.805556 0.151401 0.812883
O O16 0.303869 0.188727 0.422626
O O17 0.000000 0.500000 0.500000
#
# Coordination Sequence:
#
# PCOD9027909 Si02
#       8
#     2   2   2   2   2   2   2   2
#     4  11  22  42  71  91 137 176 218 270 332 388
#     4  10  22  41  70 101 125 173 226 268 326 393
#     4  11  25  42  66 101 135 172 222 272 333 388
#     4  11  24  39  64  97 131 177 220 266 327 395
#     4  10  23  42  70  97 132 175 220 270 330 394
#     4  11  23  42  64  94 136 176 220 278 326 388
#     4  11  22  40  66  95 133 174 222 269 327 389
#     4   9  20  42  70  96 128 175 217 270 331 389
#
# _framework density 24.051119
#
# number of rings (size 3 to 8) (size 9 to 14) (size 15 to 20)
#    0.000    1.500    1.250    4.875    7.000    0.500 
#    0.000    2.500    0.000    0.000    0.000    0.000 
#    0.000    0.000    0.000    0.000    0.000    0.000 
#
# Total GULP energy -89286.124156 kJ/mol
# GULP energy per Si atom -5580.382760 kJ/mol
# Density = 2.399638 g / cm^3
# Si number density = 24.051119 Si / 1000 Ang^3
#
#
#
# Elastic Constant Matrix: (Units=GPa)
#
#
# Indices 1 2 3 4 5 6 
#
# 1 68.3692 7.5364 -0.0472 0.1305 4.5423 3.4862
# 2 7.5364 95.4719 34.5302 30.2508 -5.8934 9.0068
# 3 -0.0472 34.5302 93.6696 20.0348 4.1439 -0.4027
# 4 0.1305 30.2508 20.0348 43.5516 1.2475 1.2508
# 5 4.5423 -5.8934 4.1439 1.2475 22.8644 4.3619
# 6 3.4862 9.0068 -0.4027 1.2508 4.3619 26.3330
#
#
#
# Elastic Compliance Matrix: (Units=1/GPa)
#
#
# Indices 1 2 3 4 5 6 
#
# 1 0.015111 -0.001915 0.000626 0.001121 -0.003516 -0.000807
# 2 -0.001915 0.016103 -0.004297 -0.009229 0.006965 -0.006035
# 3 0.000626 -0.004297 0.013083 -0.002992 -0.003893 0.002374
# 4 0.001121 -0.009229 -0.002992 0.030801 -0.004157 0.002188
# 5 -0.003516 0.006965 -0.003893 -0.004157 0.049052 -0.009904
# 6 -0.000807 -0.006035 0.002374 0.002188 -0.009904 0.041719
#
#
# Mechanical properties :
#
#
# Convention : Reuss Voigt Hill
#
# Bulk Modulus (GPa) = 30.19047 37.94995 34.07021
# Shear Modulus (GPa) = 26.58402 32.91589 29.74995
#
# Velocity S-wave (km/s) = 3.32823 3.70345 3.52084
# Velocity P-wave (km/s) = 5.22966 5.83956 5.54301
#
# Compressibility (1/GPa) = 0.03312303
#
# Stress axis : x y z
#
# Youngs Moduli (GPa) = 66.17850 62.09916 76.43692
#
# Poissons Ratio (x) = 0.11895 -0.04785
# Poissons Ratio (y) = 0.12676 0.32848
# Poissons Ratio (z) = -0.04143 0.26687
#
# Static dielectric constant tensor:
#      x y z
#    x 1.870180 0.000900 -0.024310 
#    y 0.000900 2.036590 0.035130 
#    z -0.024310 0.035130 1.929250 
# 
# From -- ./inp_files/587635.got.cif
#   From: 2010.05.17/outbox.cif.g08.bks.cpg/sg2_294_cif.got.tgz:587635.got - 2010.06.03 11:33:40.
