data_PCOD9027248
_publ_section_title
;
Structure prediction by ZEFSAII (Michael W. Deem and Ramdas Pophale) SiO2 
 PCOD9027248
Probable space group: P -1
;
_chemical_formula_sum "Si O2"
_cell_formula_units_Z 16
_cell_length_a 12.211572
_cell_length_b 9.503439
_cell_length_c 20.672401
_cell_angle_alpha 128.477206
_cell_angle_beta 26.690370
_cell_angle_gamma 139.957936
_cell_volume 677.229605
_symmetry_space_group_name_H-M "P -1"
_symmetry_group_IT_number 2
_symmetry_cell_setting 'triclinic'
loop_
_space_group_symop_operation_xyz
x,y,z
-x,-y,-z
loop_
_atom_site_type_symbol
_atom_site_label
_atom_site_fract_x
_atom_site_fract_y
_atom_site_fract_z
Si Si1 0.431530 0.740684 0.519626
Si Si2 0.267723 0.147133 0.475242
Si Si3 0.919344 0.048112 0.253973
Si Si4 0.667503 0.100357 0.813265
Si Si5 0.317454 0.602871 0.895741
Si Si6 0.610683 0.443981 0.013638
Si Si7 0.825365 0.923001 0.003035
Si Si8 0.227864 0.337073 0.427553
O O1 0.490015 0.724879 0.559314
O O2 0.293811 0.877886 0.629058
O O3 0.227343 0.521059 0.520277
O O4 0.756373 0.876820 0.350169
O O5 0.364017 0.253401 0.383878
O O6 0.984524 0.153349 0.642105
O O7 0.101566 0.880370 0.482775
O O8 0.248784 0.264281 0.161833
O O9 0.971913 0.961847 0.135406
O O10 0.491804 0.872512 0.882794
O O11 0.714140 0.307939 0.884848
O O12 0.451567 0.061043 0.855753
O O13 0.256108 0.496981 0.968104
O O14 0.543525 0.573510 0.727469
O O15 0.000000 0.500000 0.000000
O O16 0.698324 0.662953 0.992770
O O17 0.000000 0.000000 0.000000
#
# Coordination Sequence:
#
# PCOD9027248 Si02
#       8
#     2   2   2   2   2   2   2   2
#     4  11  24  43  69  93 132 177 213 276 317 399
#     4  10  23  44  65  99 127 166 225 267 330 382
#     4  10  24  44  63  95 129 170 227 252 330 393
#     4  10  22  41  67  93 126 171 211 277 320 390
#     4  11  24  39  64 100 130 164 217 269 331 385
#     4  11  24  42  68  92 131 176 213 270 329 388
#     4  11  25  43  67  96 133 172 217 270 327 396
#     4  10  24  40  66  94 132 166 215 274 324 385
#
# _framework density 23.625665000000001
#
# number of rings (size 3 to 8) (size 9 to 14) (size 15 to 20)
#    0.000    1.500    0.000    4.500   10.500    4.000 
#    0.000    1.875    0.000    0.000    0.000    0.000 
#    0.000    0.000    0.000    0.000    0.000    0.000 
#
# Total GULP energy -89543.821817 kJ/mol
# GULP energy per Si atom -5596.488864 kJ/mol
# Density = 2.357189 g / cm^3
# Si number density = 23.625665 Si / 1000 Ang^3
#
#
#
# Elastic Constant Matrix: (Units=GPa)
#
#
# Indices 1 2 3 4 5 6 
#
# 1 98.0927 -15.5245 3.4906 6.8238 1.2199 10.2156
# 2 -15.5245 73.0765 0.7982 1.7510 6.2079 -1.5104
# 3 3.4906 0.7982 55.9748 3.7376 -1.9514 7.7033
# 4 6.8238 1.7510 3.7376 28.3695 -3.7484 3.7698
# 5 1.2199 6.2079 -1.9514 -3.7484 23.0590 1.7312
# 6 10.2156 -1.5104 7.7033 3.7698 1.7312 37.4551
#
#
#
# Elastic Compliance Matrix: (Units=1/GPa)
#
#
# Indices 1 2 3 4 5 6 
#
# 1 0.011064 0.002493 -0.000254 -0.002646 -0.001519 -0.002528
# 2 0.002493 0.014659 -0.000439 -0.002095 -0.004488 0.000420
# 3 -0.000254 -0.000439 0.018563 -0.001642 0.001712 -0.003680
# 4 -0.002646 -0.002095 -0.001642 0.037559 0.006905 -0.003124
# 5 -0.001519 -0.004488 0.001712 0.006905 0.046144 -0.002947
# 6 -0.002528 0.000420 -0.003680 -0.003124 -0.002947 0.028613
#
#
# Mechanical properties :
#
#
# Convention : Reuss Voigt Hill
#
# Bulk Modulus (GPa) = 20.88202 22.74139 21.81170
# Shear Modulus (GPa) = 29.59227 33.66871 31.63049
#
# Velocity S-wave (km/s) = 3.54297 3.77913 3.66296
# Velocity P-wave (km/s) = 5.05913 5.35622 5.20979
#
# Compressibility (1/GPa) = 0.04788809
#
# Stress axis : x y z
#
# Youngs Moduli (GPa) = 90.38003 68.21786 53.87047
#
# Poissons Ratio (x) = -0.17010 0.01367
# Poissons Ratio (y) = -0.22536 0.02364
# Poissons Ratio (z) = 0.02294 0.02993
#
# Static dielectric constant tensor:
#      x y z
#    x 1.880850 0.026760 0.029700 
#    y 0.026760 1.966690 -0.005980 
#    z 0.029700 -0.005980 1.865430 
# 
# From -- ./inp_files/256230.got.cif
#   From: 2010.05.17/outbox.cif.g08.bks.cpg/sg2_129_cif.got.tgz:256230.got - 2010.06.03 11:33:40.
