data_PCOD9027840
_publ_section_title
;
Structure prediction by ZEFSAII (Michael W. Deem and Ramdas Pophale) SiO2 
 PCOD9027840
Probable space group: P -1
;
_chemical_formula_sum "Si O2"
_cell_formula_units_Z 16
_cell_length_a 13.497433
_cell_length_b 7.492463
_cell_length_c 11.710619
_cell_angle_alpha 81.239041
_cell_angle_beta 48.725160
_cell_angle_gamma 56.390799
_cell_volume 697.095546
_symmetry_space_group_name_H-M "P -1"
_symmetry_group_IT_number 2
_symmetry_cell_setting 'triclinic'
loop_
_space_group_symop_operation_xyz
x,y,z
-x,-y,-z
loop_
_atom_site_type_symbol
_atom_site_label
_atom_site_fract_x
_atom_site_fract_y
_atom_site_fract_z
Si Si1 0.828906 0.656945 0.183668
Si Si2 0.576918 0.319375 0.637782
Si Si3 0.385801 0.488619 0.176648
Si Si4 0.151839 0.748382 0.704932
Si Si5 0.425158 0.917080 0.782914
Si Si6 0.214230 0.737578 0.907121
Si Si7 0.057843 0.749295 0.257362
Si Si8 0.733025 0.836629 0.469770
O O1 0.849776 0.465613 0.269772
O O2 0.764821 0.853529 0.309949
O O3 0.691074 0.814166 0.176882
O O4 0.000000 0.500000 0.000000
O O5 0.625287 0.381785 0.712180
O O6 0.665953 0.347486 0.463823
O O7 0.380426 0.495223 0.764714
O O8 0.645090 0.062189 0.592802
O O9 0.481159 0.222146 0.159313
O O10 0.205827 0.611200 0.247677
O O11 0.500000 0.500000 0.000000
O O12 0.111775 0.831228 0.858568
O O13 0.034311 0.976084 0.695429
O O14 0.292683 0.863278 0.872800
O O15 0.589964 0.802515 0.588690
O O16 0.135464 0.693830 0.076051
O O17 0.924548 0.699007 0.378967
#
# Coordination Sequence:
#
# PCOD9027840 Si02
#       8
#     2   2   2   2   2   2   2   2
#     4  12  24  41  67 103 144 174 214 282 341 398
#     4  10  22  41  69  97 128 181 221 274 331 398
#     4  11  23  46  74  94 128 176 241 272 318 399
#     4  11  23  38  66 103 135 170 221 274 337 399
#     4  11  23  42  70 100 136 178 218 277 340 389
#     4  11  20  41  70  97 131 177 228 271 326 401
#     4  11  23  43  70  98 132 179 227 273 323 399
#     4  11  25  42  65 105 142 170 217 283 347 390
#
# _framework density 22.952378
#
# number of rings (size 3 to 8) (size 9 to 14) (size 15 to 20)
#    0.000    1.000    2.500    6.375    0.000    4.500 
#    0.000    1.875    0.000    0.000    0.000    0.000 
#    0.000    0.000    0.000    0.000    0.000    0.000 
#
# Total GULP energy -89069.920799 kJ/mol
# GULP energy per Si atom -5566.870050 kJ/mol
# Density = 2.290014 g / cm^3
# Si number density = 22.952378 Si / 1000 Ang^3
#
#
#
# Elastic Constant Matrix: (Units=GPa)
#
#
# Indices 1 2 3 4 5 6 
#
# 1 72.5648 38.7728 1.2250 3.0724 -10.1767 -18.0790
# 2 38.7728 95.4175 11.0674 13.2544 -8.5244 -34.2332
# 3 1.2250 11.0674 126.5976 8.5144 -11.9218 -2.1007
# 4 3.0724 13.2544 8.5144 21.7849 -1.1009 -1.8792
# 5 -10.1767 -8.5244 -11.9218 -1.1009 45.0602 3.7495
# 6 -18.0790 -34.2332 -2.1007 -1.8792 3.7495 39.8659
#
#
#
# Elastic Compliance Matrix: (Units=1/GPa)
#
#
# Indices 1 2 3 4 5 6 
#
# 1 0.018221 -0.006541 0.000604 0.001533 0.002869 0.002481
# 2 -0.006541 0.019253 -0.000712 -0.009356 0.000664 0.013025
# 3 0.000604 -0.000712 0.008345 -0.002825 0.002160 -0.000234
# 4 0.001533 -0.009356 -0.002825 0.052029 -0.000485 -0.004990
# 5 0.002869 0.000664 0.002160 -0.000485 0.023547 -0.000252
# 6 0.002481 0.013025 -0.000234 -0.004990 -0.000252 0.037170
#
#
# Mechanical properties :
#
#
# Convention : Reuss Voigt Hill
#
# Bulk Modulus (GPa) = 30.74953 44.07893 37.41423
# Shear Modulus (GPa) = 27.36697 37.57651 32.47174
#
# Velocity S-wave (km/s) = 3.45677 4.05056 3.76539
# Velocity P-wave (km/s) = 5.41835 6.41267 5.93636
#
# Compressibility (1/GPa) = 0.03252082
#
# Stress axis : x y z
#
# Youngs Moduli (GPa) = 54.88206 51.94074 119.83330
#
# Poissons Ratio (x) = 0.33973 -0.07234
# Poissons Ratio (y) = 0.35896 0.08531
# Poissons Ratio (z) = -0.03313 0.03698
#
# Static dielectric constant tensor:
#      x y z
#    x 1.966150 0.069400 -0.015000 
#    y 0.069400 1.964410 0.024440 
#    z -0.015000 0.024440 1.872390 
# 
# From -- ./inp_files/447333.got.cif
#   From: 2010.05.17/outbox.cif.g08.bks.cpg/sg2_224_cif.got.tgz:447333.got - 2010.06.03 11:33:40.
