data_PCOD9027246
_publ_section_title
;
Structure prediction by ZEFSAII (Michael W. Deem and Ramdas Pophale) SiO2 
 PCOD9027246
Probable space group: P -1
;
_chemical_formula_sum "Si O2"
_cell_formula_units_Z 14
_cell_length_a 13.411254
_cell_length_b 24.429304
_cell_length_c 5.642269
_cell_angle_alpha 111.538764
_cell_angle_beta 101.999055
_cell_angle_gamma 21.094854
_cell_volume 566.613635
_symmetry_space_group_name_H-M "P -1"
_symmetry_group_IT_number 2
_symmetry_cell_setting 'triclinic'
loop_
_space_group_symop_operation_xyz
x,y,z
-x,-y,-z
loop_
_atom_site_type_symbol
_atom_site_label
_atom_site_fract_x
_atom_site_fract_y
_atom_site_fract_z
Si Si1 0.049468 0.124979 0.667162
Si Si2 0.681231 0.941556 0.678737
Si Si3 0.383290 0.828869 0.898155
Si Si4 0.242033 0.616722 0.735055
Si Si5 0.325964 0.446319 0.461425
Si Si6 0.238358 0.814151 0.113819
Si Si7 0.352422 0.206647 0.253848
O O1 0.131466 0.106484 0.424661
O O2 0.866168 0.275719 0.958164
O O3 0.872954 0.159947 0.671220
O O4 0.378473 0.937206 0.651421
O O5 0.942449 0.766461 0.669890
O O6 0.500000 0.000000 0.500000
O O7 0.433472 0.104624 0.984161
O O8 0.503834 0.706038 0.618384
O O9 0.352613 0.819116 0.134732
O O10 0.607586 0.760080 0.851503
O O11 0.058637 0.024566 0.947180
O O12 0.500000 0.500000 0.500000
O O13 0.338285 0.500537 0.697513
O O14 0.496110 0.366524 0.170375
O O15 0.981104 0.614507 0.525873
#
# Coordination Sequence:
#
# PCOD9027246 Si02
#       7
#     2   2   2   2   2   2   2
#     4  10  20  39  57  83 120 152 190 239 291 342
#     4  11  24  39  58  86 121 156 194 236 292 347
#     4   8  16  32  55  85 110 146 195 231 292 343
#     4  11  21  37  61  88 116 153 193 238 291 340
#     4  10  17  31  57  86 113 144 197 237 282 342
#     4   8  16  31  57  82 111 147 186 242 289 334
#     4  10  20  35  62  82 111 160 192 232 289 350
#
# _framework density 24.708195
#
# number of rings (size 3 to 8) (size 9 to 14) (size 15 to 20)
#    0.857    1.429    1.429    2.143    0.000    2.857 
#    0.000    0.714    0.000   17.143    0.000    0.000 
#    0.000    0.000    0.000    0.000    0.000    0.000 
#
# Total GULP energy -78178.845724 kJ/mol
# GULP energy per Si atom -5584.203266 kJ/mol
# Density = 2.465196 g / cm^3
# Si number density = 24.708195 Si / 1000 Ang^3
#
#
#
# Elastic Constant Matrix: (Units=GPa)
#
#
# Indices 1 2 3 4 5 6 
#
# 1 136.9988 52.9968 36.9306 15.9812 -21.0319 9.7199
# 2 52.9968 95.6645 57.4208 26.6336 6.4589 3.3025
# 3 36.9306 57.4208 86.2893 43.2609 -9.6142 -2.0034
# 4 15.9812 26.6336 43.2609 44.4437 -0.2554 -6.0458
# 5 -21.0319 6.4589 -9.6142 -0.2554 50.7779 -7.2190
# 6 9.7199 3.3025 -2.0034 -6.0458 -7.2190 24.1177
#
#
#
# Elastic Compliance Matrix: (Units=1/GPa)
#
#
# Indices 1 2 3 4 5 6 
#
# 1 0.010563 -0.006200 0.000546 -0.000871 0.004965 -0.002095
# 2 -0.006200 0.022851 -0.014818 0.002377 -0.008824 -0.003906
# 3 0.000546 -0.014818 0.034687 -0.024886 0.008704 0.001057
# 4 -0.000871 0.002377 -0.024886 0.046746 -0.003932 0.008500
# 5 0.004965 -0.008824 0.008704 -0.003932 0.025433 0.006557
# 6 -0.002095 -0.003906 0.001057 0.008500 0.006557 0.047024
#
#
# Mechanical properties :
#
#
# Convention : Reuss Voigt Hill
#
# Bulk Modulus (GPa) = 36.82370 68.18325 52.50347
# Shear Modulus (GPa) = 21.07031 35.30817 28.18924
#
# Velocity S-wave (km/s) = 2.92338 3.78432 3.38137
# Velocity P-wave (km/s) = 5.13134 6.83740 6.04486
#
# Compressibility (1/GPa) = 0.02715642
#
# Stress axis : x y z
#
# Youngs Moduli (GPa) = 94.67049 43.76167 28.82924
#
# Poissons Ratio (x) = 0.27132 -0.01574
# Poissons Ratio (y) = 0.58695 0.42720
# Poissons Ratio (z) = -0.05170 0.64848
#
# Static dielectric constant tensor:
#      x y z
#    x 2.002230 0.047870 -0.005730 
#    y 0.047870 1.970200 -0.012190 
#    z -0.005730 -0.012190 1.957230 
# 
# From -- ./inp_files/101554.got.cif
#   From: 2010.05.17/outbox.cif.g08.bks.cpg/sg2_51_cif.got.tgz:101554.got - 2010.06.03 11:33:40.
