data_PCOD9027685
_publ_section_title
;
Structure prediction by ZEFSAII (Michael W. Deem and Ramdas Pophale) SiO2 
 PCOD9027685
Probable space group: P -1
;
_chemical_formula_sum "Si O2"
_cell_formula_units_Z 16
_cell_length_a 9.815320
_cell_length_b 8.534507
_cell_length_c 11.932149
_cell_angle_alpha 52.426516
_cell_angle_beta 97.010329
_cell_angle_gamma 84.350402
_cell_volume 767.067356
_symmetry_space_group_name_H-M "P -1"
_symmetry_group_IT_number 2
_symmetry_cell_setting 'triclinic'
loop_
_space_group_symop_operation_xyz
x,y,z
-x,-y,-z
loop_
_atom_site_type_symbol
_atom_site_label
_atom_site_fract_x
_atom_site_fract_y
_atom_site_fract_z
Si Si1 0.521774 0.702517 0.968379
Si Si2 0.545059 0.261085 0.590875
Si Si3 0.014819 0.259872 0.595036
Si Si4 0.774478 0.685774 0.123103
Si Si5 0.683428 0.976082 0.343652
Si Si6 0.059214 0.775928 0.147363
Si Si7 0.346129 0.841545 0.104018
Si Si8 0.766840 0.262027 0.418715
O O1 0.422372 0.877051 0.812854
O O2 0.500000 0.500000 0.000000
O O3 0.689103 0.683968 0.999991
O O4 0.464536 0.738319 0.073977
O O5 0.500000 0.500000 0.500000
O O6 0.595203 0.166364 0.759661
O O7 0.668974 0.230772 0.526214
O O8 0.413591 0.178908 0.563802
O O9 0.000000 0.500000 0.500000
O O10 0.947477 0.207668 0.726582
O O11 0.925909 0.209238 0.503582
O O12 0.176604 0.148151 0.648148
O O13 0.742895 0.498830 0.274476
O O14 0.943615 0.652344 0.151462
O O15 0.715125 0.924615 0.044613
O O16 0.732284 0.117667 0.380368
O O17 0.219211 0.722409 0.145460
O O18 0.000000 0.000000 0.000000
#
# Coordination Sequence:
#
# PCOD9027685 Si02
#       8
#     2   2   2   2   2   2   2   2
#     4  12  25  44  72 104 141 181 230 290 354 413
#     4  12  26  42  70 104 136 182 237 288 345 415
#     4  12  24  44  73 101 135 187 238 281 339 421
#     4  11  22  43  74 101 132 187 234 280 341 419
#     4  12  27  45  70 103 144 184 228 290 358 411
#     4  10  22  41  69 100 132 169 238 288 328 394
#     4  11  24  43  70 102 134 179 239 289 335 411
#     4  12  25  46  69 103 145 185 227 290 357 412
#
# _framework density 20.858664999999998
#
# number of rings (size 3 to 8) (size 9 to 14) (size 15 to 20)
#    0.000    0.500    5.000    4.125    3.500    0.000 
#    0.000    0.625    2.750    0.000    0.000    0.000 
#    0.000    0.000    0.000    0.000    0.000    0.000 
#
# Total GULP energy -89305.454603 kJ/mol
# GULP energy per Si atom -5581.590913 kJ/mol
# Density = 2.081119 g / cm^3
# Si number density = 20.858665 Si / 1000 Ang^3
#
#
#
# Elastic Constant Matrix: (Units=GPa)
#
#
# Indices 1 2 3 4 5 6 
#
# 1 133.8966 47.8453 20.4816 -0.9163 10.8728 39.2888
# 2 47.8453 90.5642 36.1737 -3.7094 -6.0090 23.4488
# 3 20.4816 36.1737 107.3752 -2.4456 3.3260 13.5687
# 4 -0.9163 -3.7094 -2.4456 27.5864 5.9565 5.6587
# 5 10.8728 -6.0090 3.3260 5.9565 39.1040 5.5527
# 6 39.2888 23.4488 13.5687 5.6587 5.5527 37.8688
#
#
#
# Elastic Compliance Matrix: (Units=1/GPa)
#
#
# Indices 1 2 3 4 5 6 
#
# 1 0.012077 -0.004035 0.000492 0.002630 -0.002977 -0.010164
# 2 -0.004035 0.016695 -0.004247 0.001896 0.004552 -0.005580
# 3 0.000492 -0.004247 0.010945 0.001126 -0.001646 -0.001729
# 4 0.002630 0.001896 0.001126 0.039769 -0.005248 -0.009479
# 5 -0.002977 0.004552 -0.001646 -0.005248 0.028397 -0.002520
# 6 -0.010164 -0.005580 -0.001729 -0.009479 -0.002520 0.042813
#
#
# Mechanical properties :
#
#
# Convention : Reuss Voigt Hill
#
# Bulk Modulus (GPa) = 41.43042 60.09301 50.76171
# Shear Modulus (GPa) = 28.68237 36.06753 32.37495
#
# Velocity S-wave (km/s) = 3.71223 4.16280 3.94396
# Velocity P-wave (km/s) = 6.18707 7.20953 6.71778
#
# Compressibility (1/GPa) = 0.02413686
#
# Stress axis : x y z
#
# Youngs Moduli (GPa) = 82.80006 59.89956 91.36363
#
# Poissons Ratio (x) = 0.24170 -0.04497
# Poissons Ratio (y) = 0.33411 0.38805
# Poissons Ratio (z) = -0.04076 0.25441
#
# Static dielectric constant tensor:
#      x y z
#    x 1.802490 0.037230 0.001460 
#    y 0.037230 1.718840 -0.001040 
#    z 0.001460 -0.001040 1.781110 
# 
# From -- ./inp_files/381029.got.cif
#   From: 2010.05.17/outbox.cif.g08.bks.cpg/sg2_191_cif.got.tgz:381029.got - 2010.06.03 11:33:40.
