data_PCOD9027479
_publ_section_title
;
Structure prediction by ZEFSAII (Michael W. Deem and Ramdas Pophale) SiO2 
 PCOD9027479
Probable space group: P -1
;
_chemical_formula_sum "Si O2"
_cell_formula_units_Z 14
_cell_length_a 10.379678
_cell_length_b 5.974708
_cell_length_c 11.825440
_cell_angle_alpha 102.432778
_cell_angle_beta 62.079865
_cell_angle_gamma 71.712581
_cell_volume 554.972851
_symmetry_space_group_name_H-M "P -1"
_symmetry_group_IT_number 2
_symmetry_cell_setting 'triclinic'
loop_
_space_group_symop_operation_xyz
x,y,z
-x,-y,-z
loop_
_atom_site_type_symbol
_atom_site_label
_atom_site_fract_x
_atom_site_fract_y
_atom_site_fract_z
Si Si1 0.412835 0.308190 0.037211
Si Si2 0.632939 0.203571 0.386610
Si Si3 0.762370 0.991210 0.542528
Si Si4 0.423314 0.157160 0.778536
Si Si5 0.105732 0.604237 0.900856
Si Si6 0.883812 0.293439 0.666436
Si Si7 0.978359 0.983758 0.826426
O O1 0.272298 0.442739 0.203791
O O2 0.500000 0.500000 0.000000
O O3 0.342043 0.290315 0.943271
O O4 0.500000 0.000000 0.000000
O O5 0.500000 0.500000 0.500000
O O6 0.824869 0.111289 0.270927
O O7 0.657610 0.048464 0.477258
O O8 0.576056 0.101879 0.291599
O O9 0.936566 0.726830 0.432790
O O10 0.617305 0.069218 0.700985
O O11 0.831386 0.192198 0.565363
O O12 0.294588 0.385714 0.772948
O O13 0.997678 0.719268 0.843237
O O14 0.000000 0.500000 0.000000
O O15 0.107255 0.814625 0.012571
O O16 0.907222 0.107590 0.747646
#
# Coordination Sequence:
#
# PCOD9027479 Si02
#       7
#     2   2   2   2   2   2   2
#     4  12  28  49  78 113 153 197 257 316 383 455
#     4  11  24  42  67 103 147 196 246 308 376 450
#     4  10  23  44  72 101 152 193 253 302 383 449
#     4  12  24  44  75 110 144 197 251 315 375 452
#     4  11  22  40  68 105 142 181 240 308 378 437
#     4  10  22  48  72 106 150 198 245 311 377 461
#     4  10  22  41  68 103 141 189 239 306 375 447
#
# _framework density 25.226459999999999
#
# number of rings (size 3 to 8) (size 9 to 14) (size 15 to 20)
#    0.000    1.143    4.286    1.286    2.000    2.286 
#    0.000    2.143    0.000    0.000    0.000    0.000 
#    0.000    0.000    0.000    0.000    0.000    0.000 
#
# Total GULP energy -78002.999199 kJ/mol
# GULP energy per Si atom -5571.642800 kJ/mol
# Density = 2.516904 g / cm^3
# Si number density = 25.226460 Si / 1000 Ang^3
#
#
#
# Elastic Constant Matrix: (Units=GPa)
#
#
# Indices 1 2 3 4 5 6 
#
# 1 101.0848 20.5314 26.9532 23.2590 -10.5346 -2.6206
# 2 20.5314 91.6720 17.5394 20.8404 -9.4703 -21.8825
# 3 26.9532 17.5394 125.2732 48.4452 -13.5729 0.2956
# 4 23.2590 20.8404 48.4452 53.3468 -4.7133 -0.4247
# 5 -10.5346 -9.4703 -13.5729 -4.7133 64.5173 5.9980
# 6 -2.6206 -21.8825 0.2956 -0.4247 5.9980 25.3121
#
#
#
# Elastic Compliance Matrix: (Units=1/GPa)
#
#
# Indices 1 2 3 4 5 6 
#
# 1 0.011344 -0.001595 -0.000692 -0.003587 0.001262 -0.000556
# 2 -0.001595 0.015662 0.000326 -0.005572 0.000476 0.013164
# 3 -0.000692 0.000326 0.012571 -0.011085 0.001821 -0.000555
# 4 -0.003587 -0.005572 -0.011085 0.032433 -0.000968 -0.004285
# 5 0.001262 0.000476 0.001821 -0.000968 0.016403 -0.003382
# 6 -0.000556 0.013164 -0.000555 -0.004285 -0.003382 0.051566
#
#
# Mechanical properties :
#
#
# Convention : Reuss Voigt Hill
#
# Bulk Modulus (GPa) = 28.04748 49.78646 38.91697
# Shear Modulus (GPa) = 32.09541 45.50230 38.79885
#
# Velocity S-wave (km/s) = 3.57079 4.25167 3.92602
# Velocity P-wave (km/s) = 5.30501 6.62427 6.00100
#
# Compressibility (1/GPa) = 0.03565382
#
# Stress axis : x y z
#
# Youngs Moduli (GPa) = 88.15486 63.85040 79.54613
#
# Poissons Ratio (x) = 0.10184 0.05505
# Poissons Ratio (y) = 0.14060 -0.02590
# Poissons Ratio (z) = 0.06101 -0.02079
#
# Static dielectric constant tensor:
#      x y z
#    x 2.120300 -0.046240 0.000920 
#    y -0.046240 2.318190 -0.085950 
#    z 0.000920 -0.085950 2.076330 
# 
# From -- ./inp_files/410711.got.cif
#   From: 2010.05.17/outbox.cif.g08.bks.cpg/sg2_206_cif.got.tgz:410711.got - 2010.06.03 11:33:40.
