data_PCOD9027571
_publ_section_title
;
Structure prediction by ZEFSAII (Michael W. Deem and Ramdas Pophale) SiO2 
 PCOD9027571
Probable space group: P -1
;
_chemical_formula_sum "Si O2"
_cell_formula_units_Z 16
_cell_length_a 9.474205
_cell_length_b 17.892006
_cell_length_c 20.725004
_cell_angle_alpha 150.489030
_cell_angle_beta 150.403287
_cell_angle_gamma 32.441630
_cell_volume 797.878340
_symmetry_space_group_name_H-M "P -1"
_symmetry_group_IT_number 2
_symmetry_cell_setting 'triclinic'
loop_
_space_group_symop_operation_xyz
x,y,z
-x,-y,-z
loop_
_atom_site_type_symbol
_atom_site_label
_atom_site_fract_x
_atom_site_fract_y
_atom_site_fract_z
Si Si1 0.274685 0.964407 0.832426
Si Si2 0.355911 0.968176 0.609874
Si Si3 0.575253 0.048388 0.896362
Si Si4 0.727146 0.607902 0.516888
Si Si5 0.571359 0.577526 0.652367
Si Si6 0.288452 0.478703 0.843674
Si Si7 0.121257 0.731645 0.861101
Si Si8 0.556751 0.097579 0.657333
O O1 0.380034 0.769719 0.721215
O O2 0.325775 0.038919 0.840415
O O3 0.921618 0.043568 0.771025
O O4 0.500000 0.000000 0.000000
O O5 0.528716 0.774234 0.528185
O O6 0.478760 0.025445 0.767392
O O7 0.420092 0.053420 0.635649
O O8 0.000000 0.000000 0.500000
O O9 0.663505 0.208150 0.053731
O O10 0.887435 0.897438 0.924404
O O11 0.528714 0.509856 0.393732
O O12 0.000000 0.500000 0.500000
O O13 0.895467 0.660807 0.682166
O O14 0.500000 0.500000 0.500000
O O15 0.932413 0.541880 0.769924
O O16 0.311077 0.596127 0.883828
O O17 0.399386 0.289862 0.727064
O O18 0.500000 0.500000 0.000000
O O19 0.500000 0.000000 0.500000
#
# Coordination Sequence:
#
# PCOD9027571 Si02
#       8
#     2   2   2   2   2   2   2   2
#     4  12  26  42  67 105 138 173 222 284 346 394
#     4  11  23  44  68  95 130 182 224 263 337 413
#     4  10  22  43  70  93 132 177 226 269 331 407
#     4  11  24  39  67  99 129 166 222 283 327 382
#     4  12  22  44  71  95 132 178 231 273 325 414
#     4  12  24  43  68 100 134 182 226 271 334 409
#     4  10  22  41  68  95 129 177 224 270 323 407
#     4  12  27  43  67 101 143 172 219 288 346 389
#
# _framework density 20.053182
#
# number of rings (size 3 to 8) (size 9 to 14) (size 15 to 20)
#    0.000    0.750    2.500    5.250    8.750    0.000 
#    0.000    0.625    0.000    0.000    0.000    0.000 
#    0.000    0.000    0.000    0.000    0.000    0.000 
#
# Total GULP energy -89498.655287 kJ/mol
# GULP energy per Si atom -5593.665955 kJ/mol
# Density = 2.000754 g / cm^3
# Si number density = 20.053182 Si / 1000 Ang^3
#
#
#
# Elastic Constant Matrix: (Units=GPa)
#
#
# Indices 1 2 3 4 5 6 
#
# 1 105.3358 38.7887 34.0399 10.7753 16.8472 9.3724
# 2 38.7887 127.7418 22.9856 6.2007 13.1477 9.0852
# 3 34.0399 22.9856 63.1831 -2.7468 15.9368 11.6733
# 4 10.7753 6.2007 -2.7468 39.9417 3.6574 10.0800
# 5 16.8472 13.1477 15.9368 3.6574 36.2558 -5.1848
# 6 9.3724 9.0852 11.6733 10.0800 -5.1848 38.3948
#
#
#
# Elastic Compliance Matrix: (Units=1/GPa)
#
#
# Indices 1 2 3 4 5 6 
#
# 1 0.012945 -0.002508 -0.005519 -0.003164 -0.002415 -0.000384
# 2 -0.002508 0.009110 -0.001309 -0.000346 -0.001712 -0.001286
# 3 -0.005519 -0.001309 0.023362 0.006222 -0.009045 -0.008301
# 4 -0.003164 -0.000346 0.006222 0.029256 -0.005442 -0.009453
# 5 -0.002415 -0.001712 -0.009045 -0.005442 0.035270 0.009936
# 6 -0.000384 -0.001286 -0.008301 -0.009453 0.009936 0.032790
#
#
# Mechanical properties :
#
#
# Convention : Reuss Voigt Hill
#
# Bulk Modulus (GPa) = 37.39012 54.20992 45.80002
# Shear Modulus (GPa) = 29.35671 36.28156 32.81913
#
# Velocity S-wave (km/s) = 3.83030 4.25816 4.04989
# Velocity P-wave (km/s) = 6.18446 7.16015 6.69011
#
# Compressibility (1/GPa) = 0.02674503
#
# Stress axis : x y z
#
# Youngs Moduli (GPa) = 77.25209 109.77221 42.80483
#
# Poissons Ratio (x) = 0.27532 0.23624
# Poissons Ratio (y) = 0.19375 0.05601
# Poissons Ratio (z) = 0.42635 0.14365
#
# Static dielectric constant tensor:
#      x y z
#    x 1.694530 0.018020 0.021620 
#    y 0.018020 1.606890 -0.036820 
#    z 0.021620 -0.036820 1.682380 
# 
# From -- ./inp_files/591243.got.cif
#   From: 2010.05.17/outbox.cif.g08.bks.cpg/sg2_296_cif.got.tgz:591243.got - 2010.06.03 11:33:40.
