data_PCOD9027895
_publ_section_title
;
Structure prediction by ZEFSAII (Michael W. Deem and Ramdas Pophale) SiO2 
 PCOD9027895
Probable space group: P -1
;
_chemical_formula_sum "Si O2"
_cell_formula_units_Z 16
_cell_length_a 14.681350
_cell_length_b 11.727722
_cell_length_c 14.162388
_cell_angle_alpha 139.773334
_cell_angle_beta 140.601877
_cell_angle_gamma 28.254611
_cell_volume 704.290890
_symmetry_space_group_name_H-M "P -1"
_symmetry_group_IT_number 2
_symmetry_cell_setting 'triclinic'
loop_
_space_group_symop_operation_xyz
x,y,z
-x,-y,-z
loop_
_atom_site_type_symbol
_atom_site_label
_atom_site_fract_x
_atom_site_fract_y
_atom_site_fract_z
Si Si1 0.242740 0.513201 0.699809
Si Si2 0.320346 0.494476 0.417346
Si Si3 0.589020 0.251727 0.661639
Si Si4 0.100037 0.330793 0.110151
Si Si5 0.724810 0.858060 0.064329
Si Si6 0.162736 0.250936 0.571599
Si Si7 0.996954 0.949366 0.073346
Si Si8 0.729288 0.087114 0.381798
O O1 0.453434 0.341311 0.702996
O O2 0.237943 0.386772 0.707082
O O3 0.072034 0.569529 0.532108
O O4 0.154777 0.782331 0.825403
O O5 0.440020 0.435773 0.572607
O O6 0.192915 0.428847 0.287863
O O7 0.489333 0.306308 0.354167
O O8 0.201128 0.771513 0.462422
O O9 0.776726 0.220331 0.809692
O O10 0.699697 0.978061 0.538553
O O11 0.883960 0.569845 0.042130
O O12 0.243195 0.142435 0.020286
O O13 0.072957 0.190755 0.067208
O O14 0.768842 0.988101 0.246094
O O15 0.500000 0.000000 0.000000
O O16 0.190333 0.126566 0.614174
O O17 0.000000 0.000000 0.000000
#
# Coordination Sequence:
#
# PCOD9027895 Si02
#       8
#     2   2   2   2   2   2   2   2
#     4  10  22  41  70 100 134 186 227 283 353 403
#     4  10  23  43  71 105 136 176 229 287 345 420
#     4  10  23  44  70  99 138 178 232 291 340 413
#     4  11  27  45  69 103 142 184 235 283 348 417
#     4  11  25  44  70 101 142 187 225 286 354 417
#     4   9  21  40  67 106 138 168 230 292 341 413
#     4  11  28  47  67  99 143 184 236 287 339 414
#     4  10  22  41  71 101 139 177 226 283 351 413
#
# _framework density 22.717887000000001
#
# number of rings (size 3 to 8) (size 9 to 14) (size 15 to 20)
#    0.000    1.750    1.250    0.375    7.000   10.000 
#    0.000    0.000    0.000    0.000    0.000    0.000 
#    0.000    0.000    0.000    0.000    0.000    0.000 
#
# Total GULP energy -89471.048758 kJ/mol
# GULP energy per Si atom -5591.940547 kJ/mol
# Density = 2.266618 g / cm^3
# Si number density = 22.717887 Si / 1000 Ang^3
#
#
#
# Elastic Constant Matrix: (Units=GPa)
#
#
# Indices 1 2 3 4 5 6 
#
# 1 125.5920 52.1597 65.5226 12.2843 19.2682 5.8931
# 2 52.1597 65.1232 17.4556 0.1206 15.2112 -8.6256
# 3 65.5226 17.4556 65.7222 1.9906 17.2006 -5.2871
# 4 12.2843 0.1206 1.9906 25.5354 5.3569 0.4186
# 5 19.2682 15.2112 17.2006 5.3569 43.3449 8.9877
# 6 5.8931 -8.6256 -5.2871 0.4186 8.9877 46.8523
#
#
#
# Elastic Compliance Matrix: (Units=1/GPa)
#
#
# Indices 1 2 3 4 5 6 
#
# 1 0.035705 -0.024231 -0.032609 -0.016511 0.010624 -0.014522
# 2 -0.024231 0.034591 0.019247 0.012590 -0.013477 0.014061
# 3 -0.032609 0.019247 0.047738 0.015050 -0.016389 0.016042
# 4 -0.016511 0.012590 0.015050 0.047964 -0.010574 0.007693
# 5 0.010624 -0.013477 -0.016389 -0.010574 0.033371 -0.011974
# 6 -0.014522 0.014061 0.016042 0.007693 -0.011974 0.029798
#
#
# Mechanical properties :
#
#
# Convention : Reuss Voigt Hill
#
# Bulk Modulus (GPa) = 23.33863 58.52368 40.93115
# Shear Modulus (GPa) = 15.69196 31.23315 23.46256
#
# Velocity S-wave (km/s) = 2.63103 3.71189 3.21717
# Velocity P-wave (km/s) = 4.41874 6.64739 5.64416
#
# Compressibility (1/GPa) = 0.04284742
#
# Stress axis : x y z
#
# Youngs Moduli (GPa) = 28.00742 28.90904 20.94785
#
# Poissons Ratio (x) = 0.70050 0.68309
# Poissons Ratio (y) = 0.67865 -0.40319
# Poissons Ratio (z) = 0.91330 -0.55642
#
# Static dielectric constant tensor:
#      x y z
#    x 1.839350 0.017640 0.004310 
#    y 0.017640 1.898910 0.000210 
#    z 0.004310 0.000210 1.861760 
# 
# From -- ./inp_files/532070.got.cif
#   From: 2010.05.17/outbox.cif.g08.bks.cpg/sg2_267_cif.got.tgz:532070.got - 2010.06.03 11:33:40.
