data_PCOD9027165
_publ_section_title
;
Structure prediction by ZEFSAII (Michael W. Deem and Ramdas Pophale) SiO2 
 PCOD9027165
Probable space group: P -1
;
_chemical_formula_sum "Si O2"
_cell_formula_units_Z 12
_cell_length_a 5.720724
_cell_length_b 9.483556
_cell_length_c 20.298549
_cell_angle_alpha 32.283154
_cell_angle_beta 120.280301
_cell_angle_gamma 106.881663
_cell_volume 485.391655
_symmetry_space_group_name_H-M "P -1"
_symmetry_group_IT_number 2
_symmetry_cell_setting 'triclinic'
loop_
_space_group_symop_operation_xyz
x,y,z
-x,-y,-z
loop_
_atom_site_type_symbol
_atom_site_label
_atom_site_fract_x
_atom_site_fract_y
_atom_site_fract_z
Si Si1 0.122020 0.057028 0.711151
Si Si2 0.823080 0.180932 0.984912
Si Si3 0.634380 0.355561 0.193935
Si Si4 0.927335 0.433032 0.765826
Si Si5 0.824379 0.817070 0.858919
Si Si6 0.432118 0.507449 0.565270
O O1 0.348660 0.225871 0.678568
O O2 0.854873 0.247125 0.557648
O O3 0.240009 0.749874 0.818832
O O4 0.995131 0.020723 0.777500
O O5 0.582933 0.350445 0.934202
O O6 0.787081 0.356518 0.843158
O O7 0.138029 0.165393 0.063948
O O8 0.847569 0.862425 0.103477
O O9 0.429743 0.155192 0.241372
O O10 0.902766 0.347549 0.280193
O O11 0.692097 0.524198 0.640194
O O12 0.000000 0.500000 0.000000
O O13 0.500000 0.500000 0.500000
#
# Coordination Sequence:
#
# PCOD9027165 Si02
#       6
#     2   2   2   2   2   2
#     4  11  24  44  70  96 129 178 227 269 323 396
#     4  10  23  40  62  97 137 174 218 269 329 396
#     4  11  22  39  65  97 133 167 212 272 329 385
#     4  11  24  41  64  97 133 174 221 273 332 389
#     4  10  22  41  67 100 134 172 215 266 333 398
#     4  11  26  48  70  92 128 181 230 272 323 393
#
# _framework density 24.722301000000002
#
# number of rings (size 3 to 8) (size 9 to 14) (size 15 to 20)
#    0.000    1.333    0.000    5.500    0.000   16.000 
#    0.000    4.167    0.000    0.000    0.000    0.000 
#    0.000    0.000    0.000    0.000    0.000    0.000 
#
# Total GULP energy -66815.277707 kJ/mol
# GULP energy per Si atom -5567.939809 kJ/mol
# Density = 2.466603 g / cm^3
# Si number density = 24.722301 Si / 1000 Ang^3
#
#
#
# Elastic Constant Matrix: (Units=GPa)
#
#
# Indices 1 2 3 4 5 6 
#
# 1 74.6530 40.4467 29.9398 22.2275 2.0136 23.3581
# 2 40.4467 133.2904 25.5534 29.6330 5.6809 27.2306
# 3 29.9398 25.5534 83.3324 27.4129 13.8156 6.3806
# 4 22.2275 29.6330 27.4129 56.0383 0.7434 22.7931
# 5 2.0136 5.6809 13.8156 0.7434 40.2315 -6.7203
# 6 23.3581 27.2306 6.3806 22.7931 -6.7203 56.4513
#
#
#
# Elastic Compliance Matrix: (Units=1/GPa)
#
#
# Indices 1 2 3 4 5 6 
#
# 1 0.019359 -0.003592 -0.005153 -0.001162 0.000466 -0.005171
# 2 -0.003592 0.009781 -0.000459 -0.002566 -0.001382 -0.002309
# 3 -0.005153 -0.000459 0.016906 -0.007013 -0.004904 0.002690
# 4 -0.001162 -0.002566 -0.007013 0.026335 0.001005 -0.008002
# 5 0.000466 -0.001382 -0.004904 0.001005 0.027341 0.003877
# 6 -0.005171 -0.002309 0.002690 -0.008002 0.003877 0.024356
#
#
# Mechanical properties :
#
#
# Convention : Reuss Voigt Hill
#
# Bulk Modulus (GPa) = 36.18091 53.68395 44.93243
# Shear Modulus (GPa) = 32.95990 43.56660 38.26325
#
# Velocity S-wave (km/s) = 3.65527 4.20246 3.93838
# Velocity P-wave (km/s) = 5.69924 6.73123 6.23662
#
# Compressibility (1/GPa) = 0.02763888
#
# Stress axis : x y z
#
# Youngs Moduli (GPa) = 51.65488 102.23566 59.14978
#
# Poissons Ratio (x) = 0.36721 0.30481
# Poissons Ratio (y) = 0.18553 0.02715
# Poissons Ratio (z) = 0.26619 0.04692
#
# Static dielectric constant tensor:
#      x y z
#    x 2.305050 -0.034860 0.174190 
#    y -0.034860 1.969490 -0.025000 
#    z 0.174190 -0.025000 2.029900 
# 
# From -- ./inp_files/28684.got.cif
#   From: 2010.05.17/outbox.cif.g08.bks.cpg/sg2_15_cif.got.tgz:28684.got - 2010.06.03 11:33:40.
