data_PCOD9027327
_publ_section_title
;
Structure prediction by ZEFSAII (Michael W. Deem and Ramdas Pophale) SiO2 
 PCOD9027327
Probable space group: P -1
;
_chemical_formula_sum "Si O2"
_cell_formula_units_Z 16
_cell_length_a 11.904822
_cell_length_b 8.535826
_cell_length_c 18.315169
_cell_angle_alpha 48.518234
_cell_angle_beta 149.545591
_cell_angle_gamma 131.569451
_cell_volume 685.402351
_symmetry_space_group_name_H-M "P -1"
_symmetry_group_IT_number 2
_symmetry_cell_setting 'triclinic'
loop_
_space_group_symop_operation_xyz
x,y,z
-x,-y,-z
loop_
_atom_site_type_symbol
_atom_site_label
_atom_site_fract_x
_atom_site_fract_y
_atom_site_fract_z
Si Si1 0.343917 0.966324 0.657954
Si Si2 0.583918 0.814134 0.144455
Si Si3 0.012480 0.156486 0.327959
Si Si4 0.369512 0.251957 0.369465
Si Si5 0.947284 0.624898 0.102741
Si Si6 0.696678 0.049229 0.699618
Si Si7 0.683214 0.302752 0.832060
Si Si8 0.560890 0.449311 0.132503
O O1 0.276856 0.715930 0.720186
O O2 0.162024 0.106453 0.495302
O O3 0.489269 0.977240 0.661867
O O4 0.528299 0.078764 0.786126
O O5 0.372332 0.697275 0.113614
O O6 0.648318 0.655901 0.169330
O O7 0.802277 0.947381 0.269974
O O8 0.500000 0.000000 0.000000
O O9 0.172622 0.160644 0.345682
O O10 0.947310 0.387650 0.210253
O O11 0.601508 0.192199 0.542221
O O12 0.414326 0.506903 0.315340
O O13 0.276787 0.152104 0.270766
O O14 0.093244 0.805745 0.183260
O O15 0.074461 0.657140 0.085448
O O16 0.692998 0.653037 0.946753
O O17 0.500000 0.500000 0.000000
#
# Coordination Sequence:
#
# PCOD9027327 Si02
#       8
#     2   2   2   2   2   2   2   2
#     4  10  22  42  64  98 131 166 217 264 320 385
#     4  12  25  45  64  95 131 172 217 268 321 384
#     4  10  22  42  68  95 128 171 216 263 322 383
#     4   9  18  37  62  99 126 167 212 267 316 378
#     4  10  22  43  67  97 125 175 211 263 326 378
#     4   9  18  35  65  94 133 162 213 267 317 377
#     4  10  22  41  67  96 127 168 217 268 313 386
#     4  12  27  45  63  94 137 171 212 269 326 384
#
# _framework density 23.343954
#
# number of rings (size 3 to 8) (size 9 to 14) (size 15 to 20)
#    0.000    1.750    1.250    2.250    1.750    6.500 
#    4.500    0.000    0.000    0.000    0.000    0.000 
#    0.000    0.000    0.000    0.000    0.000    0.000 
#
# Total GULP energy -89360.772169 kJ/mol
# GULP energy per Si atom -5585.048261 kJ/mol
# Density = 2.329082 g / cm^3
# Si number density = 23.343954 Si / 1000 Ang^3
#
#
#
# Elastic Constant Matrix: (Units=GPa)
#
#
# Indices 1 2 3 4 5 6 
#
# 1 89.8738 15.3664 -5.4782 -3.1282 -15.4671 6.2484
# 2 15.3664 88.2668 15.1109 -1.6081 1.1084 -3.5502
# 3 -5.4782 15.1109 80.5227 -14.6818 4.7787 6.6467
# 4 -3.1282 -1.6081 -14.6818 33.1238 -0.4759 4.5600
# 5 -15.4671 1.1084 4.7787 -0.4759 22.9284 -3.0381
# 6 6.2484 -3.5502 6.6467 4.5600 -3.0381 27.6655
#
#
#
# Elastic Compliance Matrix: (Units=1/GPa)
#
#
# Indices 1 2 3 4 5 6 
#
# 1 0.013488 -0.002826 0.001660 0.002445 0.008506 -0.003277
# 2 -0.002826 0.012439 -0.002940 -0.001401 -0.001526 0.003004
# 3 0.001660 -0.002940 0.015080 0.007472 -0.002506 -0.005882
# 4 0.002445 -0.001401 0.007472 0.034802 -0.000216 -0.008287
# 5 0.008506 -0.001526 -0.002506 -0.000216 0.050482 0.004064
# 6 -0.003277 0.003004 -0.005882 -0.008287 0.004064 0.040497
#
#
# Mechanical properties :
#
#
# Convention : Reuss Voigt Hill
#
# Bulk Modulus (GPa) = 30.49301 34.29570 32.39436
# Shear Modulus (GPa) = 26.89152 32.32116 29.60634
#
# Velocity S-wave (km/s) = 3.39775 3.72501 3.56514
# Velocity P-wave (km/s) = 5.33702 5.76405 5.55464
#
# Compressibility (1/GPa) = 0.03279440
#
# Stress axis : x y z
#
# Youngs Moduli (GPa) = 74.14053 80.39223 66.31327
#
# Poissons Ratio (x) = 0.22721 -0.11005
# Poissons Ratio (y) = 0.20954 0.19493
# Poissons Ratio (z) = -0.12304 0.23631
#
# Static dielectric constant tensor:
#      x y z
#    x 1.940740 0.016910 -0.005540 
#    y 0.016910 1.907780 0.017860 
#    z -0.005540 0.017860 1.925270 
# 
# From -- ./inp_files/206992.got.cif
#   From: 2010.05.17/outbox.cif.g08.bks.cpg/sg2_104_cif.got.tgz:206992.got - 2010.06.03 11:33:40.
