data_PCOD9027071
_publ_section_title
;
Structure prediction by ZEFSAII (Michael W. Deem and Ramdas Pophale) SiO2 
 PCOD9027071
Probable space group: P -1
;
_chemical_formula_sum "Si O2"
_cell_formula_units_Z 16
_cell_length_a 7.613355
_cell_length_b 10.996439
_cell_length_c 13.322021
_cell_angle_alpha 125.466167
_cell_angle_beta 125.448404
_cell_angle_gamma 54.639541
_cell_volume 688.930921
_symmetry_space_group_name_H-M "P -1"
_symmetry_group_IT_number 2
_symmetry_cell_setting 'triclinic'
loop_
_space_group_symop_operation_xyz
x,y,z
-x,-y,-z
loop_
_atom_site_type_symbol
_atom_site_label
_atom_site_fract_x
_atom_site_fract_y
_atom_site_fract_z
Si Si1 0.877831 0.374055 0.871823
Si Si2 0.421894 0.167440 0.494625
Si Si3 0.833939 0.352640 0.075133
Si Si4 0.059069 0.917978 0.371428
Si Si5 0.737342 0.082668 0.997187
Si Si6 0.352270 0.190752 0.250985
Si Si7 0.228402 0.799461 0.721794
Si Si8 0.342295 0.477835 0.719274
O O1 0.611767 0.460209 0.789751
O O2 0.013443 0.222716 0.771666
O O3 0.850038 0.315551 0.946074
O O4 0.000000 0.500000 0.000000
O O5 0.334082 0.171646 0.354659
O O6 0.285189 0.328630 0.586470
O O7 0.671879 0.179724 0.573419
O O8 0.500000 0.000000 0.500000
O O9 0.719746 0.513805 0.178527
O O10 0.100656 0.292545 0.172322
O O11 0.674735 0.259363 0.019960
O O12 0.986615 0.071122 0.345635
O O13 0.000000 0.000000 0.500000
O O14 0.589798 0.985476 0.860461
O O15 0.732488 0.100148 0.122730
O O16 0.000000 0.000000 0.000000
O O17 0.554310 0.247453 0.305342
O O18 0.207980 0.641319 0.690160
#
# Coordination Sequence:
#
# PCOD9027071 Si02
#       8
#     2   2   2   2   2   2   2   2
#     4  11  24  44  70 100 138 176 229 281 345 406
#     4  11  27  44  66  96 136 181 228 277 335 416
#     4  10  22  41  66  96 132 173 224 284 331 398
#     4  11  24  46  66 100 137 180 223 282 343 404
#     4   9  20  35  64  95 127 168 214 279 327 390
#     4  11  22  39  65 101 130 175 226 271 339 400
#     4  11  22  43  69  96 135 171 229 278 343 402
#     4  10  25  45  68  98 134 178 221 285 347 396
#
# _framework density 23.22439
#
# number of rings (size 3 to 8) (size 9 to 14) (size 15 to 20)
#    0.000    1.500    1.250    3.000    8.750    4.000 
#    2.250    0.000    0.000    0.000    0.000    0.000 
#    0.000    0.000    0.000    0.000    0.000    0.000 
#
# Total GULP energy -89123.605113 kJ/mol
# GULP energy per Si atom -5570.225320 kJ/mol
# Density = 2.317153 g / cm^3
# Si number density = 23.224390 Si / 1000 Ang^3
#
#
#
# Elastic Constant Matrix: (Units=GPa)
#
#
# Indices 1 2 3 4 5 6 
#
# 1 49.1568 6.5986 10.3116 2.8029 -9.7123 -4.7776
# 2 6.5986 85.4113 61.0193 5.4079 -4.4867 -5.8451
# 3 10.3116 61.0193 149.4785 19.0114 -26.8941 12.1319
# 4 2.8029 5.4079 19.0114 47.4750 -9.3198 -2.3659
# 5 -9.7123 -4.4867 -26.8941 -9.3198 35.4873 -9.0832
# 6 -4.7776 -5.8451 12.1319 -2.3659 -9.0832 26.8265
#
#
#
# Elastic Compliance Matrix: (Units=1/GPa)
#
#
# Indices 1 2 3 4 5 6 
#
# 1 0.022674 -0.000450 -0.000674 0.000822 0.007619 0.006897
# 2 -0.000450 0.018088 -0.008472 0.001300 -0.002099 0.007096
# 3 -0.000674 -0.008472 0.012056 -0.003010 0.005610 -0.005784
# 4 0.000822 0.001300 -0.003010 0.023494 0.005767 0.005816
# 5 0.007619 -0.002099 0.005610 0.005767 0.038843 0.012023
# 6 0.006897 0.007096 -0.005784 0.005816 0.012023 0.047250
#
#
# Mechanical properties :
#
#
# Convention : Reuss Voigt Hill
#
# Bulk Modulus (GPa) = 29.73817 48.87841 39.30829
# Shear Modulus (GPa) = 25.93282 35.69891 30.81586
#
# Velocity S-wave (km/s) = 3.34521 3.92488 3.64658
# Velocity P-wave (km/s) = 5.26812 6.45224 5.89001
#
# Compressibility (1/GPa) = 0.03362681
#
# Stress axis : x y z
#
# Youngs Moduli (GPa) = 44.10409 55.28455 82.94342
#
# Poissons Ratio (x) = 0.02488 0.05589
# Poissons Ratio (y) = 0.01985 0.70268
# Poissons Ratio (z) = 0.02972 0.46836
#
# Static dielectric constant tensor:
#      x y z
#    x 1.977950 0.032010 -0.017930 
#    y 0.032010 2.125630 0.241790 
#    z -0.017930 0.241790 2.246370 
# 
# From -- ./inp_files/391144.got.cif
#   From: 2010.05.17/outbox.cif.g08.bks.cpg/sg2_196_cif.got.tgz:391144.got - 2010.06.03 11:33:40.
