data_PCOD9027977
_publ_section_title
;
Structure prediction by ZEFSAII (Michael W. Deem and Ramdas Pophale) SiO2 
 PCOD9027977
Probable space group: P -1
;
_chemical_formula_sum "Si O2"
_cell_formula_units_Z 14
_cell_length_a 12.457109
_cell_length_b 12.351461
_cell_length_c 8.817593
_cell_angle_alpha 94.981225
_cell_angle_beta 36.211665
_cell_angle_gamma 113.205884
_cell_volume 666.604442
_symmetry_space_group_name_H-M "P -1"
_symmetry_group_IT_number 2
_symmetry_cell_setting 'triclinic'
loop_
_space_group_symop_operation_xyz
x,y,z
-x,-y,-z
loop_
_atom_site_type_symbol
_atom_site_label
_atom_site_fract_x
_atom_site_fract_y
_atom_site_fract_z
Si Si1 0.386950 0.851504 0.557231
Si Si2 0.204070 0.772841 0.054326
Si Si3 0.642503 0.589479 0.989235
Si Si4 0.984358 0.870013 0.546147
Si Si5 0.384376 0.980411 0.289597
Si Si6 0.908299 0.506039 0.861993
Si Si7 0.345999 0.608082 0.553956
O O1 0.483797 0.762787 0.450978
O O2 0.500000 0.000000 0.500000
O O3 0.380693 0.875549 0.389661
O O4 0.179704 0.775993 0.899523
O O5 0.131407 0.629837 0.168768
O O6 0.085581 0.827050 0.292064
O O7 0.463690 0.875286 0.796485
O O8 0.482192 0.563017 0.307188
O O9 0.500000 0.500000 0.000000
O O10 0.756348 0.739447 0.827596
O O11 0.826583 0.566689 0.839706
O O12 0.000000 0.000000 0.500000
O O13 0.135118 0.917766 0.528996
O O14 0.500000 0.000000 0.000000
O O15 0.153789 0.586400 0.656717
O O16 0.760957 0.467046 0.177342
#
# Coordination Sequence:
#
# PCOD9027977 Si02
#       7
#     2   2   2   2   2   2   2
#     4   9  18  35  64  90 115 162 213 253 324 377
#     4   9  20  39  65  87 121 167 213 266 316 384
#     4  12  27  40  65 100 132 172 217 268 324 390
#     4  11  25  40  58  93 130 170 213 265 323 378
#     4   9  19  35  61  87 119 166 203 258 317 376
#     4  10  22  44  67  95 127 170 220 264 332 387
#     4  10  22  41  70  92 128 170 213 276 319 388
#
# _framework density 21.00196
#
# number of rings (size 3 to 8) (size 9 to 14) (size 15 to 20)
#    0.000    2.000    0.000    2.143    8.000    3.429 
#    0.000    2.143    0.000    0.000    0.000    0.000 
#    0.000    0.000    0.000    0.000    0.000    0.000 
#
# Total GULP energy -77958.568010 kJ/mol
# GULP energy per Si atom -5568.469144 kJ/mol
# Density = 2.095416 g / cm^3
# Si number density = 21.001960 Si / 1000 Ang^3
#
#
#
# Elastic Constant Matrix: (Units=GPa)
#
#
# Indices 1 2 3 4 5 6 
#
# 1 69.8621 21.7880 13.4751 -5.7599 8.1620 -1.8798
# 2 21.7880 125.7120 24.9556 -5.3068 0.1829 0.9359
# 3 13.4751 24.9556 55.2567 5.0486 5.9485 0.9705
# 4 -5.7599 -5.3068 5.0486 41.0788 4.9035 1.0689
# 5 8.1620 0.1829 5.9485 4.9035 26.6215 -7.4823
# 6 -1.8798 0.9359 0.9705 1.0689 -7.4823 29.7162
#
#
#
# Elastic Compliance Matrix: (Units=1/GPa)
#
#
# Indices 1 2 3 4 5 6 
#
# 1 0.016334 -0.002154 -0.002742 0.002947 -0.004970 -0.000167
# 2 -0.002154 0.009141 -0.003844 0.001206 0.001225 -0.000034
# 3 -0.002742 -0.003844 0.021209 -0.002997 -0.003766 -0.001585
# 4 0.002947 0.001206 -0.002997 0.026007 -0.005624 -0.002105
# 5 -0.004970 0.001225 -0.003766 -0.005624 0.044067 0.011068
# 6 -0.000167 -0.000034 -0.001585 -0.002105 0.011068 0.036557
#
#
# Mechanical properties :
#
#
# Convention : Reuss Voigt Hill
#
# Bulk Modulus (GPa) = 34.24238 41.25205 37.74721
# Shear Modulus (GPa) = 27.69650 32.19076 29.94363
#
# Velocity S-wave (km/s) = 3.63541 3.91928 3.78001
# Velocity P-wave (km/s) = 5.82764 6.33764 6.08798
#
# Compressibility (1/GPa) = 0.02920358
#
# Stress axis : x y z
#
# Youngs Moduli (GPa) = 61.22380 109.40310 47.14924
#
# Poissons Ratio (x) = 0.23563 0.12927
# Poissons Ratio (y) = 0.13186 0.18126
# Poissons Ratio (z) = 0.16786 0.42059
#
# Static dielectric constant tensor:
#      x y z
#    x 1.940700 -0.001100 0.014110 
#    y -0.001100 1.869960 -0.010510 
#    z 0.014110 -0.010510 1.800750 
# 
# From -- ./inp_files/258427.got.cif
#   From: 2010.05.17/outbox.cif.g08.bks.cpg/sg2_130_cif.got.tgz:258427.got - 2010.06.03 11:33:40.
