data_PCOD9027269
_publ_section_title
;
Structure prediction by ZEFSAII (Michael W. Deem and Ramdas Pophale) SiO2 
 PCOD9027269
Probable space group: P -1
;
_chemical_formula_sum "Si O2"
_cell_formula_units_Z 14
_cell_length_a 7.500400
_cell_length_b 19.720090
_cell_length_c 12.718566
_cell_angle_alpha 154.070722
_cell_angle_beta 46.092927
_cell_angle_gamma 132.397271
_cell_volume 584.942487
_symmetry_space_group_name_H-M "P -1"
_symmetry_group_IT_number 2
_symmetry_cell_setting 'triclinic'
loop_
_space_group_symop_operation_xyz
x,y,z
-x,-y,-z
loop_
_atom_site_type_symbol
_atom_site_label
_atom_site_fract_x
_atom_site_fract_y
_atom_site_fract_z
Si Si1 0.307462 0.464054 0.122976
Si Si2 0.837932 0.192328 0.891210
Si Si3 0.004709 0.016114 0.894588
Si Si4 0.091842 0.662005 0.629499
Si Si5 0.251567 0.435464 0.775411
Si Si6 0.446218 0.242987 0.277613
Si Si7 0.992753 0.109368 0.493460
O O1 0.170976 0.612614 0.413446
O O2 0.499567 0.456831 0.132178
O O3 0.500000 0.500000 0.000000
O O4 0.087637 0.319624 0.989289
O O5 0.819333 0.149912 0.716660
O O6 0.590916 0.248826 0.116689
O O7 0.883393 0.037492 0.721070
O O8 0.130778 0.933150 0.630449
O O9 0.723262 0.923072 0.864002
O O10 0.072554 0.202080 0.110047
O O11 0.000000 0.000000 0.000000
O O12 0.334580 0.735090 0.696548
O O13 0.000000 0.500000 0.500000
O O14 0.291964 0.384329 0.567035
O O15 0.201883 0.264277 0.612890
O O16 0.000000 0.500000 0.000000
#
# Coordination Sequence:
#
# PCOD9027269 Si02
#       7
#     2   2   2   2   2   2   2
#     4  11  22  37  67  99 128 177 227 286 329 409
#     4  11  21  41  70 108 127 167 246 286 341 389
#     4  11  24  43  66 101 140 186 225 278 360 416
#     4  11  21  40  71 102 133 170 241 285 328 413
#     4  10  23  41  62  95 141 181 220 272 351 416
#     4  10  22  41  70  98 137 184 228 291 331 421
#     4  10  22  41  67  93 138 177 218 287 333 414
#
# _framework density 23.933976999999999
#
# number of rings (size 3 to 8) (size 9 to 14) (size 15 to 20)
#    0.000    1.429    4.286    0.429    4.000    2.286 
#    0.000    7.143    0.000    0.000    0.000    0.000 
#    0.000    0.000    0.000    0.000    0.000    0.000 
#
# Total GULP energy -78051.150003 kJ/mol
# GULP energy per Si atom -5575.082143 kJ/mol
# Density = 2.387950 g / cm^3
# Si number density = 23.933977 Si / 1000 Ang^3
#
#
#
# Elastic Constant Matrix: (Units=GPa)
#
#
# Indices 1 2 3 4 5 6 
#
# 1 65.6491 17.8373 47.4244 -1.9175 24.0087 -1.9086
# 2 17.8373 121.5776 78.7593 -12.0268 11.9521 -1.3799
# 3 47.4244 78.7593 169.8034 -32.4589 34.9148 -2.1866
# 4 -1.9175 -12.0268 -32.4589 70.1959 -6.5479 12.6924
# 5 24.0087 11.9521 34.9148 -6.5479 23.8674 -13.2482
# 6 -1.9086 -1.3799 -2.1866 12.6924 -13.2482 34.5496
#
#
#
# Elastic Compliance Matrix: (Units=1/GPa)
#
#
# Indices 1 2 3 4 5 6 
#
# 1 0.027492 -0.000228 -0.001448 -0.001034 -0.031390 -0.010239
# 2 -0.000228 0.012046 -0.006729 -0.001007 0.005073 0.002358
# 3 -0.001448 -0.006729 0.014337 0.005212 -0.019654 -0.008893
# 4 -0.001034 -0.001007 0.005212 0.017427 -0.006000 -0.008470
# 5 -0.031390 0.005073 -0.019654 -0.006000 0.124145 0.047033
# 6 -0.010239 0.002358 -0.008893 -0.008470 0.047033 0.049056
#
#
# Mechanical properties :
#
#
# Convention : Reuss Voigt Hill
#
# Bulk Modulus (GPa) = 26.97884 71.67467 49.32676
# Shear Modulus (GPa) = 18.27024 39.92320 29.09672
#
# Velocity S-wave (km/s) = 2.76589 4.08861 3.49048
# Velocity P-wave (km/s) = 4.63647 7.23193 6.07444
#
# Compressibility (1/GPa) = 0.03706608
#
# Stress axis : x y z
#
# Youngs Moduli (GPa) = 36.37425 83.01439 69.74720
#
# Poissons Ratio (x) = 0.01897 0.10096
# Poissons Ratio (y) = 0.00831 0.46931
# Poissons Ratio (z) = 0.05265 0.55859
#
# Static dielectric constant tensor:
#      x y z
#    x 1.993330 -0.065740 -0.029440 
#    y -0.065740 1.950510 -0.133810 
#    z -0.029440 -0.133810 2.199640 
# 
# From -- ./inp_files/508623.got.cif
#   From: 2010.05.17/outbox.cif.g08.bks.cpg/sg2_255_cif.got.tgz:508623.got - 2010.06.03 11:33:40.
