data_PCOD9027854
_publ_section_title
;
Structure prediction by ZEFSAII (Michael W. Deem and Ramdas Pophale) SiO2 
 PCOD9027854
Probable space group: P -1
;
_chemical_formula_sum "Si O2"
_cell_formula_units_Z 16
_cell_length_a 18.645450
_cell_length_b 5.195884
_cell_length_c 8.950190
_cell_angle_alpha 100.382860
_cell_angle_beta 74.810256
_cell_angle_gamma 122.398326
_cell_volume 705.699844
_symmetry_space_group_name_H-M "P -1"
_symmetry_group_IT_number 2
_symmetry_cell_setting 'triclinic'
loop_
_space_group_symop_operation_xyz
x,y,z
-x,-y,-z
loop_
_atom_site_type_symbol
_atom_site_label
_atom_site_fract_x
_atom_site_fract_y
_atom_site_fract_z
Si Si1 0.953237 0.680924 0.087101
Si Si2 0.232603 0.664626 0.000214
Si Si3 0.763993 0.401406 0.661839
Si Si4 0.482948 0.772866 0.165363
Si Si5 0.368287 0.305351 0.982818
Si Si6 0.952175 0.647814 0.447515
Si Si7 0.660288 0.681868 0.600680
Si Si8 0.622056 0.400034 0.267058
O O1 0.953580 0.665226 0.266794
O O2 0.855626 0.496753 0.059280
O O3 0.000000 0.500000 0.000000
O O4 0.000000 0.000000 0.000000
O O5 0.220684 0.542919 0.162794
O O6 0.302297 0.632372 0.858426
O O7 0.274290 0.028254 0.038862
O O8 0.853496 0.483629 0.541947
O O9 0.726824 0.603458 0.637034
O O10 0.696661 0.041724 0.627335
O O11 0.560598 0.785006 0.028718
O O12 0.432140 0.506201 0.285916
O O13 0.529694 0.091690 0.259639
O O14 0.404641 0.636538 0.071976
O O15 0.377769 0.340124 0.804813
O O16 0.000000 0.500000 0.500000
O O17 0.000000 0.000000 0.500000
O O18 0.645863 0.529263 0.431522
#
# Coordination Sequence:
#
# PCOD9027854 Si02
#       8
#     2   2   2   2   2   2   2   2
#     4  12  28  48  79 112 145 188 240 296 360 435
#     4  11  25  45  71 103 141 187 241 292 351 430
#     4  12  27  47  72 103 143 189 236 289 360 426
#     4  10  22  42  63 102 134 192 237 294 353 419
#     4  10  22  41  69  97 136 188 239 292 352 419
#     4  12  26  50  77 108 149 187 235 297 368 433
#     4  12  27  43  69 104 144 187 237 296 356 419
#     4  11  25  40  70  98 143 185 243 295 354 417
#
# _framework density 22.672529000000001
#
# number of rings (size 3 to 8) (size 9 to 14) (size 15 to 20)
#    0.000    0.750    1.250    5.250    8.750    0.500 
#    0.000    0.000    0.000    0.000    0.000    0.000 
#    0.000    0.000    0.000    0.000    0.000    0.000 
#
# Total GULP energy -89313.830107 kJ/mol
# GULP energy per Si atom -5582.114382 kJ/mol
# Density = 2.262092 g / cm^3
# Si number density = 22.672529 Si / 1000 Ang^3
#
#
#
# Elastic Constant Matrix: (Units=GPa)
#
#
# Indices 1 2 3 4 5 6 
#
# 1 96.7742 44.4754 45.2729 0.9576 7.7160 9.3427
# 2 44.4754 121.7630 45.5311 -5.7063 8.4261 6.5794
# 3 45.2729 45.5311 210.4455 12.7286 19.3665 12.3529
# 4 0.9576 -5.7063 12.7286 39.3913 7.2090 0.2313
# 5 7.7160 8.4261 19.3665 7.2090 43.3685 1.0263
# 6 9.3427 6.5794 12.3529 0.2313 1.0263 43.0884
#
#
#
# Elastic Compliance Matrix: (Units=1/GPa)
#
#
# Indices 1 2 3 4 5 6 
#
# 1 0.013254 -0.004035 -0.001802 -0.000187 -0.000698 -0.001724
# 2 -0.004035 0.010406 -0.001406 0.002253 -0.001043 -0.000298
# 3 -0.001802 -0.001406 0.005759 -0.001709 -0.001670 -0.000997
# 4 -0.000187 0.002253 -0.001709 0.027026 -0.004137 0.000140
# 5 -0.000698 -0.001043 -0.001670 -0.004137 0.024813 0.000221
# 6 -0.001724 -0.000298 -0.000997 0.000140 0.000221 0.023907
#
#
# Mechanical properties :
#
#
# Convention : Reuss Voigt Hill
#
# Bulk Modulus (GPa) = 66.96004 77.72685 72.34345
# Shear Modulus (GPa) = 40.11872 44.74985 42.43429
#
# Velocity S-wave (km/s) = 4.21109 4.44751 4.33091
# Velocity P-wave (km/s) = 7.29671 7.79298 7.54893
#
# Compressibility (1/GPa) = 0.01493428
#
# Stress axis : x y z
#
# Youngs Moduli (GPa) = 75.44610 96.09683 173.63317
#
# Poissons Ratio (x) = 0.38775 0.31284
# Poissons Ratio (y) = 0.30442 0.24415
# Poissons Ratio (z) = 0.13594 0.13512
#
# Static dielectric constant tensor:
#      x y z
#    x 1.881870 -0.074280 0.040490 
#    y -0.074280 1.837990 -0.003370 
#    z 0.040490 -0.003370 1.919450 
# 
# From -- ./inp_files/139166.got.cif
#   From: 2010.05.17/outbox.cif.g08.bks.cpg/sg2_70_cif.got.tgz:139166.got - 2010.06.03 11:33:40.
