data_PCOD9027030
_publ_section_title
;
Structure prediction by ZEFSAII (Michael W. Deem and Ramdas Pophale) SiO2 
 PCOD9027030
Probable space group: P -1
;
_chemical_formula_sum "Si O2"
_cell_formula_units_Z 15
_cell_length_a 13.439121
_cell_length_b 11.478084
_cell_length_c 7.120324
_cell_angle_alpha 73.261074
_cell_angle_beta 104.083362
_cell_angle_gamma 45.096671
_cell_volume 560.675338
_symmetry_space_group_name_H-M "P -1"
_symmetry_group_IT_number 2
_symmetry_cell_setting 'triclinic'
loop_
_space_group_symop_operation_xyz
x,y,z
-x,-y,-z
loop_
_atom_site_type_symbol
_atom_site_label
_atom_site_fract_x
_atom_site_fract_y
_atom_site_fract_z
Si Si1 0.972410 0.862184 0.982249
Si Si2 0.960133 0.875418 0.526965
Si Si3 0.652110 0.455409 0.613149
Si Si4 0.612548 0.083874 0.815212
Si Si5 0.834874 0.580920 0.811238
Si Si6 0.500000 0.000000 0.500000
Si Si7 0.301837 0.648816 0.900669
Si Si8 0.175958 0.250857 0.609618
O O1 0.126719 0.787723 0.202022
O O2 0.076100 0.627020 0.132159
O O3 0.935885 0.923784 0.717209
O O4 0.776235 0.022831 0.906765
O O5 0.907071 0.791260 0.493226
O O6 0.178941 0.687284 0.688689
O O7 0.827545 0.102750 0.257805
O O8 0.500000 0.500000 0.500000
O O9 0.573870 0.651194 0.382430
O O10 0.662768 0.458040 0.842304
O O11 0.600767 0.016797 0.652337
O O12 0.672427 0.937611 0.080566
O O13 0.659534 0.746825 0.787471
O O14 0.731620 0.763943 0.513748
O O15 0.000000 0.500000 0.000000
O O16 0.500000 0.500000 0.000000
O O17 0.000000 0.500000 0.500000
#
# Coordination Sequence:
#
# PCOD9027030 Si02
#       8
#     2   2   2   2   2   1   2   2
#     4  11  22  43  68  91 131 174 217 266 328 389
#     4  10  22  41  66  95 128 167 220 273 321 393
#     4  11  25  43  64  93 132 168 216 271 326 391
#     4  12  25  40  68  98 131 176 217 265 330 386
#     4  12  22  44  67  95 132 175 216 268 327 393
#     4  12  24  42  68  94 130 176 222 260 326 390
#     4  10  22  42  68  93 121 167 223 274 326 378
#     4  12  24  41  66 101 138 173 216 269 329 395
#
# _framework density 26.753449
#
# number of rings (size 3 to 8) (size 9 to 14) (size 15 to 20)
#    0.000    0.800    5.333    1.600    0.000    2.133 
#    0.000    0.000    0.000    0.000    0.000    0.000 
#    0.000    0.000    0.000    0.000    0.000    0.000 
#
# Total GULP energy -83774.663066 kJ/mol
# GULP energy per Si atom -5584.977538 kJ/mol
# Density = 2.669256 g / cm^3
# Si number density = 26.753449 Si / 1000 Ang^3
#
#
#
# Elastic Constant Matrix: (Units=GPa)
#
#
# Indices 1 2 3 4 5 6 
#
# 1 104.6591 12.8820 50.6177 8.7158 19.7609 15.3869
# 2 12.8820 87.9479 48.1836 -5.1553 -1.0194 12.6131
# 3 50.6177 48.1836 185.1764 -16.2553 7.5052 -0.8122
# 4 8.7158 -5.1553 -16.2553 58.9674 3.7808 4.9903
# 5 19.7609 -1.0194 7.5052 3.7808 70.9425 -0.7125
# 6 15.3869 12.6131 -0.8122 4.9903 -0.7125 36.3605
#
#
#
# Elastic Compliance Matrix: (Units=1/GPa)
#
#
# Indices 1 2 3 4 5 6 
#
# 1 0.012904 0.000852 -0.003842 -0.002219 -0.003114 -0.005598
# 2 0.000852 0.014206 -0.003924 0.000475 0.000302 -0.005435
# 3 -0.003842 -0.003924 0.007662 0.002086 0.000121 0.002874
# 4 -0.002219 0.000475 0.002086 0.018082 -0.000576 -0.001672
# 5 -0.003114 0.000302 0.000121 -0.000576 0.015001 0.001589
# 6 -0.005598 -0.005435 0.002874 -0.001672 0.001589 0.032082
#
#
# Mechanical properties :
#
#
# Convention : Reuss Voigt Hill
#
# Bulk Modulus (GPa) = 47.74602 66.79444 57.27023
# Shear Modulus (GPa) = 41.40917 50.99410 46.20164
#
# Velocity S-wave (km/s) = 3.93849 4.37060 4.16016
# Velocity P-wave (km/s) = 6.21029 7.10566 6.67301
#
# Compressibility (1/GPa) = 0.02094415
#
# Stress axis : x y z
#
# Youngs Moduli (GPa) = 77.49623 70.39226 130.51066
#
# Poissons Ratio (x) = -0.05994 0.50141
# Poissons Ratio (y) = -0.06599 0.51207
# Poissons Ratio (z) = 0.29773 0.27619
#
# Static dielectric constant tensor:
#      x y z
#    x 2.088260 0.091200 0.008200 
#    y 0.091200 2.025420 -0.024590 
#    z 0.008200 -0.024590 2.108680 
# 
# From -- ./inp_files/177030.got.cif
#   From: 2010.05.17/outbox.cif.g08.bks.cpg/sg2_89_cif.got.tgz:177030.got - 2010.06.03 11:33:40.
