data_PCOD9027306
_publ_section_title
;
Structure prediction by ZEFSAII (Michael W. Deem and Ramdas Pophale) SiO2 
 PCOD9027306
Probable space group: P -1
;
_chemical_formula_sum "Si O2"
_cell_formula_units_Z 16
_cell_length_a 17.379466
_cell_length_b 16.391140
_cell_length_c 5.161763
_cell_angle_alpha 83.525498
_cell_angle_beta 96.780578
_cell_angle_gamma 155.257627
_cell_volume 611.072348
_symmetry_space_group_name_H-M "P -1"
_symmetry_group_IT_number 2
_symmetry_cell_setting 'triclinic'
loop_
_space_group_symop_operation_xyz
x,y,z
-x,-y,-z
loop_
_atom_site_type_symbol
_atom_site_label
_atom_site_fract_x
_atom_site_fract_y
_atom_site_fract_z
Si Si1 0.301871 0.713920 0.488154
Si Si2 0.859022 0.566846 0.813691
Si Si3 0.159166 0.310859 0.627301
Si Si4 0.872283 0.958016 0.962923
Si Si5 0.453983 0.701486 0.856839
Si Si6 0.703970 0.730202 0.476601
Si Si7 0.197436 0.870003 0.180086
Si Si8 0.690828 0.120614 0.278220
O O1 0.239008 0.722967 0.659379
O O2 0.153106 0.530922 0.306361
O O3 0.470551 0.910259 0.313013
O O4 0.385933 0.717874 0.675313
O O5 0.919288 0.696991 0.597673
O O6 0.651948 0.393166 0.878769
O O7 0.989297 0.680598 0.070938
O O8 0.177580 0.240287 0.520614
O O9 0.355936 0.531772 0.732947
O O10 0.023783 0.170130 0.867319
O O11 0.746047 0.821639 0.714322
O O12 0.751423 0.834343 0.216354
O O13 0.000000 0.000000 0.000000
O O14 0.672314 0.924238 0.878213
O O15 0.500000 0.500000 0.500000
O O16 0.228166 0.865274 0.481393
O O17 0.271280 0.875208 0.994752
#
# Coordination Sequence:
#
# PCOD9027306 Si02
#       8
#     2   2   2   2   2   2   2   2
#     4   9  21  40  66  93 131 179 223 284 345 394
#     4  11  24  42  66  93 137 180 225 274 340 404
#     4  10  24  44  68  96 135 187 218 274 342 407
#     4  10  22  44  72  97 134 174 219 265 333 400
#     4  10  23  44  64  93 138 177 228 271 340 408
#     4  11  24  46  73 107 138 167 225 284 328 396
#     4  11  25  43  65  95 134 172 232 284 328 404
#     4  10  22  41  67  95 129 176 228 286 343 390
#
# _framework density 26.183479999999999
#
# number of rings (size 3 to 8) (size 9 to 14) (size 15 to 20)
#    0.000    1.750    1.250    1.875   10.500    2.500 
#    4.500    0.000    0.000    0.000    0.000    0.000 
#    0.000    0.000    0.000    0.000    0.000    0.000 
#
# Total GULP energy -89667.023152 kJ/mol
# GULP energy per Si atom -5604.188947 kJ/mol
# Density = 2.612389 g / cm^3
# Si number density = 26.183480 Si / 1000 Ang^3
#
#
#
# Elastic Constant Matrix: (Units=GPa)
#
#
# Indices 1 2 3 4 5 6 
#
# 1 82.0724 28.6161 9.7610 5.4281 -10.1191 -16.8786
# 2 28.6161 138.3236 35.2793 10.9496 13.0945 1.0839
# 3 9.7610 35.2793 119.4615 2.8906 9.7126 3.0025
# 4 5.4281 10.9496 2.8906 41.5933 -13.9979 -12.7975
# 5 -10.1191 13.0945 9.7126 -13.9979 24.5530 -1.7332
# 6 -16.8786 1.0839 3.0025 -12.7975 -1.7332 48.6480
#
#
#
# Elastic Compliance Matrix: (Units=1/GPa)
#
#
# Indices 1 2 3 4 5 6 
#
# 1 0.017372 -0.005268 -0.001479 0.006963 0.015131 0.008607
# 2 -0.005268 0.010366 -0.001417 -0.007122 -0.011500 -0.004254
# 3 -0.001479 -0.001417 0.009426 -0.002368 -0.005064 -0.001867
# 4 0.006963 -0.007122 -0.002368 0.040234 0.031561 0.014429
# 5 0.015131 -0.011500 -0.005064 0.031561 0.074277 0.016767
# 6 0.008607 -0.004254 -0.001867 0.014429 0.016767 0.028145
#
#
# Mechanical properties :
#
#
# Convention : Reuss Voigt Hill
#
# Bulk Modulus (GPa) = 47.98928 54.13004 51.05966
# Shear Modulus (GPa) = 24.61925 40.70563 32.66244
#
# Velocity S-wave (km/s) = 3.06969 3.94716 3.53575
# Velocity P-wave (km/s) = 5.56164 6.44140 6.01762
#
# Compressibility (1/GPa) = 0.02083799
#
# Stress axis : x y z
#
# Youngs Moduli (GPa) = 57.56406 96.46649 106.08892
#
# Poissons Ratio (x) = 0.50816 0.15688
# Poissons Ratio (y) = 0.30323 0.15030
# Poissons Ratio (z) = 0.08512 0.13667
#
# Static dielectric constant tensor:
#      x y z
#    x 2.090550 0.027620 -0.010630 
#    y 0.027620 2.081240 0.000910 
#    z -0.010630 0.000910 1.991150 
# 
# From -- ./inp_files/120055.got.cif
#   From: 2010.05.17/outbox.cif.g08.bks.cpg/sg2_61_cif.got.tgz:120055.got - 2010.06.03 11:33:40.
