data_PCOD9027740
_publ_section_title
;
Structure prediction by ZEFSAII (Michael W. Deem and Ramdas Pophale) SiO2 
 PCOD9027740
Probable space group: P -1
;
_chemical_formula_sum "Si O2"
_cell_formula_units_Z 14
_cell_length_a 7.677534
_cell_length_b 5.361967
_cell_length_c 13.088950
_cell_angle_alpha 89.766242
_cell_angle_beta 73.499554
_cell_angle_gamma 90.297900
_cell_volume 516.622710
_symmetry_space_group_name_H-M "P -1"
_symmetry_group_IT_number 2
_symmetry_cell_setting 'triclinic'
loop_
_space_group_symop_operation_xyz
x,y,z
-x,-y,-z
loop_
_atom_site_type_symbol
_atom_site_label
_atom_site_fract_x
_atom_site_fract_y
_atom_site_fract_z
Si Si1 0.678026 0.124349 0.013608
Si Si2 0.377504 0.043510 0.777210
Si Si3 0.824961 0.825105 0.586930
Si Si4 0.225741 0.037433 0.192008
Si Si5 0.217277 0.675457 0.474798
Si Si6 0.878923 0.485315 0.916001
Si Si7 0.762361 0.465538 0.292937
O O1 0.682086 0.413237 0.027520
O O2 0.814807 0.174760 0.889117
O O3 0.500000 0.000000 0.000000
O O4 0.747371 0.978978 0.099244
O O5 0.348919 0.288997 0.718100
O O6 0.579899 0.018847 0.789962
O O7 0.326653 0.792382 0.728318
O O8 0.889513 0.919629 0.688054
O O9 0.731268 0.551037 0.608869
O O10 0.005257 0.752607 0.494574
O O11 0.705406 0.045263 0.557310
O O12 0.217756 0.274709 0.121445
O O13 0.234175 0.567637 0.585149
O O14 0.047505 0.491704 0.797404
O O15 0.000000 0.500000 0.000000
#
# Coordination Sequence:
#
# PCOD9027740 Si02
#       7
#     2   2   2   2   2   2   2
#     4  10  25  43  69 102 148 191 234 292 363 432
#     4  11  27  45  69 101 153 190 236 286 375 430
#     4  10  22  41  69 104 134 183 239 294 357 427
#     4  11  26  44  71 104 139 199 234 297 354 446
#     4  10  22  42  69 102 140 177 236 304 360 408
#     4  12  25  43  75 106 142 181 253 297 349 427
#     4  12  25  46  71 107 143 189 237 306 356 417
#
# _framework density 27.099081000000002
#
# number of rings (size 3 to 8) (size 9 to 14) (size 15 to 20)
#    0.000    1.143    2.857    1.714    8.000    3.429 
#    0.000    4.286    0.000    0.000    0.000    0.000 
#    0.000    0.000    0.000    0.000    0.000    0.000 
#
# Total GULP energy -77962.469025 kJ/mol
# GULP energy per Si atom -5568.747787 kJ/mol
# Density = 2.703740 g / cm^3
# Si number density = 27.099081 Si / 1000 Ang^3
#
#
#
# Elastic Constant Matrix: (Units=GPa)
#
#
# Indices 1 2 3 4 5 6 
#
# 1 114.5992 68.3806 14.7212 -13.8015 11.5518 3.3625
# 2 68.3806 237.9701 70.5236 -38.2075 29.8330 -4.6023
# 3 14.7212 70.5236 169.1316 -20.8719 35.7350 -0.7756
# 4 -13.8015 -38.2075 -20.8719 63.5261 -6.9883 5.9047
# 5 11.5518 29.8330 35.7350 -6.9883 42.4073 -3.7032
# 6 3.3625 -4.6023 -0.7756 5.9047 -3.7032 41.6724
#
#
#
# Elastic Compliance Matrix: (Units=1/GPa)
#
#
# Indices 1 2 3 4 5 6 
#
# 1 0.010707 -0.003024 0.000704 0.000717 -0.001388 -0.001410
# 2 -0.003024 0.006148 -0.001661 0.002270 -0.001691 0.000420
# 3 0.000704 -0.001661 0.007852 0.001198 -0.005508 -0.000753
# 4 0.000717 0.002270 0.001198 0.017865 -0.000060 -0.002322
# 5 -0.001388 -0.001691 -0.005508 -0.000060 0.029998 0.002497
# 6 -0.001410 0.000420 -0.000753 -0.002322 0.002497 0.024694
#
#
# Mechanical properties :
#
#
# Convention : Reuss Voigt Hill
#
# Bulk Modulus (GPa) = 59.71439 92.10576 75.91008
# Shear Modulus (GPa) = 45.12329 54.05953 49.59141
#
# Velocity S-wave (km/s) = 4.08502 4.47126 4.28249
# Velocity P-wave (km/s) = 6.65832 7.79221 7.24747
#
# Compressibility (1/GPa) = 0.01674638
#
# Stress axis : x y z
#
# Youngs Moduli (GPa) = 93.39336 162.65962 127.35502
#
# Poissons Ratio (x) = 0.49180 -0.08967
# Poissons Ratio (y) = 0.28237 0.21154
# Poissons Ratio (z) = -0.06575 0.27018
#
# Static dielectric constant tensor:
#      x y z
#    x 2.316050 0.037270 -0.262650 
#    y 0.037270 2.223800 0.139870 
#    z -0.262650 0.139870 2.446250 
# 
# From -- ./inp_files/229901.got.cif
#   From: 2010.05.17/outbox.cif.g08.bks.cpg/sg2_115_cif.got.tgz:229901.got - 2010.06.03 11:33:40.
