data_PCOD9027148
_publ_section_title
;
Structure prediction by ZEFSAII (Michael W. Deem and Ramdas Pophale) SiO2 
 PCOD9027148
Probable space group: P -1
;
_chemical_formula_sum "Si O2"
_cell_formula_units_Z 16
_cell_length_a 16.961864
_cell_length_b 5.719863
_cell_length_c 21.614810
_cell_angle_alpha 101.483592
_cell_angle_beta 157.552593
_cell_angle_gamma 89.869098
_cell_volume 685.959257
_symmetry_space_group_name_H-M "P -1"
_symmetry_group_IT_number 2
_symmetry_cell_setting 'triclinic'
loop_
_space_group_symop_operation_xyz
x,y,z
-x,-y,-z
loop_
_atom_site_type_symbol
_atom_site_label
_atom_site_fract_x
_atom_site_fract_y
_atom_site_fract_z
Si Si1 0.029479 0.745838 0.821055
Si Si2 0.048176 0.478127 0.462254
Si Si3 0.568045 0.675697 0.807661
Si Si4 0.888302 0.469876 0.016617
Si Si5 0.305945 0.090702 0.848687
Si Si6 0.264722 0.890544 0.231141
Si Si7 0.496065 0.494913 0.603222
Si Si8 0.745091 0.481006 0.125525
O O1 0.961064 0.544783 0.819349
O O2 0.143742 0.642532 0.846335
O O3 0.781795 0.705817 0.616566
O O4 0.227083 0.036217 0.004401
O O5 0.322451 0.630395 0.653953
O O6 0.000000 0.500000 0.500000
O O7 0.895608 0.537112 0.302410
O O8 0.940761 0.154860 0.360609
O O9 0.534409 0.619770 0.706804
O O10 0.655798 0.458207 0.877294
O O11 0.033725 0.752020 0.099488
O O12 0.822591 0.226190 0.907620
O O13 0.247134 0.235633 0.869577
O O14 0.461864 0.295632 0.918665
O O15 0.500000 0.000000 0.000000
O O16 0.392490 0.709182 0.332677
O O17 0.396528 0.221109 0.344330
#
# Coordination Sequence:
#
# PCOD9027148 Si02
#       8
#     2   2   2   2   2   2   2   2
#     4  12  25  42  69 103 138 188 240 299 360 431
#     4  11  23  41  67  98 139 186 230 286 356 428
#     4  11  25  45  65 106 142 187 239 296 367 431
#     4  10  25  42  73 101 142 189 239 301 361 434
#     4   9  21  41  66  93 131 180 228 292 353 415
#     4  10  24  48  73 107 146 194 241 307 364 436
#     4  11  25  46  76 102 151 190 245 303 368 429
#     4  10  22  41  66  99 135 179 239 291 353 425
#
# _framework density 23.325002000000001
#
# number of rings (size 3 to 8) (size 9 to 14) (size 15 to 20)
#    0.000    1.500    2.500    0.750    3.500   11.000 
#    0.000    0.000    0.000    0.000    0.000    0.000 
#    0.000    0.000    0.000    0.000    0.000    0.000 
#
# Total GULP energy -89218.652941 kJ/mol
# GULP energy per Si atom -5576.165809 kJ/mol
# Density = 2.327191 g / cm^3
# Si number density = 23.325002 Si / 1000 Ang^3
#
#
#
# Elastic Constant Matrix: (Units=GPa)
#
#
# Indices 1 2 3 4 5 6 
#
# 1 68.5052 34.7167 35.5568 -22.6882 4.0096 -8.1457
# 2 34.7167 85.1971 36.7643 1.7425 5.5271 -9.9622
# 3 35.5568 36.7643 149.6781 -2.0192 12.5598 -0.0745
# 4 -22.6882 1.7425 -2.0192 36.3651 -2.5992 12.4554
# 5 4.0096 5.5271 12.5598 -2.5992 32.1142 -5.2016
# 6 -8.1457 -9.9622 -0.0745 12.4554 -5.2016 17.4873
#
#
#
# Elastic Compliance Matrix: (Units=1/GPa)
#
#
# Indices 1 2 3 4 5 6 
#
# 1 0.028017 -0.011200 -0.003651 0.020537 0.000240 -0.007902
# 2 -0.011200 0.019332 -0.002291 -0.013273 0.000380 0.015353
# 3 -0.003651 -0.002291 0.008352 -0.000788 -0.003016 -0.003306
# 4 0.020537 -0.013273 -0.000788 0.053259 -0.001556 -0.036395
# 5 0.000240 0.000380 -0.003016 -0.001556 0.033964 0.011526
# 6 -0.007902 0.015353 -0.003306 -0.036395 0.011526 0.091586
#
#
# Mechanical properties :
#
#
# Convention : Reuss Voigt Hill
#
# Bulk Modulus (GPa) = 46.69587 57.49509 52.09548
# Shear Modulus (GPa) = 18.12029 30.28283 24.20156
#
# Velocity S-wave (km/s) = 2.79025 3.60710 3.22464
# Velocity P-wave (km/s) = 5.51759 6.48470 6.02059
#
# Compressibility (1/GPa) = 0.02141517
#
# Stress axis : x y z
#
# Youngs Moduli (GPa) = 35.69283 51.72728 119.73299
#
# Poissons Ratio (x) = 0.57937 0.43720
# Poissons Ratio (y) = 0.39977 0.27430
# Poissons Ratio (z) = 0.13033 0.11851
#
# Static dielectric constant tensor:
#      x y z
#    x 2.848180 1.770530 0.683850 
#    y 1.770530 5.272670 1.315850 
#    z 0.683850 1.315850 2.396470 
# 
# From -- ./inp_files/553656.got.cif
#   From: 2010.05.17/outbox.cif.g08.bks.cpg/sg2_277_cif.got.tgz:553656.got - 2010.06.03 11:33:40.
