data_PCOD9027485
_publ_section_title
;
Structure prediction by ZEFSAII (Michael W. Deem and Ramdas Pophale) SiO2 
 PCOD9027485
Probable space group: P -1
;
_chemical_formula_sum "Si O2"
_cell_formula_units_Z 14
_cell_length_a 8.668101
_cell_length_b 11.062748
_cell_length_c 6.389166
_cell_angle_alpha 80.004561
_cell_angle_beta 101.538346
_cell_angle_gamma 77.943211
_cell_volume 572.034024
_symmetry_space_group_name_H-M "P -1"
_symmetry_group_IT_number 2
_symmetry_cell_setting 'triclinic'
loop_
_space_group_symop_operation_xyz
x,y,z
-x,-y,-z
loop_
_atom_site_type_symbol
_atom_site_label
_atom_site_fract_x
_atom_site_fract_y
_atom_site_fract_z
Si Si1 0.302607 0.780867 0.339117
Si Si2 0.536046 0.957737 0.270579
Si Si3 0.560798 0.612651 0.234919
Si Si4 0.900868 0.892435 0.525424
Si Si5 0.674018 0.327032 0.191781
Si Si6 0.905582 0.642469 0.372971
Si Si7 0.977079 0.232859 0.006423
O O1 0.427973 0.856692 0.276718
O O2 0.403266 0.639166 0.334769
O O3 0.292739 0.774845 0.585614
O O4 0.128804 0.826887 0.167844
O O5 0.730527 0.934906 0.346055
O O6 0.500000 0.000000 0.500000
O O7 0.500000 0.000000 0.000000
O O8 0.629632 0.467587 0.230131
O O9 0.715003 0.655133 0.350505
O O10 0.482495 0.683793 0.980626
O O11 0.960805 0.748647 0.491461
O O12 0.897792 0.863843 0.782990
O O13 0.000000 0.000000 0.500000
O O14 0.829612 0.307648 0.090846
O O15 0.000000 0.500000 0.500000
O O16 0.940271 0.676474 0.133302
#
# Coordination Sequence:
#
# PCOD9027485 Si02
#       7
#     2   2   2   2   2   2   2
#     4  11  23  45  73 101 149 198 265 318 394 475
#     4  12  31  52  81 113 155 212 276 338 402 489
#     4  10  22  41  68 104 150 193 264 311 402 463
#     4  12  29  50  76 113 159 206 264 331 414 479
#     4  10  23  42  70 107 146 205 248 326 392 484
#     4  12  27  47  75 114 158 203 266 330 407 487
#     4  11  26  45  74 109 158 203 261 331 407 479
#
# _framework density 24.474067000000002
#
# number of rings (size 3 to 8) (size 9 to 14) (size 15 to 20)
#    0.000    0.857    1.429    3.857   12.000    5.143 
#    0.000    0.000    0.000    0.000    0.000    0.000 
#    0.000    0.000    0.000    0.000    0.000    0.000 
#
# Total GULP energy -78037.356133 kJ/mol
# GULP energy per Si atom -5574.096867 kJ/mol
# Density = 2.441836 g / cm^3
# Si number density = 24.474067 Si / 1000 Ang^3
#
#
#
# Elastic Constant Matrix: (Units=GPa)
#
#
# Indices 1 2 3 4 5 6 
#
# 1 91.3592 12.9930 53.4725 -16.4714 33.1357 12.3027
# 2 12.9930 93.6988 44.7321 11.2998 5.7113 13.1679
# 3 53.4725 44.7321 208.8567 -27.8605 16.8326 3.9520
# 4 -16.4714 11.2998 -27.8605 31.8690 -1.8752 0.2988
# 5 33.1357 5.7113 16.8326 -1.8752 57.0204 6.6648
# 6 12.3027 13.1679 3.9520 0.2988 6.6648 27.1031
#
#
#
# Elastic Compliance Matrix: (Units=1/GPa)
#
#
# Indices 1 2 3 4 5 6 
#
# 1 0.017602 -0.000680 -0.002704 0.006522 -0.008536 -0.005238
# 2 -0.000680 0.014658 -0.004099 -0.009040 0.000571 -0.006256
# 3 -0.002704 -0.004099 0.007172 0.006295 -0.000179 0.002148
# 4 0.006522 -0.009040 0.006295 0.043248 -0.003423 0.000879
# 5 -0.008536 0.000571 -0.000179 -0.003423 0.022603 -0.001897
# 6 -0.005238 -0.006256 0.002148 0.000879 -0.001897 0.042457
#
#
# Mechanical properties :
#
#
# Convention : Reuss Voigt Hill
#
# Bulk Modulus (GPa) = 40.87229 68.47888 54.67559
# Shear Modulus (GPa) = 29.26355 42.04629 35.65492
#
# Velocity S-wave (km/s) = 3.46164 4.14937 3.82100
# Velocity P-wave (km/s) = 5.71959 7.14123 6.46958
#
# Compressibility (1/GPa) = 0.02446645
#
# Stress axis : x y z
#
# Youngs Moduli (GPa) = 56.81057 68.22133 139.43878
#
# Poissons Ratio (x) = 0.04640 0.37703
# Poissons Ratio (y) = 0.03864 0.57154
# Poissons Ratio (z) = 0.15361 0.27963
#
# Static dielectric constant tensor:
#      x y z
#    x 1.939710 -0.093300 -0.002740 
#    y -0.093300 2.308320 0.094650 
#    z -0.002740 0.094650 2.053200 
# 
# From -- ./inp_files/27188.got.cif
#   From: 2010.05.17/outbox.cif.g08.bks.cpg/sg2_14_cif.got.tgz:27188.got - 2010.06.03 11:33:40.
