data_PCOD9027207
_publ_section_title
;
Structure prediction by ZEFSAII (Michael W. Deem and Ramdas Pophale) SiO2 
 PCOD9027207
Probable space group: P -1
;
_chemical_formula_sum "Si O2"
_cell_formula_units_Z 16
_cell_length_a 10.594489
_cell_length_b 15.127980
_cell_length_c 7.618040
_cell_angle_alpha 70.065183
_cell_angle_beta 44.485782
_cell_angle_gamma 53.335406
_cell_volume 678.389333
_symmetry_space_group_name_H-M "P -1"
_symmetry_group_IT_number 2
_symmetry_cell_setting 'triclinic'
loop_
_space_group_symop_operation_xyz
x,y,z
-x,-y,-z
loop_
_atom_site_type_symbol
_atom_site_label
_atom_site_fract_x
_atom_site_fract_y
_atom_site_fract_z
Si Si1 0.963223 0.780934 0.878855
Si Si2 0.599879 0.227838 0.506834
Si Si3 0.753556 0.360732 0.850487
Si Si4 0.175587 0.204555 0.387477
Si Si5 0.418354 0.322742 0.008214
Si Si6 0.862341 0.460466 0.063211
Si Si7 0.505225 0.040695 0.660779
Si Si8 0.601937 0.543891 0.601881
O O1 0.947144 0.762291 0.699603
O O2 0.165243 0.790591 0.715250
O O3 0.992609 0.671572 0.016283
O O4 0.736943 0.889209 0.078208
O O5 0.517607 0.262095 0.764833
O O6 0.592847 0.122262 0.528619
O O7 0.437013 0.335236 0.477018
O O8 0.598899 0.326230 0.936781
O O9 0.746413 0.455334 0.668382
O O10 0.990559 0.253821 0.683968
O O11 0.632983 0.416198 0.115155
O O12 0.335480 0.072399 0.317510
O O13 0.312408 0.260745 0.238065
O O14 0.235922 0.448826 0.054949
O O15 0.689361 0.481857 0.372176
O O16 0.000000 0.500000 0.000000
O O17 0.500000 0.000000 0.500000
#
# Coordination Sequence:
#
# PCOD9027207 Si02
#       8
#     2   2   2   2   2   2   2   2
#     4  12  23  45  75 100 135 181 233 280 335 414
#     4  11  24  44  74 100 133 185 228 280 348 401
#     4  11  23  42  67 105 146 178 216 282 343 410
#     4  12  25  46  69  99 134 185 235 276 338 401
#     4  11  22  41  72 106 140 178 222 280 337 420
#     4  11  19  41  72 107 143 178 224 272 345 416
#     4  12  31  49  66  97 138 181 239 296 337 400
#     4  10  22  41  67 106 145 171 220 275 343 418
#
# _framework density 23.585277000000001
#
# number of rings (size 3 to 8) (size 9 to 14) (size 15 to 20)
#    0.000    0.750    5.000    1.875    3.500    4.000 
#    0.000    3.125    0.000    0.000    0.000    0.000 
#    0.000    0.000    0.000    0.000    0.000    0.000 
#
# Total GULP energy -89503.664139 kJ/mol
# GULP energy per Si atom -5593.979009 kJ/mol
# Density = 2.353160 g / cm^3
# Si number density = 23.585277 Si / 1000 Ang^3
#
#
#
# Elastic Constant Matrix: (Units=GPa)
#
#
# Indices 1 2 3 4 5 6 
#
# 1 98.3728 44.1699 17.9612 -8.5031 -13.4466 22.3369
# 2 44.1699 157.6259 21.4531 11.6513 -14.5952 -2.1208
# 3 17.9612 21.4531 102.6865 18.1120 -9.1433 1.3948
# 4 -8.5031 11.6513 18.1120 38.2883 5.2638 -9.6159
# 5 -13.4466 -14.5952 -9.1433 5.2638 47.6507 1.7293
# 6 22.3369 -2.1208 1.3948 -9.6159 1.7293 36.6022
#
#
#
# Elastic Compliance Matrix: (Units=1/GPa)
#
#
# Indices 1 2 3 4 5 6 
#
# 1 0.014868 -0.003995 -0.001934 0.002920 0.002590 -0.008587
# 2 -0.003995 0.007881 -0.000356 -0.002787 0.001450 0.002107
# 3 -0.001934 -0.000356 0.011486 -0.006333 0.002287 -0.001050
# 4 0.002920 -0.002787 -0.006333 0.033141 -0.005169 0.007249
# 5 0.002590 0.001450 0.002287 -0.005169 0.023318 -0.004043
# 6 -0.008587 0.002107 -0.001050 0.007249 -0.004043 0.034818
#
#
# Mechanical properties :
#
#
# Convention : Reuss Voigt Hill
#
# Bulk Modulus (GPa) = 46.15472 58.42817 52.29144
# Shear Modulus (GPa) = 34.41122 42.84831 38.62977
#
# Velocity S-wave (km/s) = 3.82385 4.26695 4.05146
# Velocity P-wave (km/s) = 6.25360 7.00733 6.64117
#
# Compressibility (1/GPa) = 0.02166626
#
# Stress axis : x y z
#
# Youngs Moduli (GPa) = 67.25739 126.89509 87.06442
#
# Poissons Ratio (x) = 0.50691 0.16837
# Poissons Ratio (y) = 0.26867 0.03096
# Poissons Ratio (z) = 0.13006 0.04513
#
# Static dielectric constant tensor:
#      x y z
#    x 2.036850 -0.027160 0.008740 
#    y -0.027160 1.865950 -0.015930 
#    z 0.008740 -0.015930 1.981870 
# 
# From -- ./inp_files/272308.got.cif
#   From: 2010.05.17/outbox.cif.g08.bks.cpg/sg2_137_cif.got.tgz:272308.got - 2010.06.03 11:33:40.
