data_PCOD9027708
_publ_section_title
;
Structure prediction by ZEFSAII (Michael W. Deem and Ramdas Pophale) SiO2 
 PCOD9027708
Probable space group: P -1
;
_chemical_formula_sum "Si O2"
_cell_formula_units_Z 15
_cell_length_a 17.197711
_cell_length_b 9.533113
_cell_length_c 7.068370
_cell_angle_alpha 130.645101
_cell_angle_beta 102.458050
_cell_angle_gamma 44.964709
_cell_volume 552.617806
_symmetry_space_group_name_H-M "P -1"
_symmetry_group_IT_number 2
_symmetry_cell_setting 'triclinic'
loop_
_space_group_symop_operation_xyz
x,y,z
-x,-y,-z
loop_
_atom_site_type_symbol
_atom_site_label
_atom_site_fract_x
_atom_site_fract_y
_atom_site_fract_z
Si Si1 0.141759 0.922794 0.658490
Si Si2 0.248153 0.099360 0.471217
Si Si3 0.292748 0.981738 0.827142
Si Si4 0.590728 0.417676 0.135763
Si Si5 0.357152 0.277533 0.117485
Si Si6 0.682236 0.620767 0.259428
Si Si7 0.939370 0.000300 0.748107
Si Si8 0.000000 0.500000 0.500000
O O1 0.169630 0.078996 0.887506
O O2 0.275285 0.582903 0.437196
O O3 0.039161 0.984605 0.759573
O O4 0.104759 0.981663 0.470460
O O5 0.312311 0.175161 0.501487
O O6 0.102362 0.372315 0.615250
O O7 0.302087 0.957731 0.582753
O O8 0.281165 0.878061 0.150779
O O9 0.401627 0.699235 0.762792
O O10 0.287666 0.207621 0.063212
O O11 0.500000 0.500000 0.000000
O O12 0.592016 0.636819 0.330228
O O13 0.352462 0.320683 0.928734
O O14 0.500000 0.000000 0.000000
O O15 0.821325 0.296376 0.051776
O O16 0.997946 0.717879 0.623235
#
# Coordination Sequence:
#
# PCOD9027708 Si02
#       8
#     2   2   2   2   2   2   2   1
#     4  10  22  43  64 103 141 176 236 285 344 417
#     4  11  26  47  69 103 143 184 227 293 350 416
#     4  11  25  45  72 102 135 186 231 279 355 414
#     4  12  27  46  72 106 139 179 240 294 345 420
#     4  10  22  41  69 101 138 183 231 289 348 414
#     4  10  23  46  66  97 139 183 233 280 359 413
#     4  10  22  42  69  98 139 185 227 295 341 417
#     4  12  22  42  74  96 142 186 226 290 354 408
#
# _framework density 27.143530999999999
#
# number of rings (size 3 to 8) (size 9 to 14) (size 15 to 20)
#    0.000    1.333    2.667    1.600    3.733    5.333 
#    0.000    3.333    0.000    0.000    0.000    0.000 
#    0.000    0.000    0.000    0.000    0.000    0.000 
#
# Total GULP energy -83858.340419 kJ/mol
# GULP energy per Si atom -5590.556028 kJ/mol
# Density = 2.708175 g / cm^3
# Si number density = 27.143531 Si / 1000 Ang^3
#
#
#
# Elastic Constant Matrix: (Units=GPa)
#
#
# Indices 1 2 3 4 5 6 
#
# 1 77.9934 60.1442 30.8507 16.9835 20.8519 19.2232
# 2 60.1442 204.7504 45.7854 -28.2933 7.5525 16.0230
# 3 30.8507 45.7854 49.5530 0.1704 10.4797 5.0131
# 4 16.9835 -28.2933 0.1704 52.6636 2.6753 8.1867
# 5 20.8519 7.5525 10.4797 2.6753 46.7404 11.4961
# 6 19.2232 16.0230 5.0131 8.1867 11.4961 42.2587
#
#
#
# Elastic Compliance Matrix: (Units=1/GPa)
#
#
# Indices 1 2 3 4 5 6 
#
# 1 0.027111 -0.007070 -0.008305 -0.011449 -0.007340 -0.004452
# 2 -0.007070 0.008966 -0.004295 0.007256 0.002699 -0.001814
# 3 -0.008305 -0.004295 0.029664 0.000006 -0.002911 0.002678
# 4 -0.011449 0.007256 0.000006 0.026982 0.003291 -0.003666
# 5 -0.007340 0.002699 -0.002911 0.003291 0.025935 -0.005032
# 6 -0.004452 -0.001814 0.002678 -0.003666 -0.005032 0.028138
#
#
# Mechanical properties :
#
#
# Convention : Reuss Voigt Hill
#
# Bulk Modulus (GPa) = 37.87543 67.31748 52.59645
# Shear Modulus (GPa) = 25.64939 41.36699 33.50819
#
# Velocity S-wave (km/s) = 3.07735 3.90809 3.51733
# Velocity P-wave (km/s) = 5.15856 6.72448 5.99289
#
# Compressibility (1/GPa) = 0.02640234
#
# Stress axis : x y z
#
# Youngs Moduli (GPa) = 36.88516 111.52997 33.71080
#
# Poissons Ratio (x) = 0.78848 0.27995
# Poissons Ratio (y) = 0.26077 0.14480
# Poissons Ratio (z) = 0.30632 0.47905
#
# Static dielectric constant tensor:
#      x y z
#    x 2.299020 -0.038380 -0.111700 
#    y -0.038380 2.114760 0.011940 
#    z -0.111700 0.011940 2.114030 
# 
# From -- ./inp_files/328098.got.cif
#   From: 2010.05.17/outbox.cif.g08.bks.cpg/sg2_165_cif.got.tgz:328098.got - 2010.06.03 11:33:40.
