data_PCOD9027886
_publ_section_title
;
Structure prediction by ZEFSAII (Michael W. Deem and Ramdas Pophale) SiO2 
 PCOD9027886
Probable space group: P -1
;
_chemical_formula_sum "Si O2"
_cell_formula_units_Z 14
_cell_length_a 7.813402
_cell_length_b 15.117536
_cell_length_c 8.867559
_cell_angle_alpha 35.781074
_cell_angle_beta 95.310353
_cell_angle_gamma 106.655486
_cell_volume 568.116155
_symmetry_space_group_name_H-M "P -1"
_symmetry_group_IT_number 2
_symmetry_cell_setting 'triclinic'
loop_
_space_group_symop_operation_xyz
x,y,z
-x,-y,-z
loop_
_atom_site_type_symbol
_atom_site_label
_atom_site_fract_x
_atom_site_fract_y
_atom_site_fract_z
Si Si1 0.131583 0.493031 0.386884
Si Si2 0.659809 0.237366 0.435281
Si Si3 0.583945 0.246838 0.772362
Si Si4 0.742698 0.990507 0.278123
Si Si5 0.713940 0.574272 0.882392
Si Si6 0.199789 0.215028 0.683067
Si Si7 0.081944 0.770677 0.781313
O O1 0.329354 0.589001 0.350441
O O2 0.071058 0.295119 0.641634
O O3 0.000000 0.500000 0.500000
O O4 0.109020 0.615771 0.085215
O O5 0.647720 0.247578 0.601531
O O6 0.781661 0.163562 0.444252
O O7 0.442662 0.160838 0.478111
O O8 0.765779 0.421406 0.139197
O O9 0.363763 0.198651 0.816746
O O10 0.645180 0.109960 0.040449
O O11 0.867139 0.086907 0.289670
O O12 0.848918 0.932902 0.233751
O O13 0.718436 0.625630 0.639120
O O14 0.870864 0.717033 0.784204
O O15 0.500000 0.500000 0.000000
#
# Coordination Sequence:
#
# PCOD9027886 Si02
#       7
#     2   2   2   2   2   2   2
#     4  11  24  41  67  99 135 176 230 283 335 398
#     4  11  20  41  72  99 134 177 224 274 341 399
#     4  10  22  41  69  99 138 180 222 273 338 409
#     4  10  23  44  70 103 141 180 222 274 344 410
#     4  12  23  40  70 100 132 174 232 284 337 399
#     4  11  22  41  69  96 135 176 228 271 339 400
#     4  11  25  42  67 102 137 178 225 281 341 402
#
# _framework density 24.642847
#
# number of rings (size 3 to 8) (size 9 to 14) (size 15 to 20)
#    0.000    1.143    4.286    3.857    2.000    0.571 
#    0.000    2.857   12.571    0.000    0.000    0.000 
#    0.000    0.000    0.000    0.000    0.000    0.000 
#
# Total GULP energy -78012.994577 kJ/mol
# GULP energy per Si atom -5572.356755 kJ/mol
# Density = 2.458676 g / cm^3
# Si number density = 24.642847 Si / 1000 Ang^3
#
#
#
# Elastic Constant Matrix: (Units=GPa)
#
#
# Indices 1 2 3 4 5 6 
#
# 1 101.9779 68.7299 -3.7183 -0.2325 8.3580 8.2054
# 2 68.7299 154.6663 11.3184 -22.9703 2.4322 22.6937
# 3 -3.7183 11.3184 66.6090 -9.2463 5.4510 -1.2067
# 4 -0.2325 -22.9703 -9.2463 42.3200 -5.9697 8.2479
# 5 8.3580 2.4322 5.4510 -5.9697 29.0987 -4.8347
# 6 8.2054 22.6937 -1.2067 8.2479 -4.8347 44.3795
#
#
#
# Elastic Compliance Matrix: (Units=1/GPa)
#
#
# Indices 1 2 3 4 5 6 
#
# 1 0.015438 -0.007863 0.001965 -0.004746 -0.004857 0.001573
# 2 -0.007863 0.012047 -0.001717 0.007578 0.002143 -0.005928
# 3 0.001965 -0.001717 0.015951 0.002103 -0.002938 0.000237
# 4 -0.004746 0.007578 0.002103 0.030483 0.005255 -0.008033
# 5 -0.004857 0.002143 -0.002938 0.005255 0.037684 0.002851
# 6 0.001573 -0.005928 0.000237 -0.008033 0.002851 0.027083
#
#
# Mechanical properties :
#
#
# Convention : Reuss Voigt Hill
#
# Bulk Modulus (GPa) = 35.45300 52.87926 44.16613
# Shear Modulus (GPa) = 30.61502 39.62120 35.11811
#
# Velocity S-wave (km/s) = 3.52852 4.01411 3.77912
# Velocity P-wave (km/s) = 5.56943 6.55660 6.08307
#
# Compressibility (1/GPa) = 0.02820636
#
# Stress axis : x y z
#
# Youngs Moduli (GPa) = 64.77512 83.00836 62.69150
#
# Poissons Ratio (x) = 0.65272 -0.12320
# Poissons Ratio (y) = 0.50934 0.10763
# Poissons Ratio (z) = -0.12730 0.14251
#
# Static dielectric constant tensor:
#      x y z
#    x 2.055550 0.035120 0.010190 
#    y 0.035120 1.904080 -0.057950 
#    z 0.010190 -0.057950 2.019780 
# 
# From -- ./inp_files/199019.got.cif
#   From: 2010.05.17/outbox.cif.g08.bks.cpg/sg2_100_cif.got.tgz:199019.got - 2010.06.03 11:33:40.
