data_PCOD9027242
_publ_section_title
;
Structure prediction by ZEFSAII (Michael W. Deem and Ramdas Pophale) SiO2 
 PCOD9027242
Probable space group: P -1
;
_chemical_formula_sum "Si O2"
_cell_formula_units_Z 16
_cell_length_a 15.414978
_cell_length_b 8.486085
_cell_length_c 8.278988
_cell_angle_alpha 95.229915
_cell_angle_beta 44.196983
_cell_angle_gamma 81.409345
_cell_volume 714.976592
_symmetry_space_group_name_H-M "P -1"
_symmetry_group_IT_number 2
_symmetry_cell_setting 'triclinic'
loop_
_space_group_symop_operation_xyz
x,y,z
-x,-y,-z
loop_
_atom_site_type_symbol
_atom_site_label
_atom_site_fract_x
_atom_site_fract_y
_atom_site_fract_z
Si Si1 0.369838 0.257415 0.717139
Si Si2 0.660846 0.576012 0.883768
Si Si3 0.944071 0.394546 0.440538
Si Si4 0.639732 0.104380 0.206667
Si Si5 0.136862 0.884756 0.598457
Si Si6 0.119054 0.449317 0.960131
Si Si7 0.405051 0.770611 0.078872
Si Si8 0.109992 0.809112 0.999261
O O1 0.518666 0.237365 0.471063
O O2 0.267542 0.341127 0.719469
O O3 0.360802 0.075964 0.751937
O O4 0.326208 0.367417 0.945826
O O5 0.800671 0.522430 0.601484
O O6 0.617966 0.409004 0.933795
O O7 0.547793 0.722224 0.963138
O O8 0.908795 0.223124 0.488735
O O9 0.000000 0.500000 0.500000
O O10 0.062191 0.346296 0.152011
O O11 0.777284 0.128272 0.068971
O O12 0.609726 0.133262 0.060307
O O13 0.286064 0.871686 0.362323
O O14 0.130414 0.804652 0.776619
O O15 0.033316 0.066391 0.761249
O O16 0.123988 0.627489 0.030328
O O17 0.000000 0.500000 0.000000
#
# Coordination Sequence:
#
# PCOD9027242 Si02
#       8
#     2   2   2   2   2   2   2   2
#     4  11  25  45  64  94 135 171 218 272 330 393
#     4  10  22  41  67  92 134 171 216 274 319 393
#     4  11  22  41  66  96 136 175 212 270 329 384
#     4  11  26  42  67  97 131 173 216 274 332 390
#     4  10  23  43  65  96 135 170 216 271 327 388
#     4  12  25  42  68  99 130 176 224 266 326 395
#     4  10  23  42  66  99 125 172 224 266 329 385
#     4  11  24  42  69  95 131 175 216 272 325 393
#
# _framework density 22.378357000000001
#
# number of rings (size 3 to 8) (size 9 to 14) (size 15 to 20)
#    0.000    1.250    2.500    2.250    5.250    5.000 
#    0.000    0.000    0.000    0.000    0.000    0.000 
#    0.000    0.000    0.000    0.000    0.000    0.000 
#
# Total GULP energy -89321.428870 kJ/mol
# GULP energy per Si atom -5582.589304 kJ/mol
# Density = 2.232742 g / cm^3
# Si number density = 22.378357 Si / 1000 Ang^3
#
#
#
# Elastic Constant Matrix: (Units=GPa)
#
#
# Indices 1 2 3 4 5 6 
#
# 1 83.5926 19.9190 11.7484 13.2455 -19.8269 -13.0352
# 2 19.9190 60.3957 25.4354 14.4174 -15.7535 -19.3881
# 3 11.7484 25.4354 96.2378 30.9627 -25.6861 -11.9617
# 4 13.2455 14.4174 30.9627 27.5823 -4.2452 -8.5743
# 5 -19.8269 -15.7535 -25.6861 -4.2452 34.6869 6.0307
# 6 -13.0352 -19.3881 -11.9617 -8.5743 6.0307 24.8665
#
#
#
# Elastic Compliance Matrix: (Units=1/GPa)
#
#
# Indices 1 2 3 4 5 6 
#
# 1 0.016158 -0.000972 0.004642 -0.009586 0.010340 0.004132
# 2 -0.000972 0.025335 -0.000939 -0.005978 0.006906 0.015056
# 3 0.004642 -0.000939 0.021925 -0.023886 0.015495 0.000253
# 4 -0.009586 -0.005978 -0.023886 0.070288 -0.018596 0.007570
# 5 0.010340 0.006906 0.015495 -0.018596 0.046996 0.000448
# 6 0.004132 0.015056 0.000253 0.007570 0.000448 0.056743
#
#
# Mechanical properties :
#
#
# Convention : Reuss Voigt Hill
#
# Bulk Modulus (GPa) = 14.51830 39.38130 26.94980
# Shear Modulus (GPa) = 19.61220 29.63536 24.62378
#
# Velocity S-wave (km/s) = 2.96360 3.64302 3.32073
# Velocity P-wave (km/s) = 4.26759 5.94404 5.17416
#
# Compressibility (1/GPa) = 0.06887857
#
# Stress axis : x y z
#
# Youngs Moduli (GPa) = 61.88968 39.47060 45.61105
#
# Poissons Ratio (x) = 0.03837 -0.21172
# Poissons Ratio (y) = 0.06016 0.04285
# Poissons Ratio (z) = -0.28729 0.03708
#
# Static dielectric constant tensor:
#      x y z
#    x 1.895120 -0.012970 0.035250 
#    y -0.012970 1.788000 0.000540 
#    z 0.035250 0.000540 1.831900 
# 
# From -- ./inp_files/186077.got.cif
#   From: 2010.05.17/outbox.cif.g08.bks.cpg/sg2_94_cif.got.tgz:186077.got - 2010.06.03 11:33:40.
