data_PCOD9027275
_publ_section_title
;
Structure prediction by ZEFSAII (Michael W. Deem and Ramdas Pophale) SiO2 
 PCOD9027275
Probable space group: P -1
;
_chemical_formula_sum "Si O2"
_cell_formula_units_Z 16
_cell_length_a 10.155184
_cell_length_b 10.859507
_cell_length_c 7.672000
_cell_angle_alpha 81.692968
_cell_angle_beta 79.355737
_cell_angle_gamma 48.268844
_cell_volume 620.270383
_symmetry_space_group_name_H-M "P -1"
_symmetry_group_IT_number 2
_symmetry_cell_setting 'triclinic'
loop_
_space_group_symop_operation_xyz
x,y,z
-x,-y,-z
loop_
_atom_site_type_symbol
_atom_site_label
_atom_site_fract_x
_atom_site_fract_y
_atom_site_fract_z
Si Si1 0.588787 0.240690 0.375894
Si Si2 0.126555 0.167734 0.360675
Si Si3 0.199922 0.862055 0.298944
Si Si4 0.927796 0.608353 0.177205
Si Si5 0.551429 0.588197 0.077385
Si Si6 0.733803 0.499069 0.388019
Si Si7 0.135505 0.084163 0.753562
Si Si8 0.291519 0.310643 0.247442
O O1 0.725734 0.192259 0.508784
O O2 0.415646 0.431650 0.441755
O O3 0.445339 0.216766 0.373095
O O4 0.730449 0.115464 0.212859
O O5 0.205504 0.093612 0.547698
O O6 0.245291 0.198564 0.232867
O O7 0.929289 0.334165 0.412258
O O8 0.115641 0.049458 0.279002
O O9 0.378637 0.750396 0.171815
O O10 0.058326 0.853091 0.257690
O O11 0.767046 0.622160 0.288510
O O12 0.881545 0.783456 0.147708
O O13 0.095389 0.488239 0.293786
O O14 0.000000 0.500000 0.000000
O O15 0.674679 0.469516 0.229844
O O16 0.500000 0.500000 0.000000
O O17 0.638811 0.638978 0.926647
#
# Coordination Sequence:
#
# PCOD9027275 Si02
#       8
#     2   2   2   2   2   2   2   2
#     4  10  22  41  67  99 129 170 219 278 324 385
#     4  10  22  41  69  98 131 169 218 278 324 394
#     4  10  24  44  66  94 137 176 217 269 334 391
#     4  11  22  41  66  92 131 178 212 267 324 394
#     4  11  24  42  63  94 133 177 219 269 325 394
#     4  10  22  41  67  94 130 172 220 264 332 384
#     4  11  23  43  69  97 133 172 224 271 330 388
#     4  11  23  42  65  99 133 165 226 265 332 385
#
# _framework density 25.795202
#
# number of rings (size 3 to 8) (size 9 to 14) (size 15 to 20)
#    0.000    1.500    1.250    3.750    0.000   10.000 
#    4.500    6.250    0.000    0.000    0.000    0.000 
#    0.000    0.000    0.000    0.000    0.000    0.000 
#
# Total GULP energy -89161.625636 kJ/mol
# GULP energy per Si atom -5572.601602 kJ/mol
# Density = 2.573649 g / cm^3
# Si number density = 25.795202 Si / 1000 Ang^3
#
#
#
# Elastic Constant Matrix: (Units=GPa)
#
#
# Indices 1 2 3 4 5 6 
#
# 1 141.1470 24.7016 37.7268 2.1296 4.5734 6.9032
# 2 24.7016 85.1674 28.9096 17.0581 10.3488 2.9958
# 3 37.7268 28.9096 88.7299 9.8263 -3.0139 14.3328
# 4 2.1296 17.0581 9.8263 37.9528 6.2150 8.8605
# 5 4.5734 10.3488 -3.0139 6.2150 44.8211 -0.9549
# 6 6.9032 2.9958 14.3328 8.8605 -0.9549 51.8057
#
#
#
# Elastic Compliance Matrix: (Units=1/GPa)
#
#
# Indices 1 2 3 4 5 6 
#
# 1 0.008201 -0.001443 -0.003123 0.001230 -0.000892 -0.000372
# 2 -0.001443 0.014876 -0.003935 -0.005436 -0.002771 0.001299
# 3 -0.003123 -0.003935 0.014628 -0.001504 0.002353 -0.003103
# 4 0.001230 -0.005436 -0.001504 0.030770 -0.003340 -0.004758
# 5 -0.000892 -0.002771 0.002353 -0.003340 0.023676 0.000636
# 6 -0.000372 0.001299 -0.003103 -0.004758 0.000636 0.020961
#
#
# Mechanical properties :
#
#
# Convention : Reuss Voigt Hill
#
# Bulk Modulus (GPa) = 48.30586 55.30225 51.80405
# Shear Modulus (GPa) = 36.49247 41.82969 39.16108
#
# Velocity S-wave (km/s) = 3.76533 4.03129 3.90058
# Velocity P-wave (km/s) = 6.13767 6.56916 6.35708
#
# Compressibility (1/GPa) = 0.02070142
#
# Stress axis : x y z
#
# Youngs Moduli (GPa) = 121.94122 67.22420 68.36288
#
# Poissons Ratio (x) = 0.09702 0.21350
# Poissons Ratio (y) = 0.17600 0.26901
# Poissons Ratio (z) = 0.38082 0.26453
#
# Static dielectric constant tensor:
#      x y z
#    x 2.011020 0.074310 0.034760 
#    y 0.074310 2.162540 -0.092620 
#    z 0.034760 -0.092620 2.133310 
# 
# From -- ./inp_files/187495.got.cif
#   From: 2010.05.17/outbox.cif.g08.bks.cpg/sg2_94_cif.got.tgz:187495.got - 2010.06.03 11:33:40.
