data_PCOD9027457
_publ_section_title
;
Structure prediction by ZEFSAII (Michael W. Deem and Ramdas Pophale) SiO2 
 PCOD9027457
Probable space group: P -1
;
_chemical_formula_sum "Si O2"
_cell_formula_units_Z 14
_cell_length_a 13.431161
_cell_length_b 6.968794
_cell_length_c 9.516975
_cell_angle_alpha 134.466405
_cell_angle_beta 101.423710
_cell_angle_gamma 74.206562
_cell_volume 611.680331
_symmetry_space_group_name_H-M "P -1"
_symmetry_group_IT_number 2
_symmetry_cell_setting 'triclinic'
loop_
_space_group_symop_operation_xyz
x,y,z
-x,-y,-z
loop_
_atom_site_type_symbol
_atom_site_label
_atom_site_fract_x
_atom_site_fract_y
_atom_site_fract_z
Si Si1 0.976706 0.376490 0.079422
Si Si2 0.443555 0.293706 0.964520
Si Si3 0.254513 0.526944 0.865389
Si Si4 0.101473 0.766224 0.415938
Si Si5 0.569004 0.678040 0.695523
Si Si6 0.153396 0.977071 0.250299
Si Si7 0.236089 0.509506 0.538924
O O1 0.863360 0.520441 0.177453
O O2 0.064671 0.471969 0.245369
O O3 0.953197 0.075618 0.880514
O O4 0.000000 0.500000 0.000000
O O5 0.335930 0.305471 0.857267
O O6 0.513792 0.993938 0.828221
O O7 0.500000 0.500000 0.000000
O O8 0.424047 0.382388 0.166833
O O9 0.282529 0.561956 0.729497
O O10 0.243007 0.814875 0.091871
O O11 0.162608 0.817277 0.319139
O O12 0.000000 0.000000 0.500000
O O13 0.500000 0.500000 0.500000
O O14 0.678830 0.609408 0.613490
O O15 0.164621 0.766832 0.576664
O O16 0.168032 0.280113 0.433060
#
# Coordination Sequence:
#
# PCOD9027457 Si02
#       7
#     2   2   2   2   2   2   2
#     4   8  19  40  62  95 128 178 227 267 335 392
#     4  11  24  47  75 100 143 180 232 287 353 421
#     4  10  22  41  68 102 132 184 226 278 345 408
#     4  11  23  42  67  96 137 181 232 286 339 404
#     4  11  27  45  70 110 138 179 232 292 353 417
#     4   9  22  44  63  94 135 177 229 273 343 403
#     4  12  25  43  69  99 138 179 232 285 345 412
#
# _framework density 22.887772999999999
#
# number of rings (size 3 to 8) (size 9 to 14) (size 15 to 20)
#    0.857    0.857    0.000    3.429    0.000    9.714 
#    7.714    0.000    0.000    0.000    0.000    0.000 
#    0.000    0.000    0.000    0.000    0.000    0.000 
#
# Total GULP energy -78156.102502 kJ/mol
# GULP energy per Si atom -5582.578750 kJ/mol
# Density = 2.283568 g / cm^3
# Si number density = 22.887773 Si / 1000 Ang^3
#
#
#
# Elastic Constant Matrix: (Units=GPa)
#
#
# Indices 1 2 3 4 5 6 
#
# 1 68.1867 40.8682 28.4410 -22.7647 -8.4782 9.2003
# 2 40.8682 129.3987 65.8000 -36.9263 -3.9780 -2.1437
# 3 28.4410 65.8000 102.0952 -27.2694 -21.1643 4.7040
# 4 -22.7647 -36.9263 -27.2694 39.6399 12.0805 10.6266
# 5 -8.4782 -3.9780 -21.1643 12.0805 37.3177 0.5446
# 6 9.2003 -2.1437 4.7040 10.6266 0.5446 39.5313
#
#
#
# Elastic Compliance Matrix: (Units=1/GPa)
#
#
# Indices 1 2 3 4 5 6 
#
# 1 0.021863 -0.003900 -0.000106 0.010691 0.001150 -0.008177
# 2 -0.003900 0.015083 -0.007770 0.008268 -0.006369 0.000515
# 3 -0.000106 -0.007770 0.017530 0.003220 0.008098 -0.003460
# 4 0.010691 0.008268 0.003220 0.048551 -0.010357 -0.015331
# 5 0.001150 -0.006369 0.008098 -0.010357 0.034314 0.000735
# 6 -0.008177 0.000515 -0.003460 -0.015331 0.000735 0.031750
#
#
# Mechanical properties :
#
#
# Convention : Reuss Voigt Hill
#
# Bulk Modulus (GPa) = 32.33787 63.32212 47.82999
# Shear Modulus (GPa) = 24.63625 34.26922 29.45273
#
# Velocity S-wave (km/s) = 3.28440 3.87366 3.59114
# Velocity P-wave (km/s) = 5.34253 6.90893 6.17560
#
# Compressibility (1/GPa) = 0.03092350
#
# Stress axis : x y z
#
# Youngs Moduli (GPa) = 45.73911 66.29787 57.04361
#
# Poissons Ratio (x) = 0.25859 0.00605
# Poissons Ratio (y) = 0.17840 0.44325
# Poissons Ratio (z) = 0.00485 0.51516
#
# Static dielectric constant tensor:
#      x y z
#    x 1.967220 -0.027290 0.019210 
#    y -0.027290 1.851890 -0.003090 
#    z 0.019210 -0.003090 1.890500 
# 
# From -- ./inp_files/323110.got.cif
#   From: 2010.05.17/outbox.cif.g08.bks.cpg/sg2_162_cif.got.tgz:323110.got - 2010.06.03 11:33:40.
