data_PCOD9027687
_publ_section_title
;
Structure prediction by ZEFSAII (Michael W. Deem and Ramdas Pophale) SiO2 
 PCOD9027687
Probable space group: P -1
;
_chemical_formula_sum "Si O2"
_cell_formula_units_Z 14
_cell_length_a 8.354252
_cell_length_b 9.389597
_cell_length_c 13.653223
_cell_angle_alpha 147.634874
_cell_angle_beta 80.637913
_cell_angle_gamma 89.530308
_cell_volume 543.765992
_symmetry_space_group_name_H-M "P -1"
_symmetry_group_IT_number 2
_symmetry_cell_setting 'triclinic'
loop_
_space_group_symop_operation_xyz
x,y,z
-x,-y,-z
loop_
_atom_site_type_symbol
_atom_site_label
_atom_site_fract_x
_atom_site_fract_y
_atom_site_fract_z
Si Si1 0.929989 0.829175 0.603001
Si Si2 0.694079 0.389625 0.884738
Si Si3 0.840598 0.542157 0.275407
Si Si4 0.380800 0.309215 0.124158
Si Si5 0.230445 0.996425 0.087597
Si Si6 0.514189 0.372747 0.532315
Si Si7 0.791933 0.849399 0.254274
O O1 0.774646 0.073446 0.717256
O O2 0.079419 0.973590 0.679311
O O3 0.961741 0.598238 0.381116
O O4 0.865136 0.789227 0.695376
O O5 0.696336 0.458704 0.811162
O O6 0.500000 0.500000 0.000000
O O7 0.803191 0.568428 0.031189
O O8 0.869662 0.235532 0.049652
O O9 0.666780 0.580863 0.373916
O O10 0.811966 0.756148 0.311845
O O11 0.574610 0.152337 0.984075
O O12 0.392841 0.450894 0.308350
O O13 0.268631 0.103802 0.039567
O O14 0.500000 0.500000 0.500000
O O15 0.614595 0.054225 0.354579
#
# Coordination Sequence:
#
# PCOD9027687 Si02
#       7
#     2   2   2   2   2   2   2
#     4  12  24  45  69  99 141 175 221 285 341 397
#     4  12  22  41  72  99 132 178 226 274 328 402
#     4  11  23  43  72  96 136 179 227 274 335 402
#     4  10  22  41  69 100 133 173 233 277 330 388
#     4  10  22  42  67 101 134 175 226 278 328 405
#     4  11  24  44  71  99 130 176 233 280 329 407
#     4  12  26  43  67 104 137 174 225 284 342 396
#
# _framework density 25.746366999999999
#
# number of rings (size 3 to 8) (size 9 to 14) (size 15 to 20)
#    0.000    0.857    2.857    4.714    6.000    0.000 
#    0.000    5.000    0.000    0.000    0.000    0.000 
#    0.000    0.000    0.000    0.000    0.000    0.000 
#
# Total GULP energy -78447.459000 kJ/mol
# GULP energy per Si atom -5603.389929 kJ/mol
# Density = 2.568777 g / cm^3
# Si number density = 25.746367 Si / 1000 Ang^3
#
#
#
# Elastic Constant Matrix: (Units=GPa)
#
#
# Indices 1 2 3 4 5 6 
#
# 1 92.5919 19.3373 23.0840 -11.0376 11.5407 13.9491
# 2 19.3373 130.1089 21.1589 -42.0676 6.6756 2.1083
# 3 23.0840 21.1589 108.3562 -17.1172 15.0011 -0.5018
# 4 -11.0376 -42.0676 -17.1172 47.5492 -1.0002 -0.9162
# 5 11.5407 6.6756 15.0011 -1.0002 41.7707 7.5496
# 6 13.9491 2.1083 -0.5018 -0.9162 7.5496 46.1025
#
#
#
# Elastic Compliance Matrix: (Units=1/GPa)
#
#
# Indices 1 2 3 4 5 6 
#
# 1 0.012396 -0.000981 -0.002015 0.001179 -0.001903 -0.003393
# 2 -0.000981 0.010957 -0.000291 0.009340 -0.001183 0.000172
# 3 -0.002015 -0.000291 0.010678 0.003074 -0.003403 0.001358
# 4 0.001179 0.009340 0.003074 0.030631 -0.002229 0.000223
# 5 -0.001903 -0.001183 -0.003403 -0.002229 0.026509 -0.003793
# 6 -0.003393 0.000172 0.001358 0.000223 -0.003793 0.023350
#
#
# Mechanical properties :
#
#
# Convention : Reuss Voigt Hill
#
# Bulk Modulus (GPa) = 36.42049 50.91303 43.66676
# Shear Modulus (GPa) = 38.38861 44.91627 41.65244
#
# Velocity S-wave (km/s) = 3.86558 4.18133 4.02655
# Velocity P-wave (km/s) = 5.83953 6.56728 6.21407
#
# Compressibility (1/GPa) = 0.02745707
#
# Stress axis : x y z
#
# Youngs Moduli (GPa) = 80.66982 91.26960 93.65140
#
# Poissons Ratio (x) = 0.08952 0.18874
# Poissons Ratio (y) = 0.07913 0.02721
# Poissons Ratio (z) = 0.16258 0.02652
#
# Static dielectric constant tensor:
#      x y z
#    x 2.101950 -0.034640 0.022840 
#    y -0.034640 2.008170 0.055720 
#    z 0.022840 0.055720 2.072150 
# 
# From -- ./inp_files/155478.got.cif
#   From: 2010.05.17/outbox.cif.g08.bks.cpg/sg2_78_cif.got.tgz:155478.got - 2010.06.03 11:33:40.
