data_PCOD9027932
_publ_section_title
;
Structure prediction by ZEFSAII (Michael W. Deem and Ramdas Pophale) SiO2 
 PCOD9027932
Probable space group: P -1
;
_chemical_formula_sum "Si O2"
_cell_formula_units_Z 16
_cell_length_a 11.971523
_cell_length_b 16.132084
_cell_length_c 9.083241
_cell_angle_alpha 57.580857
_cell_angle_beta 105.571420
_cell_angle_gamma 56.907305
_cell_volume 755.054197
_symmetry_space_group_name_H-M "P -1"
_symmetry_group_IT_number 2
_symmetry_cell_setting 'triclinic'
loop_
_space_group_symop_operation_xyz
x,y,z
-x,-y,-z
loop_
_atom_site_type_symbol
_atom_site_label
_atom_site_fract_x
_atom_site_fract_y
_atom_site_fract_z
Si Si1 0.878969 0.014839 0.828213
Si Si2 0.595777 0.391461 0.289684
Si Si3 0.282513 0.040880 0.991771
Si Si4 0.201668 0.366108 0.811141
Si Si5 0.071669 0.352184 0.075376
Si Si6 0.220337 0.614321 0.180449
Si Si7 0.627856 0.944859 0.287030
Si Si8 0.809859 0.417257 0.490506
O O1 0.722537 0.197069 0.503157
O O2 0.727461 0.056470 0.841441
O O3 0.000000 0.000000 0.000000
O O4 0.048819 0.824337 0.974640
O O5 0.405462 0.518685 0.224989
O O6 0.767470 0.348040 0.454175
O O7 0.500000 0.500000 0.000000
O O8 0.233135 0.101473 0.746027
O O9 0.064952 0.244762 0.792530
O O10 0.515789 0.923546 0.215025
O O11 0.243516 0.452220 0.753518
O O12 0.000000 0.500000 0.500000
O O13 0.157299 0.340474 0.968628
O O14 0.421481 0.162901 0.020889
O O15 0.248366 0.167881 0.412709
O O16 0.000000 0.500000 0.000000
O O17 0.897433 0.393552 0.931858
O O18 0.315314 0.503414 0.474154
#
# Coordination Sequence:
#
# PCOD9027932 Si02
#       8
#     2   2   2   2   2   2   2   2
#     4  11  24  46  79 100 141 191 243 299 353 435
#     4  12  29  45  74 109 143 189 244 305 368 418
#     4  10  22  41  70 102 137 180 241 282 359 432
#     4  12  23  42  71 105 143 188 236 291 361 432
#     4  12  28  45  71 106 152 187 235 303 360 430
#     4  11  26  48  74 105 145 191 247 294 360 436
#     4  11  25  40  70 105 142 185 233 295 361 426
#     4  11  23  46  70 101 144 185 241 297 345 437
#
# _framework density 21.190529999999999
#
# number of rings (size 3 to 8) (size 9 to 14) (size 15 to 20)
#    0.000    0.750    5.000    2.250    8.750    1.500 
#    0.000    0.000    0.000    0.000    0.000    0.000 
#    0.000    0.000    0.000    0.000    0.000    0.000 
#
# Total GULP energy -89249.595264 kJ/mol
# GULP energy per Si atom -5578.099704 kJ/mol
# Density = 2.114230 g / cm^3
# Si number density = 21.190530 Si / 1000 Ang^3
#
#
#
# Elastic Constant Matrix: (Units=GPa)
#
#
# Indices 1 2 3 4 5 6 
#
# 1 130.1947 28.7283 25.4451 -4.8697 -17.0945 1.6880
# 2 28.7283 74.8977 4.9567 -13.6430 5.3193 2.8246
# 3 25.4451 4.9567 87.4896 1.3079 -23.3502 4.5137
# 4 -4.8697 -13.6430 1.3079 37.0157 1.2036 -4.7484
# 5 -17.0945 5.3193 -23.3502 1.2036 32.4355 1.5051
# 6 1.6880 2.8246 4.5137 -4.7484 1.5051 46.2524
#
#
#
# Elastic Compliance Matrix: (Units=1/GPa)
#
#
# Indices 1 2 3 4 5 6 
#
# 1 0.009396 -0.003913 -0.001236 -0.000338 0.004724 -0.000172
# 2 -0.003913 0.016436 -0.001500 0.005803 -0.006057 0.000078
# 3 -0.001236 -0.001500 0.014765 -0.001809 0.010376 -0.001828
# 4 -0.000338 0.005803 -0.001809 0.029678 -0.003673 0.003001
# 5 0.004724 -0.006057 0.010376 -0.003673 0.042038 -0.002560
# 6 -0.000172 0.000078 -0.001828 0.003001 -0.002560 0.022192
#
#
# Mechanical properties :
#
#
# Convention : Reuss Voigt Hill
#
# Bulk Modulus (GPa) = 36.63294 45.64911 41.14103
# Shear Modulus (GPa) = 31.86696 38.70419 35.28558
#
# Velocity S-wave (km/s) = 3.88213 4.27838 4.08506
# Velocity P-wave (km/s) = 6.11715 6.78196 6.45812
#
# Compressibility (1/GPa) = 0.02729784
#
# Stress axis : x y z
#
# Youngs Moduli (GPa) = 106.43298 60.84258 67.72764
#
# Poissons Ratio (x) = 0.23805 0.08372
# Poissons Ratio (y) = 0.41643 0.10163
# Poissons Ratio (z) = 0.13157 0.09129
#
# Static dielectric constant tensor:
#      x y z
#    x 1.968840 -0.069800 -0.033960 
#    y -0.069800 1.760790 -0.000380 
#    z -0.033960 -0.000380 1.788330 
# 
# From -- ./inp_files/272189.got.cif
#   From: 2010.05.17/outbox.cif.g08.bks.cpg/sg2_137_cif.got.tgz:272189.got - 2010.06.03 11:33:40.
