data_PCOD9027526
_publ_section_title
;
Structure prediction by ZEFSAII (Michael W. Deem and Ramdas Pophale) SiO2 
 PCOD9027526
Probable space group: P -1
;
_chemical_formula_sum "Si O2"
_cell_formula_units_Z 16
_cell_length_a 11.919071
_cell_length_b 7.105109
_cell_length_c 9.426163
_cell_angle_alpha 122.407011
_cell_angle_beta 82.464791
_cell_angle_gamma 87.666106
_cell_volume 662.224838
_symmetry_space_group_name_H-M "P -1"
_symmetry_group_IT_number 2
_symmetry_cell_setting 'triclinic'
loop_
_space_group_symop_operation_xyz
x,y,z
-x,-y,-z
loop_
_atom_site_type_symbol
_atom_site_label
_atom_site_fract_x
_atom_site_fract_y
_atom_site_fract_z
Si Si1 0.594006 0.151694 0.988339
Si Si2 0.784295 0.347662 0.536979
Si Si3 0.218957 0.133872 0.513450
Si Si4 0.020654 0.154994 0.323551
Si Si5 0.398745 0.652336 0.658173
Si Si6 0.098216 0.295414 0.867892
Si Si7 0.537136 0.992982 0.654362
Si Si8 0.795008 0.774540 0.883549
O O1 0.569219 0.182563 0.836995
O O2 0.714632 0.998085 0.937735
O O3 0.592704 0.362626 0.179578
O O4 0.500000 0.000000 0.000000
O O5 0.719216 0.363490 0.405278
O O6 0.750842 0.560829 0.729289
O O7 0.917631 0.327966 0.471070
O O8 0.762129 0.117552 0.523852
O O9 0.123261 0.133144 0.409908
O O10 0.168276 0.303176 0.713248
O O11 0.340608 0.165727 0.440090
O O12 0.077514 0.213012 0.191217
O O13 0.966617 0.924043 0.225050
O O14 0.500000 0.500000 0.500000
O O15 0.432964 0.895533 0.708092
O O16 0.188921 0.259912 0.966244
O O17 0.000000 0.500000 0.000000
O O18 0.500000 0.000000 0.500000
#
# Coordination Sequence:
#
# PCOD9027526 Si02
#       8
#     2   2   2   2   2   2   2   2
#     4  10  22  41  68  91 128 170 217 267 327 378
#     4  11  22  40  67  93 133 171 214 265 333 385
#     4  11  22  43  65  93 133 172 208 268 332 387
#     4  11  23  41  67  93 128 172 217 269 325 382
#     4  11  24  44  66  94 129 173 219 267 326 386
#     4  11  24  42  63  96 134 170 213 262 327 391
#     4  11  22  43  68  94 128 170 217 271 327 386
#     4  12  23  41  66  97 129 169 220 271 316 390
#
# _framework density 24.160979999999999
#
# number of rings (size 3 to 8) (size 9 to 14) (size 15 to 20)
#    0.000    1.000    2.500    6.750    1.750    0.000 
#    2.250    0.625    0.000    0.000    0.000    0.000 
#    0.000    0.000    0.000    0.000    0.000    0.000 
#
# Total GULP energy -89459.353860 kJ/mol
# GULP energy per Si atom -5591.209616 kJ/mol
# Density = 2.410599 g / cm^3
# Si number density = 24.160980 Si / 1000 Ang^3
#
#
#
# Elastic Constant Matrix: (Units=GPa)
#
#
# Indices 1 2 3 4 5 6 
#
# 1 114.4624 4.2509 35.5564 -7.1072 17.9717 -12.0788
# 2 4.2509 42.3933 22.7119 -7.0933 11.5043 -6.5952
# 3 35.5564 22.7119 184.5362 -18.3736 26.6395 -29.4858
# 4 -7.1072 -7.0933 -18.3736 39.5907 -13.4962 1.1219
# 5 17.9717 11.5043 26.6395 -13.4962 48.2987 -15.9163
# 6 -12.0788 -6.5952 -29.4858 1.1219 -15.9163 33.3976
#
#
#
# Elastic Compliance Matrix: (Units=1/GPa)
#
#
# Indices 1 2 3 4 5 6 
#
# 1 0.009678 0.000687 -0.001356 0.000338 -0.002518 0.001227
# 2 0.000687 0.026509 -0.002346 0.002319 -0.004187 0.001339
# 3 -0.001356 -0.002346 0.007067 0.002282 -0.000570 0.004938
# 4 0.000338 0.002319 0.002282 0.029391 0.008074 0.005455
# 5 -0.002518 -0.004187 -0.000570 0.008074 0.028924 0.011272
# 6 0.001227 0.001339 0.004938 0.005455 0.011272 0.040199
#
#
# Mechanical properties :
#
#
# Convention : Reuss Voigt Hill
#
# Bulk Modulus (GPa) = 26.86397 51.82561 39.34479
# Shear Modulus (GPa) = 31.20978 42.84894 37.02936
#
# Velocity S-wave (km/s) = 3.59798 4.21584 3.91910
# Velocity P-wave (km/s) = 5.32949 6.72268 6.06621
#
# Compressibility (1/GPa) = 0.03722458
#
# Stress axis : x y z
#
# Youngs Moduli (GPa) = 103.32645 37.72313 141.49437
#
# Poissons Ratio (x) = -0.02591 0.19187
# Poissons Ratio (y) = -0.07097 0.33190
# Poissons Ratio (z) = 0.14012 0.08849
#
# Static dielectric constant tensor:
#      x y z
#    x 1.912620 0.056680 0.002700 
#    y 0.056680 2.035300 0.025670 
#    z 0.002700 0.025670 2.039190 
# 
# From -- ./inp_files/245946.got.cif
#   From: 2010.05.17/outbox.cif.g08.bks.cpg/sg2_123_cif.got.tgz:245946.got - 2010.06.03 11:33:40.
