data_PCOD9027096
_publ_section_title
;
Structure prediction by ZEFSAII (Michael W. Deem and Ramdas Pophale) SiO2 
 PCOD9027096
Probable space group: P -1
;
_chemical_formula_sum "Si O2"
_cell_formula_units_Z 16
_cell_length_a 8.709661
_cell_length_b 14.905651
_cell_length_c 13.557230
_cell_angle_alpha 150.922649
_cell_angle_beta 91.057020
_cell_angle_gamma 81.962246
_cell_volume 827.039039
_symmetry_space_group_name_H-M "P -1"
_symmetry_group_IT_number 2
_symmetry_cell_setting 'triclinic'
loop_
_space_group_symop_operation_xyz
x,y,z
-x,-y,-z
loop_
_atom_site_type_symbol
_atom_site_label
_atom_site_fract_x
_atom_site_fract_y
_atom_site_fract_z
Si Si1 0.446417 0.962214 0.352776
Si Si2 0.078830 0.941906 0.338546
Si Si3 0.361616 0.444037 0.006630
Si Si4 0.401689 0.313821 0.549159
Si Si5 0.859403 0.501417 0.123524
Si Si6 0.127467 0.691154 0.385077
Si Si7 0.459632 0.214375 0.242137
Si Si8 0.660627 0.438966 0.563352
O O1 0.259134 0.965041 0.355241
O O2 0.555985 0.752415 0.125998
O O3 0.500000 0.000000 0.500000
O O4 0.469274 0.126451 0.436780
O O5 0.087388 0.723469 0.107833
O O6 0.000000 0.000000 0.500000
O O7 0.959289 0.086371 0.404044
O O8 0.233961 0.411968 0.893637
O O9 0.500000 0.500000 0.000000
O O10 0.275226 0.619589 0.243291
O O11 0.261264 0.442940 0.733903
O O12 0.365271 0.240884 0.370562
O O13 0.522255 0.439467 0.641982
O O14 0.002496 0.589003 0.237635
O O15 0.181751 0.623970 0.431070
O O16 0.619134 0.285381 0.338730
O O17 0.366045 0.363441 0.304003
O O18 0.500000 0.000000 0.000000
#
# Coordination Sequence:
#
# PCOD9027096 Si02
#       8
#     2   2   2   2   2   2   2   2
#     4  12  24  37  63  95 128 172 226 260 317 386
#     4  12  26  40  59  88 138 182 217 261 318 384
#     4  12  23  39  61  91 131 182 224 266 310 373
#     4  10  22  41  66  97 129 167 219 270 328 389
#     4  12  24  41  61  93 138 179 211 269 330 378
#     4  12  25  41  62  95 137 171 219 265 329 391
#     4   9  21  43  73 100 124 160 220 280 333 385
#     4   9  23  43  68  98 128 161 220 271 331 389
#
# _framework density 19.346125000000001
#
# number of rings (size 3 to 8) (size 9 to 14) (size 15 to 20)
#    0.750    0.250    5.000    1.125    5.250    1.000 
#    0.000    0.625    0.000    1.500    0.000    0.000 
#    0.000    0.000    0.000    0.000    0.000    0.000 
#
# Total GULP energy -89287.818109 kJ/mol
# GULP energy per Si atom -5580.488632 kJ/mol
# Density = 1.930209 g / cm^3
# Si number density = 19.346125 Si / 1000 Ang^3
#
#
#
# Elastic Constant Matrix: (Units=GPa)
#
#
# Indices 1 2 3 4 5 6 
#
# 1 44.1038 32.7577 22.0561 6.9105 -9.8477 -17.6783
# 2 32.7577 148.6358 52.7336 24.6781 -12.4484 -15.1400
# 3 22.0561 52.7336 143.1952 23.5480 -19.5164 -5.7071
# 4 6.9105 24.6781 23.5480 31.6110 -1.5715 -1.0199
# 5 -9.8477 -12.4484 -19.5164 -1.5715 25.3879 -0.1532
# 6 -17.6783 -15.1400 -5.7071 -1.0199 -0.1532 33.4874
#
#
#
# Elastic Compliance Matrix: (Units=1/GPa)
#
#
# Indices 1 2 3 4 5 6 
#
# 1 0.036210 -0.004487 -0.001419 -0.002280 0.010715 0.016825
# 2 -0.004487 0.009406 -0.001729 -0.004966 0.001244 0.001443
# 3 -0.001419 -0.001729 0.009428 -0.005090 0.005534 -0.000054
# 4 -0.002280 -0.004966 -0.005090 0.039461 -0.004808 -0.003136
# 5 0.010715 0.001244 0.005534 -0.004808 0.048155 0.007236
# 6 0.016825 0.001443 -0.000054 -0.003136 0.007236 0.039325
#
#
# Mechanical properties :
#
#
# Convention : Reuss Voigt Hill
#
# Bulk Modulus (GPa) = 25.14268 61.22552 43.18410
# Shear Modulus (GPa) = 23.75164 33.32309 28.53736
#
# Velocity S-wave (km/s) = 3.50769 4.15477 3.84486
# Velocity P-wave (km/s) = 5.42491 7.39812 6.48698
#
# Compressibility (1/GPa) = 0.03977301
#
# Stress axis : x y z
#
# Youngs Moduli (GPa) = 27.61686 106.31703 106.06868
#
# Poissons Ratio (x) = 0.47705 0.15052
# Poissons Ratio (y) = 0.12392 0.18340
# Poissons Ratio (z) = 0.03919 0.18383
#
# Static dielectric constant tensor:
#      x y z
#    x 1.740630 -0.019050 -0.017280 
#    y -0.019050 1.690260 0.005100 
#    z -0.017280 0.005100 1.724610 
# 
# From -- ./inp_files/504666.got.cif
#   From: 2010.05.17/outbox.cif.g08.bks.cpg/sg2_253_cif.got.tgz:504666.got - 2010.06.03 11:33:40.
