data_PCOD9027425
_publ_section_title
;
Structure prediction by ZEFSAII (Michael W. Deem and Ramdas Pophale) SiO2 
 PCOD9027425
Probable space group: P -1
;
_chemical_formula_sum "Si O2"
_cell_formula_units_Z 14
_cell_length_a 10.132250
_cell_length_b 9.391443
_cell_length_c 10.684007
_cell_angle_alpha 52.983891
_cell_angle_beta 138.157495
_cell_angle_gamma 115.334243
_cell_volume 541.109288
_symmetry_space_group_name_H-M "P -1"
_symmetry_group_IT_number 2
_symmetry_cell_setting 'triclinic'
loop_
_space_group_symop_operation_xyz
x,y,z
-x,-y,-z
loop_
_atom_site_type_symbol
_atom_site_label
_atom_site_fract_x
_atom_site_fract_y
_atom_site_fract_z
Si Si1 0.691126 0.568339 0.024615
Si Si2 0.761605 0.891458 0.747865
Si Si3 0.190334 0.828451 0.140717
Si Si4 0.886306 0.184043 0.364833
Si Si5 0.390793 0.079383 0.643518
Si Si6 0.145355 0.331169 0.671373
Si Si7 0.680502 0.556202 0.508698
O O1 0.833905 0.394230 0.184327
O O2 0.780842 0.704480 0.118968
O O3 0.500000 0.500000 0.000000
O O4 0.664831 0.704835 0.819271
O O5 0.640881 0.953482 0.508547
O O6 0.785801 0.041663 0.792044
O O7 0.994357 0.848749 0.909405
O O8 0.392593 0.865871 0.190809
O O9 0.190760 0.626288 0.297930
O O10 0.999666 0.200918 0.569121
O O11 0.668209 0.104385 0.242391
O O12 0.000000 0.000000 0.500000
O O13 0.253850 0.258469 0.481291
O O14 0.317713 0.385306 0.666980
O O15 0.000000 0.500000 0.500000
O O16 0.500000 0.500000 0.500000
#
# Coordination Sequence:
#
# PCOD9027425 Si02
#       7
#     2   2   2   2   2   2   2
#     4  11  26  44  68 103 142 180 237 295 360 421
#     4  11  25  42  68 102 137 180 236 291 345 420
#     4  10  23  42  66  96 140 178 232 280 350 413
#     4  11  23  45  69  99 138 185 238 286 359 430
#     4  11  24  42  71 100 136 184 232 285 357 424
#     4  10  22  41  71  92 137 185 233 276 352 421
#     4  10  22  41  68 100 133 181 231 283 348 417
#
# _framework density 25.872776999999999
#
# number of rings (size 3 to 8) (size 9 to 14) (size 15 to 20)
#    0.000    1.429    1.429    3.000   12.000    0.571 
#    0.000    0.714    0.000    0.000    0.000    0.000 
#    0.000    0.000    0.000    0.000    0.000    0.000 
#
# Total GULP energy -77983.656600 kJ/mol
# GULP energy per Si atom -5570.261186 kJ/mol
# Density = 2.581389 g / cm^3
# Si number density = 25.872777 Si / 1000 Ang^3
#
#
#
# Elastic Constant Matrix: (Units=GPa)
#
#
# Indices 1 2 3 4 5 6 
#
# 1 76.2307 35.7893 16.5487 -16.2207 7.9435 -3.8843
# 2 35.7893 181.8427 10.9556 -29.8997 9.0211 9.1239
# 3 16.5487 10.9556 45.3360 -14.4670 18.7453 6.5931
# 4 -16.2207 -29.8997 -14.4670 43.5734 3.3812 1.9798
# 5 7.9435 9.0211 18.7453 3.3812 30.3634 -1.8572
# 6 -3.8843 9.1239 6.5931 1.9798 -1.8572 48.8043
#
#
#
# Elastic Compliance Matrix: (Units=1/GPa)
#
#
# Indices 1 2 3 4 5 6 
#
# 1 0.016026 -0.002491 -0.004237 0.002831 -0.001020 0.002160
# 2 -0.002491 0.006979 0.002807 0.005196 -0.003870 -0.002240
# 3 -0.004237 0.002807 0.040424 0.016227 -0.026979 -0.008008
# 4 0.002831 0.005196 0.016227 0.034458 -0.016443 -0.004962
# 5 -0.001020 -0.003870 -0.026979 -0.016443 0.053265 0.006981
# 6 0.002160 -0.002240 -0.008008 -0.004962 0.006981 0.022629
#
#
# Mechanical properties :
#
#
# Convention : Reuss Voigt Hill
#
# Bulk Modulus (GPa) = 17.99012 47.77739 32.88376
# Shear Modulus (GPa) = 24.98091 40.55593 32.76842
#
# Velocity S-wave (km/s) = 3.11067 3.96348 3.56268
# Velocity P-wave (km/s) = 4.45758 6.28108 5.44619
#
# Compressibility (1/GPa) = 0.05558607
#
# Stress axis : x y z
#
# Youngs Moduli (GPa) = 62.39803 143.28327 24.73797
#
# Poissons Ratio (x) = 0.35695 0.10482
# Poissons Ratio (y) = 0.15545 -0.06944
# Poissons Ratio (z) = 0.26439 -0.40218
#
# Static dielectric constant tensor:
#      x y z
#    x 2.530990 0.060280 0.114700 
#    y 0.060280 1.975530 0.011090 
#    z 0.114700 0.011090 2.024770 
# 
# From -- ./inp_files/419034.got.cif
#   From: 2010.05.17/outbox.cif.g08.bks.cpg/sg2_210_cif.got.tgz:419034.got - 2010.06.03 11:33:40.
