data_PCOD9027392
_publ_section_title
;
Structure prediction by ZEFSAII (Michael W. Deem and Ramdas Pophale) SiO2 
 PCOD9027392
Probable space group: P -1
;
_chemical_formula_sum "Si O2"
_cell_formula_units_Z 16
_cell_length_a 11.656730
_cell_length_b 11.234246
_cell_length_c 12.224294
_cell_angle_alpha 67.151140
_cell_angle_beta 118.971395
_cell_angle_gamma 58.701217
_cell_volume 618.560057
_symmetry_space_group_name_H-M "P -1"
_symmetry_group_IT_number 2
_symmetry_cell_setting 'triclinic'
loop_
_space_group_symop_operation_xyz
x,y,z
-x,-y,-z
loop_
_atom_site_type_symbol
_atom_site_label
_atom_site_fract_x
_atom_site_fract_y
_atom_site_fract_z
Si Si1 0.778546 0.591539 0.816911
Si Si2 0.096719 0.765496 0.862353
Si Si3 0.764453 0.127097 0.779415
Si Si4 0.705850 0.757208 0.329617
Si Si5 0.235543 0.579632 0.499076
Si Si6 0.130925 0.217764 0.924392
Si Si7 0.743800 0.928541 0.465680
Si Si8 0.851638 0.053538 0.315832
O O1 0.490147 0.892423 0.617006
O O2 0.777206 0.447918 0.920575
O O3 0.000000 0.500000 0.000000
O O4 0.867394 0.503574 0.763744
O O5 0.267038 0.737560 0.898969
O O6 0.853651 0.043806 0.723022
O O7 0.985865 0.777554 0.705071
O O8 0.477549 0.424754 0.590564
O O9 0.771410 0.969083 0.871997
O O10 0.000000 0.000000 0.000000
O O11 0.643641 0.659723 0.318895
O O12 0.000000 0.500000 0.500000
O O13 0.388938 0.081341 0.053789
O O14 0.785786 0.763870 0.474444
O O15 0.098132 0.772036 0.465236
O O16 0.986554 0.756942 0.241314
O O17 0.676021 0.095728 0.280917
O O18 0.000000 0.000000 0.500000
#
# Coordination Sequence:
#
# PCOD9027392 Si02
#       8
#     2   2   2   2   2   2   2   2
#     4  11  23  41  65  97 136 171 219 280 322 398
#     4  10  24  42  66  99 131 177 222 273 341 395
#     4  10  22  41  67  98 133 173 224 275 334 398
#     4  11  23  42  66  97 138 178 223 278 327 400
#     4  11  23  42  69  96 135 177 219 283 334 398
#     4  10  23  41  64 103 129 171 229 269 339 395
#     4  11  23  43  67  98 138 177 224 271 335 400
#     4  10  23  44  65  94 131 176 227 271 337 399
#
# _framework density 25.866523999999998
#
# number of rings (size 3 to 8) (size 9 to 14) (size 15 to 20)
#    0.000    1.500    2.500    1.500    1.750    7.500 
#    2.250    1.250    0.000    0.000    0.000    0.000 
#    0.000    0.000    0.000    0.000    0.000    0.000 
#
# Total GULP energy -89217.284738 kJ/mol
# GULP energy per Si atom -5576.080296 kJ/mol
# Density = 2.580765 g / cm^3
# Si number density = 25.866524 Si / 1000 Ang^3
#
#
#
# Elastic Constant Matrix: (Units=GPa)
#
#
# Indices 1 2 3 4 5 6 
#
# 1 92.3783 29.0869 29.8402 -18.0687 9.9392 -14.0182
# 2 29.0869 239.3679 44.1225 -2.9522 21.7681 -14.9165
# 3 29.8402 44.1225 65.3416 -0.4852 21.9256 -21.4675
# 4 -18.0687 -2.9522 -0.4852 36.4489 -5.2240 16.9314
# 5 9.9392 21.7681 21.9256 -5.2240 32.5529 -11.9014
# 6 -14.0182 -14.9165 -21.4675 16.9314 -11.9014 39.1896
#
#
#
# Elastic Compliance Matrix: (Units=1/GPa)
#
#
# Indices 1 2 3 4 5 6 
#
# 1 0.014525 -0.000568 -0.007405 0.008295 0.001452 -0.002220
# 2 -0.000568 0.004841 -0.002611 -0.000031 -0.001382 -0.000197
# 3 -0.007405 -0.002611 0.028938 -0.011506 -0.012430 0.013406
# 4 0.008295 -0.000031 -0.011506 0.041232 0.004632 -0.019755
# 5 0.001452 -0.001382 -0.012430 0.004632 0.041725 0.003855
# 6 -0.002220 -0.000197 0.013406 -0.019755 0.003855 0.041697
#
#
# Mechanical properties :
#
#
# Convention : Reuss Voigt Hill
#
# Bulk Modulus (GPa) = 36.84888 67.02079 51.93483
# Shear Modulus (GPa) = 24.60983 41.24083 32.92533
#
# Velocity S-wave (km/s) = 3.08785 3.99729 3.57163
# Velocity P-wave (km/s) = 5.19517 6.87538 6.09347
#
# Compressibility (1/GPa) = 0.02713787
#
# Stress axis : x y z
#
# Youngs Moduli (GPa) = 68.84571 206.57036 34.55637
#
# Poissons Ratio (x) = 0.11738 0.25587
# Poissons Ratio (y) = 0.03912 0.09021
# Poissons Ratio (z) = 0.50977 0.53926
#
# Static dielectric constant tensor:
#      x y z
#    x 2.233720 -0.104200 -0.049530 
#    y -0.104200 2.188210 -0.198070 
#    z -0.049530 -0.198070 2.097800 
# 
# From -- ./inp_files/428213.got.cif
#   From: 2010.05.17/outbox.cif.g08.bks.cpg/sg2_215_cif.got.tgz:428213.got - 2010.06.03 11:33:40.
