data_PCOD9027806
_publ_section_title
;
Structure prediction by ZEFSAII (Michael W. Deem and Ramdas Pophale) SiO2 
 PCOD9027806
Probable space group: P -1
;
_chemical_formula_sum "Si O2"
_cell_formula_units_Z 14
_cell_length_a 8.917447
_cell_length_b 13.391963
_cell_length_c 14.239721
_cell_angle_alpha 140.263740
_cell_angle_beta 40.675634
_cell_angle_gamma 147.503489
_cell_volume 553.364911
_symmetry_space_group_name_H-M "P -1"
_symmetry_group_IT_number 2
_symmetry_cell_setting 'triclinic'
loop_
_space_group_symop_operation_xyz
x,y,z
-x,-y,-z
loop_
_atom_site_type_symbol
_atom_site_label
_atom_site_fract_x
_atom_site_fract_y
_atom_site_fract_z
Si Si1 0.298325 0.793189 0.503993
Si Si2 0.960450 0.275838 0.049497
Si Si3 0.635879 0.896661 0.801552
Si Si4 0.983692 0.815634 0.838840
Si Si5 0.845923 0.662131 0.481432
Si Si6 0.080270 0.856895 0.328190
Si Si7 0.582315 0.570713 0.215563
O O1 0.226372 0.845720 0.675526
O O2 0.457593 0.694203 0.363429
O O3 0.993154 0.631261 0.474341
O O4 0.500000 0.000000 0.500000
O O5 0.246275 0.402631 0.941562
O O6 0.775122 0.050242 0.932316
O O7 0.705462 0.295390 0.167650
O O8 0.032970 0.290190 0.133703
O O9 0.845269 0.839522 0.646878
O O10 0.662934 0.011296 0.775095
O O11 0.680063 0.661075 0.815783
O O12 0.000000 0.000000 0.000000
O O13 0.500000 0.500000 0.500000
O O14 0.073689 0.756028 0.353812
O O15 0.818926 0.671405 0.257844
O O16 0.000000 0.000000 0.500000
#
# Coordination Sequence:
#
# PCOD9027806 Si02
#       7
#     2   2   2   2   2   2   2
#     4  12  26  43  70 104 140 178 232 291 345 417
#     4  10  22  41  69  94 134 178 223 282 341 413
#     4   9  20  40  64  95 130 177 225 269 341 411
#     4  12  26  43  67  97 142 182 231 283 348 403
#     4  11  23  38  64  98 137 171 225 283 337 405
#     4   9  19  38  68  95 133 176 226 274 340 411
#     4  11  24  45  70 105 136 181 233 287 345 415
#
# _framework density 25.299762999999999
#
# number of rings (size 3 to 8) (size 9 to 14) (size 15 to 20)
#    0.000    1.429    0.000    6.000    8.000    0.000 
#    0.000    0.000    0.000    6.000    0.000    0.000 
#    0.000    0.000    0.000    0.000    0.000    0.000 
#
# Total GULP energy -78312.183668 kJ/mol
# GULP energy per Si atom -5593.727405 kJ/mol
# Density = 2.524218 g / cm^3
# Si number density = 25.299763 Si / 1000 Ang^3
#
#
#
# Elastic Constant Matrix: (Units=GPa)
#
#
# Indices 1 2 3 4 5 6 
#
# 1 69.7985 0.4699 27.1339 -13.6725 22.9565 3.1413
# 2 0.4699 104.1858 43.3485 -7.9142 5.3385 4.6072
# 3 27.1339 43.3485 151.6176 -26.2054 19.2545 -21.0416
# 4 -13.6725 -7.9142 -26.2054 48.0736 -4.5424 3.4457
# 5 22.9565 5.3385 19.2545 -4.5424 46.2361 -4.7077
# 6 3.1413 4.6072 -21.0416 3.4457 -4.7077 36.3785
#
#
#
# Elastic Compliance Matrix: (Units=1/GPa)
#
#
# Indices 1 2 3 4 5 6 
#
# 1 0.019333 0.002136 -0.003032 0.003742 -0.008742 -0.005180
# 2 0.002136 0.011547 -0.004037 0.000504 -0.001088 -0.004170
# 3 -0.003032 -0.004037 0.009847 0.003298 -0.001194 0.006002
# 4 0.003742 0.000504 0.003298 0.023709 -0.001048 -0.000861
# 5 -0.008742 -0.001088 -0.001194 -0.001048 0.026873 0.003779
# 6 -0.005180 -0.004170 0.006002 -0.000861 0.003779 0.032506
#
#
# Mechanical properties :
#
#
# Convention : Reuss Voigt Hill
#
# Bulk Modulus (GPa) = 32.40512 51.94518 42.17515
# Shear Modulus (GPa) = 34.72975 43.11428 38.92201
#
# Velocity S-wave (km/s) = 3.70906 4.13260 3.92654
# Velocity P-wave (km/s) = 5.58382 6.58389 6.10437
#
# Compressibility (1/GPa) = 0.03085932
#
# Stress axis : x y z
#
# Youngs Moduli (GPa) = 51.72536 86.60465 101.55428
#
# Poissons Ratio (x) = -0.18496 0.30794
# Poissons Ratio (y) = -0.11047 0.40998
# Poissons Ratio (z) = 0.15684 0.34963
#
# Static dielectric constant tensor:
#      x y z
#    x 2.033460 0.013820 -0.013800 
#    y 0.013820 2.038100 -0.022180 
#    z -0.013800 -0.022180 2.035940 
# 
# From -- ./inp_files/505544.got.cif
#   From: 2010.05.17/outbox.cif.g08.bks.cpg/sg2_253_cif.got.tgz:505544.got - 2010.06.03 11:33:40.
