data_PCOD9027131
_publ_section_title
;
Structure prediction by ZEFSAII (Michael W. Deem and Ramdas Pophale) SiO2 
 PCOD9027131
Probable space group: P -1
;
_chemical_formula_sum "Si O2"
_cell_formula_units_Z 16
_cell_length_a 10.565013
_cell_length_b 18.499291
_cell_length_c 8.715971
_cell_angle_alpha 126.739797
_cell_angle_beta 147.701348
_cell_angle_gamma 47.728239
_cell_volume 671.646938
_symmetry_space_group_name_H-M "P -1"
_symmetry_group_IT_number 2
_symmetry_cell_setting 'triclinic'
loop_
_space_group_symop_operation_xyz
x,y,z
-x,-y,-z
loop_
_atom_site_type_symbol
_atom_site_label
_atom_site_fract_x
_atom_site_fract_y
_atom_site_fract_z
Si Si1 0.651076 0.750155 0.939478
Si Si2 0.281876 0.971936 0.832400
Si Si3 0.206696 0.040113 0.191755
Si Si4 0.966293 0.301366 0.977396
Si Si5 0.178271 0.751494 0.939195
Si Si6 0.449713 0.424121 0.557076
Si Si7 0.990400 0.387264 0.613750
Si Si8 0.301124 0.367113 0.638170
O O1 0.807258 0.694576 0.177077
O O2 0.858980 0.765667 0.059132
O O3 0.416358 0.853600 0.847426
O O4 0.583194 0.666967 0.676707
O O5 0.000000 0.000000 0.500000
O O6 0.500000 0.000000 0.000000
O O7 0.229145 0.022001 0.009332
O O8 0.061469 0.153430 0.230698
O O9 0.500000 0.000000 0.500000
O O10 0.000000 0.000000 0.000000
O O11 0.749307 0.398302 0.807613
O O12 0.834225 0.249801 0.889305
O O13 0.130463 0.332356 0.307201
O O14 0.152262 0.663786 0.705177
O O15 0.474903 0.731608 0.192305
O O16 0.414007 0.422431 0.704424
O O17 0.226831 0.524887 0.408286
O O18 0.145826 0.425264 0.698316
#
# Coordination Sequence:
#
# PCOD9027131 Si02
#       8
#     2   2   2   2   2   2   2   2
#     4  11  25  41  67  97 140 177 230 297 353 423
#     4  12  29  50  80 110 147 200 257 306 376 452
#     4  12  28  48  76 110 149 189 249 320 382 434
#     4   9  21  40  65  89 135 174 235 273 346 423
#     4  10  23  40  68  92 132 182 229 286 353 428
#     4  10  22  41  66  98 133 186 226 277 349 434
#     4  11  23  40  65 100 140 174 227 285 357 420
#     4   9  21  38  65  92 133 176 229 276 343 420
#
# _framework density 23.822039
#
# number of rings (size 3 to 8) (size 9 to 14) (size 15 to 20)
#    0.000    1.500    0.000    3.000   12.250    8.000 
#    0.000    0.000    0.000    0.000    0.000    0.000 
#    0.000    0.000    0.000    0.000    0.000    0.000 
#
# Total GULP energy -89280.971024 kJ/mol
# GULP energy per Si atom -5580.060689 kJ/mol
# Density = 2.376782 g / cm^3
# Si number density = 23.822039 Si / 1000 Ang^3
#
#
#
# Elastic Constant Matrix: (Units=GPa)
#
#
# Indices 1 2 3 4 5 6 
#
# 1 49.7758 3.5540 38.4595 -3.0358 11.8404 -5.4265
# 2 3.5540 150.9843 43.8776 -30.3880 13.0478 -24.8654
# 3 38.4595 43.8776 147.8203 -33.8842 5.0818 -8.9737
# 4 -3.0358 -30.3880 -33.8842 48.2813 -9.8868 3.6633
# 5 11.8404 13.0478 5.0818 -9.8868 29.3843 -10.3364
# 6 -5.4265 -24.8654 -8.9737 3.6633 -10.3364 28.2006
#
#
#
# Elastic Compliance Matrix: (Units=1/GPa)
#
#
# Indices 1 2 3 4 5 6 
#
# 1 0.029974 0.001991 -0.009313 -0.006148 -0.013242 0.000505
# 2 0.001991 0.009128 -0.001890 0.003855 -0.000750 0.007055
# 3 -0.009313 -0.001890 0.011277 0.007170 0.005478 0.001207
# 4 -0.006148 0.003855 0.007170 0.029716 0.011191 0.004740
# 5 -0.013242 -0.000750 0.005478 0.011191 0.047633 0.014539
# 6 0.000505 0.007055 0.001207 0.004740 0.014539 0.046875
#
#
# Mechanical properties :
#
#
# Convention : Reuss Voigt Hill
#
# Bulk Modulus (GPa) = 31.29316 57.81804 44.55560
# Shear Modulus (GPa) = 24.54852 38.68585 31.61719
#
# Velocity S-wave (km/s) = 3.21362 4.03420 3.64706
# Velocity P-wave (km/s) = 5.18985 6.78404 6.03977
#
# Compressibility (1/GPa) = 0.03195587
#
# Stress axis : x y z
#
# Youngs Moduli (GPa) = 33.36265 109.55198 88.67347
#
# Poissons Ratio (x) = -0.21812 0.82580
# Poissons Ratio (y) = -0.06642 0.16757
# Poissons Ratio (z) = 0.31070 0.20702
#
# Static dielectric constant tensor:
#      x y z
#    x 1.928040 -0.045910 -0.065010 
#    y -0.045910 1.872400 -0.211330 
#    z -0.065010 -0.211330 1.747630 
# 
# From -- ./inp_files/107193.got.cif
#   From: 2010.05.17/outbox.cif.g08.bks.cpg/sg2_54_cif.got.tgz:107193.got - 2010.06.03 11:33:40.
