data_PCOD9027399
_publ_section_title
;
Structure prediction by ZEFSAII (Michael W. Deem and Ramdas Pophale) SiO2 
 PCOD9027399
Probable space group: P -1
;
_chemical_formula_sum "Si O2"
_cell_formula_units_Z 16
_cell_length_a 12.159290
_cell_length_b 9.211542
_cell_length_c 7.900489
_cell_angle_alpha 112.595468
_cell_angle_beta 101.340372
_cell_angle_gamma 110.964299
_cell_volume 703.277830
_symmetry_space_group_name_H-M "P -1"
_symmetry_group_IT_number 2
_symmetry_cell_setting 'triclinic'
loop_
_space_group_symop_operation_xyz
x,y,z
-x,-y,-z
loop_
_atom_site_type_symbol
_atom_site_label
_atom_site_fract_x
_atom_site_fract_y
_atom_site_fract_z
Si Si1 0.172068 0.204016 0.809172
Si Si2 0.091559 0.881473 0.422671
Si Si3 0.338587 0.518412 0.566779
Si Si4 0.712811 0.099681 0.724972
Si Si5 0.640649 0.377419 0.002434
Si Si6 0.036177 0.350146 0.396134
Si Si7 0.122640 0.973054 0.000145
Si Si8 0.476032 0.287304 0.594363
O O1 0.023715 0.157976 0.756245
O O2 0.173849 0.088505 0.595861
O O3 0.201985 0.116373 0.941369
O O4 0.257540 0.414523 0.907381
O O5 0.185376 0.809250 0.354864
O O6 0.014229 0.786772 0.524590
O O7 0.186211 0.424232 0.452541
O O8 0.388079 0.375108 0.552892
O O9 0.407174 0.626556 0.466363
O O10 0.376191 0.635550 0.804979
O O11 0.687137 0.239276 0.884744
O O12 0.590255 0.925719 0.542063
O O13 0.783537 0.012245 0.817095
O O14 0.522073 0.337536 0.824860
O O15 0.000000 0.500000 0.500000
O O16 0.945016 0.234583 0.166710
O O17 0.000000 0.000000 0.000000
#
# Coordination Sequence:
#
# PCOD9027399 Si02
#       8
#     2   2   2   2   2   2   2   2
#     4  10  22  41  67  98 135 186 232 282 351 420
#     4  10  22  42  70  99 144 181 225 293 354 429
#     4  11  25  48  74 103 140 187 247 287 342 436
#     4  12  26  45  67 108 143 179 236 297 357 416
#     4  12  26  47  73 103 140 186 243 295 350 414
#     4  11  24  43  69 107 143 180 222 295 371 412
#     4  11  23  38  66  98 139 181 223 285 347 428
#     4  11  28  47  73 100 141 196 241 294 338 417
#
# _framework density 22.750609000000001
#
# number of rings (size 3 to 8) (size 9 to 14) (size 15 to 20)
#    0.000    1.000    2.500    3.000    8.750    1.000 
#    2.250    0.000    0.000    0.000    0.000    0.000 
#    0.000    0.000    0.000    0.000    0.000    0.000 
#
# Total GULP energy -89432.761182 kJ/mol
# GULP energy per Si atom -5589.547574 kJ/mol
# Density = 2.269883 g / cm^3
# Si number density = 22.750609 Si / 1000 Ang^3
#
#
#
# Elastic Constant Matrix: (Units=GPa)
#
#
# Indices 1 2 3 4 5 6 
#
# 1 86.2778 18.5137 1.8414 14.2572 -9.0454 1.4719
# 2 18.5137 28.6648 19.1028 15.9094 7.9101 5.0526
# 3 1.8414 19.1028 97.4108 17.6000 0.9557 4.8055
# 4 14.2572 15.9094 17.6000 39.0692 -12.2073 -10.9459
# 5 -9.0454 7.9101 0.9557 -12.2073 38.5108 0.7426
# 6 1.4719 5.0526 4.8055 -10.9459 0.7426 36.7767
#
#
#
# Elastic Compliance Matrix: (Units=1/GPa)
#
#
# Indices 1 2 3 4 5 6 
#
# 1 0.015020 -0.014538 0.002014 0.002224 0.007137 0.001651
# 2 -0.014538 0.087383 -0.007399 -0.044226 -0.034757 -0.022918
# 3 0.002014 -0.007399 0.012418 -0.003638 0.000566 -0.001781
# 4 0.002224 -0.044226 -0.003638 0.059897 0.028226 0.023720
# 5 0.007137 -0.034757 0.000566 0.028226 0.043485 0.011938
# 6 0.001651 -0.022918 -0.001781 0.023720 0.011938 0.037325
#
#
# Mechanical properties :
#
#
# Convention : Reuss Voigt Hill
#
# Bulk Modulus (GPa) = 13.33786 32.36323 22.85054
# Shear Modulus (GPa) = 15.60712 34.39772 25.00242
#
# Velocity S-wave (km/s) = 2.62202 3.89259 3.31868
# Velocity P-wave (km/s) = 3.87840 5.87019 4.97500
#
# Compressibility (1/GPa) = 0.07497456
#
# Stress axis : x y z
#
# Youngs Moduli (GPa) = 66.57991 11.44381 80.52532
#
# Poissons Ratio (x) = 0.16637 -0.16215
# Poissons Ratio (y) = 0.96792 0.59583
# Poissons Ratio (z) = -0.13407 0.08468
#
# Static dielectric constant tensor:
#      x y z
#    x 1.883470 0.021240 -0.030720 
#    y 0.021240 1.912810 -0.019420 
#    z -0.030720 -0.019420 1.902400 
# 
# From -- ./inp_files/245142.got.cif
#   From: 2010.05.17/outbox.cif.g08.bks.cpg/sg2_123_cif.got.tgz:245142.got - 2010.06.03 11:33:40.
