data_PCOD9027351
_publ_section_title
;
Structure prediction by ZEFSAII (Michael W. Deem and Ramdas Pophale) SiO2 
 PCOD9027351
Probable space group: P -1
;
_chemical_formula_sum "Si O2"
_cell_formula_units_Z 14
_cell_length_a 17.497532
_cell_length_b 11.831751
_cell_length_c 8.980774
_cell_angle_alpha 38.650254
_cell_angle_beta 135.615580
_cell_angle_gamma 147.944219
_cell_volume 608.457365
_symmetry_space_group_name_H-M "P -1"
_symmetry_group_IT_number 2
_symmetry_cell_setting 'triclinic'
loop_
_space_group_symop_operation_xyz
x,y,z
-x,-y,-z
loop_
_atom_site_type_symbol
_atom_site_label
_atom_site_fract_x
_atom_site_fract_y
_atom_site_fract_z
Si Si1 0.789338 0.561122 0.846302
Si Si2 0.156127 0.122793 0.148579
Si Si3 0.461391 0.528359 0.080081
Si Si4 0.419506 0.953982 0.279712
Si Si5 0.900769 0.532142 0.735987
Si Si6 0.836166 0.212235 0.358801
Si Si7 0.476456 0.211038 0.652189
O O1 0.833106 0.786941 0.762333
O O2 0.850775 0.619024 0.703755
O O3 0.614502 0.363098 0.795257
O O4 0.842178 0.436334 0.134519
O O5 0.287524 0.371181 0.995338
O O6 0.182249 0.934497 0.370616
O O7 0.000000 0.000000 0.000000
O O8 0.481043 0.400089 0.367903
O O9 0.500000 0.500000 0.000000
O O10 0.554733 0.806794 0.956410
O O11 0.248718 0.714227 0.283242
O O12 0.495866 0.918235 0.295162
O O13 0.500000 0.000000 0.500000
O O14 0.015060 0.702662 0.591111
O O15 0.000000 0.500000 0.000000
O O16 0.682423 0.998062 0.282632
#
# Coordination Sequence:
#
# PCOD9027351 Si02
#       7
#     2   2   2   2   2   2   2
#     4  10  22  43  65  92 128 169 211 259 317 381
#     4  11  27  42  62  94 129 171 208 262 322 372
#     4  11  24  42  64  95 129 165 215 259 311 382
#     4  11  22  40  67  90 127 171 212 256 315 378
#     4   9  22  41  65  97 123 166 211 263 319 374
#     4  10  22  42  65  96 130 159 213 263 317 377
#     4  10  22  41  67  97 124 167 211 262 321 371
#
# _framework density 23.009007
#
# number of rings (size 3 to 8) (size 9 to 14) (size 15 to 20)
#    0.000    1.714    1.429    1.286    2.000   11.429 
#    0.000    0.000    0.000    0.000    0.000    0.000 
#    0.000    0.000    0.000    0.000    0.000    0.000 
#
# Total GULP energy -78219.876706 kJ/mol
# GULP energy per Si atom -5587.134050 kJ/mol
# Density = 2.295664 g / cm^3
# Si number density = 23.009007 Si / 1000 Ang^3
#
#
#
# Elastic Constant Matrix: (Units=GPa)
#
#
# Indices 1 2 3 4 5 6 
#
# 1 106.5155 76.8230 12.5341 -14.1720 4.6435 12.8811
# 2 76.8230 160.7044 30.6534 1.4627 0.8988 20.7111
# 3 12.5341 30.6534 81.6830 -16.6891 18.9275 -7.0709
# 4 -14.1720 1.4627 -16.6891 40.3328 1.0814 3.1162
# 5 4.6435 0.8988 18.9275 1.0814 29.1843 -5.9357
# 6 12.8811 20.7111 -7.0709 3.1162 -5.9357 46.3912
#
#
#
# Elastic Compliance Matrix: (Units=1/GPa)
#
#
# Indices 1 2 3 4 5 6 
#
# 1 0.016422 -0.008304 0.003189 0.007643 -0.005018 -0.001522
# 2 -0.008304 0.011609 -0.005389 -0.005461 0.004090 -0.002808
# 3 0.003189 -0.005389 0.018717 0.009225 -0.012381 0.002169
# 4 0.007643 -0.005461 0.009225 0.031839 -0.008517 -0.001506
# 5 -0.005018 0.004090 -0.012381 -0.008517 0.044074 0.003892
# 6 -0.001522 -0.002808 0.002169 -0.001506 0.003892 0.024162
#
#
# Mechanical properties :
#
#
# Convention : Reuss Voigt Hill
#
# Bulk Modulus (GPa) = 38.85012 65.43598 52.14305
# Shear Modulus (GPa) = 28.34292 38.44115 33.39203
#
# Velocity S-wave (km/s) = 3.51353 4.09185 3.81367
# Velocity P-wave (km/s) = 5.77766 7.12919 6.48871
#
# Compressibility (1/GPa) = 0.02573994
#
# Stress axis : x y z
#
# Youngs Moduli (GPa) = 60.89421 86.14085 53.42757
#
# Poissons Ratio (x) = 0.71531 -0.17038
# Poissons Ratio (y) = 0.50566 0.28792
# Poissons Ratio (z) = -0.19419 0.46421
#
# Static dielectric constant tensor:
#      x y z
#    x 1.919900 0.039310 -0.071860 
#    y 0.039310 1.828150 0.047490 
#    z -0.071860 0.047490 2.138410 
# 
# From -- ./inp_files/332757.got.cif
#   From: 2010.05.17/outbox.cif.g08.bks.cpg/sg2_167_cif.got.tgz:332757.got - 2010.06.03 11:33:40.
