data_PCOD9027229
_publ_section_title
;
Structure prediction by ZEFSAII (Michael W. Deem and Ramdas Pophale) SiO2 
 PCOD9027229
Probable space group: P -1
;
_chemical_formula_sum "Si O2"
_cell_formula_units_Z 16
_cell_length_a 19.348713
_cell_length_b 15.870185
_cell_length_c 7.731977
_cell_angle_alpha 137.069208
_cell_angle_beta 147.230661
_cell_angle_gamma 29.818207
_cell_volume 638.973392
_symmetry_space_group_name_H-M "P -1"
_symmetry_group_IT_number 2
_symmetry_cell_setting 'triclinic'
loop_
_space_group_symop_operation_xyz
x,y,z
-x,-y,-z
loop_
_atom_site_type_symbol
_atom_site_label
_atom_site_fract_x
_atom_site_fract_y
_atom_site_fract_z
Si Si1 0.225492 0.408631 0.144780
Si Si2 0.123480 0.215188 0.669645
Si Si3 0.889540 0.154710 0.138154
Si Si4 0.617344 0.151825 0.454576
Si Si5 0.260504 0.110643 0.207407
Si Si6 0.619907 0.724636 0.365661
Si Si7 0.407152 0.673290 0.660550
Si Si8 0.920736 0.221683 0.683698
O O1 0.417888 0.264315 0.252581
O O2 0.257174 0.380840 0.373513
O O3 0.152172 0.590879 0.219658
O O4 0.110826 0.363264 0.800082
O O5 0.943547 0.256982 0.345240
O O6 0.265289 0.048202 0.600226
O O7 0.198284 0.159628 0.944671
O O8 0.937425 0.132508 0.407563
O O9 0.700984 0.214102 0.824508
O O10 0.000000 0.000000 0.000000
O O11 0.627849 0.192105 0.341082
O O12 0.285012 0.238250 0.503235
O O13 0.443278 0.919467 0.332505
O O14 0.113446 0.125406 0.012154
O O15 0.546452 0.641070 0.032397
O O16 0.500000 0.500000 0.500000
O O17 0.225097 0.747811 0.464385
#
# Coordination Sequence:
#
# PCOD9027229 Si02
#       8
#     2   2   2   2   2   2   2   2
#     4  11  23  39  67  96 126 168 220 267 324 377
#     4   9  19  40  64  92 124 166 214 272 318 383
#     4   9  21  40  64  94 127 162 214 269 323 384
#     4  11  21  41  62  91 131 170 218 267 317 382
#     4   9  20  43  66  92 124 164 222 263 326 383
#     4  10  22  41  67  92 123 170 214 270 320 389
#     4  12  25  42  63  90 137 175 214 266 326 382
#     4  11  24  43  65  97 131 173 215 266 325 389
#
# _framework density 25.040164999999998
#
# number of rings (size 3 to 8) (size 9 to 14) (size 15 to 20)
#    0.000    1.750    2.500    1.125    1.750    6.000 
#    6.750    0.625    0.000    0.000    0.000    0.000 
#    0.000    0.000    0.000    0.000    0.000    0.000 
#
# Total GULP energy -89460.740674 kJ/mol
# GULP energy per Si atom -5591.296292 kJ/mol
# Density = 2.498317 g / cm^3
# Si number density = 25.040165 Si / 1000 Ang^3
#
#
#
# Elastic Constant Matrix: (Units=GPa)
#
#
# Indices 1 2 3 4 5 6 
#
# 1 82.3119 29.7485 32.1277 15.6355 34.2248 -20.2722
# 2 29.7485 94.1115 23.1829 18.9811 13.6305 -12.2249
# 3 32.1277 23.1829 98.9447 11.3332 53.9616 -10.3408
# 4 15.6355 18.9811 11.3332 33.2049 7.2028 6.1727
# 5 34.2248 13.6305 53.9616 7.2028 40.3718 -5.7753
# 6 -20.2722 -12.2249 -10.3408 6.1727 -5.7753 35.0640
#
#
#
# Elastic Compliance Matrix: (Units=1/GPa)
#
#
# Indices 1 2 3 4 5 6 
#
# 1 0.032327 -0.003199 0.019578 -0.013057 -0.047616 0.017804
# 2 -0.003199 0.013718 -0.003350 -0.006851 0.004333 0.003865
# 3 0.019578 -0.003350 0.049812 -0.009856 -0.078330 0.013674
# 4 -0.013057 -0.006851 -0.009856 0.043319 0.016282 -0.017788
# 5 -0.047616 0.004333 -0.078330 0.016282 0.161842 -0.025329
# 6 0.017804 0.003865 0.013674 -0.017788 -0.025329 0.043153
#
#
# Mechanical properties :
#
#
# Convention : Reuss Voigt Hill
#
# Bulk Modulus (GPa) = 8.20243 49.49848 28.85046
# Shear Modulus (GPa) = 13.93724 34.41541 24.17632
#
# Velocity S-wave (km/s) = 2.36179 3.71132 3.11062
# Velocity P-wave (km/s) = 3.27417 6.17865 4.94449
#
# Compressibility (1/GPa) = 0.12191504
#
# Stress axis : x y z
#
# Youngs Moduli (GPa) = 30.93377 72.89576 20.07563
#
# Poissons Ratio (x) = 0.23317 -0.39303
# Poissons Ratio (y) = 0.09895 0.06725
# Poissons Ratio (z) = -0.60561 0.24419
#
# Static dielectric constant tensor:
#      x y z
#    x 2.019310 0.010430 -0.030000 
#    y 0.010430 2.019470 -0.033150 
#    z -0.030000 -0.033150 2.149950 
# 
# From -- ./inp_files/348743.got.cif
#   From: 2010.05.17/outbox.cif.g08.bks.cpg/sg2_175_cif.got.tgz:348743.got - 2010.06.03 11:33:40.
