data_PCOD9027151
_publ_section_title
;
Structure prediction by ZEFSAII (Michael W. Deem and Ramdas Pophale) SiO2 
 PCOD9027151
Probable space group: P -1
;
_chemical_formula_sum "Si O2"
_cell_formula_units_Z 16
_cell_length_a 6.382947
_cell_length_b 21.367961
_cell_length_c 14.997984
_cell_angle_alpha 157.099726
_cell_angle_beta 60.165896
_cell_angle_gamma 122.516543
_cell_volume 671.194768
_symmetry_space_group_name_H-M "P -1"
_symmetry_group_IT_number 2
_symmetry_cell_setting 'triclinic'
loop_
_space_group_symop_operation_xyz
x,y,z
-x,-y,-z
loop_
_atom_site_type_symbol
_atom_site_label
_atom_site_fract_x
_atom_site_fract_y
_atom_site_fract_z
Si Si1 0.950040 0.236986 0.910613
Si Si2 0.857597 0.946039 0.081458
Si Si3 0.757004 0.779034 0.536700
Si Si4 0.464212 0.182841 0.732886
Si Si5 0.598383 0.339370 0.248294
Si Si6 0.684374 0.177144 0.204967
Si Si7 0.093772 0.542515 0.936964
Si Si8 0.559766 0.889266 0.553735
O O1 0.045396 0.349920 0.952936
O O2 0.189024 0.181750 0.821365
O O3 0.741440 0.065939 0.718507
O O4 0.831683 0.351316 0.150113
O O5 0.669487 0.072144 0.289781
O O6 0.633837 0.782520 0.912099
O O7 0.062247 0.047940 0.241699
O O8 0.058451 0.868966 0.879007
O O9 0.481069 0.738007 0.584268
O O10 0.714016 0.799449 0.468324
O O11 0.878621 0.628263 0.335494
O O12 0.642189 0.327519 0.938835
O O13 0.516287 0.208204 0.649253
O O14 0.500000 0.000000 0.500000
O O15 0.500000 0.500000 0.500000
O O16 0.685139 0.265826 0.225315
O O17 0.500000 0.000000 0.000000
O O18 0.000000 0.500000 0.000000
#
# Coordination Sequence:
#
# PCOD9027151 Si02
#       8
#     2   2   2   2   2   2   2   2
#     4  11  25  44  70 100 137 180 233 281 343 422
#     4  10  22  41  69  94 138 183 229 274 350 393
#     4  11  25  42  67 101 142 181 231 288 341 412
#     4  12  27  44  74 101 135 186 231 285 358 403
#     4  11  25  43  69 104 137 178 232 286 336 414
#     4  10  22  41  66  99 136 179 231 280 340 408
#     4  12  27  45  68 102 142 176 230 293 345 408
#     4  11  24  42  71 100 134 183 239 279 339 423
#
# _framework density 23.838089
#
# number of rings (size 3 to 8) (size 9 to 14) (size 15 to 20)
#    0.000    1.000    1.250    5.625    5.250    9.000 
#    0.000    0.000    0.000    0.000    0.000    0.000 
#    0.000    0.000    0.000    0.000    0.000    0.000 
#
# Total GULP energy -89172.704574 kJ/mol
# GULP energy per Si atom -5573.294036 kJ/mol
# Density = 2.378383 g / cm^3
# Si number density = 23.838089 Si / 1000 Ang^3
#
#
#
# Elastic Constant Matrix: (Units=GPa)
#
#
# Indices 1 2 3 4 5 6 
#
# 1 72.3849 15.6045 35.6006 5.3551 -16.2540 19.4995
# 2 15.6045 72.1020 23.4400 -6.0812 -12.6470 4.9701
# 3 35.6006 23.4400 108.8683 -4.6111 -13.8693 12.1195
# 4 5.3551 -6.0812 -4.6111 29.4659 2.9749 -15.1853
# 5 -16.2540 -12.6470 -13.8693 2.9749 40.2926 -12.1427
# 6 19.4995 4.9701 12.1195 -15.1853 -12.1427 41.8762
#
#
#
# Elastic Compliance Matrix: (Units=1/GPa)
#
#
# Indices 1 2 3 4 5 6 
#
# 1 0.021704 -0.002534 -0.005318 -0.011546 0.003538 -0.011427
# 2 -0.002534 0.015983 -0.002247 0.004368 0.003677 0.002583
# 3 -0.005318 -0.002247 0.011590 0.002530 0.001144 0.000638
# 4 -0.011546 0.004368 0.002530 0.048564 0.000601 0.021911
# 5 0.003538 0.003677 0.001144 0.000601 0.029681 0.006409
# 6 -0.011427 0.002583 0.000638 0.021911 0.006409 0.038514
#
#
# Mechanical properties :
#
#
# Convention : Reuss Voigt Hill
#
# Bulk Modulus (GPa) = 34.38779 44.73839 39.56309
# Shear Modulus (GPa) = 25.51978 34.24094 29.88036
#
# Velocity S-wave (km/s) = 3.27547 3.79409 3.54428
# Velocity P-wave (km/s) = 5.36300 6.16457 5.77770
#
# Compressibility (1/GPa) = 0.02908009
#
# Stress axis : x y z
#
# Youngs Moduli (GPa) = 46.07497 62.56509 86.28060
#
# Poissons Ratio (x) = 0.15853 0.45883
# Poissons Ratio (y) = 0.11675 0.19386
# Poissons Ratio (z) = 0.24502 0.14057
#
# Static dielectric constant tensor:
#      x y z
#    x 1.970690 -0.039760 -0.043590 
#    y -0.039760 1.974410 -0.037540 
#    z -0.043590 -0.037540 1.890130 
# 
# From -- ./inp_files/551252.got.cif
#   From: 2010.05.17/outbox.cif.g08.bks.cpg/sg2_276_cif.got.tgz:551252.got - 2010.06.03 11:33:40.
