data_PCOD9027745
_publ_section_title
;
Structure prediction by ZEFSAII (Michael W. Deem and Ramdas Pophale) SiO2 
 PCOD9027745
Probable space group: P -1
;
_chemical_formula_sum "Si O2"
_cell_formula_units_Z 16
_cell_length_a 23.859657
_cell_length_b 6.690029
_cell_length_c 5.104596
_cell_angle_alpha 73.271561
_cell_angle_beta 114.102412
_cell_angle_gamma 99.578627
_cell_volume 711.177881
_symmetry_space_group_name_H-M "P -1"
_symmetry_group_IT_number 2
_symmetry_cell_setting 'triclinic'
loop_
_space_group_symop_operation_xyz
x,y,z
-x,-y,-z
loop_
_atom_site_type_symbol
_atom_site_label
_atom_site_fract_x
_atom_site_fract_y
_atom_site_fract_z
Si Si1 0.164474 0.024958 0.833674
Si Si2 0.664069 0.334547 0.204575
Si Si3 0.439843 0.996336 0.066787
Si Si4 0.650218 0.624563 0.563190
Si Si5 0.470697 0.276844 0.446049
Si Si6 0.931425 0.630349 0.527567
Si Si7 0.754166 0.987389 0.507158
Si Si8 0.068101 0.646667 0.869840
O O1 0.120474 0.816321 0.825359
O O2 0.122001 0.212536 0.610930
O O3 0.219111 0.017931 0.731486
O O4 0.192926 0.046330 0.168506
O O5 0.646006 0.456261 0.384749
O O6 0.725966 0.212952 0.411913
O O7 0.615461 0.144659 0.105141
O O8 0.666119 0.497746 0.905432
O O9 0.466285 0.845041 0.401045
O O10 0.436818 0.213885 0.133394
O O11 0.500000 0.000000 0.000000
O O12 0.587471 0.743478 0.457444
O O13 0.702553 0.801128 0.524434
O O14 0.500000 0.500000 0.500000
O O15 0.932214 0.541886 0.268259
O O16 0.999472 0.729060 0.688554
O O17 0.921784 0.441629 0.787680
#
# Coordination Sequence:
#
# PCOD9027745 Si02
#       8
#     2   2   2   2   2   2   2   2
#     4  12  25  44  70  99 136 188 232 283 339 410
#     4  12  28  47  71  98 136 183 229 288 347 410
#     4  11  25  41  71 100 136 169 217 289 348 425
#     4  12  28  47  72  99 137 181 234 286 353 420
#     4  11  24  43  70 103 130 171 221 283 359 419
#     4  10  22  41  69 104 141 178 227 283 348 399
#     4  12  29  45  68  98 139 184 239 287 335 407
#     4  10  22  41  69 104 141 178 224 289 341 408
#
# _framework density 22.497886000000001
#
# number of rings (size 3 to 8) (size 9 to 14) (size 15 to 20)
#    0.000    0.750    1.250    4.875    8.750    7.000 
#    0.000    5.000    0.000    0.000    0.000    0.000 
#    0.000    0.000    0.000    0.000    0.000    0.000 
#
# Total GULP energy -89401.205226 kJ/mol
# GULP energy per Si atom -5587.575327 kJ/mol
# Density = 2.244668 g / cm^3
# Si number density = 22.497886 Si / 1000 Ang^3
#
#
#
# Elastic Constant Matrix: (Units=GPa)
#
#
# Indices 1 2 3 4 5 6 
#
# 1 83.6589 19.7764 4.0210 -4.3791 -8.4106 9.5095
# 2 19.7764 64.3733 11.4219 10.6500 4.8258 4.3618
# 3 4.0210 11.4219 80.7308 5.5893 -7.7575 -11.7115
# 4 -4.3791 10.6500 5.5893 37.6746 -9.8564 -1.6964
# 5 -8.4106 4.8258 -7.7575 -9.8564 49.6397 -3.2045
# 6 9.5095 4.3618 -11.7115 -1.6964 -3.2045 58.6018
#
#
#
# Elastic Compliance Matrix: (Units=1/GPa)
#
#
# Indices 1 2 3 4 5 6 
#
# 1 0.013889 -0.005040 -0.000146 0.003902 0.003492 -0.001604
# 2 -0.005040 0.019144 -0.002653 -0.006878 -0.004598 -0.001588
# 3 -0.000146 -0.002653 0.013478 -0.000492 0.002438 0.003034
# 4 0.003902 -0.006878 -0.000492 0.031021 0.007482 0.001088
# 5 0.003492 -0.004598 0.002438 0.007482 0.023163 0.001746
# 6 -0.001604 -0.001588 0.003034 0.001088 0.001746 0.018176
#
#
# Mechanical properties :
#
#
# Convention : Reuss Voigt Hill
#
# Bulk Modulus (GPa) = 32.43337 33.24464 32.83901
# Shear Modulus (GPa) = 34.52406 42.08613 38.30510
#
# Velocity S-wave (km/s) = 3.92158 4.32982 4.13074
# Velocity P-wave (km/s) = 5.91207 6.30914 6.11383
#
# Compressibility (1/GPa) = 0.03083245
#
# Stress axis : x y z
#
# Youngs Moduli (GPa) = 71.99791 52.23662 74.19520
#
# Poissons Ratio (x) = 0.26326 0.01084
# Poissons Ratio (y) = 0.36285 0.19687
# Poissons Ratio (z) = 0.01052 0.13861
#
# Static dielectric constant tensor:
#      x y z
#    x 1.825580 -0.025630 -0.056690 
#    y -0.025630 1.860670 0.036400 
#    z -0.056690 0.036400 2.053970 
# 
# From -- ./inp_files/121599.got.cif
#   From: 2010.05.17/outbox.cif.g08.bks.cpg/sg2_61_cif.got.tgz:121599.got - 2010.06.03 11:33:40.
