data_PCOD9027436
_publ_section_title
;
Structure prediction by ZEFSAII (Michael W. Deem and Ramdas Pophale) SiO2 
 PCOD9027436
Probable space group: P -1
;
_chemical_formula_sum "Si O2"
_cell_formula_units_Z 16
_cell_length_a 10.159984
_cell_length_b 8.756181
_cell_length_c 11.918989
_cell_angle_alpha 129.276724
_cell_angle_beta 115.857443
_cell_angle_gamma 95.129787
_cell_volume 628.782113
_symmetry_space_group_name_H-M "P -1"
_symmetry_group_IT_number 2
_symmetry_cell_setting 'triclinic'
loop_
_space_group_symop_operation_xyz
x,y,z
-x,-y,-z
loop_
_atom_site_type_symbol
_atom_site_label
_atom_site_fract_x
_atom_site_fract_y
_atom_site_fract_z
Si Si1 0.591431 0.862341 0.005914
Si Si2 0.418824 0.567112 0.272210
Si Si3 0.926090 0.181754 0.715505
Si Si4 0.562264 0.838636 0.666889
Si Si5 0.235850 0.669204 0.077336
Si Si6 0.160145 0.260129 0.201419
Si Si7 0.751869 0.130716 0.393186
Si Si8 0.973568 0.169816 0.306075
O O1 0.634202 0.891679 0.168246
O O2 0.787853 0.005524 0.102141
O O3 0.514439 0.604770 0.811993
O O4 0.500000 0.000000 0.000000
O O5 0.539472 0.773715 0.496559
O O6 0.388151 0.660121 0.189902
O O7 0.225607 0.425124 0.193199
O O8 0.850798 0.257751 0.824273
O O9 0.809350 0.105106 0.525526
O O10 0.962791 0.990343 0.688751
O O11 0.103205 0.420583 0.862012
O O12 0.660696 0.723144 0.698554
O O13 0.683332 0.108409 0.867398
O O14 0.373653 0.770267 0.601881
O O15 0.099115 0.316873 0.320941
O O16 0.000000 0.000000 0.000000
O O17 0.918045 0.264997 0.435553
#
# Coordination Sequence:
#
# PCOD9027436 Si02
#       8
#     2   2   2   2   2   2   2   2
#     4  10  22  44  69  99 147 188 227 294 366 419
#     4  12  24  45  70 104 144 189 237 296 356 427
#     4  11  20  42  71 105 144 178 240 298 359 415
#     4  12  26  43  69 104 142 189 240 291 356 424
#     4  11  23  41  72 107 141 182 242 299 347 421
#     4  12  23  42  70 101 133 189 244 293 347 419
#     4  10  23  40  72 101 142 184 227 296 360 421
#     4  10  22  41  68 100 143 184 229 293 363 416
#
# _framework density 25.446014999999999
#
# number of rings (size 3 to 8) (size 9 to 14) (size 15 to 20)
#    0.750    0.250    5.000    1.875    1.750    0.000 
#    0.000    4.375    0.000    0.000    0.000    0.000 
#    0.000    0.000    0.000    0.000    0.000    0.000 
#
# Total GULP energy -89403.909029 kJ/mol
# GULP energy per Si atom -5587.744314 kJ/mol
# Density = 2.538810 g / cm^3
# Si number density = 25.446015 Si / 1000 Ang^3
#
#
#
# Elastic Constant Matrix: (Units=GPa)
#
#
# Indices 1 2 3 4 5 6 
#
# 1 116.3156 49.3179 25.9688 -4.8511 -17.9095 -20.0525
# 2 49.3179 72.4051 25.4275 -0.3336 -1.9701 -18.7255
# 3 25.9688 25.4275 113.5590 -7.1470 1.1073 -3.9851
# 4 -4.8511 -0.3336 -7.1470 44.8989 -1.2926 2.6913
# 5 -17.9095 -1.9701 1.1073 -1.2926 42.3026 4.5714
# 6 -20.0525 -18.7255 -3.9851 2.6913 4.5714 51.3221
#
#
#
# Elastic Compliance Matrix: (Units=1/GPa)
#
#
# Indices 1 2 3 4 5 6 
#
# 1 0.013470 -0.008192 -0.001159 0.001261 0.005211 0.001653
# 2 -0.008192 0.021542 -0.002851 -0.001551 -0.002955 0.004782
# 3 -0.001159 -0.002851 0.009781 0.001433 -0.000756 -0.000742
# 4 0.001261 -0.001551 0.001433 0.022737 0.001256 -0.001266
# 5 0.005211 -0.002955 -0.000756 0.001256 0.025926 -0.001476
# 6 0.001653 0.004782 -0.000742 -0.001266 -0.001476 0.022016
#
#
# Mechanical properties :
#
#
# Convention : Reuss Voigt Hill
#
# Bulk Modulus (GPa) = 49.05078 55.96758 52.50918
# Shear Modulus (GPa) = 34.08960 41.14241 37.61601
#
# Velocity S-wave (km/s) = 3.66414 4.02537 3.84900
# Velocity P-wave (km/s) = 6.10078 6.60660 6.35872
#
# Compressibility (1/GPa) = 0.02038704
#
# Stress axis : x y z
#
# Youngs Moduli (GPa) = 74.24035 46.42144 102.23858
#
# Poissons Ratio (x) = 0.38030 0.11853
# Poissons Ratio (y) = 0.60821 0.29149
# Poissons Ratio (z) = 0.08607 0.13235
#
# Static dielectric constant tensor:
#      x y z
#    x 2.062760 0.032050 -0.038970 
#    y 0.032050 1.984390 0.034480 
#    z -0.038970 0.034480 2.056930 
# 
# From -- ./inp_files/418474.got.cif
#   From: 2010.05.17/outbox.cif.g08.bks.cpg/sg2_210_cif.got.tgz:418474.got - 2010.06.03 11:33:40.
