data_PCOD9027119
_publ_section_title
;
Structure prediction by ZEFSAII (Michael W. Deem and Ramdas Pophale) SiO2 
 PCOD9027119
Probable space group: P -1
;
_chemical_formula_sum "Si O2"
_cell_formula_units_Z 14
_cell_length_a 9.818598
_cell_length_b 9.571580
_cell_length_c 23.728395
_cell_angle_alpha 30.278241
_cell_angle_beta 30.628344
_cell_angle_gamma 33.883672
_cell_volume 538.917455
_symmetry_space_group_name_H-M "P -1"
_symmetry_group_IT_number 2
_symmetry_cell_setting 'triclinic'
loop_
_space_group_symop_operation_xyz
x,y,z
-x,-y,-z
loop_
_atom_site_type_symbol
_atom_site_label
_atom_site_fract_x
_atom_site_fract_y
_atom_site_fract_z
Si Si1 0.844018 0.952124 0.637545
Si Si2 0.668774 0.664503 0.577771
Si Si3 0.383763 0.477258 0.647339
Si Si4 0.043990 0.085189 0.862850
Si Si5 0.544353 0.790929 0.908264
Si Si6 0.231380 0.493447 0.273420
Si Si7 0.763762 0.558010 0.017487
O O1 0.689222 0.897553 0.768064
O O2 0.774483 0.773873 0.672354
O O3 0.178642 0.793256 0.586780
O O4 0.676395 0.304087 0.569044
O O5 0.483818 0.502045 0.666500
O O6 0.695681 0.621852 0.649786
O O7 0.000000 0.500000 0.500000
O O8 0.500000 0.000000 0.500000
O O9 0.181083 0.279321 0.783654
O O10 0.029839 0.237358 0.753107
O O11 0.760123 0.074582 0.998669
O O12 0.221969 0.749898 0.908190
O O13 0.500000 0.500000 0.000000
O O14 0.760487 0.756313 0.895984
O O15 0.466192 0.647115 0.123359
O O16 0.000000 0.500000 0.000000
#
# Coordination Sequence:
#
# PCOD9027119 Si02
#       7
#     2   2   2   2   2   2   2
#     4  11  23  41  70 107 139 194 230 277 336 415
#     4  12  30  52  75 105 134 175 235 305 374 420
#     4  11  23  45  73  99 132 182 233 288 353 413
#     4  10  22  41  66  97 143 189 234 273 335 412
#     4  11  20  36  59 100 147 187 238 266 316 414
#     4  10  24  45  68  99 144 178 230 297 346 412
#     4  11  24  37  63 105 144 188 227 277 333 404
#
# _framework density 25.978003999999999
#
# number of rings (size 3 to 8) (size 9 to 14) (size 15 to 20)
#    0.000    1.143    5.714    0.857    6.000    4.571 
#    0.000   10.000    0.000    0.000    0.000    0.000 
#    0.000    0.000    0.000    0.000    0.000    0.000 
#
# Total GULP energy -78117.358452 kJ/mol
# GULP energy per Si atom -5579.811318 kJ/mol
# Density = 2.591888 g / cm^3
# Si number density = 25.978004 Si / 1000 Ang^3
#
#
#
# Elastic Constant Matrix: (Units=GPa)
#
#
# Indices 1 2 3 4 5 6 
#
# 1 248.4808 31.8625 58.7715 10.6452 30.6863 -8.4778
# 2 31.8625 95.4392 17.7942 4.7340 13.8122 -29.1750
# 3 58.7715 17.7942 89.8889 0.3320 38.6078 -2.0973
# 4 10.6452 4.7340 0.3320 19.6687 4.4766 -3.4797
# 5 30.6863 13.8122 38.6078 4.4766 54.5559 -1.6229
# 6 -8.4778 -29.1750 -2.0973 -3.4797 -1.6229 41.3994
#
#
#
# Elastic Compliance Matrix: (Units=1/GPa)
#
#
# Indices 1 2 3 4 5 6 
#
# 1 0.004977 -0.000961 -0.002931 -0.002350 -0.000289 -0.000016
# 2 -0.000961 0.014284 -0.001149 -0.000752 -0.001913 0.009673
# 3 -0.002931 -0.001149 0.018038 0.003995 -0.011171 -0.000598
# 4 -0.002350 -0.000752 0.003995 0.054137 -0.005653 0.003520
# 5 -0.000289 -0.001913 -0.011171 -0.005653 0.027305 -0.001378
# 6 -0.000016 0.009673 -0.000598 0.003520 -0.001378 0.031180
#
#
# Mechanical properties :
#
#
# Convention : Reuss Voigt Hill
#
# Bulk Modulus (GPa) = 36.74264 72.29615 54.51940
# Shear Modulus (GPa) = 29.57249 44.81687 37.19468
#
# Velocity S-wave (km/s) = 3.37763 4.15804 3.78799
# Velocity P-wave (km/s) = 5.42085 7.13741 6.33752
#
# Compressibility (1/GPa) = 0.02721633
#
# Stress axis : x y z
#
# Youngs Moduli (GPa) = 200.92959 70.00744 55.43843
#
# Poissons Ratio (x) = 0.06731 0.16249
# Poissons Ratio (y) = 0.19318 0.06369
# Poissons Ratio (z) = 0.58894 0.08043
#
# Static dielectric constant tensor:
#      x y z
#    x 2.148380 -0.065630 0.193540 
#    y -0.065630 2.105950 -0.034700 
#    z 0.193540 -0.034700 2.642980 
# 
# From -- ./inp_files/587743.got.cif
#   From: 2010.05.17/outbox.cif.g08.bks.cpg/sg2_294_cif.got.tgz:587743.got - 2010.06.03 11:33:40.
