data_PCOD9027408
_publ_section_title
;
Structure prediction by ZEFSAII (Michael W. Deem and Ramdas Pophale) SiO2 
 PCOD9027408
Probable space group: P -1
;
_chemical_formula_sum "Si O2"
_cell_formula_units_Z 16
_cell_length_a 12.074542
_cell_length_b 11.928781
_cell_length_c 12.212981
_cell_angle_alpha 127.900064
_cell_angle_beta 129.566882
_cell_angle_gamma 93.998370
_cell_volume 698.076943
_symmetry_space_group_name_H-M "P -1"
_symmetry_group_IT_number 2
_symmetry_cell_setting 'triclinic'
loop_
_space_group_symop_operation_xyz
x,y,z
-x,-y,-z
loop_
_atom_site_type_symbol
_atom_site_label
_atom_site_fract_x
_atom_site_fract_y
_atom_site_fract_z
Si Si1 0.799895 0.435040 0.132670
Si Si2 0.497636 0.562347 0.157932
Si Si3 0.211460 0.092993 0.748353
Si Si4 0.457370 0.025581 0.369414
Si Si5 0.182014 0.388704 0.517425
Si Si6 0.185382 0.033604 0.093417
Si Si7 0.281322 0.840229 0.577868
Si Si8 0.450570 0.196391 0.160515
O O1 0.811618 0.510587 0.307799
O O2 0.041800 0.629017 0.349343
O O3 0.633262 0.393267 0.919865
O O4 0.700430 0.204892 0.929935
O O5 0.733186 0.703829 0.442711
O O6 0.500000 0.500000 0.000000
O O7 0.350431 0.339892 0.997187
O O8 0.300922 0.027016 0.693893
O O9 0.239071 0.039551 0.851783
O O10 0.000000 0.000000 0.500000
O O11 0.500000 0.000000 0.500000
O O12 0.678366 0.193386 0.537091
O O13 0.327639 0.075197 0.306846
O O14 0.347246 0.583604 0.648899
O O15 0.953750 0.189978 0.194564
O O16 0.366571 0.217263 0.227646
O O17 0.000000 0.000000 0.000000
O O18 0.460660 0.890610 0.795083
#
# Coordination Sequence:
#
# PCOD9027408 Si02
#       8
#     2   2   2   2   2   2   2   2
#     4  11  22  41  69  98 131 172 213 266 329 383
#     4   9  19  34  56  94 130 162 202 258 313 369
#     4  11  20  34  58  98 131 163 210 257 323 384
#     4  11  27  46  65  96 130 170 225 271 323 393
#     4  10  22  41  67  99 131 167 217 267 317 393
#     4  11  26  45  67  94 127 176 219 269 329 381
#     4  11  22  40  65  92 132 172 212 270 321 387
#     4  10  23  40  61  94 130 170 217 265 323 380
#
# _framework density 22.920109
#
# number of rings (size 3 to 8) (size 9 to 14) (size 15 to 20)
#    0.000    1.500    1.250    4.125    3.500    6.000 
#    0.000    0.000    0.000    0.000    0.000    0.000 
#    0.000    0.000    0.000    0.000    0.000    0.000 
#
# Total GULP energy -89170.061150 kJ/mol
# GULP energy per Si atom -5573.128822 kJ/mol
# Density = 2.286794 g / cm^3
# Si number density = 22.920109 Si / 1000 Ang^3
#
#
#
# Elastic Constant Matrix: (Units=GPa)
#
#
# Indices 1 2 3 4 5 6 
#
# 1 136.1558 60.5604 24.4513 -16.9429 26.2511 10.3909
# 2 60.5604 118.9391 39.5880 -42.4337 23.8969 8.5313
# 3 24.4513 39.5880 72.2227 -25.4861 13.7977 10.7605
# 4 -16.9429 -42.4337 -25.4861 61.4768 -7.9233 11.2358
# 5 26.2511 23.8969 13.7977 -7.9233 33.7647 -3.4298
# 6 10.3909 8.5313 10.7605 11.2358 -3.4298 46.1349
#
#
#
# Elastic Compliance Matrix: (Units=1/GPa)
#
#
# Indices 1 2 3 4 5 6 
#
# 1 0.010334 -0.004190 -0.000059 -0.000420 -0.005330 -0.001833
# 2 -0.004190 0.015866 -0.002604 0.008754 -0.005250 -0.003905
# 3 -0.000059 -0.002604 0.019565 0.006748 -0.005142 -0.006094
# 4 -0.000420 0.008754 0.006748 0.026332 -0.003439 -0.009767
# 5 -0.005330 -0.005250 -0.005142 -0.003439 0.039496 0.007144
# 6 -0.001833 -0.003905 -0.006094 -0.009767 0.007144 0.027142
#
#
# Mechanical properties :
#
#
# Convention : Reuss Voigt Hill
#
# Bulk Modulus (GPa) = 31.19294 64.05744 47.62519
# Shear Modulus (GPa) = 30.65107 41.78981 36.22044
#
# Velocity S-wave (km/s) = 3.66088 4.27462 3.97960
# Velocity P-wave (km/s) = 5.61323 7.23685 6.47612
#
# Compressibility (1/GPa) = 0.03205854
#
# Stress axis : x y z
#
# Youngs Moduli (GPa) = 96.76984 63.02865 51.11119
#
# Poissons Ratio (x) = 0.26407 0.00302
# Poissons Ratio (y) = 0.40544 0.13311
# Poissons Ratio (z) = 0.00572 0.16415
#
# Static dielectric constant tensor:
#      x y z
#    x 1.946180 -0.018500 0.042480 
#    y -0.018500 1.888690 -0.036870 
#    z 0.042480 -0.036870 1.876950 
# 
# From -- ./inp_files/428810.got.cif
#   From: 2010.05.17/outbox.cif.g08.bks.cpg/sg2_215_cif.got.tgz:428810.got - 2010.06.03 11:33:40.
