data_PCOD9027308
_publ_section_title
;
Structure prediction by ZEFSAII (Michael W. Deem and Ramdas Pophale) SiO2 
 PCOD9027308
Probable space group: P -1
;
_chemical_formula_sum "Si O2"
_cell_formula_units_Z 14
_cell_length_a 9.553039
_cell_length_b 6.837061
_cell_length_c 21.423223
_cell_angle_alpha 126.345501
_cell_angle_beta 148.092964
_cell_angle_gamma 50.588880
_cell_volume 566.433031
_symmetry_space_group_name_H-M "P -1"
_symmetry_group_IT_number 2
_symmetry_cell_setting 'triclinic'
loop_
_space_group_symop_operation_xyz
x,y,z
-x,-y,-z
loop_
_atom_site_type_symbol
_atom_site_label
_atom_site_fract_x
_atom_site_fract_y
_atom_site_fract_z
Si Si1 0.366372 0.267193 0.531441
Si Si2 0.065222 0.460939 0.684460
Si Si3 0.432067 0.767322 0.896161
Si Si4 0.665950 0.668179 0.729029
Si Si5 0.656920 0.956570 0.211801
Si Si6 0.262724 0.083415 0.589081
Si Si7 0.187621 0.721732 0.994165
O O1 0.590996 0.409477 0.658443
O O2 0.221792 0.214277 0.530653
O O3 0.176292 0.432876 0.436171
O O4 0.500000 0.000000 0.500000
O O5 0.169050 0.674763 0.797395
O O6 0.061218 0.245885 0.693131
O O7 0.301873 0.290113 0.693273
O O8 0.339086 0.867059 0.810736
O O9 0.695944 0.512446 0.957577
O O10 0.500000 0.000000 0.000000
O O11 0.985810 0.637686 0.855377
O O12 0.492858 0.850531 0.753475
O O13 0.530122 0.830597 0.646907
O O14 0.459455 0.785886 0.085004
O O15 0.000000 0.000000 0.500000
O O16 0.000000 0.000000 0.000000
#
# Coordination Sequence:
#
# PCOD9027308 Si02
#       7
#     2   2   2   2   2   2   2
#     4  12  27  42  64 105 140 173 221 283 347 395
#     4  10  23  42  68  96 128 179 231 272 330 417
#     4  11  24  40  65  96 130 178 223 276 341 401
#     4  10  22  41  67  95 130 174 218 278 337 400
#     4   9  21  42  70  92 125 174 231 275 324 407
#     4  11  23  44  71  97 128 184 232 269 326 415
#     4   9  21  41  62  97 128 164 221 273 333 392
#
# _framework density 24.716073999999999
#
# number of rings (size 3 to 8) (size 9 to 14) (size 15 to 20)
#    0.000    1.714    1.429    2.143    6.000    6.286 
#    2.571    0.000    0.000    0.000    0.000    0.000 
#    0.000    0.000    0.000    0.000    0.000    0.000 
#
# Total GULP energy -78202.300928 kJ/mol
# GULP energy per Si atom -5585.878638 kJ/mol
# Density = 2.465982 g / cm^3
# Si number density = 24.716074 Si / 1000 Ang^3
#
#
#
# Elastic Constant Matrix: (Units=GPa)
#
#
# Indices 1 2 3 4 5 6 
#
# 1 82.0119 49.3175 32.6451 -7.2893 -14.2541 23.6750
# 2 49.3175 191.8969 62.0745 -10.5540 -8.4638 29.1430
# 3 32.6451 62.0745 148.0166 16.2138 5.1436 16.1171
# 4 -7.2893 -10.5540 16.2138 66.0815 7.1117 -13.3469
# 5 -14.2541 -8.4638 5.1436 7.1117 28.4615 -1.6909
# 6 23.6750 29.1430 16.1171 -13.3469 -1.6909 28.6980
#
#
#
# Elastic Compliance Matrix: (Units=1/GPa)
#
#
# Indices 1 2 3 4 5 6 
#
# 1 0.019450 -0.001996 -0.002249 -0.001179 0.009090 -0.012768
# 2 -0.001996 0.007132 -0.002207 0.000519 0.001150 -0.004047
# 3 -0.002249 -0.002207 0.008863 -0.002965 -0.002788 -0.002424
# 4 -0.001179 0.000519 -0.002965 0.018331 -0.003862 0.010408
# 5 0.009090 0.001150 -0.002788 -0.003862 0.041114 -0.006475
# 6 -0.012768 -0.004047 -0.002424 0.010408 -0.006475 0.055310
#
#
# Mechanical properties :
#
#
# Convention : Reuss Voigt Hill
#
# Bulk Modulus (GPa) = 44.36344 78.88884 61.62614
# Shear Modulus (GPa) = 29.30551 43.17410 36.23981
#
# Velocity S-wave (km/s) = 3.44712 4.18401 3.83331
# Velocity P-wave (km/s) = 5.81650 7.43832 6.67684
#
# Compressibility (1/GPa) = 0.02254108
#
# Stress axis : x y z
#
# Youngs Moduli (GPa) = 51.41435 140.21550 112.82661
#
# Poissons Ratio (x) = 0.27986 0.25376
# Poissons Ratio (y) = 0.10262 0.24899
# Poissons Ratio (z) = 0.11564 0.30944
#
# Static dielectric constant tensor:
#      x y z
#    x 1.990630 -0.027640 -0.029350 
#    y -0.027640 2.125940 -0.008140 
#    z -0.029350 -0.008140 2.002450 
# 
# From -- ./inp_files/403382.got.cif
#   From: 2010.05.17/outbox.cif.g08.bks.cpg/sg2_202_cif.got.tgz:403382.got - 2010.06.03 11:33:40.
