data_PCOD9027556
_publ_section_title
;
Structure prediction by ZEFSAII (Michael W. Deem and Ramdas Pophale) SiO2 
 PCOD9027556
Probable space group: P -1
;
_chemical_formula_sum "Si O2"
_cell_formula_units_Z 16
_cell_length_a 11.094882
_cell_length_b 11.820156
_cell_length_c 9.243729
_cell_angle_alpha 124.861398
_cell_angle_beta 54.899562
_cell_angle_gamma 107.010148
_cell_volume 812.628155
_symmetry_space_group_name_H-M "P -1"
_symmetry_group_IT_number 2
_symmetry_cell_setting 'triclinic'
loop_
_space_group_symop_operation_xyz
x,y,z
-x,-y,-z
loop_
_atom_site_type_symbol
_atom_site_label
_atom_site_fract_x
_atom_site_fract_y
_atom_site_fract_z
Si Si1 0.875681 0.606241 0.595170
Si Si2 0.053883 0.206627 0.075905
Si Si3 0.767601 0.055786 0.230893
Si Si4 0.079463 0.547036 0.834414
Si Si5 0.458341 0.382887 0.055441
Si Si6 0.410090 0.626006 0.729208
Si Si7 0.578238 0.097388 0.633194
Si Si8 0.495005 0.923982 0.796465
O O1 0.912883 0.749411 0.749654
O O2 0.886752 0.577382 0.395354
O O3 0.709167 0.586608 0.750884
O O4 0.000000 0.500000 0.500000
O O5 0.903690 0.129196 0.123613
O O6 0.028647 0.339744 0.089890
O O7 0.179942 0.095559 0.859730
O O8 0.708973 0.143840 0.473925
O O9 0.650392 0.040865 0.173378
O O10 0.236673 0.613803 0.805914
O O11 0.000000 0.500000 0.000000
O O12 0.561948 0.381074 0.123817
O O13 0.500000 0.500000 0.000000
O O14 0.485959 0.232113 0.852596
O O15 0.500000 0.500000 0.500000
O O16 0.483455 0.762799 0.717767
O O17 0.500000 0.000000 0.500000
O O18 0.617072 0.993531 0.663011
O O19 0.500000 0.000000 0.000000
#
# Coordination Sequence:
#
# PCOD9027556 Si02
#       8
#     2   2   2   2   2   2   2   2
#     4  10  23  42  64  92 133 177 218 275 336 399
#     4  10  22  42  67  91 131 177 226 270 340 406
#     4  10  22  41  68  94 127 176 227 277 332 406
#     4  11  25  44  66  99 136 179 222 280 345 407
#     4  12  27  42  69 104 135 178 235 278 344 416
#     4  12  26  43  69  99 138 182 222 290 349 397
#     4  10  23  39  67  94 130 171 224 277 336 396
#     4  11  22  43  63  93 134 172 220 282 343 400
#
# _framework density 19.689202000000002
#
# number of rings (size 3 to 8) (size 9 to 14) (size 15 to 20)
#    0.000    1.250    3.750    1.500   10.500    1.000 
#    0.000    0.000    0.000    3.750    0.000    0.000 
#    0.000    0.000    0.000    0.000    0.000    0.000 
#
# Total GULP energy -89182.723553 kJ/mol
# GULP energy per Si atom -5573.920222 kJ/mol
# Density = 1.964439 g / cm^3
# Si number density = 19.689202 Si / 1000 Ang^3
#
#
#
# Elastic Constant Matrix: (Units=GPa)
#
#
# Indices 1 2 3 4 5 6 
#
# 1 83.8688 22.3284 37.5001 -7.3937 15.5564 -4.7934
# 2 22.3284 117.6936 52.0093 6.5961 12.6521 -16.5574
# 3 37.5001 52.0093 143.8296 -1.6536 16.2106 -10.1715
# 4 -7.3937 6.5961 -1.6536 26.8968 -0.4747 7.7691
# 5 15.5564 12.6521 16.2106 -0.4747 34.1482 -0.9568
# 6 -4.7934 -16.5574 -10.1715 7.7691 -0.9568 27.0894
#
#
#
# Elastic Compliance Matrix: (Units=1/GPa)
#
#
# Indices 1 2 3 4 5 6 
#
# 1 0.014791 -0.001387 -0.002808 0.004351 -0.004851 -0.000704
# 2 -0.001387 0.011728 -0.003198 -0.005585 -0.002070 0.007251
# 3 -0.002808 -0.003198 0.009109 0.000304 -0.001833 0.000817
# 4 0.004351 -0.005585 0.000304 0.044153 0.000131 -0.015188
# 5 -0.004851 -0.002070 -0.001833 0.000131 0.033086 -0.001681
# 6 -0.000704 0.007251 0.000817 -0.015188 -0.001681 0.045825
#
#
# Mechanical properties :
#
#
# Convention : Reuss Voigt Hill
#
# Bulk Modulus (GPa) = 47.97557 63.22972 55.60264
# Shear Modulus (GPa) = 27.71233 33.19718 30.45476
#
# Velocity S-wave (km/s) = 3.75572 4.11062 3.93717
# Velocity P-wave (km/s) = 6.57469 7.39684 6.99785
#
# Compressibility (1/GPa) = 0.02084394
#
# Stress axis : x y z
#
# Youngs Moduli (GPa) = 67.60779 85.26292 109.78231
#
# Poissons Ratio (x) = 0.11823 0.30828
# Poissons Ratio (y) = 0.09375 0.35104
# Poissons Ratio (z) = 0.18985 0.27263
#
# Static dielectric constant tensor:
#      x y z
#    x 1.725790 0.034050 -0.039280 
#    y 0.034050 1.726920 -0.028000 
#    z -0.039280 -0.028000 1.749780 
# 
# From -- ./inp_files/262934.got.cif
#   From: 2010.05.17/outbox.cif.g08.bks.cpg/sg2_132_cif.got.tgz:262934.got - 2010.06.03 11:33:40.
