data_PCOD9027295
_publ_section_title
;
Structure prediction by ZEFSAII (Michael W. Deem and Ramdas Pophale) SiO2 
 PCOD9027295
Probable space group: P -1
;
_chemical_formula_sum "Si O2"
_cell_formula_units_Z 14
_cell_length_a 14.191775
_cell_length_b 18.520610
_cell_length_c 7.633075
_cell_angle_alpha 125.230213
_cell_angle_beta 49.834258
_cell_angle_gamma 158.513856
_cell_volume 559.609588
_symmetry_space_group_name_H-M "P -1"
_symmetry_group_IT_number 2
_symmetry_cell_setting 'triclinic'
loop_
_space_group_symop_operation_xyz
x,y,z
-x,-y,-z
loop_
_atom_site_type_symbol
_atom_site_label
_atom_site_fract_x
_atom_site_fract_y
_atom_site_fract_z
Si Si1 0.965730 0.246203 0.019088
Si Si2 0.905535 0.404268 0.792789
Si Si3 0.650170 0.871774 0.839289
Si Si4 0.426628 0.552112 0.617174
Si Si5 0.614248 0.475257 0.787804
Si Si6 0.406730 0.966464 0.371992
Si Si7 0.499941 0.784768 0.486003
O O1 0.166401 0.403502 0.844087
O O2 0.117295 0.362290 0.183355
O O3 0.898194 0.097819 0.893435
O O4 0.679776 0.113705 0.143446
O O5 0.164398 0.581527 0.601080
O O6 0.830890 0.253933 0.696106
O O7 0.610236 0.262109 0.917585
O O8 0.000000 0.500000 0.000000
O O9 0.661743 0.773513 0.700989
O O10 0.577246 0.837516 0.672962
O O11 0.500000 0.500000 0.500000
O O12 0.363850 0.516101 0.436477
O O13 0.439738 0.272817 0.748767
O O14 0.500000 0.500000 0.000000
O O15 0.355085 0.036855 0.519050
O O16 0.500000 0.000000 0.500000
#
# Coordination Sequence:
#
# PCOD9027295 Si02
#       7
#     2   2   2   2   2   2   2
#     4  11  24  43  71  98 139 172 226 280 337 399
#     4   9  19  38  63  92 129 166 213 266 334 402
#     4   9  22  39  66 102 130 170 225 273 338 407
#     4  11  23  45  70  93 132 179 227 279 336 394
#     4  11  24  46  69  97 133 182 232 279 336 400
#     4  11  24  40  65 105 139 174 223 275 340 412
#     4  10  22  41  67  94 139 180 219 278 340 398
#
# _framework density 25.017443
#
# number of rings (size 3 to 8) (size 9 to 14) (size 15 to 20)
#    0.000    1.714    1.429    1.714    0.000   16.000 
#    0.000    2.143    0.000    0.000    0.000    0.000 
#    0.000    0.000    0.000    0.000    0.000    0.000 
#
# Total GULP energy -78316.026055 kJ/mol
# GULP energy per Si atom -5594.001861 kJ/mol
# Density = 2.496050 g / cm^3
# Si number density = 25.017443 Si / 1000 Ang^3
#
#
#
# Elastic Constant Matrix: (Units=GPa)
#
#
# Indices 1 2 3 4 5 6 
#
# 1 75.4397 19.6139 25.7819 30.1120 -5.9545 -22.6933
# 2 19.6139 116.8484 49.5908 56.7260 0.6382 -31.6330
# 3 25.7819 49.5908 115.4245 44.2901 -2.1535 -17.9203
# 4 30.1120 56.7260 44.2901 60.0827 -12.9299 -13.1346
# 5 -5.9545 0.6382 -2.1535 -12.9299 43.9198 18.4319
# 6 -22.6933 -31.6330 -17.9203 -13.1346 18.4319 43.3296
#
#
#
# Elastic Compliance Matrix: (Units=1/GPa)
#
#
# Indices 1 2 3 4 5 6 
#
# 1 0.023379 0.011257 0.000839 -0.021192 -0.011235 0.019165
# 2 0.011257 0.029009 0.001079 -0.032300 -0.019224 0.025907
# 3 0.000839 0.001079 0.012882 -0.010786 -0.004656 0.005266
# 4 -0.021192 -0.032300 -0.010786 0.065095 0.029674 -0.032031
# 5 -0.011235 -0.019224 -0.004656 0.029674 0.043123 -0.031193
# 6 0.019165 0.025907 0.005266 -0.032031 -0.031193 0.057768
#
#
# Mechanical properties :
#
#
# Convention : Reuss Voigt Hill
#
# Bulk Modulus (GPa) = 10.91439 55.29844 33.10641
# Shear Modulus (GPa) = 21.23626 43.64816 32.44221
#
# Velocity S-wave (km/s) = 2.91668 4.18150 3.60499
# Velocity P-wave (km/s) = 3.96420 6.74279 5.53083
#
# Compressibility (1/GPa) = 0.09162220
#
# Stress axis : x y z
#
# Youngs Moduli (GPa) = 42.77282 34.47149 77.62685
#
# Poissons Ratio (x) = -0.38806 -0.06512
# Poissons Ratio (y) = -0.48151 -0.08379
# Poissons Ratio (z) = -0.03588 -0.03721
#
# Static dielectric constant tensor:
#      x y z
#    x 1.999540 -0.010130 -0.075740 
#    y -0.010130 2.037530 -0.038670 
#    z -0.075740 -0.038670 2.062120 
# 
# From -- ./inp_files/318095.got.cif
#   From: 2010.05.17/outbox.cif.g08.bks.cpg/sg2_160_cif.got.tgz:318095.got - 2010.06.03 11:33:40.
