data_PCOD9027898
_publ_section_title
;
Structure prediction by ZEFSAII (Michael W. Deem and Ramdas Pophale) SiO2 
 PCOD9027898
Probable space group: P -1
;
_chemical_formula_sum "Si O2"
_cell_formula_units_Z 16
_cell_length_a 20.781385
_cell_length_b 15.227238
_cell_length_c 8.626349
_cell_angle_alpha 103.530926
_cell_angle_beta 140.198315
_cell_angle_gamma 41.750045
_cell_volume 704.653040
_symmetry_space_group_name_H-M "P -1"
_symmetry_group_IT_number 2
_symmetry_cell_setting 'triclinic'
loop_
_space_group_symop_operation_xyz
x,y,z
-x,-y,-z
loop_
_atom_site_type_symbol
_atom_site_label
_atom_site_fract_x
_atom_site_fract_y
_atom_site_fract_z
Si Si1 0.608539 0.111555 0.567002
Si Si2 0.897377 0.491837 0.382091
Si Si3 0.856222 0.829547 0.518627
Si Si4 0.642936 0.368572 0.549751
Si Si5 0.795219 0.059926 0.612644
Si Si6 0.728692 0.824135 0.564319
Si Si7 0.757312 0.607107 0.526258
Si Si8 0.634855 0.566777 0.508653
O O1 0.800160 0.008267 0.771266
O O2 0.553336 0.214284 0.658971
O O3 0.665220 0.958386 0.618226
O O4 0.362570 0.313462 0.094837
O O5 0.859724 0.525902 0.508785
O O6 0.000000 0.500000 0.500000
O O7 0.072911 0.270255 0.554079
O O8 0.709621 0.882401 0.381992
O O9 0.726771 0.031938 0.364952
O O10 0.115226 0.632385 0.008252
O O11 0.500000 0.500000 0.500000
O O12 0.616828 0.290778 0.394102
O O13 0.572336 0.512304 0.374291
O O14 0.934944 0.132279 0.019056
O O15 0.614022 0.819101 0.371863
O O16 0.013370 0.573658 0.007913
O O17 0.660137 0.590558 0.397701
#
# Coordination Sequence:
#
# PCOD9027898 Si02
#       8
#     2   2   2   2   2   2   2   2
#     4  10  20  35  55  82 116 149 192 232 279 340
#     4  11  21  36  55  80 114 159 198 227 274 338
#     4   8  16  33  52  76 110 147 183 227 275 332
#     4  10  17  31  59  90 112 136 189 242 288 339
#     4   9  18  32  55  87 112 143 183 241 284 332
#     4   9  18  34  54  75 107 147 190 236 277 330
#     4  10  20  35  52  76 114 152 188 235 290 327
#     4   9  18  32  52  80 111 144 180 233 289 333
#
# _framework density 22.706209000000001
#
# number of rings (size 3 to 8) (size 9 to 14) (size 15 to 20)
#    0.000    2.500    2.500    0.750    1.750    1.000 
#    0.000    0.000    0.000    1.500    0.000    0.000 
#    0.000    0.000    0.000    0.000    0.000    0.000 
#
# Total GULP energy -89225.600433 kJ/mol
# GULP energy per Si atom -5576.600027 kJ/mol
# Density = 2.265453 g / cm^3
# Si number density = 22.706209 Si / 1000 Ang^3
#
#
#
# Elastic Constant Matrix: (Units=GPa)
#
#
# Indices 1 2 3 4 5 6 
#
# 1 139.3265 84.2851 9.6661 5.4033 7.5151 18.1965
# 2 84.2851 227.6323 -2.3000 -1.6157 7.3523 30.5686
# 3 9.6661 -2.3000 36.2231 -10.5035 -0.1187 -0.7383
# 4 5.4033 -1.6157 -10.5035 25.2219 -1.5986 5.4843
# 5 7.5151 7.3523 -0.1187 -1.5986 23.0568 -5.1984
# 6 18.1965 30.5686 -0.7383 5.4843 -5.1984 46.8487
#
#
#
# Elastic Compliance Matrix: (Units=1/GPa)
#
#
# Indices 1 2 3 4 5 6 
#
# 1 0.010089 -0.003506 -0.004096 -0.003934 -0.002813 -0.001547
# 2 -0.003506 0.006189 0.002007 0.002571 -0.001340 -0.003094
# 3 -0.004096 0.002007 0.033198 0.015109 0.001740 -0.000771
# 4 -0.003934 0.002571 0.015109 0.048263 0.002700 -0.005262
# 5 -0.002813 -0.001340 0.001740 0.002700 0.046452 0.006832
# 6 -0.001547 -0.003094 -0.000771 -0.005262 0.006832 0.025327
#
#
# Mechanical properties :
#
#
# Convention : Reuss Voigt Hill
#
# Bulk Modulus (GPa) = 26.12046 65.16493 45.64270
# Shear Modulus (GPa) = 25.84362 39.79418 32.81890
#
# Velocity S-wave (km/s) = 3.37734 4.19091 3.80593
# Velocity P-wave (km/s) = 5.17081 7.22356 6.28160
#
# Compressibility (1/GPa) = 0.03828417
#
# Stress axis : x y z
#
# Youngs Moduli (GPa) = 99.11715 161.58576 30.12195
#
# Poissons Ratio (x) = 0.56658 0.12339
# Poissons Ratio (y) = 0.34754 -0.06045
# Poissons Ratio (z) = 0.40602 -0.32426
#
# Static dielectric constant tensor:
#      x y z
#    x 1.893120 0.042380 0.087140 
#    y 0.042380 1.917710 -0.000040 
#    z 0.087140 -0.000040 1.934360 
# 
# From -- ./inp_files/212606.got.cif
#   From: 2010.05.17/outbox.cif.g08.bks.cpg/sg2_107_cif.got.tgz:212606.got - 2010.06.03 11:33:40.
