data_PCOD9027857
_publ_section_title
;
Structure prediction by ZEFSAII (Michael W. Deem and Ramdas Pophale) SiO2 
 PCOD9027857
Probable space group: P -1
;
_chemical_formula_sum "Si O2"
_cell_formula_units_Z 12
_cell_length_a 12.590975
_cell_length_b 9.684421
_cell_length_c 8.781195
_cell_angle_alpha 98.986616
_cell_angle_beta 121.087956
_cell_angle_gamma 37.114240
_cell_volume 480.900898
_symmetry_space_group_name_H-M "P -1"
_symmetry_group_IT_number 2
_symmetry_cell_setting 'triclinic'
loop_
_space_group_symop_operation_xyz
x,y,z
-x,-y,-z
loop_
_atom_site_type_symbol
_atom_site_label
_atom_site_fract_x
_atom_site_fract_y
_atom_site_fract_z
Si Si1 0.654447 0.031122 0.505929
Si Si2 0.264801 0.269091 0.715583
Si Si3 0.046136 0.818977 0.103849
Si Si4 0.481976 0.728505 0.238002
Si Si5 0.900485 0.503266 0.064306
Si Si6 0.230656 0.786589 0.532517
O O1 0.500061 0.218011 0.570862
O O2 0.713931 0.112026 0.467340
O O3 0.586353 0.975999 0.326147
O O4 0.885407 0.755987 0.717026
O O5 0.349416 0.344936 0.757569
O O6 0.252466 0.263989 0.887533
O O7 0.000000 0.500000 0.500000
O O8 0.173723 0.750805 0.334826
O O9 0.187546 0.559039 0.083028
O O10 0.783869 0.012202 0.971859
O O11 0.000000 0.000000 0.000000
O O12 0.563404 0.490945 0.275789
O O13 0.000000 0.500000 0.000000
O O14 0.000000 0.000000 0.500000
#
# Coordination Sequence:
#
# PCOD9027857 Si02
#       6
#     2   2   2   2   2   2
#     4  10  22  43  66 105 135 182 235 280 341 420
#     4  10  22  43  70  98 138 183 234 284 338 417
#     4  11  25  47  70 102 145 177 236 288 339 421
#     4  11  24  45  74 103 139 186 231 286 355 401
#     4  10  22  41  69  97 139 185 223 286 349 393
#     4  12  25  44  75 103 140 186 230 285 355 410
#
# _framework density 24.953168000000002
#
# number of rings (size 3 to 8) (size 9 to 14) (size 15 to 20)
#    0.000    1.333    3.333    3.000    7.000    0.667 
#    0.000    3.333    0.000    0.000    0.000    0.000 
#    0.000    0.000    0.000    0.000    0.000    0.000 
#
# Total GULP energy -67197.035756 kJ/mol
# GULP energy per Si atom -5599.752980 kJ/mol
# Density = 2.489637 g / cm^3
# Si number density = 24.953168 Si / 1000 Ang^3
#
#
#
# Elastic Constant Matrix: (Units=GPa)
#
#
# Indices 1 2 3 4 5 6 
#
# 1 163.0174 20.3526 29.7717 -0.3396 -25.0925 10.9769
# 2 20.3526 88.6542 -7.4545 -8.6630 -20.5992 15.8083
# 3 29.7717 -7.4545 59.8285 -7.5870 0.7020 16.7708
# 4 -0.3396 -8.6630 -7.5870 43.4123 -6.2749 3.8459
# 5 -25.0925 -20.5992 0.7020 -6.2749 35.8474 -0.4707
# 6 10.9769 15.8083 16.7708 3.8459 -0.4707 44.0124
#
#
#
# Elastic Compliance Matrix: (Units=1/GPa)
#
#
# Indices 1 2 3 4 5 6 
#
# 1 0.007756 -0.001005 -0.004073 -0.000147 0.004906 0.000044
# 2 -0.001005 0.016247 0.005487 0.006289 0.009519 -0.008123
# 3 -0.004073 0.005487 0.023071 0.006119 0.000787 -0.010273
# 4 -0.000147 0.006289 0.006119 0.027127 0.008050 -0.006838
# 5 0.004906 0.009519 0.000787 0.008050 0.038125 -0.005238
# 6 0.000044 -0.008123 -0.010273 -0.006838 -0.005238 0.030083
#
#
# Mechanical properties :
#
#
# Convention : Reuss Voigt Hill
#
# Bulk Modulus (GPa) = 20.88039 44.09332 32.48686
# Shear Modulus (GPa) = 31.73498 42.57647 37.15572
#
# Velocity S-wave (km/s) = 3.57007 4.13517 3.86297
# Velocity P-wave (km/s) = 5.03785 6.36461 5.73969
#
# Compressibility (1/GPa) = 0.04789183
#
# Stress axis : x y z
#
# Youngs Moduli (GPa) = 128.94049 61.55065 43.34397
#
# Poissons Ratio (x) = 0.06187 0.17654
# Poissons Ratio (y) = 0.12962 -0.23785
# Poissons Ratio (z) = 0.52518 -0.33776
#
# Static dielectric constant tensor:
#      x y z
#    x 1.881630 -0.033620 0.015930 
#    y -0.033620 2.075780 -0.023930 
#    z 0.015930 -0.023930 1.965810 
# 
# From -- ./inp_files/148254.got.cif
#   From: 2010.05.17/outbox.cif.g08.bks.cpg/sg2_75_cif.got.tgz:148254.got - 2010.06.03 11:33:40.
