data_PCOD9027016
_publ_section_title
;
Structure prediction by ZEFSAII (Michael W. Deem and Ramdas Pophale) SiO2 
 PCOD9027016
Probable space group: P -1
;
_chemical_formula_sum "Si O2"
_cell_formula_units_Z 14
_cell_length_a 14.281042
_cell_length_b 25.215921
_cell_length_c 24.920838
_cell_angle_alpha 168.393313
_cell_angle_beta 19.151786
_cell_angle_gamma 157.736282
_cell_volume 592.348006
_symmetry_space_group_name_H-M "P -1"
_symmetry_group_IT_number 2
_symmetry_cell_setting 'triclinic'
loop_
_space_group_symop_operation_xyz
x,y,z
-x,-y,-z
loop_
_atom_site_type_symbol
_atom_site_label
_atom_site_fract_x
_atom_site_fract_y
_atom_site_fract_z
Si Si1 0.308551 0.569768 0.377651
Si Si2 0.348448 0.588238 0.862937
Si Si3 0.166972 0.532980 0.197218
Si Si4 0.200609 0.047763 0.628358
Si Si5 0.248269 0.682156 0.699853
Si Si6 0.737873 0.909824 0.145055
Si Si7 0.829406 0.890698 0.574606
O O1 0.542383 0.504124 0.230397
O O2 0.000000 0.500000 0.500000
O O3 0.298336 0.872067 0.664940
O O4 0.353941 0.376682 0.111081
O O5 0.129618 0.377406 0.746470
O O6 0.625646 0.546795 0.633277
O O7 0.236599 0.879705 0.204379
O O8 0.105596 0.830580 0.507739
O O9 0.956059 0.433979 0.259545
O O10 0.500000 0.500000 0.000000
O O11 0.123806 0.337534 0.976416
O O12 0.538741 0.006214 0.396745
O O13 0.067565 0.978466 0.574125
O O14 0.537675 0.833083 0.709377
O O15 0.058489 0.873354 0.955314
#
# Coordination Sequence:
#
# PCOD9027016 Si02
#       7
#     2   2   2   2   2   2   2
#     4  12  22  40  67 102 128 169 223 269 324 384
#     4  10  22  41  66  94 134 165 222 271 321 381
#     4  12  26  43  69  99 132 173 218 270 331 386
#     4  12  27  46  66  97 139 169 221 268 324 399
#     4  10  25  40  71  93 135 170 223 270 330 376
#     4  12  25  40  68  99 131 173 215 275 328 377
#     4  10  23  44  66  93 137 175 213 270 327 381
#
# _framework density 23.634754999999998
#
# number of rings (size 3 to 8) (size 9 to 14) (size 15 to 20)
#    0.857    0.000    2.857    4.286    2.000    1.143 
#    0.000    4.286    0.000    0.000    0.000    0.000 
#    0.000    0.000    0.000    0.000    0.000    0.000 
#
# Total GULP energy -78369.822911 kJ/mol
# GULP energy per Si atom -5597.844494 kJ/mol
# Density = 2.358096 g / cm^3
# Si number density = 23.634755 Si / 1000 Ang^3
#
#
#
# Elastic Constant Matrix: (Units=GPa)
#
#
# Indices 1 2 3 4 5 6 
#
# 1 48.5263 13.4949 -4.4595 0.7925 -6.9723 6.7039
# 2 13.4949 81.8821 26.6959 -8.1590 -3.1954 -1.7668
# 3 -4.4595 26.6959 58.3524 3.3985 -0.8128 -8.3529
# 4 0.7925 -8.1590 3.3985 36.1458 -6.4389 1.4499
# 5 -6.9723 -3.1954 -0.8128 -6.4389 40.0934 7.0333
# 6 6.7039 -1.7668 -8.3529 1.4499 7.0333 33.3697
#
#
#
# Elastic Compliance Matrix: (Units=1/GPa)
#
#
# Indices 1 2 3 4 5 6 
#
# 1 0.023713 -0.005094 0.003540 -0.000995 0.004517 -0.005056
# 2 -0.005094 0.016216 -0.008156 0.004761 0.001111 -0.000601
# 3 0.003540 -0.008156 0.022067 -0.004389 -0.001136 0.004811
# 4 -0.000995 0.004761 -0.004389 0.030285 0.005530 -0.003128
# 5 0.004517 0.001111 -0.001136 0.005530 0.027955 -0.007265
# 6 -0.005056 -0.000601 0.004811 -0.003128 -0.007265 0.033823
#
#
# Mechanical properties :
#
#
# Convention : Reuss Voigt Hill
#
# Bulk Modulus (GPa) = 23.48723 28.91370 26.20047
# Shear Modulus (GPa) = 26.64214 32.12374 29.38294
#
# Velocity S-wave (km/s) = 3.36109 3.69070 3.52974
# Velocity P-wave (km/s) = 5.00217 5.51559 5.26514
#
# Compressibility (1/GPa) = 0.04257633
#
# Stress axis : x y z
#
# Youngs Moduli (GPa) = 42.17079 61.66713 45.31551
#
# Poissons Ratio (x) = 0.31415 -0.16041
# Poissons Ratio (y) = 0.21483 0.36959
# Poissons Ratio (z) = -0.14928 0.50295
#
# Static dielectric constant tensor:
#      x y z
#    x 1.875530 -0.009650 0.026930 
#    y -0.009650 1.919510 -0.004080 
#    z 0.026930 -0.004080 1.853720 
# 
# From -- ./inp_files/454901.got.cif
#   From: 2010.05.17/outbox.cif.g08.bks.cpg/sg2_228_cif.got.tgz:454901.got - 2010.06.03 11:33:40.
