data_PCOD9027448
_publ_section_title
;
Structure prediction by ZEFSAII (Michael W. Deem and Ramdas Pophale) SiO2 
 PCOD9027448
Probable space group: P -1
;
_chemical_formula_sum "Si O2"
_cell_formula_units_Z 16
_cell_length_a 9.199615
_cell_length_b 9.172483
_cell_length_c 12.334362
_cell_angle_alpha 139.870536
_cell_angle_beta 79.340430
_cell_angle_gamma 87.970652
_cell_volume 633.031285
_symmetry_space_group_name_H-M "P -1"
_symmetry_group_IT_number 2
_symmetry_cell_setting 'triclinic'
loop_
_space_group_symop_operation_xyz
x,y,z
-x,-y,-z
loop_
_atom_site_type_symbol
_atom_site_label
_atom_site_fract_x
_atom_site_fract_y
_atom_site_fract_z
Si Si1 0.598111 0.999243 0.110769
Si Si2 0.886462 0.819254 0.347548
Si Si3 0.622342 0.319562 0.457989
Si Si4 0.048548 0.961094 0.762638
Si Si5 0.275904 0.944159 0.073995
Si Si6 0.692072 0.530216 0.078238
Si Si7 0.407278 0.814238 0.375169
Si Si8 0.862800 0.607829 0.887155
O O1 0.610764 0.064001 0.270542
O O2 0.678608 0.150368 0.108243
O O3 0.419903 0.041961 0.137685
O O4 0.711573 0.743841 0.918424
O O5 0.952417 0.930812 0.297738
O O6 0.782901 0.664188 0.221398
O O7 0.008359 0.629799 0.296269
O O8 0.765490 0.037768 0.546032
O O9 0.500000 0.500000 0.500000
O O10 0.592475 0.332817 0.597546
O O11 0.805015 0.270523 0.385935
O O12 0.068040 0.178519 0.960839
O O13 0.896669 0.901537 0.793433
O O14 0.287413 0.725826 0.024941
O O15 0.510783 0.659332 0.181172
O O16 0.780786 0.527197 0.954288
O O17 0.500000 0.000000 0.500000
#
# Coordination Sequence:
#
# PCOD9027448 Si02
#       8
#     2   2   2   2   2   2   2   2
#     4  10  24  34  51  77 114 136 172 232 258 315
#     4   9  15  30  52  82 107 130 174 225 259 300
#     4  10  20  37  54  79 103 136 181 222 262 307
#     4   9  17  32  56  76 103 138 176 217 262 311
#     4  11  20  37  51  77 108 145 176 211 277 314
#     4  10  17  31  58  81 103 141 178 211 267 319
#     4   9  18  30  52  81 109 135 164 218 269 311
#     4  10  17  33  54  83 105 131 183 229 250 299
#
# _framework density 25.275213000000001
#
# number of rings (size 3 to 8) (size 9 to 14) (size 15 to 20)
#    0.000    2.250    2.500    3.750    0.000    2.500 
#    4.500    0.625    0.000    0.750    0.000    2.625 
#    0.000    0.000    0.000    0.000    0.000    0.000 
#
# Total GULP energy -89302.878384 kJ/mol
# GULP energy per Si atom -5581.429899 kJ/mol
# Density = 2.521769 g / cm^3
# Si number density = 25.275213 Si / 1000 Ang^3
#
#
#
# Elastic Constant Matrix: (Units=GPa)
#
#
# Indices 1 2 3 4 5 6 
#
# 1 118.9991 30.3683 46.1318 2.4929 -41.7625 4.9785
# 2 30.3683 62.7477 12.4984 12.2306 -23.1368 -2.9685
# 3 46.1318 12.4984 85.5961 8.2880 -38.8456 -8.7778
# 4 2.4929 12.2306 8.2880 28.5216 -9.3604 -21.7078
# 5 -41.7625 -23.1368 -38.8456 -9.3604 51.8486 3.3721
# 6 4.9785 -2.9685 -8.7778 -21.7078 3.3721 38.4944
#
#
#
# Elastic Compliance Matrix: (Units=1/GPa)
#
#
# Indices 1 2 3 4 5 6 
#
# 1 0.013272 -0.003708 -0.004118 0.001882 0.006450 -0.002445
# 2 -0.003708 0.021605 0.002657 -0.010117 0.007051 -0.003571
# 3 -0.004118 0.002657 0.019516 0.001303 0.012412 0.004835
# 4 0.001882 -0.010117 0.001303 0.070894 0.008271 0.038528
# 5 0.006450 0.007051 0.012412 0.008271 0.038169 0.003860
# 6 -0.002445 -0.003571 0.004835 0.038528 0.003860 0.048509
#
#
# Mechanical properties :
#
#
# Convention : Reuss Voigt Hill
#
# Bulk Modulus (GPa) = 22.69806 49.48220 36.09013
# Shear Modulus (GPa) = 21.09805 35.66256 28.38031
#
# Velocity S-wave (km/s) = 2.89231 3.76036 3.35453
# Velocity P-wave (km/s) = 4.48930 6.20271 5.41421
#
# Compressibility (1/GPa) = 0.04405663
#
# Stress axis : x y z
#
# Youngs Moduli (GPa) = 75.34536 46.28590 51.23904
#
# Poissons Ratio (x) = 0.17161 0.21098
# Poissons Ratio (y) = 0.27935 -0.13613
# Poissons Ratio (z) = 0.31024 -0.12297
#
# Static dielectric constant tensor:
#      x y z
#    x 2.110940 -0.094590 0.003110 
#    y -0.094590 2.077640 0.033370 
#    z 0.003110 0.033370 2.058590 
# 
# From -- ./inp_files/305294.got.cif
#   From: 2010.05.17/outbox.cif.g08.bks.cpg/sg2_153_cif.got.tgz:305294.got - 2010.06.03 11:33:40.
