data_PCOD9027548
_publ_section_title
;
Structure prediction by ZEFSAII (Michael W. Deem and Ramdas Pophale) SiO2 
 PCOD9027548
Probable space group: P -1
;
_chemical_formula_sum "Si O2"
_cell_formula_units_Z 16
_cell_length_a 9.821255
_cell_length_b 9.366375
_cell_length_c 14.525116
_cell_angle_alpha 90.656008
_cell_angle_beta 132.475687
_cell_angle_gamma 119.608423
_cell_volume 722.174992
_symmetry_space_group_name_H-M "P -1"
_symmetry_group_IT_number 2
_symmetry_cell_setting 'triclinic'
loop_
_space_group_symop_operation_xyz
x,y,z
-x,-y,-z
loop_
_atom_site_type_symbol
_atom_site_label
_atom_site_fract_x
_atom_site_fract_y
_atom_site_fract_z
Si Si1 0.773205 0.195373 0.586581
Si Si2 0.408038 0.611353 0.573524
Si Si3 0.293184 0.884153 0.982443
Si Si4 0.859946 0.264946 0.827815
Si Si5 0.348548 0.635156 0.135067
Si Si6 0.126643 0.229757 0.337013
Si Si7 0.719778 0.911606 0.860095
Si Si8 0.090239 0.116920 0.637374
O O1 0.743127 0.326305 0.519878
O O2 0.924686 0.302304 0.750975
O O3 0.914909 0.155684 0.587841
O O4 0.500000 0.000000 0.500000
O O5 0.236488 0.385857 0.469814
O O6 0.641584 0.721395 0.609648
O O7 0.529639 0.695868 0.729998
O O8 0.025080 0.760463 0.808622
O O9 0.316328 0.752279 0.051202
O O10 0.500000 0.000000 0.000000
O O11 0.344425 0.044609 0.074239
O O12 0.684947 0.305492 0.780483
O O13 0.730171 0.047467 0.792462
O O14 0.111146 0.409999 0.005069
O O15 0.613472 0.700814 0.239266
O O16 0.947758 0.018701 0.299593
O O17 0.000000 0.000000 0.000000
O O18 0.000000 0.000000 0.500000
#
# Coordination Sequence:
#
# PCOD9027548 Si02
#       8
#     2   2   2   2   2   2   2   2
#     4  12  22  41  69  94 130 171 220 264 320 383
#     4  11  24  42  68  99 129 171 219 273 314 387
#     4  11  22  40  67  92 129 170 208 265 329 383
#     4  10  22  41  68  94 122 170 216 266 320 382
#     4  10  23  42  66  95 130 163 217 267 323 383
#     4  11  23  43  68  98 130 170 220 263 328 385
#     4  11  22  39  64  95 128 165 217 262 321 381
#     4  12  26  42  66  96 134 173 212 266 328 382
#
# _framework density 22.155296
#
# number of rings (size 3 to 8) (size 9 to 14) (size 15 to 20)
#    0.000    1.000    5.000    1.500    1.750    1.500 
#    0.000    5.000    0.000    0.000    0.000    0.000 
#    0.000    0.000    0.000    0.000    0.000    0.000 
#
# Total GULP energy -89524.537787 kJ/mol
# GULP energy per Si atom -5595.283612 kJ/mol
# Density = 2.210487 g / cm^3
# Si number density = 22.155296 Si / 1000 Ang^3
#
#
#
# Elastic Constant Matrix: (Units=GPa)
#
#
# Indices 1 2 3 4 5 6 
#
# 1 160.1117 31.4858 47.4702 -1.6197 1.8759 -24.7909
# 2 31.4858 43.4161 8.7170 4.2059 0.6395 -10.9343
# 3 47.4702 8.7170 90.2160 5.0487 -11.4753 -20.1752
# 4 -1.6197 4.2059 5.0487 33.8265 0.1970 -1.9185
# 5 1.8759 0.6395 -11.4753 0.1970 42.9795 1.5128
# 6 -24.7909 -10.9343 -20.1752 -1.9185 1.5128 28.9151
#
#
#
# Elastic Compliance Matrix: (Units=1/GPa)
#
#
# Indices 1 2 3 4 5 6 
#
# 1 0.008887 -0.005014 -0.003734 0.001803 -0.001435 0.003312
# 2 -0.005014 0.028552 0.001758 -0.003628 0.000017 0.007483
# 3 -0.003734 0.001758 0.015238 -0.002256 0.003943 0.007739
# 4 0.001803 -0.003628 -0.002256 0.030479 -0.000790 0.000663
# 5 -0.001435 0.000017 0.003943 -0.000790 0.024379 0.000199
# 6 0.003312 0.007483 0.007739 0.000663 0.000199 0.045687
#
#
# Mechanical properties :
#
#
# Convention : Reuss Voigt Hill
#
# Bulk Modulus (GPa) = 25.84213 52.12111 38.98162
# Shear Modulus (GPa) = 27.76214 34.88228 31.32221
#
# Velocity S-wave (km/s) = 3.54371 3.97223 3.76408
# Velocity P-wave (km/s) = 5.33229 6.67941 6.04350
#
# Compressibility (1/GPa) = 0.03869649
#
# Stress axis : x y z
#
# Youngs Moduli (GPa) = 112.52737 35.02355 65.62482
#
# Poissons Ratio (x) = 0.17562 0.24506
# Poissons Ratio (y) = 0.56424 -0.11539
# Poissons Ratio (z) = 0.42021 -0.06158
#
# Static dielectric constant tensor:
#      x y z
#    x 1.790550 -0.026170 -0.054120 
#    y -0.026170 1.870270 0.152260 
#    z -0.054120 0.152260 2.308910 
# 
# From -- ./inp_files/358877.got.cif
#   From: 2010.05.17/outbox.cif.g08.bks.cpg/sg2_180_cif.got.tgz:358877.got - 2010.06.03 11:33:40.
