data_PCOD9027379
_publ_section_title
;
Structure prediction by ZEFSAII (Michael W. Deem and Ramdas Pophale) SiO2 
 PCOD9027379
Probable space group: P -1
;
_chemical_formula_sum "Si O2"
_cell_formula_units_Z 16
_cell_length_a 21.503926
_cell_length_b 8.545448
_cell_length_c 6.119596
_cell_angle_alpha 85.532239
_cell_angle_beta 60.324242
_cell_angle_gamma 46.499682
_cell_volume 644.112306
_symmetry_space_group_name_H-M "P -1"
_symmetry_group_IT_number 2
_symmetry_cell_setting 'triclinic'
loop_
_space_group_symop_operation_xyz
x,y,z
-x,-y,-z
loop_
_atom_site_type_symbol
_atom_site_label
_atom_site_fract_x
_atom_site_fract_y
_atom_site_fract_z
Si Si1 0.223679 0.339854 0.197096
Si Si2 0.213277 0.892934 0.320136
Si Si3 0.734037 0.439284 0.382656
Si Si4 0.664199 0.907841 0.381728
Si Si5 0.467422 0.389295 0.453766
Si Si6 0.949558 0.593436 0.323319
Si Si7 0.618180 0.130164 0.864368
Si Si8 0.885152 0.167953 0.799111
O O1 0.139191 0.398349 0.498827
O O2 0.189237 0.571711 0.197632
O O3 0.341877 0.109285 0.108449
O O4 0.236190 0.238633 0.946456
O O5 0.259027 0.670530 0.397104
O O6 0.307424 0.865780 0.143473
O O7 0.159676 0.925713 0.186362
O O8 0.115726 0.136138 0.592338
O O9 0.684754 0.695578 0.449824
O O10 0.654216 0.473089 0.354915
O O11 0.856698 0.238738 0.094442
O O12 0.547438 0.127032 0.446879
O O13 0.654751 0.062066 0.559226
O O14 0.500000 0.500000 0.500000
O O15 0.500581 0.347470 0.143143
O O16 0.000000 0.500000 0.500000
O O17 0.000000 0.500000 0.000000
O O18 0.000000 0.000000 0.500000
#
# Coordination Sequence:
#
# PCOD9027379 Si02
#       8
#     2   2   2   2   2   2   2   2
#     4   9  22  41  65  94 132 183 232 295 354 433
#     4  11  25  41  68  99 136 180 237 299 363 434
#     4  11  25  42  67 101 139 183 239 299 358 440
#     4  10  22  42  67  97 142 187 235 292 361 434
#     4  11  23  41  67 102 140 186 238 292 362 430
#     4  11  26  44  70 102 140 188 247 307 367 434
#     4  10  22  41  67  97 136 182 232 292 361 433
#     4  11  24  44  66  93 137 179 240 293 370 425
#
# _framework density 24.840389999999999
#
# number of rings (size 3 to 8) (size 9 to 14) (size 15 to 20)
#    0.000    1.500    0.000    3.375    7.000    5.000 
#    0.000    0.000    0.000    0.000    0.000    0.000 
#    0.000    0.000    0.000    0.000    0.000    0.000 
#
# Total GULP energy -89112.707668 kJ/mol
# GULP energy per Si atom -5569.544229 kJ/mol
# Density = 2.478385 g / cm^3
# Si number density = 24.840390 Si / 1000 Ang^3
#
#
#
# Elastic Constant Matrix: (Units=GPa)
#
#
# Indices 1 2 3 4 5 6 
#
# 1 70.9653 -4.3156 43.7117 14.3896 7.4622 7.8974
# 2 -4.3156 103.4416 16.3095 -10.0746 -1.7345 11.5300
# 3 43.7117 16.3095 155.8153 32.4761 -0.1554 11.7519
# 4 14.3896 -10.0746 32.4761 35.7942 2.4095 0.2288
# 5 7.4622 -1.7345 -0.1554 2.4095 26.9025 4.8910
# 6 7.8974 11.5300 11.7519 0.2288 4.8910 32.7841
#
#
#
# Elastic Compliance Matrix: (Units=1/GPa)
#
#
# Indices 1 2 3 4 5 6 
#
# 1 0.018232 0.001457 -0.004558 -0.002478 -0.004293 -0.002613
# 2 0.001457 0.010915 -0.002222 0.004490 0.000521 -0.003502
# 3 -0.004558 -0.002222 0.009679 -0.007712 0.002207 -0.001866
# 4 -0.002478 0.004490 -0.007712 0.037368 -0.002766 0.001934
# 5 -0.004293 0.000521 0.002207 -0.002766 0.039719 -0.005847
# 6 -0.002613 -0.003502 -0.001866 0.001934 -0.005847 0.033891
#
#
# Mechanical properties :
#
#
# Convention : Reuss Voigt Hill
#
# Bulk Modulus (GPa) = 35.48610 49.07039 42.27824
# Shear Modulus (GPa) = 29.43861 37.39728 33.41795
#
# Velocity S-wave (km/s) = 3.44628 3.88429 3.67182
# Velocity P-wave (km/s) = 5.49112 6.31776 5.91889
#
# Compressibility (1/GPa) = 0.02818005
#
# Stress axis : x y z
#
# Youngs Moduli (GPa) = 54.84795 91.61782 103.31169
#
# Poissons Ratio (x) = -0.13350 0.47089
# Poissons Ratio (y) = -0.07992 0.22961
# Poissons Ratio (z) = 0.25000 0.20362
#
# Static dielectric constant tensor:
#      x y z
#    x 2.040180 -0.053440 0.064470 
#    y -0.053440 2.067270 -0.127040 
#    z 0.064470 -0.127040 2.177720 
# 
# From -- ./inp_files/122903.got.cif
#   From: 2010.05.17/outbox.cif.g08.bks.cpg/sg2_62_cif.got.tgz:122903.got - 2010.06.03 11:33:40.
