data_PCOD9027317
_publ_section_title
;
Structure prediction by ZEFSAII (Michael W. Deem and Ramdas Pophale) SiO2 
 PCOD9027317
Probable space group: P -1
;
_chemical_formula_sum "Si O2"
_cell_formula_units_Z 14
_cell_length_a 14.773468
_cell_length_b 8.883754
_cell_length_c 20.292759
_cell_angle_alpha 150.160061
_cell_angle_beta 31.148716
_cell_angle_gamma 144.884932
_cell_volume 655.206894
_symmetry_space_group_name_H-M "P -1"
_symmetry_group_IT_number 2
_symmetry_cell_setting 'triclinic'
loop_
_space_group_symop_operation_xyz
x,y,z
-x,-y,-z
loop_
_atom_site_type_symbol
_atom_site_label
_atom_site_fract_x
_atom_site_fract_y
_atom_site_fract_z
Si Si1 0.760340 0.697386 0.079568
Si Si2 0.397347 0.716990 0.107510
Si Si3 0.672742 0.276973 0.306085
Si Si4 0.947427 0.555603 0.128996
Si Si5 0.278038 0.065862 0.423765
Si Si6 0.529212 0.760577 0.835191
Si Si7 0.941675 0.800441 0.625766
O O1 0.608685 0.571793 0.183817
O O2 0.782680 0.054279 0.182612
O O3 0.697914 0.491446 0.974047
O O4 0.934667 0.619406 0.968864
O O5 0.264923 0.834807 0.282846
O O6 0.511358 0.060013 0.136343
O O7 0.500000 0.500000 0.000000
O O8 0.753749 0.428950 0.242093
O O9 0.464060 0.055386 0.341714
O O10 0.679970 0.554489 0.459307
O O11 0.023858 0.931304 0.237473
O O12 0.000000 0.500000 0.000000
O O13 0.088371 0.951073 0.535878
O O14 0.735910 0.741518 0.704709
O O15 0.500000 0.000000 0.000000
O O16 0.000000 0.500000 0.500000
#
# Coordination Sequence:
#
# PCOD9027317 Si02
#       7
#     2   2   2   2   2   2   2
#     4  11  22  42  67  93 127 168 222 272 314 391
#     4  11  22  39  71  97 122 174 223 265 329 382
#     4  10  22  43  62  91 135 173 210 263 330 387
#     4  11  25  42  65  94 130 172 222 264 319 394
#     4  10  23  39  64  93 135 167 211 266 329 386
#     4  10  22  41  67  95 133 161 223 276 317 384
#     4  11  23  42  66  98 134 168 214 276 331 375
#
# _framework density 21.367297000000001
#
# number of rings (size 3 to 8) (size 9 to 14) (size 15 to 20)
#    0.000    1.429    4.286    1.286    4.000    1.714 
#    2.571    0.714    0.000    0.000    0.000    0.000 
#    0.000    0.000    0.000    0.000    0.000    0.000 
#
# Total GULP energy -78025.051624 kJ/mol
# GULP energy per Si atom -5573.217973 kJ/mol
# Density = 2.131866 g / cm^3
# Si number density = 21.367297 Si / 1000 Ang^3
#
#
#
# Elastic Constant Matrix: (Units=GPa)
#
#
# Indices 1 2 3 4 5 6 
#
# 1 70.6643 16.0011 43.7017 5.3559 -9.7050 -19.6444
# 2 16.0011 70.1519 32.2469 -12.4133 -12.7005 -13.0743
# 3 43.7017 32.2469 137.3152 8.1026 2.5263 -10.6104
# 4 5.3559 -12.4133 8.1026 49.6091 -1.3742 -13.0331
# 5 -9.7050 -12.7005 2.5263 -1.3742 36.8858 -2.7116
# 6 -19.6444 -13.0743 -10.6104 -13.0331 -2.7116 21.5673
#
#
#
# Elastic Compliance Matrix: (Units=1/GPa)
#
#
# Indices 1 2 3 4 5 6 
#
# 1 0.028790 0.008489 -0.009332 0.010019 0.014054 0.034599
# 2 0.008489 0.027599 -0.007926 0.016181 0.015253 0.032259
# 3 -0.009332 -0.007926 0.011669 -0.006302 -0.007120 -0.012267
# 4 0.010019 0.016181 -0.006302 0.034578 0.012745 0.038333
# 5 0.014054 0.015253 -0.007120 0.012745 0.039316 0.031190
# 6 0.034599 0.032259 -0.012267 0.038333 0.031190 0.118487
#
#
# Mechanical properties :
#
#
# Convention : Reuss Voigt Hill
#
# Bulk Modulus (GPa) = 19.79463 51.33674 35.56568
# Shear Modulus (GPa) = 16.95969 34.02457 25.49213
#
# Velocity S-wave (km/s) = 2.82036 3.99478 3.45779
# Velocity P-wave (km/s) = 4.45982 6.73466 5.71164
#
# Compressibility (1/GPa) = 0.05051876
#
# Stress axis : x y z
#
# Youngs Moduli (GPa) = 34.73430 36.23348 85.69889
#
# Poissons Ratio (x) = -0.30757 0.79977
# Poissons Ratio (y) = -0.29484 0.67921
# Poissons Ratio (z) = 0.32415 0.28717
#
# Static dielectric constant tensor:
#      x y z
#    x 1.815550 0.005260 0.022990 
#    y 0.005260 1.907960 0.048620 
#    z 0.022990 0.048620 1.870980 
# 
# From -- ./inp_files/347360.got.cif
#   From: 2010.05.17/outbox.cif.g08.bks.cpg/sg2_174_cif.got.tgz:347360.got - 2010.06.03 11:33:40.
