data_PCOD9027604
_publ_section_title
;
Structure prediction by ZEFSAII (Michael W. Deem and Ramdas Pophale) SiO2 
 PCOD9027604
Probable space group: P -1
;
_chemical_formula_sum "Si O2"
_cell_formula_units_Z 16
_cell_length_a 9.419736
_cell_length_b 16.801739
_cell_length_c 9.580962
_cell_angle_alpha 146.990761
_cell_angle_beta 75.511908
_cell_angle_gamma 105.389544
_cell_volume 795.350448
_symmetry_space_group_name_H-M "P -1"
_symmetry_group_IT_number 2
_symmetry_cell_setting 'triclinic'
loop_
_space_group_symop_operation_xyz
x,y,z
-x,-y,-z
loop_
_atom_site_type_symbol
_atom_site_label
_atom_site_fract_x
_atom_site_fract_y
_atom_site_fract_z
Si Si1 0.212596 0.294089 0.955229
Si Si2 0.381884 0.188569 0.254508
Si Si3 0.286014 0.896715 0.987726
Si Si4 0.085135 0.640517 0.754340
Si Si5 0.648731 0.564348 0.139801
Si Si6 0.720774 0.318593 0.970359
Si Si7 0.577757 0.641791 0.769008
Si Si8 0.172803 0.975525 0.437088
O O1 0.241304 0.362420 0.896660
O O2 0.252315 0.127032 0.700858
O O3 0.311804 0.391456 0.185121
O O4 0.044826 0.284496 0.029039
O O5 0.380185 0.309945 0.555556
O O6 0.338461 0.257347 0.220537
O O7 0.284797 0.038028 0.097410
O O8 0.549983 0.151519 0.136212
O O9 0.244698 0.949816 0.230499
O O10 0.172384 0.750963 0.785729
O O11 0.194128 0.610154 0.809392
O O12 0.000000 0.500000 0.500000
O O13 0.713336 0.433466 0.016367
O O14 0.500000 0.500000 0.000000
O O15 0.553175 0.283117 0.013032
O O16 0.795120 0.170392 0.701366
O O17 0.500000 0.500000 0.500000
O O18 0.000000 0.000000 0.500000
#
# Coordination Sequence:
#
# PCOD9027604 Si02
#       8
#     2   2   2   2   2   2   2   2
#     4  12  25  42  72  97 136 183 225 289 351 403
#     4  11  22  41  70  98 139 175 230 285 346 405
#     4  10  22  41  68  96 134 187 222 281 347 410
#     4  11  24  43  70  99 136 184 232 274 351 423
#     4  12  25  42  68 109 139 171 232 298 342 401
#     4  11  23  42  69  97 139 181 226 282 349 404
#     4  12  22  41  68 101 134 177 233 283 344 414
#     4  11  21  45  66  96 137 180 226 280 344 420
#
# _framework density 20.116917000000001
#
# number of rings (size 3 to 8) (size 9 to 14) (size 15 to 20)
#    0.000    0.750    8.750    0.750    1.750    1.000 
#    4.500    0.625    0.000    0.000    0.000    0.000 
#    0.000    0.000    0.000    0.000    0.000    0.000 
#
# Total GULP energy -89311.914685 kJ/mol
# GULP energy per Si atom -5581.994668 kJ/mol
# Density = 2.007113 g / cm^3
# Si number density = 20.116917 Si / 1000 Ang^3
#
#
#
# Elastic Constant Matrix: (Units=GPa)
#
#
# Indices 1 2 3 4 5 6 
#
# 1 84.8129 43.1703 26.3526 4.8848 -4.9490 1.4936
# 2 43.1703 165.6255 53.5268 17.2073 -2.2331 -5.2474
# 3 26.3526 53.5268 93.1799 14.7778 -4.6325 -0.3955
# 4 4.8848 17.2073 14.7778 35.4126 3.1239 -0.9923
# 5 -4.9490 -2.2331 -4.6325 3.1239 36.3396 2.6736
# 6 1.4936 -5.2474 -0.3955 -0.9923 2.6736 34.4624
#
#
#
# Elastic Compliance Matrix: (Units=1/GPa)
#
#
# Indices 1 2 3 4 5 6 
#
# 1 0.014107 -0.003000 -0.002241 0.000279 0.001516 -0.001203
# 2 -0.003000 0.008218 -0.003558 -0.002034 -0.000278 0.001304
# 3 -0.002241 -0.003558 0.014127 -0.004019 0.001661 -0.000527
# 4 0.000279 -0.002034 -0.004019 0.031182 -0.003338 0.000789
# 5 0.001516 -0.000278 0.001661 -0.003338 0.028382 -0.002387
# 6 -0.001203 0.001304 -0.000527 0.000789 -0.002387 0.029470
#
#
# Mechanical properties :
#
#
# Convention : Reuss Voigt Hill
#
# Bulk Modulus (GPa) = 53.03452 65.52418 59.27935
# Shear Modulus (GPa) = 33.47416 35.94751 34.71084
#
# Velocity S-wave (km/s) = 4.08362 4.23179 4.15837
# Velocity P-wave (km/s) = 6.97531 7.51797 7.25172
#
# Compressibility (1/GPa) = 0.01885564
#
# Stress axis : x y z
#
# Youngs Moduli (GPa) = 70.88559 121.67795 70.78424
#
# Poissons Ratio (x) = 0.36499 0.15860
# Poissons Ratio (y) = 0.21263 0.25188
# Poissons Ratio (z) = 0.15883 0.43299
#
# Static dielectric constant tensor:
#      x y z
#    x 1.736270 0.009010 -0.013880 
#    y 0.009010 1.725510 0.038650 
#    z -0.013880 0.038650 1.778120 
# 
# From -- ./inp_files/209219.got.cif
#   From: 2010.05.17/outbox.cif.g08.bks.cpg/sg2_105_cif.got.tgz:209219.got - 2010.06.03 11:33:40.
