data_PCOD9027366
_publ_section_title
;
Structure prediction by ZEFSAII (Michael W. Deem and Ramdas Pophale) SiO2 
 PCOD9027366
Probable space group: P -1
;
_chemical_formula_sum "Si O2"
_cell_formula_units_Z 16
_cell_length_a 17.155649
_cell_length_b 11.527474
_cell_length_c 12.170254
_cell_angle_alpha 63.045508
_cell_angle_beta 61.825088
_cell_angle_gamma 20.103102
_cell_volume 728.836232
_symmetry_space_group_name_H-M "P -1"
_symmetry_group_IT_number 2
_symmetry_cell_setting 'triclinic'
loop_
_space_group_symop_operation_xyz
x,y,z
-x,-y,-z
loop_
_atom_site_type_symbol
_atom_site_label
_atom_site_fract_x
_atom_site_fract_y
_atom_site_fract_z
Si Si1 0.840956 0.906479 0.729538
Si Si2 0.717214 0.168080 0.923651
Si Si3 0.872805 0.190542 0.151207
Si Si4 0.478960 0.158633 0.308484
Si Si5 0.722087 0.554465 0.455358
Si Si6 0.464428 0.401058 0.601625
Si Si7 0.190731 0.552790 0.112717
Si Si8 0.922165 0.680292 0.153985
O O1 0.024960 0.760433 0.624141
O O2 0.978269 0.596654 0.819192
O O3 0.685527 0.181035 0.810434
O O4 0.696044 0.049519 0.662662
O O5 0.500000 0.500000 0.000000
O O6 0.902804 0.030927 0.870604
O O7 0.831370 0.886209 0.023566
O O8 0.731704 0.348697 0.284157
O O9 0.736544 0.467440 0.036459
O O10 0.963230 0.939490 0.137492
O O11 0.294045 0.438694 0.405753
O O12 0.372561 0.312838 0.192170
O O13 0.574934 0.883126 0.381923
O O14 0.697315 0.957560 0.258793
O O15 0.604362 0.594485 0.456089
O O16 0.500000 0.500000 0.500000
O O17 0.112898 0.512915 0.154246
#
# Coordination Sequence:
#
# PCOD9027366 Si02
#       8
#     2   2   2   2   2   2   2   2
#     4  11  25  45  67  97 138 177 225 279 340 393
#     4  11  23  43  71 103 138 178 219 278 341 404
#     4  10  24  43  63 100 138 170 226 281 325 411
#     4  10  22  41  74  91 131 176 220 278 339 394
#     4  10  24  47  62 101 132 171 230 279 327 405
#     4  12  28  43  67  95 136 184 223 277 336 399
#     4  10  22  41  67  97 132 169 220 277 337 391
#     4  10  23  41  69 103 131 175 223 277 334 409
#
# _framework density 21.952805999999999
#
# number of rings (size 3 to 8) (size 9 to 14) (size 15 to 20)
#    0.000    1.500    1.250    1.875   10.500    1.500 
#    0.000    5.625    0.000    0.000    0.000    0.000 
#    0.000    0.000    0.000    0.000    0.000    0.000 
#
# Total GULP energy -89501.160584 kJ/mol
# GULP energy per Si atom -5593.822537 kJ/mol
# Density = 2.190284 g / cm^3
# Si number density = 21.952806 Si / 1000 Ang^3
#
#
#
# Elastic Constant Matrix: (Units=GPa)
#
#
# Indices 1 2 3 4 5 6 
#
# 1 98.5206 11.8370 40.4235 22.6258 -10.4033 -10.3187
# 2 11.8370 55.7561 32.0897 15.8048 -3.6702 -12.0961
# 3 40.4235 32.0897 100.6465 23.5945 -12.4414 -2.0660
# 4 22.6258 15.8048 23.5945 32.1379 0.2996 1.3492
# 5 -10.4033 -3.6702 -12.4414 0.2996 31.6440 -0.8184
# 6 -10.3187 -12.0961 -2.0660 1.3492 -0.8184 24.4442
#
#
#
# Elastic Compliance Matrix: (Units=1/GPa)
#
#
# Indices 1 2 3 4 5 6 
#
# 1 0.015071 0.004336 -0.004436 -0.009893 0.004035 0.008814
# 2 0.004336 0.028314 -0.007251 -0.012347 0.002389 0.015990
# 3 -0.004436 -0.007251 0.015481 -0.004552 0.003732 -0.003776
# 4 -0.009893 -0.012347 -0.004552 0.048133 -0.007281 -0.013571
# 5 0.004035 0.002389 0.003732 -0.007281 0.034865 0.004770
# 6 0.008814 0.015990 -0.003776 -0.013571 0.004770 0.053132
#
#
# Mechanical properties :
#
#
# Convention : Reuss Voigt Hill
#
# Bulk Modulus (GPa) = 22.64386 47.06928 34.85657
# Shear Modulus (GPa) = 22.27978 29.01675 25.64827
#
# Velocity S-wave (km/s) = 3.18920 3.63957 3.42180
# Velocity P-wave (km/s) = 4.88861 6.25697 5.61463
#
# Compressibility (1/GPa) = 0.04416208
#
# Stress axis : x y z
#
# Youngs Moduli (GPa) = 66.35414 35.31807 64.59731
#
# Poissons Ratio (x) = -0.15313 0.28659
# Poissons Ratio (y) = -0.28770 0.46839
# Poissons Ratio (z) = 0.29438 0.25609
#
# Static dielectric constant tensor:
#      x y z
#    x 1.788540 -0.006570 0.006320 
#    y -0.006570 1.807930 -0.016570 
#    z 0.006320 -0.016570 1.813320 
# 
# From -- ./inp_files/390464.got.cif
#   From: 2010.05.17/outbox.cif.g08.bks.cpg/sg2_196_cif.got.tgz:390464.got - 2010.06.03 11:33:40.
