data_PCOD9027774
_publ_section_title
;
Structure prediction by ZEFSAII (Michael W. Deem and Ramdas Pophale) SiO2 
 PCOD9027774
Probable space group: P -1
;
_chemical_formula_sum "Si O2"
_cell_formula_units_Z 16
_cell_length_a 9.414878
_cell_length_b 15.291956
_cell_length_c 8.596394
_cell_angle_alpha 121.423395
_cell_angle_beta 63.697727
_cell_angle_gamma 135.139935
_cell_volume 739.384082
_symmetry_space_group_name_H-M "P -1"
_symmetry_group_IT_number 2
_symmetry_cell_setting 'triclinic'
loop_
_space_group_symop_operation_xyz
x,y,z
-x,-y,-z
loop_
_atom_site_type_symbol
_atom_site_label
_atom_site_fract_x
_atom_site_fract_y
_atom_site_fract_z
Si Si1 0.219465 0.610711 0.801946
Si Si2 0.328166 0.249917 0.306446
Si Si3 0.187235 0.634067 0.191383
Si Si4 0.701118 0.131944 0.094231
Si Si5 0.328963 0.953819 0.663677
Si Si6 0.043843 0.937416 0.224311
Si Si7 0.013801 0.792870 0.418798
Si Si8 0.638009 0.805974 0.110390
O O1 0.434001 0.656504 0.679838
O O2 0.240087 0.740213 0.895285
O O3 0.001849 0.485790 0.730069
O O4 0.205667 0.584603 0.969559
O O5 0.218748 0.298082 0.496564
O O6 0.201372 0.096400 0.281250
O O7 0.323872 0.244249 0.112661
O O8 0.416299 0.708493 0.208096
O O9 0.119763 0.725369 0.279549
O O10 0.668740 0.134391 0.294244
O O11 0.876362 0.120068 0.979117
O O12 0.500000 0.000000 0.000000
O O13 0.123618 0.878332 0.598977
O O14 0.500000 0.000000 0.500000
O O15 0.368039 0.078662 0.839664
O O16 0.045074 0.883291 0.343243
O O17 0.819191 0.870333 0.206479
#
# Coordination Sequence:
#
# PCOD9027774 Si02
#       8
#     2   2   2   2   2   2   2   2
#     4  10  22  41  69  87 124 170 217 253 310 383
#     4  11  22  37  63  96 127 161 204 268 319 367
#     4  10  22  44  64  90 123 174 214 253 310 377
#     4  12  21  39  67  97 124 162 215 259 319 375
#     4  12  23  35  63  95 130 162 206 265 316 367
#     4  12  22  37  64  97 129 158 207 264 315 377
#     4  12  24  38  63  97 129 164 208 264 318 368
#     4  11  22  40  63  92 132 166 203 257 320 380
#
# _framework density 21.639633
#
# number of rings (size 3 to 8) (size 9 to 14) (size 15 to 20)
#    0.000    0.750    6.250    3.000    0.000    0.500 
#    0.000    1.250    2.750    0.000    0.000    0.000 
#    0.000    0.000    0.000    0.000    0.000    0.000 
#
# Total GULP energy -89213.658773 kJ/mol
# GULP energy per Si atom -5575.853673 kJ/mol
# Density = 2.159038 g / cm^3
# Si number density = 21.639633 Si / 1000 Ang^3
#
#
#
# Elastic Constant Matrix: (Units=GPa)
#
#
# Indices 1 2 3 4 5 6 
#
# 1 98.9389 59.3801 10.9471 -16.1753 -7.1584 33.7058
# 2 59.3801 120.8483 8.6452 -22.3399 9.9698 34.6088
# 3 10.9471 8.6452 60.3469 -22.8289 -4.2968 8.2207
# 4 -16.1753 -22.3399 -22.8289 20.4921 5.8945 -9.8076
# 5 -7.1584 9.9698 -4.2968 5.8945 37.3156 -12.1400
# 6 33.7058 34.6088 8.2207 -9.8076 -12.1400 35.2325
#
#
#
# Elastic Compliance Matrix: (Units=1/GPa)
#
#
# Indices 1 2 3 4 5 6 
#
# 1 0.017200 -0.004874 0.000354 0.003407 0.000665 -0.010572
# 2 -0.004874 0.019904 0.008017 0.023618 -0.013936 -0.014986
# 3 0.000354 0.008017 0.032456 0.044435 -0.007284 -0.005927
# 4 0.003407 0.023618 0.044435 0.129270 -0.023915 -0.009083
# 5 0.000665 -0.013936 -0.007284 -0.023915 0.040795 0.022152
# 6 -0.010572 -0.014986 -0.005927 -0.009083 0.022152 0.059706
#
#
# Mechanical properties :
#
#
# Convention : Reuss Voigt Hill
#
# Bulk Modulus (GPa) = 13.06269 48.67545 30.86907
# Shear Modulus (GPa) = 15.73039 32.01883 23.87461
#
# Velocity S-wave (km/s) = 2.69908 3.85078 3.32517
# Velocity P-wave (km/s) = 3.97026 6.50491 5.38873
#
# Compressibility (1/GPa) = 0.07655392
#
# Stress axis : x y z
#
# Youngs Moduli (GPa) = 58.13913 50.24126 30.81048
#
# Poissons Ratio (x) = 0.24489 -0.01092
# Poissons Ratio (y) = 0.28339 -0.24700
# Poissons Ratio (z) = -0.02060 -0.40276
#
# Static dielectric constant tensor:
#      x y z
#    x 1.871240 0.073870 -0.009960 
#    y 0.073870 1.890310 0.008970 
#    z -0.009960 0.008970 1.828820 
# 
# From -- ./inp_files/199764.got.cif
#   From: 2010.05.17/outbox.cif.g08.bks.cpg/sg2_100_cif.got.tgz:199764.got - 2010.06.03 11:33:40.
