data_PCOD9027400
_publ_section_title
;
Structure prediction by ZEFSAII (Michael W. Deem and Ramdas Pophale) SiO2 
 PCOD9027400
Probable space group: P -1
;
_chemical_formula_sum "Si O2"
_cell_formula_units_Z 14
_cell_length_a 17.060544
_cell_length_b 8.008856
_cell_length_c 20.974494
_cell_angle_alpha 38.241410
_cell_angle_beta 161.055916
_cell_angle_gamma 145.810061
_cell_volume 522.747960
_symmetry_space_group_name_H-M "P -1"
_symmetry_group_IT_number 2
_symmetry_cell_setting 'triclinic'
loop_
_space_group_symop_operation_xyz
x,y,z
-x,-y,-z
loop_
_atom_site_type_symbol
_atom_site_label
_atom_site_fract_x
_atom_site_fract_y
_atom_site_fract_z
Si Si1 0.918985 0.192904 0.598524
Si Si2 0.810041 0.588751 0.135287
Si Si3 0.292074 0.325200 0.733889
Si Si4 0.768800 0.175301 0.902980
Si Si5 0.365487 0.649487 0.502322
Si Si6 0.180005 0.444389 0.284961
Si Si7 0.573067 0.267029 0.850939
O O1 0.164559 0.387892 0.775539
O O2 0.027226 0.168516 0.618858
O O3 0.730396 0.366692 0.395485
O O4 0.823471 0.862539 0.652250
O O5 0.064637 0.530894 0.331073
O O6 0.535042 0.382572 0.952211
O O7 0.860860 0.912621 0.048909
O O8 0.349920 0.167400 0.764124
O O9 0.697207 0.267642 0.752298
O O10 0.569572 0.087537 0.837159
O O11 0.000000 0.500000 0.000000
O O12 0.332710 0.518101 0.446339
O O13 0.543141 0.547552 0.713984
O O14 0.500000 0.000000 0.500000
O O15 0.865628 0.364421 0.076266
#
# Coordination Sequence:
#
# PCOD9027400 Si02
#       7
#     2   2   2   2   2   2   2
#     4  11  25  48  70 100 135 183 233 282 341 401
#     4  12  23  46  68 101 141 181 226 282 346 399
#     4  11  26  45  73  99 136 182 235 284 334 403
#     4  10  22  41  67  98 136 177 222 278 337 410
#     4  12  27  41  69 104 140 181 224 276 346 415
#     4  11  25  46  68 100 142 181 222 283 347 399
#     4  11  23  44  65 102 134 178 233 275 336 408
#
# _framework density 26.781548000000001
#
# number of rings (size 3 to 8) (size 9 to 14) (size 15 to 20)
#    0.000    0.857    5.714    2.143    4.000    2.286 
#    0.000    0.714    0.000    0.000    0.000    0.000 
#    0.000    0.000    0.000    0.000    0.000    0.000 
#
# Total GULP energy -78366.614552 kJ/mol
# GULP energy per Si atom -5597.615325 kJ/mol
# Density = 2.672059 g / cm^3
# Si number density = 26.781548 Si / 1000 Ang^3
#
#
#
# Elastic Constant Matrix: (Units=GPa)
#
#
# Indices 1 2 3 4 5 6 
#
# 1 147.4663 1.5084 10.2306 -1.0216 14.5772 10.3110
# 2 1.5084 86.0711 29.9761 -16.5043 -3.2142 6.0938
# 3 10.2306 29.9761 155.1583 -18.0444 13.8121 5.7664
# 4 -1.0216 -16.5043 -18.0444 42.9116 -3.7602 -1.7280
# 5 14.5772 -3.2142 13.8121 -3.7602 50.1594 -0.5614
# 6 10.3110 6.0938 5.7664 -1.7280 -0.5614 15.3557
#
#
#
# Elastic Compliance Matrix: (Units=1/GPa)
#
#
# Indices 1 2 3 4 5 6 
#
# 1 0.007355 0.000162 -0.000163 -0.000223 -0.002156 -0.005046
# 2 0.000162 0.013534 -0.002121 0.004298 0.001680 -0.004138
# 3 -0.000163 -0.002121 0.007338 0.002027 -0.001976 -0.001649
# 4 -0.000223 0.004298 0.002027 0.025983 0.001738 0.000671
# 5 -0.002156 0.001680 -0.001976 0.001738 0.021373 0.002500
# 6 -0.005046 -0.004138 -0.001649 0.000671 0.002500 0.070938
#
#
# Mechanical properties :
#
#
# Convention : Reuss Voigt Hill
#
# Bulk Modulus (GPa) = 41.69637 52.45842 47.07739
# Shear Modulus (GPa) = 31.49388 44.81739 38.15564
#
# Velocity S-wave (km/s) = 3.43294 4.09521 3.77861
# Velocity P-wave (km/s) = 5.59610 6.48005 6.05423
#
# Compressibility (1/GPa) = 0.02398290
#
# Stress axis : x y z
#
# Youngs Moduli (GPa) = 135.95829 73.88741 136.26842
#
# Poissons Ratio (x) = -0.01195 0.02218
# Poissons Ratio (y) = -0.02199 0.28908
# Poissons Ratio (z) = 0.02213 0.15674
#
# Static dielectric constant tensor:
#      x y z
#    x 2.185290 0.014500 -0.000250 
#    y 0.014500 2.089910 0.032290 
#    z -0.000250 0.032290 2.092570 
# 
# From -- ./inp_files/327907.got.cif
#   From: 2010.05.17/outbox.cif.g08.bks.cpg/sg2_164_cif.got.tgz:327907.got - 2010.06.03 11:33:40.
