data_PCOD9027411
_publ_section_title
;
Structure prediction by ZEFSAII (Michael W. Deem and Ramdas Pophale) SiO2 
 PCOD9027411
Probable space group: P -1
;
_chemical_formula_sum "Si O2"
_cell_formula_units_Z 14
_cell_length_a 9.973534
_cell_length_b 10.270930
_cell_length_c 11.347168
_cell_angle_alpha 54.393855
_cell_angle_beta 141.164796
_cell_angle_gamma 119.007820
_cell_volume 591.501786
_symmetry_space_group_name_H-M "P -1"
_symmetry_group_IT_number 2
_symmetry_cell_setting 'triclinic'
loop_
_space_group_symop_operation_xyz
x,y,z
-x,-y,-z
loop_
_atom_site_type_symbol
_atom_site_label
_atom_site_fract_x
_atom_site_fract_y
_atom_site_fract_z
Si Si1 0.673097 0.879732 0.306178
Si Si2 0.357541 0.903492 0.283601
Si Si3 0.939040 0.159702 0.222199
Si Si4 0.687967 0.630251 0.241919
Si Si5 0.935180 0.365931 0.662183
Si Si6 0.255255 0.174235 0.234196
Si Si7 0.769548 0.461532 0.048383
O O1 0.462825 0.901822 0.228322
O O2 0.651537 0.731374 0.280808
O O3 0.866538 0.851671 0.544737
O O4 0.750578 0.036253 0.202539
O O5 0.175512 0.764129 0.258412
O O6 0.549329 0.863686 0.526049
O O7 0.280475 0.072620 0.186692
O O8 0.861975 0.338650 0.084259
O O9 0.040100 0.121567 0.186167
O O10 0.759970 0.454151 0.420577
O O11 0.888197 0.703786 0.265572
O O12 0.462132 0.612549 0.030268
O O13 0.064955 0.506542 0.749295
O O14 0.258508 0.363269 0.115489
#
# Coordination Sequence:
#
# PCOD9027411 Si02
#       7
#     2   2   2   2   2   2   2
#     4  10  22  42  68  96 132 176 218 266 326 390
#     4  10  22  42  68  96 132 176 218 266 326 390
#     4  10  22  41  67  99 133 172 218 269 325 388
#     4  11  24  43  67  97 133 173 216 270 327 386
#     4  11  24  43  67  97 133 173 216 270 327 386
#     4  10  22  41  67  99 133 172 218 269 325 388
#     4  12  24  42  68 102 130 170 218 276 320 390
#
# _framework density 23.668569000000002
#
# number of rings (size 3 to 8) (size 9 to 14) (size 15 to 20)
#    0.000    1.429    2.857    1.714    0.000    7.429 
#    0.000    0.000    0.000    0.000    0.000    0.000 
#    0.000    0.000    0.000    0.000    0.000    0.000 
#
# Total GULP energy -78417.447434 kJ/mol
# GULP energy per Si atom -5601.246245 kJ/mol
# Density = 2.361470 g / cm^3
# Si number density = 23.668569 Si / 1000 Ang^3
#
#
#
# Elastic Constant Matrix: (Units=GPa)
#
#
# Indices 1 2 3 4 5 6 
#
# 1 218.0874 82.1435 26.2676 -6.7489 27.6912 4.2291
# 2 82.1435 96.0135 23.4767 -13.4784 19.9420 10.4269
# 3 26.2676 23.4767 74.6024 -5.1565 15.8306 7.3372
# 4 -6.7489 -13.4784 -5.1565 46.5628 1.5499 8.9284
# 5 27.6912 19.9420 15.8306 1.5499 31.9777 -1.0594
# 6 4.2291 10.4269 7.3372 8.9284 -1.0594 37.7914
#
#
#
# Elastic Compliance Matrix: (Units=1/GPa)
#
#
# Indices 1 2 3 4 5 6 
#
# 1 0.007001 -0.005636 -0.000348 -0.000761 -0.002307 0.000954
# 2 -0.005636 0.018299 -0.001510 0.005599 -0.006242 -0.005623
# 3 -0.000348 -0.001510 0.015934 0.002145 -0.006860 -0.003337
# 4 -0.000761 0.005599 0.002145 0.024920 -0.005364 -0.007914
# 5 -0.002307 -0.006242 -0.006860 -0.005364 0.041007 0.005729
# 6 0.000954 -0.005623 -0.003337 -0.007914 0.005729 0.030584
#
#
# Mechanical properties :
#
#
# Convention : Reuss Voigt Hill
#
# Bulk Modulus (GPa) = 38.10078 72.49768 55.29923
# Shear Modulus (GPa) = 30.96320 40.38742 35.67531
#
# Velocity S-wave (km/s) = 3.62083 4.13531 3.88659
# Velocity P-wave (km/s) = 5.79768 7.31423 6.59966
#
# Compressibility (1/GPa) = 0.02624618
#
# Stress axis : x y z
#
# Youngs Moduli (GPa) = 142.84016 54.64816 62.75778
#
# Poissons Ratio (x) = 0.30798 0.02187
# Poissons Ratio (y) = 0.80500 0.09475
# Poissons Ratio (z) = 0.04978 0.08250
#
# Static dielectric constant tensor:
#      x y z
#    x 1.860650 0.009470 0.003280 
#    y 0.009470 1.843760 0.031620 
#    z 0.003280 0.031620 1.920410 
# 
# From -- ./inp_files/392250.got.cif
#   From: 2010.05.17/outbox.cif.g08.bks.cpg/sg2_197_cif.got.tgz:392250.got - 2010.06.03 11:33:40.
