data_PCOD9027564
_publ_section_title
;
Structure prediction by ZEFSAII (Michael W. Deem and Ramdas Pophale) SiO2 
 PCOD9027564
Probable space group: P -1
;
_chemical_formula_sum "Si O2"
_cell_formula_units_Z 16
_cell_length_a 20.928229
_cell_length_b 12.120726
_cell_length_c 8.252877
_cell_angle_alpha 127.438689
_cell_angle_beta 49.613153
_cell_angle_gamma 151.504731
_cell_volume 756.473405
_symmetry_space_group_name_H-M "P -1"
_symmetry_group_IT_number 2
_symmetry_cell_setting 'triclinic'
loop_
_space_group_symop_operation_xyz
x,y,z
-x,-y,-z
loop_
_atom_site_type_symbol
_atom_site_label
_atom_site_fract_x
_atom_site_fract_y
_atom_site_fract_z
Si Si1 0.964138 0.318466 0.506026
Si Si2 0.845466 0.352521 0.957617
Si Si3 0.555792 0.921446 0.875670
Si Si4 0.315340 0.105855 0.586869
Si Si5 0.321985 0.898476 0.658413
Si Si6 0.393911 0.684476 0.257100
Si Si7 0.079882 0.280011 0.028119
Si Si8 0.777018 0.736397 0.018887
O O1 0.952709 0.369897 0.749643
O O2 0.000000 0.500000 0.500000
O O3 0.065778 0.339063 0.279700
O O4 0.812914 0.054280 0.471897
O O5 0.898019 0.574929 0.017360
O O6 0.716820 0.159685 0.872359
O O7 0.774233 0.243363 0.151495
O O8 0.558922 0.810305 0.631148
O O9 0.473181 0.765545 0.029822
O O10 0.500000 0.000000 0.000000
O O11 0.330067 0.279206 0.786228
O O12 0.265732 0.936686 0.659998
O O13 0.337134 0.766049 0.437581
O O14 0.480892 0.157474 0.676511
O O15 0.270824 0.409383 0.193980
O O16 0.203211 0.335847 0.918698
O O17 0.933537 0.009038 0.987480
#
# Coordination Sequence:
#
# PCOD9027564 Si02
#       8
#     2   2   2   2   2   2   2   2
#     4   8  16  31  56  82 102 137 187 235 269 301
#     4   9  18  33  57  85 109 141 187 237 269 320
#     4  10  17  31  58  85 105 140 194 235 269 310
#     4  10  20  34  56  87 112 143 184 231 277 333
#     4  10  21  36  57  83 113 146 190 224 274 332
#     4  10  21  36  55  81 112 154 183 225 276 330
#     4   9  18  36  60  82 109 143 188 232 278 329
#     4  10  21  36  58  81 116 145 182 230 285 327
#
# _framework density 21.150774999999999
#
# number of rings (size 3 to 8) (size 9 to 14) (size 15 to 20)
#    0.000    2.500    1.250    0.750    3.500    1.000 
#    0.000    6.250   13.750    0.000    0.000    0.000 
#    0.000    0.000    0.000    0.000    0.000    0.000 
#
# Total GULP energy -89120.375760 kJ/mol
# GULP energy per Si atom -5570.023485 kJ/mol
# Density = 2.110263 g / cm^3
# Si number density = 21.150775 Si / 1000 Ang^3
#
#
#
# Elastic Constant Matrix: (Units=GPa)
#
#
# Indices 1 2 3 4 5 6 
#
# 1 57.2434 7.1557 37.6562 6.9388 -10.7862 0.3687
# 2 7.1557 64.0143 33.8703 18.4111 8.7249 6.7255
# 3 37.6562 33.8703 138.0177 11.3434 -19.1543 -8.9664
# 4 6.9388 18.4111 11.3434 35.5194 -0.0439 9.2931
# 5 -10.7862 8.7249 -19.1543 -0.0439 24.7863 2.9509
# 6 0.3687 6.7255 -8.9664 9.2931 2.9509 27.6228
#
#
#
# Elastic Compliance Matrix: (Units=1/GPa)
#
#
# Indices 1 2 3 4 5 6 
#
# 1 0.022289 0.000451 -0.005341 -0.002365 0.005641 -0.001948
# 2 0.000451 0.024559 -0.007541 -0.009438 -0.013843 -0.003779
# 3 -0.005341 -0.007541 0.012161 -0.000216 0.009138 0.004951
# 4 -0.002365 -0.009438 -0.000216 0.036279 0.003418 -0.010311
# 5 0.005641 -0.013843 0.009138 0.003418 0.054829 -0.000746
# 6 -0.001948 -0.003779 0.004951 -0.010311 -0.000746 0.042304
#
#
# Mechanical properties :
#
#
# Convention : Reuss Voigt Hill
#
# Bulk Modulus (GPa) = 29.28592 46.29332 37.78962
# Shear Modulus (GPa) = 21.86608 29.62526 25.74567
#
# Velocity S-wave (km/s) = 3.21879 3.74661 3.49269
# Velocity P-wave (km/s) = 5.26218 6.37581 5.84557
#
# Compressibility (1/GPa) = 0.03414610
#
# Stress axis : x y z
#
# Youngs Moduli (GPa) = 44.86607 40.71751 82.23157
#
# Poissons Ratio (x) = -0.01834 0.43919
# Poissons Ratio (y) = -0.02021 0.62010
# Poissons Ratio (z) = 0.23963 0.30705
#
# Static dielectric constant tensor:
#      x y z
#    x 1.794790 0.055290 -0.020760 
#    y 0.055290 1.863170 0.005060 
#    z -0.020760 0.005060 1.862310 
# 
# From -- ./inp_files/270470.got.cif
#   From: 2010.05.17/outbox.cif.g08.bks.cpg/sg2_136_cif.got.tgz:270470.got - 2010.06.03 11:33:40.
