data_PCOD9027627
_publ_section_title
;
Structure prediction by ZEFSAII (Michael W. Deem and Ramdas Pophale) SiO2 
 PCOD9027627
Probable space group: P -1
;
_chemical_formula_sum "Si O2"
_cell_formula_units_Z 14
_cell_length_a 12.653433
_cell_length_b 9.097762
_cell_length_c 9.304941
_cell_angle_alpha 64.492239
_cell_angle_beta 142.260848
_cell_angle_gamma 126.374663
_cell_volume 526.279037
_symmetry_space_group_name_H-M "P -1"
_symmetry_group_IT_number 2
_symmetry_cell_setting 'triclinic'
loop_
_space_group_symop_operation_xyz
x,y,z
-x,-y,-z
loop_
_atom_site_type_symbol
_atom_site_label
_atom_site_fract_x
_atom_site_fract_y
_atom_site_fract_z
Si Si1 0.350021 0.103601 0.212676
Si Si2 0.904296 0.749312 0.602345
Si Si3 0.761717 0.045355 0.317524
Si Si4 0.863707 0.566006 0.907558
Si Si5 0.450923 0.831986 0.296635
Si Si6 0.926737 0.708311 0.222350
Si Si7 0.342777 0.560027 0.745661
O O1 0.398412 0.130801 0.423043
O O2 0.542925 0.236276 0.273483
O O3 0.313616 0.907955 0.195059
O O4 0.197100 0.177707 0.976744
O O5 0.863216 0.720464 0.738076
O O6 0.771671 0.559001 0.462934
O O7 0.124793 0.820132 0.751679
O O8 0.813728 0.881674 0.401727
O O9 0.893697 0.166272 0.540028
O O10 0.550934 0.943022 0.210469
O O11 0.658001 0.383210 0.769558
O O12 0.955324 0.654487 0.118355
O O13 0.000000 0.500000 0.000000
O O14 0.809416 0.513016 0.258574
O O15 0.500000 0.500000 0.000000
#
# Coordination Sequence:
#
# PCOD9027627 Si02
#       7
#     2   2   2   2   2   2   2
#     4  10  22  41  68  97 133 176 225 275 331 397
#     4  10  22  44  69  98 138 177 222 277 336 400
#     4  10  24  43  73 100 132 178 228 277 334 395
#     4  12  28  44  66 102 142 175 223 279 339 396
#     4  11  25  41  67 100 137 172 224 278 334 393
#     4  10  24  43  71  97 134 178 226 272 338 403
#     4   9  19  40  68  98 129 172 226 273 327 397
#
# _framework density 26.601858
#
# number of rings (size 3 to 8) (size 9 to 14) (size 15 to 20)
#    0.000    1.714    1.429    0.857   10.000    3.429 
#    0.000    4.286    0.000    0.000    0.000    0.000 
#    0.000    0.000    0.000    0.000    0.000    0.000 
#
# Total GULP energy -78339.289978 kJ/mol
# GULP energy per Si atom -5595.663570 kJ/mol
# Density = 2.654131 g / cm^3
# Si number density = 26.601858 Si / 1000 Ang^3
#
#
#
# Elastic Constant Matrix: (Units=GPa)
#
#
# Indices 1 2 3 4 5 6 
#
# 1 132.9404 25.5534 21.1809 7.8702 -11.2188 11.3680
# 2 25.5534 90.6939 11.7616 5.5308 1.2425 15.7788
# 3 21.1809 11.7616 70.2820 11.0340 -23.8594 6.6622
# 4 7.8702 5.5308 11.0340 33.8228 3.2701 2.6137
# 5 -11.2188 1.2425 -23.8594 3.2701 53.8633 -9.9816
# 6 11.3680 15.7788 6.6622 2.6137 -9.9816 52.1980
#
#
#
# Elastic Compliance Matrix: (Units=1/GPa)
#
#
# Indices 1 2 3 4 5 6 
#
# 1 0.008373 -0.001960 -0.001601 -0.001143 0.001005 -0.000777
# 2 -0.001960 0.012481 -0.001801 -0.000523 -0.002109 -0.003493
# 3 -0.001601 -0.001801 0.018863 -0.006345 0.008529 0.000434
# 4 -0.001143 -0.000523 -0.006345 0.032608 -0.005280 -0.001426
# 5 0.001005 -0.002109 0.008529 -0.005280 0.023686 0.004124
# 6 -0.000777 -0.003493 0.000434 -0.001426 0.004124 0.021188
#
#
# Mechanical properties :
#
#
# Convention : Reuss Voigt Hill
#
# Bulk Modulus (GPa) = 34.49193 45.65645 40.07419
# Shear Modulus (GPa) = 36.34092 43.67152 40.00622
#
# Velocity S-wave (km/s) = 3.70009 4.05615 3.88221
# Velocity P-wave (km/s) = 5.59003 6.25593 5.93233
#
# Compressibility (1/GPa) = 0.02899229
#
# Stress axis : x y z
#
# Youngs Moduli (GPa) = 119.43148 80.12498 53.01487
#
# Poissons Ratio (x) = 0.15708 0.08487
# Poissons Ratio (y) = 0.23413 0.09546
# Poissons Ratio (z) = 0.19120 0.14427
#
# Static dielectric constant tensor:
#      x y z
#    x 2.073350 0.066630 0.056350 
#    y 0.066630 2.113310 -0.112620 
#    z 0.056350 -0.112620 2.202650 
# 
# From -- ./inp_files/158884.got.cif
#   From: 2010.05.17/outbox.cif.g08.bks.cpg/sg2_80_cif.got.tgz:158884.got - 2010.06.03 11:33:40.
