data_PCOD9027763
_publ_section_title
;
Structure prediction by ZEFSAII (Michael W. Deem and Ramdas Pophale) SiO2 
 PCOD9027763
Probable space group: P -1
;
_chemical_formula_sum "Si O2"
_cell_formula_units_Z 14
_cell_length_a 13.621040
_cell_length_b 25.237687
_cell_length_c 14.228370
_cell_angle_alpha 21.131008
_cell_angle_beta 20.628256
_cell_angle_gamma 24.130310
_cell_volume 590.142275
_symmetry_space_group_name_H-M "P -1"
_symmetry_group_IT_number 2
_symmetry_cell_setting 'triclinic'
loop_
_space_group_symop_operation_xyz
x,y,z
-x,-y,-z
loop_
_atom_site_type_symbol
_atom_site_label
_atom_site_fract_x
_atom_site_fract_y
_atom_site_fract_z
Si Si1 0.218695 0.099390 0.141448
Si Si2 0.885781 0.377727 0.860331
Si Si3 0.672541 0.326912 0.599517
Si Si4 0.109254 0.291064 0.103440
Si Si5 0.162777 0.053640 0.682137
Si Si6 0.188669 0.768556 0.019173
Si Si7 0.807265 0.574825 0.775781
O O1 0.206098 0.153341 0.170365
O O2 0.000000 0.000000 0.500000
O O3 0.133109 0.256129 0.898973
O O4 0.500000 0.000000 0.000000
O O5 0.797230 0.270743 0.039550
O O6 0.703806 0.477411 0.945767
O O7 0.000000 0.500000 0.500000
O O8 0.500000 0.500000 0.500000
O O9 0.814622 0.312389 0.391987
O O10 0.963280 0.231617 0.553260
O O11 0.401110 0.258843 0.958298
O O12 0.027491 0.451113 0.851495
O O13 0.500000 0.000000 0.500000
O O14 0.127563 0.948535 0.798686
O O15 0.000000 0.000000 0.000000
O O16 0.960518 0.691769 0.397765
O O17 0.510166 0.675415 0.925057
#
# Coordination Sequence:
#
# PCOD9027763 Si02
#       7
#     2   2   2   2   2   2   2
#     4  11  25  43  71 105 153 188 228 296 357 437
#     4   9  22  43  67 106 139 186 236 276 348 428
#     4  12  28  49  77 102 139 188 245 305 355 436
#     4  11  25  45  74 105 145 184 244 280 371 425
#     4  12  29  49  71 103 139 181 240 301 366 415
#     4  11  23  40  72  96 143 178 233 286 352 405
#     4  10  22  41  69 106 138 184 220 287 338 437
#
# _framework density 23.723091
#
# number of rings (size 3 to 8) (size 9 to 14) (size 15 to 20)
#    0.000    1.143    0.000    4.286   10.000    8.000 
#    0.000    0.000    0.000    0.000    0.000    0.000 
#    0.000    0.000    0.000    0.000    0.000    0.000 
#
# Total GULP energy -78143.994710 kJ/mol
# GULP energy per Si atom -5581.713908 kJ/mol
# Density = 2.366910 g / cm^3
# Si number density = 23.723091 Si / 1000 Ang^3
#
#
#
# Elastic Constant Matrix: (Units=GPa)
#
#
# Indices 1 2 3 4 5 6 
#
# 1 65.8950 38.4190 5.9420 -0.4992 -9.2949 5.1168
# 2 38.4190 173.2726 40.3965 16.0119 -8.3844 25.0483
# 3 5.9420 40.3965 76.9666 22.5409 -5.2430 1.8264
# 4 -0.4992 16.0119 22.5409 45.4507 -1.8093 -2.3615
# 5 -9.2949 -8.3844 -5.2430 -1.8093 39.0188 -4.4351
# 6 5.1168 25.0483 1.8264 -2.3615 -4.4351 33.2907
#
#
#
# Elastic Compliance Matrix: (Units=1/GPa)
#
#
# Indices 1 2 3 4 5 6 
#
# 1 0.018054 -0.004257 0.000598 0.001599 0.003654 0.000996
# 2 -0.004257 0.008498 -0.003557 -0.001588 -0.000389 -0.005709
# 3 0.000598 -0.003557 0.016935 -0.007010 0.001483 0.001356
# 4 0.001599 -0.001588 -0.007010 0.026254 0.000689 0.003288
# 5 0.003654 -0.000389 0.001483 0.000689 0.027022 0.003298
# 6 0.000996 -0.005709 0.001356 0.003288 0.003298 0.034779
#
#
# Mechanical properties :
#
#
# Convention : Reuss Voigt Hill
#
# Bulk Modulus (GPa) = 34.41953 53.96104 44.19028
# Shear Modulus (GPa) = 32.12140 38.97717 35.54928
#
# Velocity S-wave (km/s) = 3.68369 4.05780 3.87526
# Velocity P-wave (km/s) = 5.71254 6.68954 6.22025
#
# Compressibility (1/GPa) = 0.02905328
#
# Stress axis : x y z
#
# Youngs Moduli (GPa) = 55.38922 117.67803 59.04829
#
# Poissons Ratio (x) = 0.50099 -0.03529
# Poissons Ratio (y) = 0.23581 0.21005
# Poissons Ratio (z) = -0.03310 0.41861
#
# Static dielectric constant tensor:
#      x y z
#    x 1.959690 -0.062870 -0.035290 
#    y -0.062870 1.774820 -0.014900 
#    z -0.035290 -0.014900 1.860750 
# 
# From -- ./inp_files/535708.got.cif
#   From: 2010.05.17/outbox.cif.g08.bks.cpg/sg2_268_cif.got.tgz:535708.got - 2010.06.03 11:33:40.
