data_PCOD9027999
_publ_section_title
;
Structure prediction by ZEFSAII (Michael W. Deem and Ramdas Pophale) SiO2 
 PCOD9027999
Probable space group: P -1
;
_chemical_formula_sum "Si O2"
_cell_formula_units_Z 13
_cell_length_a 11.028681
_cell_length_b 8.127986
_cell_length_c 14.058433
_cell_angle_alpha 96.818188
_cell_angle_beta 142.794812
_cell_angle_gamma 57.408492
_cell_volume 509.192482
_symmetry_space_group_name_H-M "P -1"
_symmetry_group_IT_number 2
_symmetry_cell_setting 'triclinic'
loop_
_space_group_symop_operation_xyz
x,y,z
-x,-y,-z
loop_
_atom_site_type_symbol
_atom_site_label
_atom_site_fract_x
_atom_site_fract_y
_atom_site_fract_z
Si Si1 0.552478 0.495040 0.771627
Si Si2 0.047034 0.254974 0.394095
Si Si3 0.937134 0.119638 0.149322
Si Si4 0.992040 0.303179 0.868676
Si Si5 0.500000 0.000000 0.500000
Si Si6 0.346461 0.966929 0.745438
Si Si7 0.053451 0.607775 0.354708
O O1 0.388241 0.749179 0.735431
O O2 0.342885 0.513013 0.574860
O O3 0.802253 0.424243 0.853941
O O4 0.689690 0.299766 0.927135
O O5 0.859458 0.240133 0.213117
O O6 0.369406 0.051535 0.530246
O O7 0.946504 0.503158 0.328670
O O8 0.105887 0.181595 0.534333
O O9 0.217957 0.059452 0.289520
O O10 0.028045 0.873854 0.191169
O O11 0.872089 0.482593 0.715112
O O12 0.334118 0.145162 0.079657
O O13 0.212444 0.100448 0.772436
#
# Coordination Sequence:
#
# PCOD9027999 Si02
#       7
#     2   2   2   2   1   2   2
#     4  12  25  43  70 101 132 179 232 277 332 396
#     4  10  22  41  70  95 133 177 223 275 335 393
#     4  10  22  42  69 101 132 168 224 288 330 394
#     4  12  25  43  70 101 132 179 232 277 332 396
#     4   8  20  38  70  92 132 158 228 262 342 364
#     4  12  26  45  66 100 142 180 221 277 340 401
#     4  12  26  45  66 100 142 180 221 277 340 401
#
# _framework density 25.530619999999999
#
# number of rings (size 3 to 8) (size 9 to 14) (size 15 to 20)
#    0.923    0.000    0.000    7.385    2.154    0.000 
#    0.000    2.308    0.000    0.000    0.000    0.000 
#    0.000    0.000    0.000    0.000    0.000    0.000 
#
# Total GULP energy -72586.522891 kJ/mol
# GULP energy per Si atom -5583.578684 kJ/mol
# Density = 2.547251 g / cm^3
# Si number density = 25.530620 Si / 1000 Ang^3
#
#
#
# Elastic Constant Matrix: (Units=GPa)
#
#
# Indices 1 2 3 4 5 6 
#
# 1 103.0164 11.2032 18.8706 1.7217 -0.3215 -19.4471
# 2 11.2032 78.7792 -1.2612 12.7740 32.0825 -9.5153
# 3 18.8706 -1.2612 92.1040 24.3403 2.5536 1.8276
# 4 1.7217 12.7740 24.3403 27.8800 1.8741 3.9016
# 5 -0.3215 32.0825 2.5536 1.8741 17.5840 10.8675
# 6 -19.4471 -9.5153 1.8276 3.9016 10.8675 41.7169
#
#
#
# Elastic Compliance Matrix: (Units=1/GPa)
#
#
# Indices 1 2 3 4 5 6 
#
# 1 0.011279 -0.001825 -0.002996 0.002057 0.000951 0.004533
# 2 -0.001825 -0.077303 -0.016990 0.047897 0.181291 -0.069446
# 3 -0.002996 -0.016990 0.011010 -0.002074 0.039337 -0.015808
# 4 0.002057 0.047897 -0.002074 0.017657 -0.113602 0.039917
# 5 0.000951 0.181291 0.039337 -0.113602 -0.356163 0.143478
# 6 0.004533 -0.069446 -0.015808 0.039917 0.143478 -0.030174
#
#
# Mechanical properties :
#
#
# Convention : Reuss Voigt Hill
#
# Bulk Modulus (GPa) = -10.13813 36.83611 13.34899
# Shear Modulus (GPa) = -12.10799 33.77530 10.83365
#
# Velocity S-wave (km/s) = -2.18010 3.64116 2.06219
# Velocity P-wave (km/s) = 3.21196 5.66894 3.30305
#
# Compressibility (1/GPa) = -0.09863757
#
# Stress axis : x y z
#
# Youngs Moduli (GPa) = 88.66285 -12.93610 90.82959
#
# Poissons Ratio (x) = -0.02361 0.27210
# Poissons Ratio (y) = 0.16183 1.54324
# Poissons Ratio (z) = 0.26561 -0.21979
#
# Static dielectric constant tensor:
#      x y z
#    x 2.001020 -0.131210 -0.024340 
#    y -0.131210 2.221110 -0.077380 
#    z -0.024340 -0.077380 2.035720 
# 
# From -- ./inp_files/513293.got.cif
#   From: 2010.05.17/outbox.cif.g08.bks.cpg/sg2_257_cif.got.tgz:513293.got - 2010.06.03 11:33:40.
