data_PCOD9027725
_publ_section_title
;
Structure prediction by ZEFSAII (Michael W. Deem and Ramdas Pophale) SiO2 
 PCOD9027725
Probable space group: P -1
;
_chemical_formula_sum "Si O2"
_cell_formula_units_Z 13
_cell_length_a 5.504052
_cell_length_b 6.118473
_cell_length_c 19.051632
_cell_angle_alpha 106.678831
_cell_angle_beta 61.180520
_cell_angle_gamma 87.156866
_cell_volume 524.798932
_symmetry_space_group_name_H-M "P -1"
_symmetry_group_IT_number 2
_symmetry_cell_setting 'triclinic'
loop_
_space_group_symop_operation_xyz
x,y,z
-x,-y,-z
loop_
_atom_site_type_symbol
_atom_site_label
_atom_site_fract_x
_atom_site_fract_y
_atom_site_fract_z
Si Si1 0.500000 0.500000 0.500000
Si Si2 0.273121 0.072231 0.434896
Si Si3 0.053927 0.185559 0.177230
Si Si4 0.474481 0.368142 0.712970
Si Si5 0.725829 0.660559 0.976676
Si Si6 0.085745 0.319300 0.335225
Si Si7 0.245006 0.223775 0.866337
O O1 0.368669 0.266945 0.485407
O O2 0.748151 0.398101 0.397464
O O3 0.179736 0.187521 0.382915
O O4 0.511973 0.839665 0.363825
O O5 0.000000 0.000000 0.500000
O O6 0.801932 0.421913 0.235135
O O7 0.266248 0.215986 0.087748
O O8 0.171239 0.173942 0.238687
O O9 0.914484 0.968767 0.158636
O O10 0.750478 0.471487 0.672159
O O11 0.475334 0.261706 0.781094
O O12 0.029120 0.478047 0.921302
O O13 0.500000 0.500000 0.000000
O O14 0.681017 0.822729 0.066712
#
# Coordination Sequence:
#
# PCOD9027725 Si02
#       7
#     1   2   2   2   2   2   2
#     4  12  26  48  74 102 136 184 244 294 366 428
#     4  12  28  50  74 103 143 188 241 305 362 430
#     4  11  25  44  71 104 143 189 237 292 362 428
#     4  11  24  46  70 101 145 187 238 294 359 428
#     4  10  22  41  69 102 141 186 232 291 356 419
#     4  12  26  44  70 105 139 184 240 298 363 432
#     4  10  22  42  68 103 141 186 237 289 349 427
#
# _framework density 24.771391999999999
#
# number of rings (size 3 to 8) (size 9 to 14) (size 15 to 20)
#    0.000    0.923    1.538    4.615    2.154    7.385 
#    2.769    0.000    0.000    0.000    0.000    0.000 
#    0.000    0.000    0.000    0.000    0.000    0.000 
#
# Total GULP energy -72588.243020 kJ/mol
# GULP energy per Si atom -5583.711002 kJ/mol
# Density = 2.471501 g / cm^3
# Si number density = 24.771392 Si / 1000 Ang^3
#
#
#
# Elastic Constant Matrix: (Units=GPa)
#
#
# Indices 1 2 3 4 5 6 
#
# 1 26.6592 37.6174 30.3775 -16.1071 7.0396 9.8999
# 2 37.6174 144.6505 75.5774 -16.2406 14.8905 22.4925
# 3 30.3775 75.5774 141.2801 -3.9568 -8.3692 0.1746
# 4 -16.1071 -16.2406 -3.9568 64.4569 20.6763 0.3060
# 5 7.0396 14.8905 -8.3692 20.6763 40.3818 -2.8338
# 6 9.8999 22.4925 0.1746 0.3060 -2.8338 52.8350
#
#
#
# Elastic Compliance Matrix: (Units=1/GPa)
#
#
# Indices 1 2 3 4 5 6 
#
# 1 0.118822 -0.004977 -0.024470 0.042167 -0.047143 -0.022837
# 2 -0.004977 0.013980 -0.006772 0.004592 -0.008427 -0.005475
# 3 -0.024470 -0.006772 0.016620 -0.012329 0.017110 0.008402
# 4 0.042167 0.004592 -0.012329 0.036483 -0.031100 -0.011694
# 5 -0.047143 -0.008427 0.017110 -0.031100 0.056653 0.015583
# 6 -0.022837 -0.005475 0.008402 -0.011694 0.015583 0.026413
#
#
# Mechanical properties :
#
#
# Convention : Reuss Voigt Hill
#
# Bulk Modulus (GPa) = 12.98968 66.63715 39.81341
# Shear Modulus (GPa) = 13.62134 42.80256 28.21195
#
# Velocity S-wave (km/s) = 2.34750 4.16131 3.37841
# Velocity P-wave (km/s) = 3.55005 7.07446 5.59691
#
# Compressibility (1/GPa) = 0.07698421
#
# Stress axis : x y z
#
# Youngs Moduli (GPa) = 8.41595 71.52857 60.16762
#
# Poissons Ratio (x) = 0.35602 1.47227
# Poissons Ratio (y) = 0.04189 0.40748
# Poissons Ratio (z) = 0.20593 0.48442
#
# Static dielectric constant tensor:
#      x y z
#    x 2.000260 -0.073990 -0.013360 
#    y -0.073990 1.876280 0.028650 
#    z -0.013360 0.028650 1.932450 
# 
# From -- ./inp_files/4366.got.cif
#   From: 2010.05.17/outbox.cif.g08.bks.cpg/sg2_3_cif.got.tgz:4366.got - 2010.06.03 11:33:40.
