data_PCOD9027057
_publ_section_title
;
Structure prediction by ZEFSAII (Michael W. Deem and Ramdas Pophale) SiO2 
 PCOD9027057
Probable space group: P -1
;
_chemical_formula_sum "Si O2"
_cell_formula_units_Z 12
_cell_length_a 5.114277
_cell_length_b 9.604839
_cell_length_c 12.439854
_cell_angle_alpha 109.723205
_cell_angle_beta 102.672246
_cell_angle_gamma 74.109023
_cell_volume 547.769300
_symmetry_space_group_name_H-M "P -1"
_symmetry_group_IT_number 2
_symmetry_cell_setting 'triclinic'
loop_
_space_group_symop_operation_xyz
x,y,z
-x,-y,-z
loop_
_atom_site_type_symbol
_atom_site_label
_atom_site_fract_x
_atom_site_fract_y
_atom_site_fract_z
Si Si1 0.799393 0.891577 0.482332
Si Si2 0.430963 0.495666 0.118853
Si Si3 0.018016 0.311101 0.127151
Si Si4 0.118786 0.118528 0.277701
Si Si5 0.440940 0.197043 0.765298
Si Si6 0.241122 0.073516 0.920875
O O1 0.902862 0.818030 0.586983
O O2 0.770732 0.791462 0.349637
O O3 0.500000 0.000000 0.500000
O O4 0.000000 0.000000 0.500000
O O5 0.177304 0.425685 0.113445
O O6 0.402939 0.667810 0.198006
O O7 0.715618 0.391147 0.158701
O O8 0.500000 0.500000 0.000000
O O9 0.180368 0.235771 0.226617
O O10 0.981041 0.826268 0.992708
O O11 0.353289 0.965850 0.263045
O O12 0.865354 0.054637 0.188979
O O13 0.308767 0.190667 0.868976
O O14 0.500000 0.000000 0.000000
#
# Coordination Sequence:
#
# PCOD9027057 Si02
#       6
#     2   2   2   2   2   2
#     4  10  22  41  66  96 124 166 218 272 313 367
#     4  12  26  42  61  94 138 169 209 257 328 390
#     4  12  26  41  62  97 132 171 205 264 328 383
#     4  11  24  42  68  94 131 165 224 268 319 378
#     4  11  24  41  68  94 128 172 219 263 317 384
#     4  12  22  38  67 100 130 162 217 270 325 379
#
# _framework density 21.907033999999999
#
# number of rings (size 3 to 8) (size 9 to 14) (size 15 to 20)
#    0.000    0.667    5.000    3.000    2.333    0.000 
#    0.000    1.667    0.000    0.000    0.000    0.000 
#    0.000    0.000    0.000    0.000    0.000    0.000 
#
# Total GULP energy -67089.852735 kJ/mol
# GULP energy per Si atom -5590.821061 kJ/mol
# Density = 2.185717 g / cm^3
# Si number density = 21.907034 Si / 1000 Ang^3
#
#
#
# Elastic Constant Matrix: (Units=GPa)
#
#
# Indices 1 2 3 4 5 6 
#
# 1 67.5114 -2.1138 3.6399 -9.0269 6.5470 9.9111
# 2 -2.1138 67.6450 19.9953 -15.5268 -3.6756 15.8289
# 3 3.6399 19.9953 153.2883 -28.5603 -5.0746 19.2217
# 4 -9.0269 -15.5268 -28.5603 20.0344 5.8793 3.3468
# 5 6.5470 -3.6756 -5.0746 5.8793 28.8068 1.0573
# 6 9.9111 15.8289 19.2217 3.3468 1.0573 40.0224
#
#
#
# Elastic Compliance Matrix: (Units=1/GPa)
#
#
# Indices 1 2 3 4 5 6 
#
# 1 0.021057 0.007981 0.004827 0.027019 -0.007964 -0.012738
# 2 0.007981 0.025182 0.004881 0.034111 -0.004078 -0.017025
# 3 0.004827 0.004881 0.011773 0.025490 -0.003205 -0.010827
# 4 0.027019 0.034111 0.025490 0.139194 -0.024113 -0.043427
# 5 -0.007964 -0.004078 -0.003205 -0.024113 0.040137 0.006081
# 6 -0.012738 -0.017025 -0.010827 -0.043427 0.006081 0.043545
#
#
# Mechanical properties :
#
#
# Convention : Reuss Voigt Hill
#
# Bulk Modulus (GPa) = 10.70786 36.83193 23.76989
# Shear Modulus (GPa) = 18.07407 35.56760 26.82084
#
# Velocity S-wave (km/s) = 2.87546 4.03373 3.50280
# Velocity P-wave (km/s) = 3.99034 6.20838 5.21856
#
# Compressibility (1/GPa) = 0.09338936
#
# Stress axis : x y z
#
# Youngs Moduli (GPa) = 47.49016 39.71166 84.93844
#
# Poissons Ratio (x) = -0.31694 -0.40997
# Poissons Ratio (y) = -0.37902 -0.41459
# Poissons Ratio (z) = -0.22922 -0.19384
#
# Static dielectric constant tensor:
#      x y z
#    x 1.854520 -0.022860 -0.007150 
#    y -0.022860 1.829370 -0.033700 
#    z -0.007150 -0.033700 1.919270 
# 
# From -- ./inp_files/478628.got.cif
#   From: 2010.05.17/outbox.cif.g08.bks.cpg/sg2_240_cif.got.tgz:478628.got - 2010.06.03 11:33:40.
