data_PCOD9027529
_publ_section_title
;
Structure prediction by ZEFSAII (Michael W. Deem and Ramdas Pophale) SiO2 
 PCOD9027529
Probable space group: P -1
;
_chemical_formula_sum "Si O2"
_cell_formula_units_Z 14
_cell_length_a 11.805386
_cell_length_b 9.046296
_cell_length_c 8.717464
_cell_angle_alpha 52.910372
_cell_angle_beta 125.009085
_cell_angle_gamma 118.940952
_cell_volume 594.557560
_symmetry_space_group_name_H-M "P -1"
_symmetry_group_IT_number 2
_symmetry_cell_setting 'triclinic'
loop_
_space_group_symop_operation_xyz
x,y,z
-x,-y,-z
loop_
_atom_site_type_symbol
_atom_site_label
_atom_site_fract_x
_atom_site_fract_y
_atom_site_fract_z
Si Si1 0.571361 0.228469 0.718706
Si Si2 0.899303 0.402498 0.223850
Si Si3 0.739539 0.654277 0.095746
Si Si4 0.719917 0.986796 0.345244
Si Si5 0.824644 0.049017 0.045449
Si Si6 0.890541 0.690724 0.772334
Si Si7 0.505795 0.487344 0.767060
O O1 0.446011 0.041900 0.734472
O O2 0.556670 0.322918 0.813458
O O3 0.536068 0.371518 0.476985
O O4 0.721918 0.183772 0.829304
O O5 0.865167 0.541331 0.241009
O O6 0.050804 0.364896 0.311875
O O7 0.805137 0.196771 0.319299
O O8 0.858602 0.505484 0.971025
O O9 0.634604 0.592361 0.194650
O O10 0.810448 0.874508 0.028940
O O11 0.630121 0.596049 0.906056
O O12 0.773677 0.814025 0.576895
O O13 0.757210 0.971480 0.205164
O O14 0.979791 0.167112 0.131172
#
# Coordination Sequence:
#
# PCOD9027529 Si02
#       7
#     2   2   2   2   2   2   2
#     4  11  23  43  70 100 127 181 227 267 323 412
#     4  10  22  41  68  92 129 178 218 273 324 391
#     4  11  23  41  62 102 141 168 211 287 343 378
#     4  11  22  43  70  99 129 181 228 271 319 411
#     4  11  23  40  68  98 136 171 223 276 332 392
#     4  10  23  46  70  95 130 184 231 261 325 415
#     4  10  23  40  65  96 142 171 220 270 341 396
#
# _framework density 23.546921999999999
#
# number of rings (size 3 to 8) (size 9 to 14) (size 15 to 20)
#    0.000    1.429    1.429    4.714    4.000    5.714 
#    5.143    2.857    0.000    0.000    0.000    0.000 
#    0.000    0.000    0.000    0.000    0.000    0.000 
#
# Total GULP energy -78312.811909 kJ/mol
# GULP energy per Si atom -5593.772279 kJ/mol
# Density = 2.349333 g / cm^3
# Si number density = 23.546922 Si / 1000 Ang^3
#
#
#
# Elastic Constant Matrix: (Units=GPa)
#
#
# Indices 1 2 3 4 5 6 
#
# 1 82.5081 39.8730 0.7426 7.3086 9.1049 -6.7528
# 2 39.8730 99.4170 12.3983 -18.9018 15.0533 -21.7235
# 3 0.7426 12.3983 61.2455 -15.8282 7.2977 10.4969
# 4 7.3086 -18.9018 -15.8282 20.6828 0.9075 8.5432
# 5 9.1049 15.0533 7.2977 0.9075 31.6505 -0.2346
# 6 -6.7528 -21.7235 10.4969 8.5432 -0.2346 34.3540
#
#
#
# Elastic Compliance Matrix: (Units=1/GPa)
#
#
# Indices 1 2 3 4 5 6 
#
# 1 0.019444 -0.010713 -0.004477 -0.021719 0.001185 0.003825
# 2 -0.010713 0.020589 0.001876 0.022432 -0.007751 0.004709
# 3 -0.004477 0.001876 0.027705 0.031424 -0.007012 -0.016021
# 4 -0.021719 0.022432 0.031424 0.112728 -0.015105 -0.027822
# 5 0.001185 -0.007751 -0.007012 -0.015105 0.037002 0.001483
# 6 0.003825 0.004709 -0.016021 -0.027822 0.001483 0.044663
#
#
# Mechanical properties :
#
#
# Convention : Reuss Voigt Hill
#
# Bulk Modulus (GPa) = 24.32536 38.79982 31.56259
# Shear Modulus (GPa) = 16.53108 30.01457 23.27282
#
# Velocity S-wave (km/s) = 2.65249 3.57413 3.14723
# Velocity P-wave (km/s) = 4.44229 5.79189 5.16139
#
# Compressibility (1/GPa) = 0.04110937
#
# Stress axis : x y z
#
# Youngs Moduli (GPa) = 51.43069 48.56989 36.09475
#
# Poissons Ratio (x) = 0.52033 0.16159
# Poissons Ratio (y) = 0.55098 -0.06771
# Poissons Ratio (z) = 0.23025 -0.09111
#
# Static dielectric constant tensor:
#      x y z
#    x 1.904320 0.005700 0.007430 
#    y 0.005700 1.904100 0.015970 
#    z 0.007430 0.015970 1.891180 
# 
# From -- ./inp_files/184504.got.cif
#   From: 2010.05.17/outbox.cif.g08.bks.cpg/sg2_93_cif.got.tgz:184504.got - 2010.06.03 11:33:40.
