data_PCOD9027992
_publ_section_title
;
Structure prediction by ZEFSAII (Michael W. Deem and Ramdas Pophale) SiO2 
 PCOD9027992
Probable space group: P -1
;
_chemical_formula_sum "Si O2"
_cell_formula_units_Z 14
_cell_length_a 14.948713
_cell_length_b 14.117709
_cell_length_c 9.023400
_cell_angle_alpha 65.006364
_cell_angle_beta 134.086087
_cell_angle_gamma 151.533747
_cell_volume 543.500209
_symmetry_space_group_name_H-M "P -1"
_symmetry_group_IT_number 2
_symmetry_cell_setting 'triclinic'
loop_
_space_group_symop_operation_xyz
x,y,z
-x,-y,-z
loop_
_atom_site_type_symbol
_atom_site_label
_atom_site_fract_x
_atom_site_fract_y
_atom_site_fract_z
Si Si1 0.696288 0.398548 0.007341
Si Si2 0.760342 0.687820 0.792257
Si Si3 0.934323 0.062182 0.309282
Si Si4 0.437849 0.877770 0.370267
Si Si5 0.571912 0.472279 0.231894
Si Si6 0.025275 0.684609 0.455979
Si Si7 0.884698 0.344213 0.123805
O O1 0.752844 0.562494 0.924435
O O2 0.380001 0.146975 0.866732
O O3 0.750968 0.359689 0.965192
O O4 0.922842 0.535098 0.302475
O O5 0.500000 0.500000 0.500000
O O6 0.689588 0.712173 0.831365
O O7 0.022821 0.907391 0.839071
O O8 0.163888 0.306178 0.497487
O O9 0.000000 0.000000 0.500000
O O10 0.222506 0.621514 0.329055
O O11 0.500000 0.000000 0.500000
O O12 0.735597 0.065777 0.517001
O O13 0.259183 0.810371 0.086158
O O14 0.722787 0.498609 0.288157
O O15 0.500000 0.500000 0.000000
O O16 0.181280 0.761358 0.730008
#
# Coordination Sequence:
#
# PCOD9027992 Si02
#       7
#     2   2   2   2   2   2   2
#     4  12  23  43  72 103 144 185 243 291 357 434
#     4  10  22  41  70  94 139 183 231 295 354 413
#     4  11  22  42  70 101 134 187 240 292 365 427
#     4  11  25  47  73 104 144 184 245 296 357 424
#     4  11  22  45  66  99 144 183 241 299 353 417
#     4  12  25  47  70 103 149 189 237 302 352 430
#     4  11  27  47  73 107 143 192 240 290 365 430
#
# _framework density 25.758959999999998
#
# number of rings (size 3 to 8) (size 9 to 14) (size 15 to 20)
#    0.000    0.857    5.714    1.714    0.000    6.857 
#    2.571    1.429    0.000    0.000    0.000    0.000 
#    0.000    0.000    0.000    0.000    0.000    0.000 
#
# Total GULP energy -78161.638174 kJ/mol
# GULP energy per Si atom -5582.974155 kJ/mol
# Density = 2.570033 g / cm^3
# Si number density = 25.758960 Si / 1000 Ang^3
#
#
#
# Elastic Constant Matrix: (Units=GPa)
#
#
# Indices 1 2 3 4 5 6 
#
# 1 122.1008 50.8651 20.6423 0.5509 -18.0009 34.6176
# 2 50.8651 117.0168 31.1551 2.7052 5.8358 47.3426
# 3 20.6423 31.1551 129.9163 -1.5610 -23.6065 8.6221
# 4 0.5509 2.7052 -1.5610 39.7490 5.0662 0.7051
# 5 -18.0009 5.8358 -23.6065 5.0662 52.7245 4.5173
# 6 34.6176 47.3426 8.6221 0.7051 4.5173 49.5381
#
#
#
# Elastic Compliance Matrix: (Units=1/GPa)
#
#
# Indices 1 2 3 4 5 6 
#
# 1 0.011827 -0.003067 0.000142 -0.000482 0.004984 -0.005806
# 2 -0.003067 0.015747 -0.003051 -0.000544 -0.003068 -0.012087
# 3 0.000142 -0.003051 0.009154 -0.000012 0.004415 0.000821
# 4 -0.000482 -0.000544 -0.000012 0.025523 -0.002625 0.000734
# 5 0.004984 -0.003068 0.004415 -0.002625 0.023531 -0.003428
# 6 -0.005806 -0.012087 0.000821 0.000734 -0.003428 0.035954
#
#
# Mechanical properties :
#
#
# Convention : Reuss Voigt Hill
#
# Bulk Modulus (GPa) = 40.36280 63.81763 52.09021
# Shear Modulus (GPa) = 35.22443 46.16044 40.69244
#
# Velocity S-wave (km/s) = 3.70193 4.23781 3.97891
# Velocity P-wave (km/s) = 5.82888 6.98385 6.43234
#
# Compressibility (1/GPa) = 0.02477529
#
# Stress axis : x y z
#
# Youngs Moduli (GPa) = 84.55394 63.50347 109.24117
#
# Poissons Ratio (x) = 0.19477 -0.01547
# Poissons Ratio (y) = 0.25934 0.33328
# Poissons Ratio (z) = -0.01197 0.19374
#
# Static dielectric constant tensor:
#      x y z
#    x 2.092350 -0.025280 -0.000800 
#    y -0.025280 2.093600 0.005900 
#    z -0.000800 0.005900 2.032200 
# 
# From -- ./inp_files/314999.got.cif
#   From: 2010.05.17/outbox.cif.g08.bks.cpg/sg2_158_cif.got.tgz:314999.got - 2010.06.03 11:33:40.
