data_PCOD9027136
_publ_section_title
;
Structure prediction by ZEFSAII (Michael W. Deem and Ramdas Pophale) SiO2 
 PCOD9027136
Probable space group: P -1
;
_chemical_formula_sum "Si O2"
_cell_formula_units_Z 16
_cell_length_a 20.473676
_cell_length_b 11.885074
_cell_length_c 17.250467
_cell_angle_alpha 149.746625
_cell_angle_beta 160.412209
_cell_angle_gamma 30.013367
_cell_volume 674.442250
_symmetry_space_group_name_H-M "P -1"
_symmetry_group_IT_number 2
_symmetry_cell_setting 'triclinic'
loop_
_space_group_symop_operation_xyz
x,y,z
-x,-y,-z
loop_
_atom_site_type_symbol
_atom_site_label
_atom_site_fract_x
_atom_site_fract_y
_atom_site_fract_z
Si Si1 0.685411 0.191866 0.437437
Si Si2 0.828503 0.028821 0.759467
Si Si3 0.915499 0.514620 0.501867
Si Si4 0.303429 0.287334 0.909699
Si Si5 0.418177 0.429546 0.582713
Si Si6 0.924228 0.731505 0.928947
Si Si7 0.158036 0.951719 0.844053
Si Si8 0.261052 0.275853 0.040807
O O1 0.667494 0.416540 0.498421
O O2 0.911881 0.067331 0.645400
O O3 0.647020 0.982980 0.218441
O O4 0.488930 0.259738 0.313660
O O5 0.804378 0.782973 0.558900
O O6 0.614856 0.209099 0.654270
O O7 0.000000 0.000000 0.000000
O O8 0.930662 0.140017 0.872583
O O9 0.000000 0.500000 0.500000
O O10 0.106405 0.426466 0.722204
O O11 0.792269 0.325529 0.258717
O O12 0.255024 0.313111 0.962996
O O13 0.486148 0.395979 0.159651
O O14 0.225988 0.349021 0.345971
O O15 0.082601 0.498839 0.004487
O O16 0.775208 0.910943 0.929488
O O17 0.217422 0.043872 0.884394
#
# Coordination Sequence:
#
# PCOD9027136 Si02
#       8
#     2   2   2   2   2   2   2   2
#     4  10  22  41  66  98 137 171 218 282 344 397
#     4  12  24  48  68  94 134 186 236 270 334 401
#     4  11  23  46  72  91 136 185 222 279 337 395
#     4  10  22  45  66 100 136 172 227 284 333 407
#     4  11  22  41  68  98 132 176 228 278 334 400
#     4  12  24  41  67 101 139 174 224 284 336 404
#     4  11  25  42  67 103 139 174 222 283 337 408
#     4  11  21  41  67 103 134 172 223 276 348 399
#
# _framework density 23.723303999999999
#
# number of rings (size 3 to 8) (size 9 to 14) (size 15 to 20)
#    0.000    1.000    6.250    1.875    0.000    4.000 
#    9.000    1.875    0.000    0.000    0.000    0.000 
#    0.000    0.000    0.000    0.000    0.000    0.000 
#
# Total GULP energy -89431.036018 kJ/mol
# GULP energy per Si atom -5589.439751 kJ/mol
# Density = 2.366931 g / cm^3
# Si number density = 23.723304 Si / 1000 Ang^3
#
#
#
# Elastic Constant Matrix: (Units=GPa)
#
#
# Indices 1 2 3 4 5 6 
#
# 1 55.7695 14.0491 11.7293 5.9707 3.7176 5.8238
# 2 14.0491 139.2121 21.5571 29.6267 12.2219 -10.0739
# 3 11.7293 21.5571 84.4415 13.1923 16.3856 -6.7507
# 4 5.9707 29.6267 13.1923 49.4744 -3.4114 2.3384
# 5 3.7176 12.2219 16.3856 -3.4114 29.2218 6.7912
# 6 5.8238 -10.0739 -6.7507 2.3384 6.7912 31.7796
#
#
#
# Elastic Compliance Matrix: (Units=1/GPa)
#
#
# Indices 1 2 3 4 5 6 
#
# 1 0.019477 -0.001962 -0.002790 -0.000123 0.001055 -0.005000
# 2 -0.001962 0.009539 0.000362 -0.006221 -0.005872 0.005173
# 3 -0.002790 0.000362 0.015511 -0.005058 -0.010609 0.006560
# 4 -0.000123 -0.006221 -0.005058 0.026341 0.010188 -0.007139
# 5 0.001055 -0.005872 -0.010609 0.010188 0.047200 -0.015144
# 6 -0.005000 0.005173 0.006560 -0.007139 -0.015144 0.039178
#
#
# Mechanical properties :
#
#
# Convention : Reuss Voigt Hill
#
# Bulk Modulus (GPa) = 27.97378 41.56600 34.76989
# Shear Modulus (GPa) = 28.09913 37.56768 32.83341
#
# Velocity S-wave (km/s) = 3.44532 3.98374 3.72427
# Velocity P-wave (km/s) = 5.25778 6.22249 5.76037
#
# Compressibility (1/GPa) = 0.03574776
#
# Stress axis : x y z
#
# Youngs Moduli (GPa) = 51.34289 104.83257 64.47096
#
# Poissons Ratio (x) = 0.20567 0.17986
# Poissons Ratio (y) = 0.10073 -0.02335
# Poissons Ratio (z) = 0.14324 -0.03797
#
# Static dielectric constant tensor:
#      x y z
#    x 1.923280 0.001550 -0.033140 
#    y 0.001550 1.912160 0.029060 
#    z -0.033140 0.029060 1.974320 
# 
# From -- ./inp_files/578054.got.cif
#   From: 2010.05.17/outbox.cif.g08.bks.cpg/sg2_290_cif.got.tgz:578054.got - 2010.06.03 11:33:40.
