data_PCOD9027761
_publ_section_title
;
Structure prediction by ZEFSAII (Michael W. Deem and Ramdas Pophale) SiO2 
 PCOD9027761
Probable space group: P -1
;
_chemical_formula_sum "Si O2"
_cell_formula_units_Z 15
_cell_length_a 11.492245
_cell_length_b 6.819719
_cell_length_c 15.009874
_cell_angle_alpha 86.318410
_cell_angle_beta 134.299433
_cell_angle_gamma 118.143410
_cell_volume 673.653765
_symmetry_space_group_name_H-M "P -1"
_symmetry_group_IT_number 2
_symmetry_cell_setting 'triclinic'
loop_
_space_group_symop_operation_xyz
x,y,z
-x,-y,-z
loop_
_atom_site_type_symbol
_atom_site_label
_atom_site_fract_x
_atom_site_fract_y
_atom_site_fract_z
Si Si1 0.482311 0.814310 0.757670
Si Si2 0.886805 0.245061 0.253664
Si Si3 0.364503 0.230541 0.975641
Si Si4 0.000000 0.500000 0.500000
Si Si5 0.025713 0.291342 0.798931
Si Si6 0.228373 0.181853 0.407377
Si Si7 0.406567 0.423047 0.313913
Si Si8 0.805256 0.336026 0.839166
O O1 0.521840 0.798538 0.883240
O O2 0.246858 0.643459 0.608651
O O3 0.586759 0.711949 0.762331
O O4 0.611895 0.098754 0.790800
O O5 0.863593 0.433472 0.183449
O O6 0.929834 0.325026 0.376964
O O7 0.084389 0.266933 0.326336
O O8 0.707911 0.970271 0.134665
O O9 0.500000 0.500000 0.000000
O O10 0.168880 0.214159 0.907225
O O11 0.874134 0.252993 0.795313
O O12 0.905099 0.111315 0.655523
O O13 0.358361 0.270104 0.383310
O O14 0.378059 0.315394 0.564891
O O15 0.248264 0.482673 0.221718
O O16 0.000000 0.500000 0.000000
#
# Coordination Sequence:
#
# PCOD9027761 Si02
#       8
#     2   2   2   1   2   2   2   2
#     4  12  27  48  73 109 150 189 250 304 369 440
#     4  11  24  48  74 105 147 190 250 302 365 441
#     4  11  27  50  73 103 146 204 248 302 361 440
#     4  12  28  48  74 104 146 202 250 304 358 436
#     4  11  23  42  74 105 143 191 237 297 377 440
#     4  10  22  41  69 105 147 184 227 299 369 434
#     4  11  23  42  70 108 148 181 234 302 367 433
#     4  12  26  41  72 111 146 190 236 304 376 443
#
# _framework density 22.266632999999999
#
# number of rings (size 3 to 8) (size 9 to 14) (size 15 to 20)
#    0.000    0.800    4.000    2.400    3.733    5.867 
#    0.000    2.667    0.000    0.000    0.000    0.000 
#    0.000    0.000    0.000    0.000    0.000    0.000 
#
# Total GULP energy -83566.542542 kJ/mol
# GULP energy per Si atom -5571.102836 kJ/mol
# Density = 2.221595 g / cm^3
# Si number density = 22.266633 Si / 1000 Ang^3
#
#
#
# Elastic Constant Matrix: (Units=GPa)
#
#
# Indices 1 2 3 4 5 6 
#
# 1 87.3432 20.4466 12.9452 5.4259 -14.5532 -6.5651
# 2 20.4466 92.1282 41.2321 22.6046 -10.0166 -8.1982
# 3 12.9452 41.2321 126.3895 21.3367 -14.4609 -7.7151
# 4 5.4259 22.6046 21.3367 29.3892 -8.0365 0.5100
# 5 -14.5532 -10.0166 -14.4609 -8.0365 41.0290 -2.6491
# 6 -6.5651 -8.1982 -7.7151 0.5100 -2.6491 24.7659
#
#
#
# Elastic Compliance Matrix: (Units=1/GPa)
#
#
# Indices 1 2 3 4 5 6 
#
# 1 0.012898 -0.002231 0.000017 0.000451 0.004327 0.003140
# 2 -0.002231 0.015294 -0.002939 -0.009187 0.000351 0.003783
# 3 0.000017 -0.002939 0.010017 -0.004484 0.002100 0.002469
# 4 0.000451 -0.009187 -0.004484 0.045710 0.004985 -0.004727
# 5 0.004327 0.000351 0.002100 0.004985 0.028021 0.004812
# 6 0.003140 0.003783 0.002469 -0.004727 0.004812 0.043844
#
#
# Mechanical properties :
#
#
# Convention : Reuss Voigt Hill
#
# Bulk Modulus (GPa) = 35.83734 50.56762 43.20248
# Shear Modulus (GPa) = 28.50804 34.45263 31.48034
#
# Velocity S-wave (km/s) = 3.58201 3.93781 3.76412
# Velocity P-wave (km/s) = 5.76518 6.59048 6.19160
#
# Compressibility (1/GPa) = 0.02790386
#
# Stress axis : x y z
#
# Youngs Moduli (GPa) = 77.53270 65.38579 99.83069
#
# Poissons Ratio (x) = 0.14588 -0.00174
# Poissons Ratio (y) = 0.17298 0.29338
# Poissons Ratio (z) = -0.00135 0.19215
#
# Static dielectric constant tensor:
#      x y z
#    x 1.861350 0.007380 0.030110 
#    y 0.007380 1.868490 0.010500 
#    z 0.030110 0.010500 1.849810 
# 
# From -- ./inp_files/511054.got.cif
#   From: 2010.05.17/outbox.cif.g08.bks.cpg/sg2_256_cif.got.tgz:511054.got - 2010.06.03 11:33:40.
