data_PCOD9027443
_publ_section_title
;
Structure prediction by ZEFSAII (Michael W. Deem and Ramdas Pophale) SiO2 
 PCOD9027443
Probable space group: P -1
;
_chemical_formula_sum "Si O2"
_cell_formula_units_Z 14
_cell_length_a 8.459558
_cell_length_b 12.469063
_cell_length_c 10.901295
_cell_angle_alpha 53.483184
_cell_angle_beta 82.198683
_cell_angle_gamma 49.419553
_cell_volume 639.614115
_symmetry_space_group_name_H-M "P -1"
_symmetry_group_IT_number 2
_symmetry_cell_setting 'triclinic'
loop_
_space_group_symop_operation_xyz
x,y,z
-x,-y,-z
loop_
_atom_site_type_symbol
_atom_site_label
_atom_site_fract_x
_atom_site_fract_y
_atom_site_fract_z
Si Si1 0.852065 0.288853 0.388745
Si Si2 0.482460 0.705601 0.465847
Si Si3 0.635386 0.698029 0.183944
Si Si4 0.340597 0.717015 0.833807
Si Si5 0.164217 0.978544 0.901018
Si Si6 0.374247 0.938777 0.542037
Si Si7 0.993974 0.371391 0.676064
O O1 0.696581 0.306670 0.493106
O O2 0.773486 0.488166 0.261773
O O3 0.800629 0.248152 0.292482
O O4 0.118534 0.112312 0.498039
O O5 0.531138 0.720327 0.312721
O O6 0.724383 0.519550 0.629076
O O7 0.385194 0.882514 0.439426
O O8 0.823185 0.700910 0.187956
O O9 0.417846 0.851832 0.016256
O O10 0.194683 0.860165 0.864328
O O11 0.479545 0.760628 0.737580
O O12 0.500000 0.500000 0.000000
O O13 0.068853 0.183662 0.742338
O O14 0.000000 0.000000 0.000000
O O15 0.500000 0.000000 0.500000
O O16 0.000000 0.500000 0.500000
#
# Coordination Sequence:
#
# PCOD9027443 Si02
#       7
#     2   2   2   2   2   2   2
#     4  11  23  45  69 101 134 183 231 282 335 413
#     4  10  22  41  68 101 134 178 231 282 331 411
#     4  11  23  41  69 100 142 173 233 281 350 393
#     4  11  25  47  67  99 143 179 230 279 342 411
#     4  12  27  43  71 101 140 186 225 281 343 412
#     4  11  26  44  73 101 137 181 232 283 344 400
#     4  10  24  44  70 100 138 176 231 287 336 398
#
# _framework density 21.888195
#
# number of rings (size 3 to 8) (size 9 to 14) (size 15 to 20)
#    0.000    1.143    1.429    4.286   14.000    0.000 
#    0.000    0.714    0.000    0.000    0.000    0.000 
#    0.000    0.000    0.000    0.000    0.000    0.000 
#
# Total GULP energy -78277.543673 kJ/mol
# GULP energy per Si atom -5591.253120 kJ/mol
# Density = 2.183838 g / cm^3
# Si number density = 21.888195 Si / 1000 Ang^3
#
#
#
# Elastic Constant Matrix: (Units=GPa)
#
#
# Indices 1 2 3 4 5 6 
#
# 1 121.1878 34.1596 36.6682 -17.9151 -0.9108 -3.0707
# 2 34.1596 148.7624 40.3651 -11.8382 -15.4522 4.9571
# 3 36.6682 40.3651 90.1522 -22.3453 -13.7881 -4.6461
# 4 -17.9151 -11.8382 -22.3453 44.2934 7.6198 2.5491
# 5 -0.9108 -15.4522 -13.7881 7.6198 32.6514 -17.8927
# 6 -3.0707 4.9571 -4.6461 2.5491 -17.8927 34.0910
#
#
#
# Elastic Compliance Matrix: (Units=1/GPa)
#
#
# Indices 1 2 3 4 5 6 
#
# 1 0.009990 -0.001474 -0.003283 0.002572 -0.003012 -0.001107
# 2 -0.001474 0.008044 -0.002692 -0.000213 0.002488 -0.000348
# 3 -0.003283 -0.002692 0.016239 0.004460 0.007767 0.006052
# 4 0.002572 -0.000213 0.004460 0.027346 -0.007258 -0.004984
# 5 -0.003012 0.002488 0.007767 -0.007258 0.052253 0.028393
# 6 -0.001107 -0.000348 0.006052 -0.004984 0.028393 0.045384
#
#
# Mechanical properties :
#
#
# Convention : Reuss Voigt Hill
#
# Bulk Modulus (GPa) = 51.61809 64.72090 58.16950
# Shear Modulus (GPa) = 27.68348 38.80113 33.24230
#
# Velocity S-wave (km/s) = 3.56022 4.21491 3.90132
# Velocity P-wave (km/s) = 6.36663 7.30208 6.85034
#
# Compressibility (1/GPa) = 0.01937305
#
# Stress axis : x y z
#
# Youngs Moduli (GPa) = 100.09716 124.31182 61.58191
#
# Poissons Ratio (x) = 0.18329 0.20220
# Poissons Ratio (y) = 0.14759 0.16579
# Poissons Ratio (z) = 0.32866 0.33467
#
# Static dielectric constant tensor:
#      x y z
#    x 1.812170 0.021090 0.015040 
#    y 0.021090 1.811480 0.014930 
#    z 0.015040 0.014930 1.847450 
# 
# From -- ./inp_files/154662.got.cif
#   From: 2010.05.17/outbox.cif.g08.bks.cpg/sg2_78_cif.got.tgz:154662.got - 2010.06.03 11:33:40.
