data_PCOD9027095
_publ_section_title
;
Structure prediction by ZEFSAII (Michael W. Deem and Ramdas Pophale) SiO2 
 PCOD9027095
Probable space group: P -1
;
_chemical_formula_sum "Si O2"
_cell_formula_units_Z 16
_cell_length_a 18.810781
_cell_length_b 18.766591
_cell_length_c 5.951040
_cell_angle_alpha 129.499890
_cell_angle_beta 63.966098
_cell_angle_gamma 152.359340
_cell_volume 705.026607
_symmetry_space_group_name_H-M "P -1"
_symmetry_group_IT_number 2
_symmetry_cell_setting 'triclinic'
loop_
_space_group_symop_operation_xyz
x,y,z
-x,-y,-z
loop_
_atom_site_type_symbol
_atom_site_label
_atom_site_fract_x
_atom_site_fract_y
_atom_site_fract_z
Si Si1 0.525875 0.478307 0.173674
Si Si2 0.994907 0.739117 0.213962
Si Si3 0.183213 0.426653 0.474261
Si Si4 0.307453 0.076501 0.754568
Si Si5 0.362166 0.876813 0.630089
Si Si6 0.888284 0.235701 0.286725
Si Si7 0.462174 0.813317 0.630364
Si Si8 0.110334 0.200427 0.809337
O O1 0.500000 0.500000 0.500000
O O2 0.713634 0.639279 0.218508
O O3 0.500000 0.500000 0.000000
O O4 0.406971 0.269933 0.954647
O O5 0.825031 0.563626 0.230275
O O6 0.975229 0.799616 0.185039
O O7 0.136303 0.911901 0.533956
O O8 0.059752 0.716646 0.948854
O O9 0.353842 0.624828 0.521687
O O10 0.051397 0.368552 0.453605
O O11 0.138328 0.274351 0.167294
O O12 0.413003 0.103262 0.550659
O O13 0.250237 0.982890 0.892007
O O14 0.196748 0.754180 0.521180
O O15 0.343949 0.763540 0.564639
O O16 0.500000 0.000000 0.500000
O O17 0.438101 0.027354 0.003633
O O18 0.000000 0.000000 0.500000
#
# Coordination Sequence:
#
# PCOD9027095 Si02
#       8
#     2   2   2   2   2   2   2   2
#     4  12  30  46  71 109 143 185 240 297 354 421
#     4  10  23  42  68  91 134 182 224 281 349 419
#     4  10  24  42  65  97 132 178 227 276 354 416
#     4  11  22  43  70  95 139 179 237 283 347 423
#     4  11  23  40  67  96 133 171 230 286 349 415
#     4  10  22  41  66  97 128 177 225 279 346 415
#     4  11  23  41  65  99 130 177 226 285 348 416
#     4  11  25  44  66  98 139 178 229 285 351 416
#
# _framework density 22.694179999999999
#
# number of rings (size 3 to 8) (size 9 to 14) (size 15 to 20)
#    0.000    1.250    3.750    0.750    8.750    4.000 
#    0.000    1.250    0.000    0.000    0.000    0.000 
#    0.000    0.000    0.000    0.000    0.000    0.000 
#
# Total GULP energy -89218.398635 kJ/mol
# GULP energy per Si atom -5576.149915 kJ/mol
# Density = 2.264253 g / cm^3
# Si number density = 22.694180 Si / 1000 Ang^3
#
#
#
# Elastic Constant Matrix: (Units=GPa)
#
#
# Indices 1 2 3 4 5 6 
#
# 1 63.4332 2.2951 9.5726 -9.4707 -7.8627 8.1587
# 2 2.2951 114.9039 29.0137 -25.9061 -5.7086 2.5330
# 3 9.5726 29.0137 80.0260 -28.5951 -10.3130 -2.5776
# 4 -9.4707 -25.9061 -28.5951 44.3252 7.6033 -7.5431
# 5 -7.8627 -5.7086 -10.3130 7.6033 19.1017 -6.1483
# 6 8.1587 2.5330 -2.5776 -7.5431 -6.1483 41.4636
#
#
#
# Elastic Compliance Matrix: (Units=1/GPa)
#
#
# Indices 1 2 3 4 5 6 
#
# 1 0.017142 0.000693 -0.000930 0.002192 0.005145 -0.002312
# 2 0.000693 0.010306 -0.002063 0.004784 0.000356 0.000029
# 3 -0.000930 -0.002063 0.017724 0.009689 0.006022 0.004066
# 4 0.002192 0.004784 0.009689 0.033700 -0.004113 0.005400
# 5 0.005145 0.000356 0.006022 -0.004113 0.061968 0.007781
# 6 -0.002312 0.000029 0.004066 0.005400 0.007781 0.026959
#
#
# Mechanical properties :
#
#
# Convention : Reuss Voigt Hill
#
# Bulk Modulus (GPa) = 24.64725 37.79177 31.21951
# Shear Modulus (GPa) = 26.89278 35.47690 31.18484
#
# Velocity S-wave (km/s) = 3.44613 3.95810 3.71095
# Velocity P-wave (km/s) = 5.16900 6.13005 5.66992
#
# Compressibility (1/GPa) = 0.04057248
#
# Stress axis : x y z
#
# Youngs Moduli (GPa) = 58.33573 97.03370 56.42008
#
# Poissons Ratio (x) = -0.06726 0.05248
# Poissons Ratio (y) = -0.04044 0.11639
# Poissons Ratio (z) = 0.05426 0.20017
#
# Static dielectric constant tensor:
#      x y z
#    x 1.936450 -0.044790 0.102370 
#    y -0.044790 1.861490 -0.032770 
#    z 0.102370 -0.032770 2.027920 
# 
# From -- ./inp_files/39235.got.cif
#   From: 2010.05.17/outbox.cif.g08.bks.cpg/sg2_20_cif.got.tgz:39235.got - 2010.06.03 11:33:40.
