data_PCOD9027828
_publ_section_title
;
Structure prediction by ZEFSAII (Michael W. Deem and Ramdas Pophale) SiO2 
 PCOD9027828
Probable space group: P -1
;
_chemical_formula_sum "Si O2"
_cell_formula_units_Z 16
_cell_length_a 8.098714
_cell_length_b 13.808780
_cell_length_c 10.639475
_cell_angle_alpha 148.330428
_cell_angle_beta 104.641124
_cell_angle_gamma 84.325344
_cell_volume 588.369891
_symmetry_space_group_name_H-M "P -1"
_symmetry_group_IT_number 2
_symmetry_cell_setting 'triclinic'
loop_
_space_group_symop_operation_xyz
x,y,z
-x,-y,-z
loop_
_atom_site_type_symbol
_atom_site_label
_atom_site_fract_x
_atom_site_fract_y
_atom_site_fract_z
Si Si1 0.268918 0.061020 0.264357
Si Si2 0.295036 0.908907 0.841723
Si Si3 0.105479 0.218816 0.775458
Si Si4 0.750411 0.460147 0.426588
Si Si5 0.663797 0.019180 0.351804
Si Si6 0.567869 0.509360 0.224943
Si Si7 0.004393 0.718252 0.909182
Si Si8 0.742077 0.417539 0.914550
O O1 0.455865 0.013954 0.290032
O O2 0.297365 0.283544 0.520450
O O3 0.214532 0.991530 0.036258
O O4 0.114936 0.933134 0.172514
O O5 0.262627 0.687949 0.626196
O O6 0.254337 0.954092 0.742735
O O7 0.500000 0.000000 0.000000
O O8 0.295857 0.167389 0.783955
O O9 0.123000 0.377483 0.845147
O O10 0.000000 0.000000 0.500000
O O11 0.047848 0.322052 0.001329
O O12 0.572419 0.442990 0.295929
O O13 0.873005 0.399949 0.272851
O O14 0.832620 0.661100 0.726311
O O15 0.759221 0.206900 0.653681
O O16 0.391514 0.555687 0.192450
O O17 0.643601 0.400089 0.009192
#
# Coordination Sequence:
#
# PCOD9027828 Si02
#       8
#     2   2   2   2   2   2   2   2
#     4   9  20  42  65  98 129 168 223 265 331 399
#     4   9  19  38  65  99 126 164 218 271 330 389
#     4  12  27  44  67 101 133 179 221 269 342 401
#     4  10  22  41  69  96 134 176 215 277 338 384
#     4  10  23  44  70  96 134 174 217 283 330 384
#     4  10  22  42  70  96 128 176 225 278 320 386
#     4  10  23  43  62 101 133 166 226 266 330 409
#     4  10  24  46  64 100 133 174 233 268 323 402
#
# _framework density 27.193777000000001
#
# number of rings (size 3 to 8) (size 9 to 14) (size 15 to 20)
#    0.000    2.000    0.000    1.500    8.750    1.000 
#   13.500    5.000    0.000    0.000    0.000    0.000 
#    0.000    0.000    0.000    0.000    0.000    0.000 
#
# Total GULP energy -89505.349267 kJ/mol
# GULP energy per Si atom -5594.084329 kJ/mol
# Density = 2.713188 g / cm^3
# Si number density = 27.193777 Si / 1000 Ang^3
#
#
#
# Elastic Constant Matrix: (Units=GPa)
#
#
# Indices 1 2 3 4 5 6 
#
# 1 62.7481 22.5911 19.1680 5.7492 -0.9331 7.8955
# 2 22.5911 105.4181 24.3273 20.9527 -11.8720 -2.9830
# 3 19.1680 24.3273 118.5259 12.0315 -1.0846 -9.0393
# 4 5.7492 20.9527 12.0315 46.8186 -3.8036 1.7060
# 5 -0.9331 -11.8720 -1.0846 -3.8036 43.0040 0.8843
# 6 7.8955 -2.9830 -9.0393 1.7060 0.8843 43.5986
#
#
#
# Elastic Compliance Matrix: (Units=1/GPa)
#
#
# Indices 1 2 3 4 5 6 
#
# 1 0.018515 -0.003568 -0.002591 0.000094 -0.000555 -0.004127
# 2 -0.003568 0.011746 -0.001271 -0.004318 0.002725 0.001300
# 3 -0.002591 -0.001271 0.009467 -0.001663 -0.000365 0.002418
# 4 0.000094 -0.004318 -0.001663 0.023840 0.000910 -0.001609
# 5 -0.000555 0.002725 -0.000365 0.000910 0.024071 -0.000313
# 6 -0.004127 0.001300 0.002418 -0.001609 -0.000313 0.024343
#
#
# Mechanical properties :
#
#
# Convention : Reuss Voigt Hill
#
# Bulk Modulus (GPa) = 40.21461 46.54054 43.37757
# Shear Modulus (GPa) = 37.00065 41.39130 39.19598
#
# Velocity S-wave (km/s) = 3.69267 3.90563 3.80064
# Velocity P-wave (km/s) = 5.74468 6.12292 5.93681
#
# Compressibility (1/GPa) = 0.02486659
#
# Stress axis : x y z
#
# Youngs Moduli (GPa) = 54.00950 85.13642 105.63126
#
# Poissons Ratio (x) = 0.30376 0.27373
# Poissons Ratio (y) = 0.19270 0.13431
# Poissons Ratio (z) = 0.13996 0.10825
#
# Static dielectric constant tensor:
#      x y z
#    x 2.218690 -0.176390 0.163840 
#    y -0.176390 1.989150 0.170190 
#    z 0.163840 0.170190 1.908800 
# 
# From -- ./inp_files/400105.got.cif
#   From: 2010.05.17/outbox.cif.g08.bks.cpg/sg2_201_cif.got.tgz:400105.got - 2010.06.03 11:33:40.
