data_PCOD9027799
_publ_section_title
;
Structure prediction by ZEFSAII (Michael W. Deem and Ramdas Pophale) SiO2 
 PCOD9027799
Probable space group: P -1
;
_chemical_formula_sum "Si O2"
_cell_formula_units_Z 16
_cell_length_a 8.997327
_cell_length_b 17.907241
_cell_length_c 16.570291
_cell_angle_alpha 23.671502
_cell_angle_beta 140.447665
_cell_angle_gamma 128.078220
_cell_volume 639.437079
_symmetry_space_group_name_H-M "P -1"
_symmetry_group_IT_number 2
_symmetry_cell_setting 'triclinic'
loop_
_space_group_symop_operation_xyz
x,y,z
-x,-y,-z
loop_
_atom_site_type_symbol
_atom_site_label
_atom_site_fract_x
_atom_site_fract_y
_atom_site_fract_z
Si Si1 0.758075 0.876014 0.503984
Si Si2 0.157393 0.786762 0.885881
Si Si3 0.732510 0.657034 0.011615
Si Si4 0.796042 0.348343 0.211271
Si Si5 0.520178 0.665123 0.530973
Si Si6 0.861253 0.523022 0.502658
Si Si7 0.346408 0.025650 0.990440
Si Si8 0.068001 0.011040 0.251307
O O1 0.543241 0.778936 0.510467
O O2 0.883156 0.867279 0.651495
O O3 0.986482 0.734882 0.681535
O O4 0.702589 0.093024 0.227115
O O5 0.129515 0.843408 0.912020
O O6 0.278145 0.552480 0.160294
O O7 0.789011 0.548549 0.055352
O O8 0.954273 0.546979 0.275387
O O9 0.473249 0.635830 0.951226
O O10 0.733560 0.880670 0.787489
O O11 0.838045 0.192292 0.457761
O O12 0.303004 0.611858 0.449159
O O13 0.519948 0.845534 0.295003
O O14 0.705249 0.754368 0.217467
O O15 0.000000 0.500000 0.500000
O O16 0.079224 0.011412 0.867940
O O17 0.500000 0.000000 0.000000
#
# Coordination Sequence:
#
# PCOD9027799 Si02
#       8
#     2   2   2   2   2   2   2   2
#     4  10  22  44  66 105 137 178 230 292 353 407
#     4  10  23  40  69 103 142 171 229 297 348 410
#     4  11  23  43  67  95 131 188 230 280 350 412
#     4  10  22  41  69  93 138 175 233 290 335 414
#     4  12  24  44  72 100 138 187 233 284 356 417
#     4  12  29  49  68 102 147 187 233 287 355 423
#     4  12  26  45  73 104 141 182 237 295 344 418
#     4  11  21  42  65 101 131 176 234 284 344 411
#
# _framework density 25.022010000000002
#
# number of rings (size 3 to 8) (size 9 to 14) (size 15 to 20)
#    0.000    1.000    2.500    4.500    3.500    1.500 
#    4.500    0.000    0.000    0.000    0.000    0.000 
#    0.000    0.000    0.000    0.000    0.000    0.000 
#
# Total GULP energy -89469.623413 kJ/mol
# GULP energy per Si atom -5591.851463 kJ/mol
# Density = 2.496506 g / cm^3
# Si number density = 25.022010 Si / 1000 Ang^3
#
#
#
# Elastic Constant Matrix: (Units=GPa)
#
#
# Indices 1 2 3 4 5 6 
#
# 1 41.2555 12.0961 13.4225 -8.1756 9.3767 -3.0327
# 2 12.0961 185.2599 28.2334 5.2479 -1.5556 19.9315
# 3 13.4225 28.2334 102.3612 1.0156 -9.5753 16.3223
# 4 -8.1756 5.2479 1.0156 48.7675 -3.1153 -2.0150
# 5 9.3767 -1.5556 -9.5753 -3.1153 25.3957 -7.0872
# 6 -3.0327 19.9315 16.3223 -2.0150 -7.0872 29.4115
#
#
#
# Elastic Compliance Matrix: (Units=1/GPa)
#
#
# Indices 1 2 3 4 5 6 
#
# 1 0.030496 -0.001948 -0.005380 0.004914 -0.011398 0.005041
# 2 -0.001948 0.006119 -0.000814 -0.001169 -0.000499 -0.004096
# 3 -0.005380 -0.000814 0.012051 -0.000991 0.004795 -0.005603
# 4 0.004914 -0.001169 -0.000991 0.021719 0.001432 0.003682
# 5 -0.011398 -0.000499 0.004795 0.001432 0.047804 0.008119
# 6 0.005041 -0.004096 -0.005603 0.003682 0.008119 0.042614
#
#
# Mechanical properties :
#
#
# Convention : Reuss Voigt Hill
#
# Bulk Modulus (GPa) = 30.88299 48.48674 39.68486
# Shear Modulus (GPa) = 26.61228 39.05657 32.83443
#
# Velocity S-wave (km/s) = 3.26476 3.95509 3.62639
# Velocity P-wave (km/s) = 5.15564 6.34640 5.78175
#
# Compressibility (1/GPa) = 0.03238028
#
# Stress axis : x y z
#
# Youngs Moduli (GPa) = 32.79115 163.43281 82.97858
#
# Poissons Ratio (x) = 0.31845 0.44645
# Poissons Ratio (y) = 0.06389 0.06756
# Poissons Ratio (z) = 0.17643 0.13306
#
# Static dielectric constant tensor:
#      x y z
#    x 1.961490 0.087190 0.028230 
#    y 0.087190 2.349750 0.160000 
#    z 0.028230 0.160000 1.984500 
# 
# From -- ./inp_files/596231.got.cif
#   From: 2010.05.17/outbox.cif.g08.bks.cpg/sg2_299_cif.got.tgz:596231.got - 2010.06.03 11:33:40.
