data_PCOD9027671
_publ_section_title
;
Structure prediction by ZEFSAII (Michael W. Deem and Ramdas Pophale) SiO2 
 PCOD9027671
Probable space group: P -1
;
_chemical_formula_sum "Si O2"
_cell_formula_units_Z 16
_cell_length_a 17.170008
_cell_length_b 7.858567
_cell_length_c 17.845690
_cell_angle_alpha 48.145046
_cell_angle_beta 23.147721
_cell_angle_gamma 46.735179
_cell_volume 683.489246
_symmetry_space_group_name_H-M "P -1"
_symmetry_group_IT_number 2
_symmetry_cell_setting 'triclinic'
loop_
_space_group_symop_operation_xyz
x,y,z
-x,-y,-z
loop_
_atom_site_type_symbol
_atom_site_label
_atom_site_fract_x
_atom_site_fract_y
_atom_site_fract_z
Si Si1 0.298868 0.982728 0.137116
Si Si2 0.145089 0.777833 0.978560
Si Si3 0.818882 0.745888 0.385851
Si Si4 0.558091 0.931919 0.335380
Si Si5 0.475208 0.014139 0.211705
Si Si6 0.212180 0.474511 0.361357
Si Si7 0.060103 0.502158 0.859356
Si Si8 0.137304 0.736324 0.586559
O O1 0.263404 0.723301 0.255119
O O2 0.079817 0.163893 0.292086
O O3 0.352635 0.027042 0.990714
O O4 0.500000 0.000000 0.000000
O O5 0.038397 0.761773 0.157204
O O6 0.119842 0.566314 0.010367
O O7 0.271272 0.298012 0.725129
O O8 0.000000 0.000000 0.000000
O O9 0.658190 0.001348 0.450040
O O10 0.810604 0.658252 0.502666
O O11 0.774629 0.532895 0.438089
O O12 0.540540 0.920750 0.264594
O O13 0.642754 0.160769 0.213511
O O14 0.386493 0.294223 0.214440
O O15 0.292037 0.895640 0.385593
O O16 0.000000 0.500000 0.500000
O O17 0.102889 0.723544 0.711049
O O18 0.000000 0.500000 0.000000
#
# Coordination Sequence:
#
# PCOD9027671 Si02
#       8
#     2   2   2   2   2   2   2   2
#     4  12  27  45  69  99 137 183 234 284 351 415
#     4   9  21  40  65  93 130 176 219 274 334 397
#     4  10  24  41  66  96 134 175 224 282 335 413
#     4  10  23  42  66  99 132 179 228 270 346 413
#     4  11  25  43  69 100 131 178 229 286 341 423
#     4  11  24  43  69  96 133 181 224 283 350 394
#     4  10  22  41  68  99 137 181 221 284 345 409
#     4  11  25  44  65 100 137 178 231 288 349 401
#
# _framework density 23.409292000000001
#
# number of rings (size 3 to 8) (size 9 to 14) (size 15 to 20)
#    0.000    1.500    1.250    1.875    3.500   17.000 
#    0.000    1.250    0.000    0.000    0.000    0.000 
#    0.000    0.000    0.000    0.000    0.000    0.000 
#
# Total GULP energy -89444.336658 kJ/mol
# GULP energy per Si atom -5590.271041 kJ/mol
# Density = 2.335601 g / cm^3
# Si number density = 23.409292 Si / 1000 Ang^3
#
#
#
# Elastic Constant Matrix: (Units=GPa)
#
#
# Indices 1 2 3 4 5 6 
#
# 1 82.0670 15.1868 14.2557 13.5723 -15.1394 -5.3492
# 2 15.1868 83.1651 5.9572 9.9337 -1.5533 -20.8284
# 3 14.2557 5.9572 61.6485 -0.6383 3.6013 -5.9349
# 4 13.5723 9.9337 -0.6383 35.5039 4.2618 2.5741
# 5 -15.1394 -1.5533 3.6013 4.2618 35.6154 2.4878
# 6 -5.3492 -20.8284 -5.9349 2.5741 2.4878 25.5328
#
#
#
# Elastic Compliance Matrix: (Units=1/GPa)
#
#
# Indices 1 2 3 4 5 6 
#
# 1 0.015734 -0.001340 -0.003914 -0.006728 0.007746 0.001217
# 2 -0.001340 0.016239 0.000000 -0.004984 -0.000207 0.013489
# 3 -0.003914 0.000000 0.017712 0.002036 -0.003941 0.003476
# 4 -0.006728 -0.004984 0.002036 0.033540 -0.006757 -0.007725
# 5 0.007746 -0.000207 -0.003941 -0.006757 0.032706 -0.001968
# 6 0.001217 0.013489 0.003476 -0.007725 -0.001968 0.052202
#
#
# Mechanical properties :
#
#
# Convention : Reuss Voigt Hill
#
# Bulk Modulus (GPa) = 25.52528 33.07557 29.30042
# Shear Modulus (GPa) = 26.08254 32.09580 29.08917
#
# Velocity S-wave (km/s) = 3.34158 3.70681 3.52892
# Velocity P-wave (km/s) = 5.08092 5.69917 5.39890
#
# Compressibility (1/GPa) = 0.03917685
#
# Stress axis : x y z
#
# Youngs Moduli (GPa) = 63.55713 61.58162 56.45899
#
# Poissons Ratio (x) = 0.08249 0.22097
# Poissons Ratio (y) = 0.08514 0.00002
# Poissons Ratio (z) = 0.24875 0.00002
#
# Static dielectric constant tensor:
#      x y z
#    x 1.914890 0.029490 0.000660 
#    y 0.029490 1.935830 0.006920 
#    z 0.000660 0.006920 1.867720 
# 
# From -- ./inp_files/528211.got.cif
#   From: 2010.05.17/outbox.cif.g08.bks.cpg/sg2_265_cif.got.tgz:528211.got - 2010.06.03 11:33:40.
