data_PCOD9027159
_publ_section_title
;
Structure prediction by ZEFSAII (Michael W. Deem and Ramdas Pophale) SiO2 
 PCOD9027159
Probable space group: P -1
;
_chemical_formula_sum "Si O2"
_cell_formula_units_Z 16
_cell_length_a 5.332157
_cell_length_b 22.975503
_cell_length_c 11.238124
_cell_angle_alpha 36.211053
_cell_angle_beta 82.164199
_cell_angle_gamma 66.695414
_cell_volume 703.278746
_symmetry_space_group_name_H-M "P -1"
_symmetry_group_IT_number 2
_symmetry_cell_setting 'triclinic'
loop_
_space_group_symop_operation_xyz
x,y,z
-x,-y,-z
loop_
_atom_site_type_symbol
_atom_site_label
_atom_site_fract_x
_atom_site_fract_y
_atom_site_fract_z
Si Si1 0.384781 0.971337 0.734014
Si Si2 0.948552 0.406383 0.996077
Si Si3 0.489591 0.747465 0.207372
Si Si4 0.774783 0.567280 0.298177
Si Si5 0.719655 0.634631 0.721036
Si Si6 0.797946 0.210030 0.377685
Si Si7 0.098179 0.649313 0.472665
Si Si8 0.322571 0.918454 0.571361
O O1 0.483772 0.909250 0.699550
O O2 0.605243 0.021141 0.641084
O O3 0.385706 0.877700 0.972781
O O4 0.079898 0.087212 0.571442
O O5 0.879616 0.306975 0.189667
O O6 0.176569 0.397736 0.096453
O O7 0.690654 0.534224 0.824930
O O8 0.064723 0.401050 0.865896
O O9 0.531347 0.678130 0.195746
O O10 0.802189 0.701526 0.326309
O O11 0.267932 0.719557 0.338926
O O12 0.000000 0.500000 0.500000
O O13 0.703615 0.477051 0.386144
O O14 0.420313 0.749907 0.563483
O O15 0.968659 0.645101 0.616179
O O16 0.641614 0.195861 0.294167
O O17 0.000000 0.000000 0.500000
#
# Coordination Sequence:
#
# PCOD9027159 Si02
#       8
#     2   2   2   2   2   2   2   2
#     4  10  23  39  61  97 134 172 226 270 339 403
#     4  10  22  41  67 100 126 175 224 274 343 398
#     4  11  24  41  71  94 136 180 221 277 346 404
#     4   9  21  42  65 101 135 171 221 278 346 411
#     4  10  23  43  65  95 132 172 229 277 329 400
#     4  11  22  38  65  94 133 172 220 282 330 393
#     4  10  24  45  66  96 134 179 226 281 333 399
#     4   9  21  37  59  89 135 169 210 280 324 390
#
# _framework density 22.750582999999999
#
# number of rings (size 3 to 8) (size 9 to 14) (size 15 to 20)
#    0.000    2.000    0.000    1.500   12.250    1.000 
#   13.500    1.250    0.000    0.000    0.000    0.000 
#    0.000    0.000    0.000    0.000    0.000    0.000 
#
# Total GULP energy -89304.044407 kJ/mol
# GULP energy per Si atom -5581.502775 kJ/mol
# Density = 2.269880 g / cm^3
# Si number density = 22.750583 Si / 1000 Ang^3
#
#
#
# Elastic Constant Matrix: (Units=GPa)
#
#
# Indices 1 2 3 4 5 6 
#
# 1 69.4500 27.3684 38.4930 -8.3249 -20.0731 -6.2881
# 2 27.3684 127.7369 54.6863 -7.8877 2.7176 -18.8379
# 3 38.4930 54.6863 118.1127 -10.1912 -19.3762 -12.8510
# 4 -8.3249 -7.8877 -10.1912 40.9833 1.0843 1.7933
# 5 -20.0731 2.7176 -19.3762 1.0843 23.2206 -1.9034
# 6 -6.2881 -18.8379 -12.8510 1.7933 -1.9034 29.6097
#
#
#
# Elastic Compliance Matrix: (Units=1/GPa)
#
#
# Indices 1 2 3 4 5 6 
#
# 1 0.023086 -0.003880 -0.002141 0.002804 0.018701 0.002537
# 2 -0.003880 0.011597 -0.005095 0.000241 -0.008665 0.003771
# 3 -0.002141 -0.005095 0.013653 0.001585 0.010293 0.002795
# 4 0.002804 0.000241 0.001585 0.025340 0.002541 0.000065
# 5 0.018701 -0.008665 0.010293 0.002541 0.069308 0.007227
# 6 0.002537 0.003771 0.002795 0.000065 0.007227 0.038384
#
#
# Mechanical properties :
#
#
# Convention : Reuss Voigt Hill
#
# Bulk Modulus (GPa) = 38.31128 61.82165 50.06647
# Shear Modulus (GPa) = 23.55150 31.74618 27.64884
#
# Velocity S-wave (km/s) = 3.22095 3.73956 3.48990
# Velocity P-wave (km/s) = 5.54156 6.77336 6.18819
#
# Compressibility (1/GPa) = 0.02610197
#
# Stress axis : x y z
#
# Youngs Moduli (GPa) = 43.31689 86.23254 73.24552
#
# Poissons Ratio (x) = 0.33459 0.15684
# Poissons Ratio (y) = 0.16807 0.37319
# Poissons Ratio (z) = 0.09276 0.43936
#
# Static dielectric constant tensor:
#      x y z
#    x 1.935870 0.031070 0.033620 
#    y 0.031070 1.868480 -0.001190 
#    z 0.033620 -0.001190 1.881980 
# 
# From -- ./inp_files/370969.got.cif
#   From: 2010.05.17/outbox.cif.g08.bks.cpg/sg2_186_cif.got.tgz:370969.got - 2010.06.03 11:33:40.
