data_PCOD9027880
_publ_section_title
;
Structure prediction by ZEFSAII (Michael W. Deem and Ramdas Pophale) SiO2 
 PCOD9027880
Probable space group: P -1
;
_chemical_formula_sum "Si O2"
_cell_formula_units_Z 16
_cell_length_a 9.131596
_cell_length_b 14.913187
_cell_length_c 12.455435
_cell_angle_alpha 113.603549
_cell_angle_beta 106.212977
_cell_angle_gamma 26.929334
_cell_volume 691.450159
_symmetry_space_group_name_H-M "P -1"
_symmetry_group_IT_number 2
_symmetry_cell_setting 'triclinic'
loop_
_space_group_symop_operation_xyz
x,y,z
-x,-y,-z
loop_
_atom_site_type_symbol
_atom_site_label
_atom_site_fract_x
_atom_site_fract_y
_atom_site_fract_z
Si Si1 0.601261 0.910267 0.095115
Si Si2 0.855804 0.113947 0.294518
Si Si3 0.266260 0.976705 0.479481
Si Si4 0.156826 0.367874 0.716803
Si Si5 0.401910 0.208236 0.314721
Si Si6 0.372275 0.513969 0.084134
Si Si7 0.578026 0.196069 0.907644
Si Si8 0.280579 0.568431 0.323070
O O1 0.489196 0.863630 0.069590
O O2 0.989269 0.707325 0.084622
O O3 0.434007 0.076776 0.228426
O O4 0.500000 0.000000 0.000000
O O5 0.667286 0.118517 0.256003
O O6 0.586212 0.354267 0.351759
O O7 0.078332 0.994813 0.390074
O O8 0.089404 0.994676 0.183793
O O9 0.978106 0.215097 0.567086
O O10 0.528478 0.859733 0.386205
O O11 0.484638 0.835280 0.561941
O O12 0.289375 0.359363 0.836023
O O13 0.947890 0.549479 0.675986
O O14 0.925434 0.413667 0.734967
O O15 0.400262 0.545472 0.223271
O O16 0.500000 0.500000 0.000000
O O17 0.561489 0.303403 0.023649
#
# Coordination Sequence:
#
# PCOD9027880 Si02
#       8
#     2   2   2   2   2   2   2   2
#     4  12  26  42  69 101 135 178 226 281 332 405
#     4  10  25  41  67  97 135 184 217 280 339 403
#     4  11  21  42  67 100 136 176 228 275 340 397
#     4  10  22  41  69  99 132 182 216 283 338 402
#     4  11  22  43  65 102 136 172 226 276 342 401
#     4  12  26  44  69  99 137 181 223 279 338 400
#     4  11  24  45  67  99 137 177 226 278 336 402
#     4  11  23  42  67  96 137 177 226 272 341 403
#
# _framework density 23.139773000000002
#
# number of rings (size 3 to 8) (size 9 to 14) (size 15 to 20)
#    0.000    1.000    2.500    3.375    5.250    1.500 
#    0.000    0.000    0.000    0.000    0.000    0.000 
#    0.000    0.000    0.000    0.000    0.000    0.000 
#
# Total GULP energy -89530.572984 kJ/mol
# GULP energy per Si atom -5595.660811 kJ/mol
# Density = 2.308711 g / cm^3
# Si number density = 23.139773 Si / 1000 Ang^3
#
#
#
# Elastic Constant Matrix: (Units=GPa)
#
#
# Indices 1 2 3 4 5 6 
#
# 1 72.2698 6.2183 22.6735 6.2319 -7.1426 14.2738
# 2 6.2183 94.0041 41.2474 -6.6505 0.4653 9.6596
# 3 22.6735 41.2474 96.2515 1.8469 -7.6629 4.2788
# 4 6.2319 -6.6505 1.8469 45.5618 3.8136 2.2700
# 5 -7.1426 0.4653 -7.6629 3.8136 29.8550 -0.7914
# 6 14.2738 9.6596 4.2788 2.2700 -0.7914 27.0586
#
#
#
# Elastic Compliance Matrix: (Units=1/GPa)
#
#
# Indices 1 2 3 4 5 6 
#
# 1 0.017127 0.001344 -0.003947 -0.001812 0.003066 -0.008649
# 2 0.001344 0.014018 -0.006308 0.002531 -0.001971 -0.004986
# 3 -0.003947 -0.006308 0.014187 -0.001323 0.003025 0.002290
# 4 -0.001812 0.002531 -0.001323 0.023026 -0.003801 -0.001781
# 5 0.003066 -0.001971 0.003025 -0.003801 0.035520 -0.000034
# 6 -0.008649 -0.004986 0.002290 -0.001781 -0.000034 0.043085
#
#
# Mechanical properties :
#
#
# Convention : Reuss Voigt Hill
#
# Bulk Modulus (GPa) = 36.34970 44.75596 40.55283
# Shear Modulus (GPa) = 28.74298 33.32083 31.03191
#
# Velocity S-wave (km/s) = 3.52823 3.79882 3.66603
# Velocity P-wave (km/s) = 5.68689 6.21490 5.95675
#
# Compressibility (1/GPa) = 0.02751054
#
# Stress axis : x y z
#
# Youngs Moduli (GPa) = 58.38639 71.33783 70.48785
#
# Poissons Ratio (x) = -0.09591 0.27825
# Poissons Ratio (y) = -0.07850 0.44462
# Poissons Ratio (z) = 0.23048 0.44998
#
# Static dielectric constant tensor:
#      x y z
#    x 1.847840 -0.001650 0.001780 
#    y -0.001650 1.904880 -0.014090 
#    z 0.001780 -0.014090 1.872250 
# 
# From -- ./inp_files/242082.got.cif
#   From: 2010.05.17/outbox.cif.g08.bks.cpg/sg2_122_cif.got.tgz:242082.got - 2010.06.03 11:33:40.
