data_PCOD9027559
_publ_section_title
;
Structure prediction by ZEFSAII (Michael W. Deem and Ramdas Pophale) SiO2 
 PCOD9027559
Probable space group: P -1
;
_chemical_formula_sum "Si O2"
_cell_formula_units_Z 11
_cell_length_a 12.937735
_cell_length_b 9.603312
_cell_length_c 9.099735
_cell_angle_alpha 118.668477
_cell_angle_beta 146.029428
_cell_angle_gamma 45.676627
_cell_volume 437.665599
_symmetry_space_group_name_H-M "P -1"
_symmetry_group_IT_number 2
_symmetry_cell_setting 'triclinic'
loop_
_space_group_symop_operation_xyz
x,y,z
-x,-y,-z
loop_
_atom_site_type_symbol
_atom_site_label
_atom_site_fract_x
_atom_site_fract_y
_atom_site_fract_z
Si Si1 0.517569 0.217733 0.541498
Si Si2 0.437016 0.541348 0.778850
Si Si3 0.000000 0.000000 0.500000
Si Si4 0.832091 0.885923 0.952811
Si Si5 0.259875 0.475704 0.109984
Si Si6 0.235033 0.135396 0.813131
O O1 0.369030 0.401867 0.573381
O O2 0.382439 0.125785 0.302805
O O3 0.485776 0.325471 0.405132
O O4 0.755633 0.051462 0.823276
O O5 0.662506 0.465844 0.908361
O O6 0.500000 0.500000 0.000000
O O7 0.249975 0.773153 0.640925
O O8 0.067731 0.115413 0.510234
O O9 0.830087 0.940291 0.151172
O O10 0.061059 0.669994 0.066487
O O11 0.175673 0.346011 0.890641
O O12 0.500000 0.000000 0.000000
#
# Coordination Sequence:
#
# PCOD9027559 Si02
#       6
#     2   2   1   2   2   2
#     4  10  22  41  68  94 131 182 226 274 347 406
#     4  12  26  42  65 105 141 176 237 287 340 415
#     4  12  24  44  68  96 146 180 214 292 350 394
#     4  10  22  43  70  95 136 177 235 285 330 417
#     4  11  23  44  69  97 137 182 228 287 337 411
#     4  11  22  43  71 104 140 181 229 282 346 406
#
# _framework density 25.133341999999999
#
# number of rings (size 3 to 8) (size 9 to 14) (size 15 to 20)
#    0.000    1.091    1.818    6.000    0.000    2.182 
#    3.273    1.818    0.000    0.000    0.000    0.000 
#    0.000    0.000    0.000    0.000    0.000    0.000 
#
# Total GULP energy -61309.616197 kJ/mol
# GULP energy per Si atom -5573.601472 kJ/mol
# Density = 2.507614 g / cm^3
# Si number density = 25.133342 Si / 1000 Ang^3
#
#
#
# Elastic Constant Matrix: (Units=GPa)
#
#
# Indices 1 2 3 4 5 6 
#
# 1 139.7736 21.0344 52.8671 -16.1183 0.5206 -2.6058
# 2 21.0344 160.6459 42.0735 0.0923 -5.2282 -13.3630
# 3 52.8671 42.0735 90.6023 3.6293 -11.8205 5.7967
# 4 -16.1183 0.0923 3.6293 49.9427 7.1111 2.8125
# 5 0.5206 -5.2282 -11.8205 7.1111 50.8092 -4.0068
# 6 -2.6058 -13.3630 5.7967 2.8125 -4.0068 44.7648
#
#
#
# Elastic Compliance Matrix: (Units=1/GPa)
#
#
# Indices 1 2 3 4 5 6 
#
# 1 0.010058 0.000428 -0.006565 0.003950 -0.002050 0.001132
# 2 0.000428 0.007410 -0.003870 0.000247 0.000038 0.002726
# 3 -0.006565 -0.003870 0.017548 -0.003779 0.004027 -0.003212
# 4 0.003950 0.000247 -0.003779 0.022207 -0.004079 -0.000967
# 5 -0.002050 0.000038 0.004027 -0.004079 0.021335 0.001537
# 6 0.001132 0.002726 -0.003212 -0.000967 0.001537 0.023833
#
#
# Mechanical properties :
#
#
# Convention : Reuss Voigt Hill
#
# Bulk Modulus (GPa) = 66.66631 69.21908 67.94269
# Shear Modulus (GPa) = 39.24445 47.43982 43.34213
#
# Velocity S-wave (km/s) = 3.95581 4.34928 4.15720
# Velocity P-wave (km/s) = 6.88819 7.26789 7.08058
#
# Compressibility (1/GPa) = 0.01500008
#
# Stress axis : x y z
#
# Youngs Moduli (GPa) = 99.42715 134.94725 56.98767
#
# Poissons Ratio (x) = -0.05772 0.37415
# Poissons Ratio (y) = -0.04253 0.22055
# Poissons Ratio (z) = 0.65278 0.52225
#
# Static dielectric constant tensor:
#      x y z
#    x 2.045620 0.077480 0.012920 
#    y 0.077480 2.115170 0.177670 
#    z 0.012920 0.177670 2.259190 
# 
# From -- ./inp_files/148763.got.cif
#   From: 2010.05.17/outbox.cif.g08.bks.cpg/sg2_75_cif.got.tgz:148763.got - 2010.06.03 11:33:40.
