data_PCOD9027681
_publ_section_title
;
Structure prediction by ZEFSAII (Michael W. Deem and Ramdas Pophale) SiO2 
 PCOD9027681
Probable space group: P -1
;
_chemical_formula_sum "Si O2"
_cell_formula_units_Z 14
_cell_length_a 11.318423
_cell_length_b 16.966879
_cell_length_c 18.201858
_cell_angle_alpha 146.864869
_cell_angle_beta 29.738442
_cell_angle_gamma 159.256074
_cell_volume 607.691210
_symmetry_space_group_name_H-M "P -1"
_symmetry_group_IT_number 2
_symmetry_cell_setting 'triclinic'
loop_
_space_group_symop_operation_xyz
x,y,z
-x,-y,-z
loop_
_atom_site_type_symbol
_atom_site_label
_atom_site_fract_x
_atom_site_fract_y
_atom_site_fract_z
Si Si1 0.928967 0.705619 0.083841
Si Si2 0.320647 0.216636 0.047757
Si Si3 0.158741 0.255298 0.530925
Si Si4 0.954158 0.039376 0.267014
Si Si5 0.815385 0.202384 0.813601
Si Si6 0.665867 0.248614 0.234809
Si Si7 0.141657 0.731001 0.413366
O O1 0.498849 0.452894 0.111899
O O2 0.992066 0.901828 0.178624
O O3 0.057398 0.737249 0.123272
O O4 0.170361 0.724389 0.910008
O O5 0.699366 0.298644 0.915387
O O6 0.161666 0.141124 0.156990
O O7 0.000000 0.000000 0.000000
O O8 0.500000 0.500000 0.500000
O O9 0.265414 0.142616 0.366844
O O10 0.109136 0.262606 0.648666
O O11 0.801634 0.156519 0.606309
O O12 0.518664 0.859551 0.347280
O O13 0.059912 0.235429 0.405848
O O14 0.424877 0.935003 0.814010
O O15 0.923780 0.483521 0.319592
#
# Coordination Sequence:
#
# PCOD9027681 Si02
#       7
#     2   2   2   2   2   2   2
#     4  12  27  46  77 110 141 189 243 301 353 422
#     4  12  27  44  74 105 146 187 242 294 362 421
#     4  10  22  41  68  99 145 185 234 289 357 418
#     4  11  25  48  71 103 148 188 241 295 358 428
#     4  12  25  44  72 112 142 188 246 293 357 428
#     4  11  23  42  74 105 145 184 241 294 361 417
#     4  10  24  45  70 102 145 193 231 296 361 423
#
# _framework density 23.038017
#
# number of rings (size 3 to 8) (size 9 to 14) (size 15 to 20)
#    0.000    0.857    1.429    5.571    8.000    1.143 
#    0.000    1.429    0.000    0.000    0.000    0.000 
#    0.000    0.000    0.000    0.000    0.000    0.000 
#
# Total GULP energy -78146.056525 kJ/mol
# GULP energy per Si atom -5581.861180 kJ/mol
# Density = 2.298558 g / cm^3
# Si number density = 23.038017 Si / 1000 Ang^3
#
#
#
# Elastic Constant Matrix: (Units=GPa)
#
#
# Indices 1 2 3 4 5 6 
#
# 1 92.2682 43.8668 63.1796 -0.4078 16.0032 -1.4318
# 2 43.8668 110.0718 60.8870 12.6960 19.0304 -4.3636
# 3 63.1796 60.8870 181.9918 6.2377 30.9323 -7.6145
# 4 -0.4078 12.6960 6.2377 29.7352 -6.2785 10.6177
# 5 16.0032 19.0304 30.9323 -6.2785 42.8004 -2.1173
# 6 -1.4318 -4.3636 -7.6145 10.6177 -2.1173 40.7614
#
#
#
# Elastic Compliance Matrix: (Units=1/GPa)
#
#
# Indices 1 2 3 4 5 6 
#
# 1 0.015832 -0.004391 -0.004113 0.003404 -0.000574 -0.001599
# 2 -0.004391 0.013533 -0.001994 -0.007158 -0.003856 0.002586
# 3 -0.004113 -0.001994 0.008405 -0.002377 -0.003918 0.001628
# 4 0.003404 -0.007158 -0.002377 0.043478 0.009415 -0.011927
# 5 -0.000574 -0.003856 -0.003918 0.009415 0.029403 -0.002090
# 6 -0.001599 0.002586 0.001628 -0.011927 -0.002090 0.028056
#
#
# Mechanical properties :
#
#
# Convention : Reuss Voigt Hill
#
# Bulk Modulus (GPa) = 59.61829 80.02206 69.82017
# Shear Modulus (GPa) = 30.24896 37.08595 33.66746
#
# Velocity S-wave (km/s) = 3.62747 4.01655 3.82696
# Velocity P-wave (km/s) = 6.59387 7.50469 7.06398
#
# Compressibility (1/GPa) = 0.01677337
#
# Stress axis : x y z
#
# Youngs Moduli (GPa) = 63.16411 73.89434 118.97231
#
# Poissons Ratio (x) = 0.32447 0.48933
# Poissons Ratio (y) = 0.27736 0.23726
# Poissons Ratio (z) = 0.25979 0.14736
#
# Static dielectric constant tensor:
#      x y z
#    x 1.984340 0.020390 -0.070540 
#    y 0.020390 1.921830 0.057600 
#    z -0.070540 0.057600 1.993310 
# 
# From -- ./inp_files/570368.got.cif
#   From: 2010.05.17/outbox.cif.g08.bks.cpg/sg2_286_cif.got.tgz:570368.got - 2010.06.03 11:33:40.
