data_PCOD9027838
_publ_section_title
;
Structure prediction by ZEFSAII (Michael W. Deem and Ramdas Pophale) SiO2 
 PCOD9027838
Probable space group: P -1
;
_chemical_formula_sum "Si O2"
_cell_formula_units_Z 14
_cell_length_a 10.371283
_cell_length_b 7.134705
_cell_length_c 21.425466
_cell_angle_alpha 136.737091
_cell_angle_beta 144.701319
_cell_angle_gamma 53.731067
_cell_volume 627.835024
_symmetry_space_group_name_H-M "P -1"
_symmetry_group_IT_number 2
_symmetry_cell_setting 'triclinic'
loop_
_space_group_symop_operation_xyz
x,y,z
-x,-y,-z
loop_
_atom_site_type_symbol
_atom_site_label
_atom_site_fract_x
_atom_site_fract_y
_atom_site_fract_z
Si Si1 0.441346 0.967297 0.322945
Si Si2 0.123299 0.115924 0.332489
Si Si3 0.053369 0.053267 0.900018
Si Si4 0.341777 0.533108 0.886082
Si Si5 0.843396 0.262896 0.492735
Si Si6 0.485079 0.367656 0.159504
Si Si7 0.178366 0.938215 0.694961
O O1 0.535666 0.663914 0.280433
O O2 0.362377 0.047701 0.380787
O O3 0.612319 0.184544 0.415613
O O4 0.207911 0.950055 0.186816
O O5 0.076877 0.438473 0.381778
O O6 0.964507 0.939549 0.180908
O O7 0.059176 0.051584 0.361820
O O8 0.162682 0.763227 0.887981
O O9 0.226248 0.281817 0.046595
O O10 0.462526 0.621444 0.890905
O O11 0.236090 0.234182 0.762397
O O12 0.500000 0.500000 0.000000
O O13 0.813235 0.275409 0.409504
O O14 0.000000 0.000000 0.500000
O O15 0.641513 0.152443 0.204271
#
# Coordination Sequence:
#
# PCOD9027838 Si02
#       7
#     2   2   2   2   2   2   2
#     4  10  24  43  70  99 141 182 213 293 345 397
#     4  10  23  43  66  98 136 176 226 277 340 389
#     4  10  22  41  69  96 144 174 219 280 338 404
#     4  12  22  40  71 102 139 181 226 274 334 404
#     4  12  24  47  72  98 133 178 241 284 331 408
#     4  12  21  45  66 105 141 176 228 276 338 419
#     4  12  24  43  72 103 131 182 231 281 339 399
#
# _framework density 22.298853999999999
#
# number of rings (size 3 to 8) (size 9 to 14) (size 15 to 20)
#    0.857    0.000    4.286    4.286    0.000    0.000 
#    2.571    2.857    0.000    0.000    0.000    0.000 
#    0.000    0.000    0.000    0.000    0.000    0.000 
#
# Total GULP energy -78188.120276 kJ/mol
# GULP energy per Si atom -5584.865734 kJ/mol
# Density = 2.224810 g / cm^3
# Si number density = 22.298854 Si / 1000 Ang^3
#
#
#
# Elastic Constant Matrix: (Units=GPa)
#
#
# Indices 1 2 3 4 5 6 
#
# 1 90.1929 1.3253 13.3323 -12.9878 13.2578 14.0205
# 2 1.3253 65.7414 -2.3854 -2.8829 4.0648 2.1749
# 3 13.3323 -2.3854 61.1150 12.1760 2.8393 17.4554
# 4 -12.9878 -2.8829 12.1760 30.6300 -2.3296 -4.9495
# 5 13.2578 4.0648 2.8393 -2.3296 33.3662 2.9359
# 6 14.0205 2.1749 17.4554 -4.9495 2.9359 28.4040
#
#
#
# Elastic Compliance Matrix: (Units=1/GPa)
#
#
# Indices 1 2 3 4 5 6 
#
# 1 0.013581 0.000271 -0.003001 0.006096 -0.004453 -0.003358
# 2 0.000271 0.015441 0.000907 0.000817 -0.001874 -0.001538
# 3 -0.003001 0.000907 0.024258 -0.013420 -0.000531 -0.015779
# 4 0.006096 0.000817 -0.013420 0.042712 0.000497 0.012567
# 5 -0.004453 -0.001874 -0.000531 0.000497 0.032098 -0.000563
# 6 -0.003358 -0.001538 -0.015779 0.012567 -0.000563 0.048927
#
#
# Mechanical properties :
#
#
# Convention : Reuss Voigt Hill
#
# Bulk Modulus (GPa) = 20.14708 26.84374 23.49541
# Shear Modulus (GPa) = 25.35409 32.13185 28.74297
#
# Velocity S-wave (km/s) = 3.37562 3.80012 3.59414
# Velocity P-wave (km/s) = 4.92420 5.59633 5.27099
#
# Compressibility (1/GPa) = 0.04963499
#
# Stress axis : x y z
#
# Youngs Moduli (GPa) = 73.63071 64.76225 41.22402
#
# Poissons Ratio (x) = -0.01756 0.12370
# Poissons Ratio (y) = -0.01996 -0.03739
# Poissons Ratio (z) = 0.22094 -0.05874
#
# Static dielectric constant tensor:
#      x y z
#    x 1.825520 -0.015890 0.004570 
#    y -0.015890 1.796070 -0.039420 
#    z 0.004570 -0.039420 1.854270 
# 
# From -- ./inp_files/515737.got.cif
#   From: 2010.05.17/outbox.cif.g08.bks.cpg/sg2_258_cif.got.tgz:515737.got - 2010.06.03 11:33:40.
