data_PCOD9027841
_publ_section_title
;
Structure prediction by ZEFSAII (Michael W. Deem and Ramdas Pophale) SiO2 
 PCOD9027841
Probable space group: P -1
;
_chemical_formula_sum "Si O2"
_cell_formula_units_Z 16
_cell_length_a 8.886846
_cell_length_b 15.047286
_cell_length_c 17.645593
_cell_angle_alpha 40.472910
_cell_angle_beta 43.040965
_cell_angle_gamma 31.509157
_cell_volume 776.546121
_symmetry_space_group_name_H-M "P -1"
_symmetry_group_IT_number 2
_symmetry_cell_setting 'triclinic'
loop_
_space_group_symop_operation_xyz
x,y,z
-x,-y,-z
loop_
_atom_site_type_symbol
_atom_site_label
_atom_site_fract_x
_atom_site_fract_y
_atom_site_fract_z
Si Si1 0.269118 0.166033 0.254216
Si Si2 0.185874 0.504509 0.534913
Si Si3 0.207248 0.111237 0.484632
Si Si4 0.711882 0.115462 0.667844
Si Si5 0.792083 0.409784 0.701759
Si Si6 0.364635 0.907118 0.113915
Si Si7 0.764330 0.524081 0.126887
Si Si8 0.114098 0.992037 0.880414
O O1 0.284282 0.113205 0.369086
O O2 0.959730 0.364029 0.220391
O O3 0.312897 0.020127 0.276253
O O4 0.534113 0.162492 0.147045
O O5 0.483074 0.314585 0.582790
O O6 0.248066 0.540572 0.405084
O O7 0.036810 0.683120 0.525009
O O8 0.944117 0.482167 0.632085
O O9 0.047162 0.031192 0.593832
O O10 0.500000 0.000000 0.500000
O O11 0.641535 0.135099 0.769612
O O12 0.484001 0.483337 0.804220
O O13 0.020235 0.188187 0.770294
O O14 0.568259 0.721949 0.109871
O O15 0.044409 0.030737 0.111287
O O16 0.500000 0.000000 0.000000
O O17 0.000000 0.500000 0.000000
O O18 0.000000 0.000000 0.000000
#
# Coordination Sequence:
#
# PCOD9027841 Si02
#       8
#     2   2   2   2   2   2   2   2
#     4  12  24  42  65  98 130 171 218 271 338 382
#     4  11  23  42  69  95 134 176 225 266 331 403
#     4  12  26  40  63 101 137 165 210 283 335 383
#     4  12  24  43  68  93 132 179 222 263 328 409
#     4  10  22  41  69  97 129 179 224 265 327 409
#     4  11  24  44  68  96 128 176 227 267 323 400
#     4  11  23  42  66  97 134 167 219 280 335 380
#     4  11  22  44  69  95 130 176 223 268 319 401
#
# _framework density 20.604054999999999
#
# number of rings (size 3 to 8) (size 9 to 14) (size 15 to 20)
#    0.000    0.750    1.250    8.250    3.500    0.000 
#    2.250    0.625    0.000    0.000    0.000    0.000 
#    0.000    0.000    0.000    0.000    0.000    0.000 
#
# Total GULP energy -89493.621374 kJ/mol
# GULP energy per Si atom -5593.351336 kJ/mol
# Density = 2.055716 g / cm^3
# Si number density = 20.604055 Si / 1000 Ang^3
#
#
#
# Elastic Constant Matrix: (Units=GPa)
#
#
# Indices 1 2 3 4 5 6 
#
# 1 122.7556 22.9845 33.2713 5.1434 -10.0318 -9.6534
# 2 22.9845 45.1437 -3.7613 4.4349 -12.9146 -17.4953
# 3 33.2713 -3.7613 102.5142 16.3944 -0.4126 -3.6583
# 4 5.1434 4.4349 16.3944 39.1782 -2.5751 1.6721
# 5 -10.0318 -12.9146 -0.4126 -2.5751 45.9095 3.8984
# 6 -9.6534 -17.4953 -3.6583 1.6721 3.8984 38.6697
#
#
#
# Elastic Compliance Matrix: (Units=1/GPa)
#
#
# Indices 1 2 3 4 5 6 
#
# 1 0.010159 -0.005520 -0.003653 0.000885 0.000719 -0.000418
# 2 -0.005520 0.032935 0.004297 -0.004938 0.006677 0.013470
# 3 -0.003653 0.004297 0.012004 -0.005130 0.000028 0.002387
# 4 0.000885 -0.004938 -0.005130 0.028319 0.000669 -0.003790
# 5 0.000719 0.006677 0.000028 0.000669 0.023789 0.000776
# 6 -0.000418 0.013470 0.002387 -0.003790 0.000776 0.032161
#
#
# Mechanical properties :
#
#
# Convention : Reuss Voigt Hill
#
# Bulk Modulus (GPa) = 22.05264 41.71140 31.88202
# Shear Modulus (GPa) = 30.44434 39.27943 34.86188
#
# Velocity S-wave (km/s) = 3.84811 4.37096 4.11784
# Velocity P-wave (km/s) = 5.51999 6.76476 6.17382
#
# Compressibility (1/GPa) = 0.04534605
#
# Stress axis : x y z
#
# Youngs Moduli (GPa) = 98.43750 30.36285 83.30775
#
# Poissons Ratio (x) = 0.16759 0.30433
# Poissons Ratio (y) = 0.54333 -0.35797
# Poissons Ratio (z) = 0.35960 -0.13047
#
# Static dielectric constant tensor:
#      x y z
#    x 1.707460 -0.032770 -0.048550 
#    y -0.032770 1.693280 -0.012920 
#    z -0.048550 -0.012920 1.691170 
# 
# From -- ./inp_files/185406.got.cif
#   From: 2010.05.17/outbox.cif.g08.bks.cpg/sg2_93_cif.got.tgz:185406.got - 2010.06.03 11:33:40.
