data_PCOD9027972
_publ_section_title
;
Structure prediction by ZEFSAII (Michael W. Deem and Ramdas Pophale) SiO2 
 PCOD9027972
Probable space group: P -1
;
_chemical_formula_sum "Si O2"
_cell_formula_units_Z 16
_cell_length_a 5.126365
_cell_length_b 19.317809
_cell_length_c 11.728907
_cell_angle_alpha 136.067412
_cell_angle_beta 60.081477
_cell_angle_gamma 115.925841
_cell_volume 692.575470
_symmetry_space_group_name_H-M "P -1"
_symmetry_group_IT_number 2
_symmetry_cell_setting 'triclinic'
loop_
_space_group_symop_operation_xyz
x,y,z
-x,-y,-z
loop_
_atom_site_type_symbol
_atom_site_label
_atom_site_fract_x
_atom_site_fract_y
_atom_site_fract_z
Si Si1 0.205405 0.104720 0.449022
Si Si2 0.232198 0.562990 0.111676
Si Si3 0.785623 0.237261 0.754957
Si Si4 0.356730 0.001296 0.905978
Si Si5 0.311998 0.389989 0.283559
Si Si6 0.683570 0.210230 0.989825
Si Si7 0.958811 0.509829 0.340464
Si Si8 0.203405 0.096165 0.716950
O O1 0.517660 0.087591 0.300655
O O2 0.200218 0.097902 0.580510
O O3 0.069189 0.208918 0.588541
O O4 0.958474 0.014101 0.347908
O O5 0.346481 0.673455 0.171607
O O6 0.090783 0.569793 0.274175
O O7 0.500000 0.500000 0.000000
O O8 0.000000 0.500000 0.000000
O O9 0.829243 0.267305 0.911662
O O10 0.552381 0.135825 0.708541
O O11 0.484371 0.101395 0.925502
O O12 0.500000 0.000000 0.000000
O O13 0.000000 0.000000 0.000000
O O14 0.620692 0.464983 0.323660
O O15 0.069129 0.415122 0.459814
O O16 0.152856 0.421651 0.238358
O O17 0.437160 0.285099 0.160056
O O18 0.006792 0.173829 0.915341
#
# Coordination Sequence:
#
# PCOD9027972 Si02
#       8
#     2   2   2   2   2   2   2   2
#     4   9  21  41  63  95 131 163 222 272 326 399
#     4  12  27  43  66  99 142 172 220 287 335 389
#     4  11  23  38  73  95 129 179 221 276 339 394
#     4  11  27  44  64  95 133 175 210 271 334 392
#     4  10  22  41  70  89 128 174 220 266 319 397
#     4  10  23  40  65  96 124 168 227 265 327 406
#     4  10  22  43  62  96 127 173 217 270 331 381
#     4   9  20  38  66  98 123 167 218 276 328 387
#
# _framework density 23.102177999999999
#
# number of rings (size 3 to 8) (size 9 to 14) (size 15 to 20)
#    0.000    1.750    0.000    3.375   12.250    1.000 
#    0.000    1.250    0.000    0.000    0.000    0.000 
#    0.000    0.000    0.000    0.000    0.000    0.000 
#
# Total GULP energy -89075.777792 kJ/mol
# GULP energy per Si atom -5567.236112 kJ/mol
# Density = 2.304960 g / cm^3
# Si number density = 23.102178 Si / 1000 Ang^3
#
#
#
# Elastic Constant Matrix: (Units=GPa)
#
#
# Indices 1 2 3 4 5 6 
#
# 1 103.8782 13.2624 33.8739 -14.0103 -20.9357 -8.7759
# 2 13.2624 76.0094 30.3498 -14.3968 -6.8231 -17.8958
# 3 33.8739 30.3498 129.0559 3.6086 -37.6797 -11.6595
# 4 -14.0103 -14.3968 3.6086 27.0171 -8.7237 -9.6059
# 5 -20.9357 -6.8231 -37.6797 -8.7237 41.7073 -3.4218
# 6 -8.7759 -17.8958 -11.6595 -9.6059 -3.4218 28.5629
#
#
#
# Elastic Compliance Matrix: (Units=1/GPa)
#
#
# Indices 1 2 3 4 5 6 
#
# 1 0.017938 0.009405 -0.000384 0.028333 0.018004 0.022933
# 2 0.009405 0.030662 -0.001564 0.041334 0.020069 0.037768
# 3 -0.000384 -0.001564 0.012133 0.003423 0.011755 0.006415
# 4 0.028333 0.041334 0.003423 0.121120 0.056259 0.083473
# 5 0.018004 0.020069 0.011755 0.056259 0.062732 0.049340
# 6 0.022933 0.037768 0.006415 0.083473 0.049340 0.102321
#
#
# Mechanical properties :
#
#
# Convention : Reuss Voigt Hill
#
# Bulk Modulus (GPa) = 13.21903 51.54620 32.38261
# Shear Modulus (GPa) = 13.99746 34.88794 24.44270
#
# Velocity S-wave (km/s) = 2.46416 3.89029 3.25626
# Velocity P-wave (km/s) = 3.71894 6.52226 5.30897
#
# Compressibility (1/GPa) = 0.07564854
#
# Stress axis : x y z
#
# Youngs Moduli (GPa) = 55.74654 32.61361 82.42010
#
# Poissons Ratio (x) = -0.30674 0.03166
# Poissons Ratio (y) = -0.52432 0.12888
# Poissons Ratio (z) = 0.02141 0.05100
#
# Static dielectric constant tensor:
#      x y z
#    x 1.979640 -0.011240 0.041190 
#    y -0.011240 1.861390 -0.041580 
#    z 0.041190 -0.041580 2.197360 
# 
# From -- ./inp_files/369467.got.cif
#   From: 2010.05.17/outbox.cif.g08.bks.cpg/sg2_185_cif.got.tgz:369467.got - 2010.06.03 11:33:40.
