data_PCOD9027347
_publ_section_title
;
Structure prediction by ZEFSAII (Michael W. Deem and Ramdas Pophale) SiO2 
 PCOD9027347
Probable space group: P -1
;
_chemical_formula_sum "Si O2"
_cell_formula_units_Z 16
_cell_length_a 11.181188
_cell_length_b 14.102830
_cell_length_c 11.444695
_cell_angle_alpha 117.816401
_cell_angle_beta 82.825094
_cell_angle_gamma 147.705831
_cell_volume 700.396055
_symmetry_space_group_name_H-M "P -1"
_symmetry_group_IT_number 2
_symmetry_cell_setting 'triclinic'
loop_
_space_group_symop_operation_xyz
x,y,z
-x,-y,-z
loop_
_atom_site_type_symbol
_atom_site_label
_atom_site_fract_x
_atom_site_fract_y
_atom_site_fract_z
Si Si1 0.087285 0.956277 0.408383
Si Si2 0.254751 0.676485 0.835679
Si Si3 0.753881 0.774755 0.654166
Si Si4 0.551035 0.030226 0.212197
Si Si5 0.718541 0.107858 0.608903
Si Si6 0.243858 0.026896 0.794774
Si Si7 0.703512 0.564638 0.040705
Si Si8 0.815939 0.001920 0.944031
O O1 0.239006 0.984282 0.477349
O O2 0.833903 0.694817 0.225708
O O3 0.261470 0.137722 0.381909
O O4 0.000000 0.000000 0.500000
O O5 0.228815 0.734893 0.761727
O O6 0.528196 0.829604 0.859438
O O7 0.000902 0.397531 0.727535
O O8 0.336330 0.807270 0.017760
O O9 0.500000 0.500000 0.500000
O O10 0.776882 0.848284 0.819690
O O11 0.022046 0.916095 0.685706
O O12 0.388643 0.972243 0.290560
O O13 0.697124 0.050525 0.276528
O O14 0.500000 0.000000 0.500000
O O15 0.528602 0.317604 0.921058
O O16 0.136526 0.947339 0.895586
O O17 0.500000 0.500000 0.000000
O O18 0.939671 0.755012 0.023641
#
# Coordination Sequence:
#
# PCOD9027347 Si02
#       8
#     2   2   2   2   2   2   2   2
#     4  11  26  45  65 100 140 182 232 288 351 414
#     4  10  23  45  74 102 136 187 231 305 351 418
#     4  11  25  39  63  97 140 181 223 281 347 413
#     4  10  23  43  72 103 136 176 246 289 353 412
#     4  12  28  46  73 101 144 195 235 289 354 428
#     4  11  23  41  69 102 135 183 226 293 342 420
#     4  11  22  41  70 101 139 184 233 291 348 421
#     4  10  22  41  67  96 137 176 235 281 358 401
#
# _framework density 22.844218000000001
#
# number of rings (size 3 to 8) (size 9 to 14) (size 15 to 20)
#    0.000    1.250    2.500    3.750    5.250    4.500 
#    0.000    0.000    0.000    0.000    0.000    0.000 
#    0.000    0.000    0.000    0.000    0.000    0.000 
#
# Total GULP energy -89465.159601 kJ/mol
# GULP energy per Si atom -5591.572475 kJ/mol
# Density = 2.279222 g / cm^3
# Si number density = 22.844218 Si / 1000 Ang^3
#
#
#
# Elastic Constant Matrix: (Units=GPa)
#
#
# Indices 1 2 3 4 5 6 
#
# 1 146.0568 28.7220 36.4937 -6.8262 0.1739 -7.8709
# 2 28.7220 98.8886 40.2293 -7.8606 -5.2408 4.9270
# 3 36.4937 40.2293 46.3401 7.5913 -3.8955 7.9659
# 4 -6.8262 -7.8606 7.5913 31.1345 3.9586 -8.1222
# 5 0.1739 -5.2408 -3.8955 3.9586 37.3980 -7.6193
# 6 -7.8709 4.9270 7.9659 -8.1222 -7.6193 42.2209
#
#
#
# Elastic Compliance Matrix: (Units=1/GPa)
#
#
# Indices 1 2 3 4 5 6 
#
# 1 0.009977 0.002189 -0.011838 0.007036 -0.000685 0.005068
# 2 0.002189 0.018389 -0.020232 0.011146 0.000145 0.004250
# 3 -0.011838 -0.020232 0.055375 -0.025379 0.002681 -0.014692
# 4 0.007036 0.011146 -0.025379 0.046519 -0.003361 0.013142
# 5 -0.000685 0.000145 0.002681 -0.003361 0.028169 0.003786
# 6 0.005068 0.004250 -0.014692 0.013142 0.003786 0.030117
#
#
# Mechanical properties :
#
#
# Convention : Reuss Voigt Hill
#
# Bulk Modulus (GPa) = 41.70548 55.79729 48.75138
# Shear Modulus (GPa) = 19.50806 34.54006 27.02406
#
# Velocity S-wave (km/s) = 2.92543 3.89264 3.44317
# Velocity P-wave (km/s) = 5.45041 6.68444 6.09871
#
# Compressibility (1/GPa) = 0.02397766
#
# Stress axis : x y z
#
# Youngs Moduli (GPa) = 100.23108 54.37905 18.05853
#
# Poissons Ratio (x) = -0.11902 0.21379
# Poissons Ratio (y) = -0.21938 0.36537
# Poissons Ratio (z) = 1.18659 1.10022
#
# Static dielectric constant tensor:
#      x y z
#    x 1.913200 -0.019040 0.010040 
#    y -0.019040 1.829170 -0.045820 
#    z 0.010040 -0.045820 1.869120 
# 
# From -- ./inp_files/434210.got.cif
#   From: 2010.05.17/outbox.cif.g08.bks.cpg/sg2_218_cif.got.tgz:434210.got - 2010.06.03 11:33:40.
