data_PCOD9027478
_publ_section_title
;
Structure prediction by ZEFSAII (Michael W. Deem and Ramdas Pophale) SiO2 
 PCOD9027478
Probable space group: P -1
;
_chemical_formula_sum "Si O2"
_cell_formula_units_Z 16
_cell_length_a 7.672722
_cell_length_b 15.316280
_cell_length_c 10.311232
_cell_angle_alpha 136.898008
_cell_angle_beta 108.152698
_cell_angle_gamma 97.673696
_cell_volume 653.956411
_symmetry_space_group_name_H-M "P -1"
_symmetry_group_IT_number 2
_symmetry_cell_setting 'triclinic'
loop_
_space_group_symop_operation_xyz
x,y,z
-x,-y,-z
loop_
_atom_site_type_symbol
_atom_site_label
_atom_site_fract_x
_atom_site_fract_y
_atom_site_fract_z
Si Si1 0.635686 0.505018 0.911354
Si Si2 0.909163 0.956804 0.575851
Si Si3 0.542845 0.198182 0.621557
Si Si4 0.492752 0.384436 0.476128
Si Si5 0.627489 0.927072 0.825615
Si Si6 0.939509 0.245088 0.877572
Si Si7 0.874342 0.175949 0.340462
Si Si8 0.016587 0.509915 0.358316
O O1 0.689362 0.377383 0.814937
O O2 0.479519 0.438393 0.675264
O O3 0.500000 0.500000 0.000000
O O4 0.860419 0.653413 0.067406
O O5 0.646576 0.836341 0.361071
O O6 0.012821 0.883338 0.604514
O O7 0.972473 0.123218 0.822447
O O8 0.000000 0.000000 0.500000
O O9 0.386396 0.107986 0.366089
O O10 0.708306 0.151279 0.645745
O O11 0.500000 0.500000 0.500000
O O12 0.346718 0.200196 0.234535
O O13 0.733797 0.418608 0.549664
O O14 0.379629 0.889673 0.748180
O O15 0.821037 0.093259 0.098589
O O16 0.901772 0.347607 0.081250
O O17 0.017960 0.360007 0.561051
O O18 0.000000 0.500000 0.500000
#
# Coordination Sequence:
#
# PCOD9027478 Si02
#       8
#     2   2   2   2   2   2   2   2
#     4  10  22  41  68 103 137 190 239 292 365 424
#     4  12  27  45  69 108 147 190 241 297 364 432
#     4  11  24  44  69 101 141 188 241 295 365 424
#     4   9  20  38  64 100 142 174 232 294 352 434
#     4   9  21  42  70  97 134 188 229 293 360 426
#     4  11  25  45  71 106 147 185 243 304 358 437
#     4  10  23  45  70  99 142 184 240 289 356 435
#     4  10  24  44  68 103 139 188 240 294 362 428
#
# _framework density 24.466462
#
# number of rings (size 3 to 8) (size 9 to 14) (size 15 to 20)
#    0.000    1.750    0.000    3.000    5.250    5.500 
#    4.500    0.000    0.000    0.000    0.000    0.000 
#    0.000    0.000    0.000    0.000    0.000    0.000 
#
# Total GULP energy -89334.315353 kJ/mol
# GULP energy per Si atom -5583.394710 kJ/mol
# Density = 2.441078 g / cm^3
# Si number density = 24.466462 Si / 1000 Ang^3
#
#
#
# Elastic Constant Matrix: (Units=GPa)
#
#
# Indices 1 2 3 4 5 6 
#
# 1 115.4761 74.3003 26.0084 1.4291 3.1526 -3.9156
# 2 74.3003 160.0569 51.4523 8.4684 -17.3587 -28.7267
# 3 26.0084 51.4523 82.7449 10.6005 -23.3639 -13.8087
# 4 1.4291 8.4684 10.6005 38.1761 5.3806 -1.3445
# 5 3.1526 -17.3587 -23.3639 5.3806 30.6467 -3.0127
# 6 -3.9156 -28.7267 -13.8087 -1.3445 -3.0127 52.3592
#
#
#
# Elastic Compliance Matrix: (Units=1/GPa)
#
#
# Indices 1 2 3 4 5 6 
#
# 1 0.014410 -0.007511 -0.003765 0.003372 -0.009642 -0.004505
# 2 -0.007511 0.012383 -0.001858 -0.002786 0.007459 0.006100
# 3 -0.003765 -0.001858 0.021110 -0.007562 0.017254 0.005065
# 4 0.003372 -0.002786 -0.007562 0.030556 -0.013375 -0.003256
# 5 -0.009642 0.007459 0.017254 -0.013375 0.054401 0.010708
# 6 -0.004505 0.006100 0.005065 -0.003256 0.010708 0.023977
#
#
# Mechanical properties :
#
#
# Convention : Reuss Voigt Hill
#
# Bulk Modulus (GPa) = 46.22335 73.53332 59.87833
# Shear Modulus (GPa) = 26.27195 38.00420 32.13808
#
# Velocity S-wave (km/s) = 3.28044 3.94549 3.62823
# Velocity P-wave (km/s) = 5.76905 7.13273 6.48682
#
# Compressibility (1/GPa) = 0.02163409
#
# Stress axis : x y z
#
# Youngs Moduli (GPa) = 69.39841 80.75494 47.37127
#
# Poissons Ratio (x) = 0.60659 0.17834
# Poissons Ratio (y) = 0.52128 0.08802
# Poissons Ratio (z) = 0.26127 0.15004
#
# Static dielectric constant tensor:
#      x y z
#    x 2.076270 -0.053230 -0.116520 
#    y -0.053230 1.987350 0.026110 
#    z -0.116520 0.026110 2.089360 
# 
# From -- ./inp_files/209154.got.cif
#   From: 2010.05.17/outbox.cif.g08.bks.cpg/sg2_105_cif.got.tgz:209154.got - 2010.06.03 11:33:40.
