data_PCOD9027383
_publ_section_title
;
Structure prediction by ZEFSAII (Michael W. Deem and Ramdas Pophale) SiO2 
 PCOD9027383
Probable space group: P -1
;
_chemical_formula_sum "Si O2"
_cell_formula_units_Z 16
_cell_length_a 15.133582
_cell_length_b 8.304189
_cell_length_c 9.122861
_cell_angle_alpha 122.175466
_cell_angle_beta 85.109914
_cell_angle_gamma 60.740202
_cell_volume 748.203016
_symmetry_space_group_name_H-M "P -1"
_symmetry_group_IT_number 2
_symmetry_cell_setting 'triclinic'
loop_
_space_group_symop_operation_xyz
x,y,z
-x,-y,-z
loop_
_atom_site_type_symbol
_atom_site_label
_atom_site_fract_x
_atom_site_fract_y
_atom_site_fract_z
Si Si1 0.055411 0.021536 0.143345
Si Si2 0.930107 0.878103 0.258588
Si Si3 0.688808 0.302834 0.979269
Si Si4 0.072806 0.376135 0.161006
Si Si5 0.545876 0.745282 0.705298
Si Si6 0.326722 0.097993 0.091444
Si Si7 0.311430 0.749044 0.383760
Si Si8 0.503487 0.218954 0.597033
O O1 0.191649 0.802418 0.014343
O O2 0.001035 0.974810 0.261533
O O3 0.037713 0.273355 0.245001
O O4 0.000000 0.000000 0.000000
O O5 0.988790 0.662463 0.267982
O O6 0.803360 0.103866 0.436103
O O7 0.921097 0.763397 0.055010
O O8 0.709664 0.280489 0.793372
O O9 0.663942 0.121776 0.944420
O O10 0.582147 0.574019 0.173484
O O11 0.197729 0.288886 0.142288
O O12 0.633553 0.799339 0.746847
O O13 0.591853 0.518490 0.693644
O O14 0.540358 0.674896 0.508409
O O15 0.420040 0.981403 0.890832
O O16 0.368993 0.877606 0.444101
O O17 0.500000 0.000000 0.500000
#
# Coordination Sequence:
#
# PCOD9027383 Si02
#       8
#     2   2   2   2   2   2   2   2
#     4   9  21  40  67  95 129 180 223 278 336 396
#     4  10  22  41  67  97 139 175 230 274 346 402
#     4  11  25  45  67  97 140 176 223 285 339 402
#     4   9  20  41  68  99 130 181 225 286 331 409
#     4  11  25  40  70 101 131 182 221 278 342 410
#     4  10  22  44  68  94 140 170 228 276 347 392
#     4  12  26  44  67 102 139 175 223 281 343 406
#     4  12  27  43  69 100 135 179 228 276 341 409
#
# _framework density 21.38457
#
# number of rings (size 3 to 8) (size 9 to 14) (size 15 to 20)
#    0.000    1.500    1.250    2.250   10.500    3.500 
#    2.250    1.250    0.000    0.000    0.000    0.000 
#    0.000    0.000    0.000    0.000    0.000    0.000 
#
# Total GULP energy -89452.391945 kJ/mol
# GULP energy per Si atom -5590.774497 kJ/mol
# Density = 2.133590 g / cm^3
# Si number density = 21.384570 Si / 1000 Ang^3
#
#
#
# Elastic Constant Matrix: (Units=GPa)
#
#
# Indices 1 2 3 4 5 6 
#
# 1 123.2044 20.3208 17.2524 4.5805 -17.0446 6.7217
# 2 20.3208 61.7310 -9.5197 1.6350 -6.7271 -0.6778
# 3 17.2524 -9.5197 40.5006 -0.6089 -4.1206 4.7609
# 4 4.5805 1.6350 -0.6089 15.9521 -1.7321 0.0578
# 5 -17.0446 -6.7271 -4.1206 -1.7321 27.7373 -4.1841
# 6 6.7217 -0.6778 4.7609 0.0578 -4.1841 27.6276
#
#
#
# Elastic Compliance Matrix: (Units=1/GPa)
#
#
# Indices 1 2 3 4 5 6 
#
# 1 0.010081 -0.003502 -0.004580 -0.002233 0.004362 -0.001084
# 2 -0.003502 0.018684 0.006133 -0.000310 0.003387 0.000767
# 3 -0.004580 0.006133 0.028766 0.002076 0.002577 -0.003306
# 4 -0.002233 -0.000310 0.002076 0.063755 0.002916 0.000486
# 5 0.004362 0.003387 0.002577 0.002916 0.040837 0.004756
# 6 -0.001084 0.000767 -0.003306 0.000486 0.004756 0.037767
#
#
# Mechanical properties :
#
#
# Convention : Reuss Voigt Hill
#
# Bulk Modulus (GPa) = 18.64531 31.28254 24.96392
# Shear Modulus (GPa) = 22.55657 27.42224 24.98941
#
# Velocity S-wave (km/s) = 3.25130 3.58486 3.42215
# Velocity P-wave (km/s) = 4.77835 5.63873 5.22627
#
# Compressibility (1/GPa) = 0.05363279
#
# Stress axis : x y z
#
# Youngs Moduli (GPa) = 99.19447 53.52252 34.76365
#
# Poissons Ratio (x) = 0.18745 0.15921
# Poissons Ratio (y) = 0.34740 -0.21321
# Poissons Ratio (z) = 0.45430 -0.32827
#
# Static dielectric constant tensor:
#      x y z
#    x 1.784030 0.022100 0.006600 
#    y 0.022100 1.831590 -0.030790 
#    z 0.006600 -0.030790 1.737910 
# 
# From -- ./inp_files/299487.got.cif
#   From: 2010.05.17/outbox.cif.g08.bks.cpg/sg2_150_cif.got.tgz:299487.got - 2010.06.03 11:33:40.
