data_PCOD9027012
_publ_section_title
;
Structure prediction by ZEFSAII (Michael W. Deem and Ramdas Pophale) SiO2 
 PCOD9027012
Probable space group: P -1
;
_chemical_formula_sum "Si O2"
_cell_formula_units_Z 14
_cell_length_a 12.717100
_cell_length_b 9.721846
_cell_length_c 12.476794
_cell_angle_alpha 23.267503
_cell_angle_beta 100.816836
_cell_angle_gamma 98.891614
_cell_volume 597.886051
_symmetry_space_group_name_H-M "P -1"
_symmetry_group_IT_number 2
_symmetry_cell_setting 'triclinic'
loop_
_space_group_symop_operation_xyz
x,y,z
-x,-y,-z
loop_
_atom_site_type_symbol
_atom_site_label
_atom_site_fract_x
_atom_site_fract_y
_atom_site_fract_z
Si Si1 0.256436 0.241297 0.980938
Si Si2 0.049527 0.221575 0.623076
Si Si3 0.806911 0.098837 0.409475
Si Si4 0.377349 0.231141 0.507879
Si Si5 0.128063 0.291181 0.119479
Si Si6 0.176892 0.743709 0.147790
Si Si7 0.502635 0.813383 0.018053
O O1 0.210350 0.638539 0.681063
O O2 0.377640 0.206547 0.991279
O O3 0.233657 0.191251 0.138483
O O4 0.187446 0.989116 0.077952
O O5 0.092996 0.452309 0.369179
O O6 0.000000 0.500000 0.500000
O O7 0.963474 0.947942 0.767945
O O8 0.144044 0.997757 0.862181
O O9 0.694613 0.040647 0.373264
O O10 0.850494 0.748933 0.722693
O O11 0.886275 0.300880 0.204551
O O12 0.290652 0.538217 0.303352
O O13 0.459990 0.428462 0.307176
O O14 0.431646 0.042323 0.755831
O O15 0.500000 0.000000 0.000000
#
# Coordination Sequence:
#
# PCOD9027012 Si02
#       7
#     2   2   2   2   2   2   2
#     4  10  25  40  69  93 134 168 224 266 332 373
#     4  12  22  40  68 102 128 171 221 271 324 388
#     4  10  23  44  66  91 138 173 214 271 324 382
#     4  12  27  46  65  98 137 171 221 269 324 398
#     4  10  22  41  66  94 133 165 222 271 322 380
#     4  12  25  40  68  98 134 170 218 274 330 378
#     4  12  26  43  71  97 133 172 220 270 333 384
#
# _framework density 23.415834
#
# number of rings (size 3 to 8) (size 9 to 14) (size 15 to 20)
#    0.857    0.000    2.857    4.286    2.000    1.143 
#    0.000    4.286    0.000    0.000    0.000    0.000 
#    0.000    0.000    0.000    0.000    0.000    0.000 
#
# Total GULP energy -78278.605375 kJ/mol
# GULP energy per Si atom -5591.328955 kJ/mol
# Density = 2.336254 g / cm^3
# Si number density = 23.415834 Si / 1000 Ang^3
#
#
#
# Elastic Constant Matrix: (Units=GPa)
#
#
# Indices 1 2 3 4 5 6 
#
# 1 105.3369 29.8412 30.9582 1.0268 -18.4899 -3.3466
# 2 29.8412 81.2148 53.8369 -4.6657 -12.1970 11.8784
# 3 30.9582 53.8369 133.5072 19.8430 -16.2909 5.9252
# 4 1.0268 -4.6657 19.8430 52.8883 6.5274 -1.1137
# 5 -18.4899 -12.1970 -16.2909 6.5274 39.0255 -7.4207
# 6 -3.3466 11.8784 5.9252 -1.1137 -7.4207 35.1844
#
#
#
# Elastic Compliance Matrix: (Units=1/GPa)
#
#
# Indices 1 2 3 4 5 6 
#
# 1 0.011714 -0.003685 -0.000659 -0.000840 0.004926 0.003482
# 2 -0.003685 0.019716 -0.007604 0.004620 -0.000617 -0.005710
# 3 -0.000659 -0.007604 0.011898 -0.005520 0.003400 0.001043
# 4 -0.000840 0.004620 -0.005520 0.022015 -0.005150 -0.001099
# 5 0.004926 -0.000617 0.003400 -0.005150 0.031289 0.006540
# 6 0.003482 -0.005710 0.001043 -0.001099 0.006540 0.031850
#
#
# Mechanical properties :
#
#
# Convention : Reuss Voigt Hill
#
# Bulk Modulus (GPa) = 51.46231 61.03685 56.24958
# Shear Modulus (GPa) = 31.47481 39.11447 35.29464
#
# Velocity S-wave (km/s) = 3.67027 4.09152 3.88661
# Velocity P-wave (km/s) = 6.32348 6.96016 6.64944
#
# Compressibility (1/GPa) = 0.01943170
#
# Stress axis : x y z
#
# Youngs Moduli (GPa) = 85.36470 50.72036 84.04436
#
# Poissons Ratio (x) = 0.18691 0.05538
# Poissons Ratio (y) = 0.31459 0.63911
# Poissons Ratio (z) = 0.05625 0.38570
#
# Static dielectric constant tensor:
#      x y z
#    x 1.870070 -0.009300 -0.010040 
#    y -0.009300 1.861840 -0.025290 
#    z -0.010040 -0.025290 1.964620 
# 
# From -- ./inp_files/518497.got.cif
#   From: 2010.05.17/outbox.cif.g08.bks.cpg/sg2_260_cif.got.tgz:518497.got - 2010.06.03 11:33:40.
