data_PCOD9027177
_publ_section_title
;
Structure prediction by ZEFSAII (Michael W. Deem and Ramdas Pophale) SiO2 
 PCOD9027177
Probable space group: P -1
;
_chemical_formula_sum "Si O2"
_cell_formula_units_Z 14
_cell_length_a 5.233237
_cell_length_b 8.166717
_cell_length_c 16.945864
_cell_angle_alpha 122.800998
_cell_angle_beta 116.353237
_cell_angle_gamma 70.832233
_cell_volume 541.773525
_symmetry_space_group_name_H-M "P -1"
_symmetry_group_IT_number 2
_symmetry_cell_setting 'triclinic'
loop_
_space_group_symop_operation_xyz
x,y,z
-x,-y,-z
loop_
_atom_site_type_symbol
_atom_site_label
_atom_site_fract_x
_atom_site_fract_y
_atom_site_fract_z
Si Si1 0.508819 0.881598 0.771125
Si Si2 0.546259 0.680764 0.158644
Si Si3 0.962833 0.260078 0.655099
Si Si4 0.817675 0.882002 0.524504
Si Si5 0.145421 0.914936 0.892101
Si Si6 0.591552 0.504662 0.424506
Si Si7 0.675979 0.692575 0.996111
O O1 0.311930 0.899930 0.827044
O O2 0.382734 0.716228 0.659572
O O3 0.843409 0.829445 0.827298
O O4 0.536542 0.086530 0.782971
O O5 0.796845 0.629687 0.243235
O O6 0.314656 0.526522 0.095004
O O7 0.668565 0.665864 0.082375
O O8 0.047579 0.183423 0.558928
O O9 0.660988 0.390725 0.639990
O O10 0.949194 0.046807 0.637486
O O11 0.809248 0.667987 0.501940
O O12 0.500000 0.000000 0.500000
O O13 0.366133 0.803600 0.955302
O O14 0.113263 0.152219 0.963341
O O15 0.500000 0.500000 0.500000
#
# Coordination Sequence:
#
# PCOD9027177 Si02
#       7
#     2   2   2   2   2   2   2
#     4  11  26  43  69 102 137 183 228 281 342 408
#     4  10  22  41  67 101 132 179 227 279 345 406
#     4  10  22  45  68  93 137 177 225 285 344 410
#     4   9  22  42  68  96 127 180 224 284 342 407
#     4  10  23  47  69  98 140 178 230 282 341 403
#     4  11  26  42  65  99 135 181 231 283 343 409
#     4   9  21  42  71  98 136 179 228 282 339 408
#
# _framework density 25.841058
#
# number of rings (size 3 to 8) (size 9 to 14) (size 15 to 20)
#    0.000    2.000    0.000    0.857   10.000    8.571 
#    5.143    2.857    0.000    0.000    0.000    0.000 
#    0.000    0.000    0.000    0.000    0.000    0.000 
#
# Total GULP energy -78228.573404 kJ/mol
# GULP energy per Si atom -5587.755243 kJ/mol
# Density = 2.578224 g / cm^3
# Si number density = 25.841058 Si / 1000 Ang^3
#
#
#
# Elastic Constant Matrix: (Units=GPa)
#
#
# Indices 1 2 3 4 5 6 
#
# 1 70.7682 8.6384 22.0198 15.5578 11.6416 6.9076
# 2 8.6384 122.6231 27.7927 38.6540 -0.9424 -1.1777
# 3 22.0198 27.7927 132.4202 35.6325 23.9077 15.6190
# 4 15.5578 38.6540 35.6325 50.2909 4.5588 7.6223
# 5 11.6416 -0.9424 23.9077 4.5588 30.7893 -2.7738
# 6 6.9076 -1.1777 15.6190 7.6223 -2.7738 35.2467
#
#
#
# Elastic Compliance Matrix: (Units=1/GPa)
#
#
# Indices 1 2 3 4 5 6 
#
# 1 0.016262 0.000122 -0.000358 -0.003978 -0.005512 -0.002598
# 2 0.000122 0.011096 -0.000787 -0.008647 0.002433 0.002757
# 3 -0.000358 -0.000787 0.011375 -0.005937 -0.008235 -0.004361
# 4 -0.003978 -0.008647 -0.005937 0.032488 0.000692 -0.003850
# 5 -0.005512 0.002433 -0.008235 0.000692 0.041645 0.007939
# 6 -0.002598 0.002757 -0.004361 -0.003850 0.007939 0.032363
#
#
# Mechanical properties :
#
#
# Convention : Reuss Voigt Hill
#
# Bulk Modulus (GPa) = 27.25723 49.19037 38.22380
# Shear Modulus (GPa) = 31.34749 41.08941 36.21845
#
# Velocity S-wave (km/s) = 3.48672 3.99191 3.74784
# Velocity P-wave (km/s) = 5.17499 6.35013 5.79244
#
# Compressibility (1/GPa) = 0.03668751
#
# Stress axis : x y z
#
# Youngs Moduli (GPa) = 61.49353 90.12487 87.91174
#
# Poissons Ratio (x) = -0.01100 0.03146
# Poissons Ratio (y) = -0.00750 0.06916
# Poissons Ratio (z) = 0.02200 0.07091
#
# Static dielectric constant tensor:
#      x y z
#    x 2.087610 -0.005260 0.024770 
#    y -0.005260 2.171790 -0.004360 
#    z 0.024770 -0.004360 1.974580 
# 
# From -- ./inp_files/89846.got.cif
#   From: 2010.05.17/outbox.cif.g08.bks.cpg/sg2_45_cif.got.tgz:89846.got - 2010.06.03 11:33:40.
