data_PCOD9027320
_publ_section_title
;
Structure prediction by ZEFSAII (Michael W. Deem and Ramdas Pophale) SiO2 
 PCOD9027320
Probable space group: P -1
;
_chemical_formula_sum "Si O2"
_cell_formula_units_Z 14
_cell_length_a 12.326266
_cell_length_b 9.463676
_cell_length_c 8.467019
_cell_angle_alpha 106.686744
_cell_angle_beta 51.664281
_cell_angle_gamma 133.716832
_cell_volume 542.223574
_symmetry_space_group_name_H-M "P -1"
_symmetry_group_IT_number 2
_symmetry_cell_setting 'triclinic'
loop_
_space_group_symop_operation_xyz
x,y,z
-x,-y,-z
loop_
_atom_site_type_symbol
_atom_site_label
_atom_site_fract_x
_atom_site_fract_y
_atom_site_fract_z
Si Si1 0.575534 0.164574 0.748763
Si Si2 0.627523 0.584421 0.567641
Si Si3 0.989988 0.139580 0.239411
Si Si4 0.924266 0.612101 0.449873
Si Si5 0.112336 0.514153 0.049439
Si Si6 0.299741 0.155815 0.838238
Si Si7 0.460987 0.171892 0.206985
O O1 0.761657 0.383475 0.589874
O O2 0.394941 0.070465 0.771888
O O3 0.612145 0.019336 0.690038
O O4 0.503836 0.166618 0.984907
O O5 0.500000 0.500000 0.500000
O O6 0.819126 0.630495 0.414848
O O7 0.479446 0.395786 0.757733
O O8 0.663408 0.773902 0.657137
O O9 0.013357 0.232620 0.417911
O O10 0.038258 0.308090 0.125974
O O11 0.142448 0.118305 0.076826
O O12 0.798534 0.932568 0.271852
O O13 0.087336 0.627158 0.237632
O O14 0.329992 0.646146 0.854328
O O15 0.000000 0.500000 0.000000
#
# Coordination Sequence:
#
# PCOD9027320 Si02
#       7
#     2   2   2   2   2   2   2
#     4  10  22  42  69 100 125 181 218 281 320 410
#     4  11  23  43  65  97 130 179 219 277 323 402
#     4  11  22  41  69  96 132 177 220 275 331 403
#     4  11  24  43  73  98 134 174 232 269 336 393
#     4  12  24  41  67 101 137 175 216 284 336 393
#     4  10  22  41  67  95 134 174 225 263 341 392
#     4  11  22  41  70  94 139 166 229 270 343 382
#
# _framework density 25.819604999999999
#
# number of rings (size 3 to 8) (size 9 to 14) (size 15 to 20)
#    0.000    1.143    2.857    3.000    0.000    3.429 
#    2.571    4.286    0.000    0.000    0.000    0.000 
#    0.000    0.000    0.000    0.000    0.000    0.000 
#
# Total GULP energy -78455.801391 kJ/mol
# GULP energy per Si atom -5603.985814 kJ/mol
# Density = 2.576084 g / cm^3
# Si number density = 25.819605 Si / 1000 Ang^3
#
#
#
# Elastic Constant Matrix: (Units=GPa)
#
#
# Indices 1 2 3 4 5 6 
#
# 1 116.4545 10.7578 16.9100 -8.2320 -11.7392 -2.0370
# 2 10.7578 108.0453 24.4612 0.0337 -13.7828 -9.2001
# 3 16.9100 24.4612 68.3376 18.9638 -12.8652 -3.7059
# 4 -8.2320 0.0337 18.9638 36.2090 -1.6596 -3.8797
# 5 -11.7392 -13.7828 -12.8652 -1.6596 39.9215 9.4339
# 6 -2.0370 -9.2001 -3.7059 -3.8797 9.4339 46.3974
#
#
#
# Elastic Compliance Matrix: (Units=1/GPa)
#
#
# Indices 1 2 3 4 5 6 
#
# 1 0.009501 0.000000 -0.003049 0.003857 0.001948 0.000100
# 2 0.000000 0.010546 -0.003937 0.002314 0.002104 0.001542
# 3 -0.003049 -0.003937 0.020708 -0.011458 0.004194 -0.001071
# 4 0.003857 0.002314 -0.011458 0.034750 -0.000981 0.002818
# 5 0.001948 0.002104 0.004194 -0.000981 0.028868 -0.005114
# 6 0.000100 0.001542 -0.001071 0.002818 -0.005114 0.023053
#
#
# Mechanical properties :
#
#
# Convention : Reuss Voigt Hill
#
# Bulk Modulus (GPa) = 37.33865 44.12172 40.73019
# Shear Modulus (GPa) = 33.26134 40.55280 36.90707
#
# Velocity S-wave (km/s) = 3.59307 3.96740 3.78487
# Velocity P-wave (km/s) = 5.63084 6.17354 5.90842
#
# Compressibility (1/GPa) = 0.02678190
#
# Stress axis : x y z
#
# Youngs Moduli (GPa) = 105.25744 94.82505 48.29028
#
# Poissons Ratio (x) = -0.00002 0.14724
# Poissons Ratio (y) = -0.00002 0.19013
# Poissons Ratio (z) = 0.32094 0.37335
#
# Static dielectric constant tensor:
#      x y z
#    x 2.033230 0.002600 0.053290 
#    y 0.002600 2.057560 -0.021950 
#    z 0.053290 -0.021950 2.009030 
# 
# From -- ./inp_files/244466.got.cif
#   From: 2010.05.17/outbox.cif.g08.bks.cpg/sg2_123_cif.got.tgz:244466.got - 2010.06.03 11:33:40.
