data_PCOD9027114
_publ_section_title
;
Structure prediction by ZEFSAII (Michael W. Deem and Ramdas Pophale) SiO2 
 PCOD9027114
Probable space group: P -1
;
_chemical_formula_sum "Si O2"
_cell_formula_units_Z 16
_cell_length_a 9.928559
_cell_length_b 16.887805
_cell_length_c 9.652250
_cell_angle_alpha 115.400429
_cell_angle_beta 41.451485
_cell_angle_gamma 87.376414
_cell_volume 763.754482
_symmetry_space_group_name_H-M "P -1"
_symmetry_group_IT_number 2
_symmetry_cell_setting 'triclinic'
loop_
_space_group_symop_operation_xyz
x,y,z
-x,-y,-z
loop_
_atom_site_type_symbol
_atom_site_label
_atom_site_fract_x
_atom_site_fract_y
_atom_site_fract_z
Si Si1 0.454848 0.653447 0.985853
Si Si2 0.999335 0.328654 0.567730
Si Si3 0.383653 0.110741 0.258143
Si Si4 0.514417 0.734799 0.262025
Si Si5 0.333982 0.115332 0.631158
Si Si6 0.243030 0.703985 0.680021
Si Si7 0.945539 0.417780 0.376312
Si Si8 0.465623 0.284061 0.303832
O O1 0.751547 0.543502 0.670120
O O2 0.390466 0.705825 0.923990
O O3 0.295734 0.610782 0.124832
O O4 0.421157 0.743598 0.183778
O O5 0.032108 0.339478 0.387990
O O6 0.131831 0.205602 0.434428
O O7 0.163736 0.356184 0.548604
O O8 0.343466 0.103034 0.447087
O O9 0.542034 0.161428 0.168862
O O10 0.500000 0.000000 0.000000
O O11 0.547236 0.822249 0.366102
O O12 0.318214 0.729690 0.498060
O O13 0.809348 0.622245 0.936239
O O14 0.500000 0.000000 0.500000
O O15 0.036020 0.192686 0.969162
O O16 0.222639 0.605834 0.601967
O O17 0.468863 0.678028 0.585082
#
# Coordination Sequence:
#
# PCOD9027114 Si02
#       8
#     2   2   2   2   2   2   2   2
#     4  12  23  40  71 100 131 180 231 272 335 391
#     4  10  22  41  66  97 137 167 225 283 321 397
#     4  10  23  44  69  93 134 174 220 276 335 388
#     4  11  22  41  66  95 134 171 220 276 328 400
#     4  11  26  44  68  99 136 170 224 284 334 396
#     4  11  24  45  66  95 140 176 219 274 342 395
#     4  11  24  40  70 102 133 175 233 279 322 396
#     4  10  24  43  63  94 138 173 217 276 332 399
#
# _framework density 20.949138999999999
#
# number of rings (size 3 to 8) (size 9 to 14) (size 15 to 20)
#    0.750    0.500    3.750    1.500    5.250    1.000 
#    2.250    2.500    0.000    0.000    0.000    0.000 
#    0.000    0.000    0.000    0.000    0.000    0.000 
#
# Total GULP energy -89148.469012 kJ/mol
# GULP energy per Si atom -5571.779313 kJ/mol
# Density = 2.090146 g / cm^3
# Si number density = 20.949139 Si / 1000 Ang^3
#
#
#
# Elastic Constant Matrix: (Units=GPa)
#
#
# Indices 1 2 3 4 5 6 
#
# 1 77.3924 18.4455 16.1249 13.3936 10.3023 8.0623
# 2 18.4455 74.6737 44.4986 -12.4805 9.9387 -5.8188
# 3 16.1249 44.4986 95.0016 -13.0176 13.3743 -1.7274
# 4 13.3936 -12.4805 -13.0176 26.7003 10.5783 -1.7128
# 5 10.3023 9.9387 13.3743 10.5783 37.8173 -9.9049
# 6 8.0623 -5.8188 -1.7274 -1.7128 -9.9049 41.8512
#
#
#
# Elastic Compliance Matrix: (Units=1/GPa)
#
#
# Indices 1 2 3 4 5 6 
#
# 1 0.017360 -0.005417 -0.002165 -0.012484 -0.000297 -0.004768
# 2 -0.005417 0.021570 -0.007038 0.011149 -0.003966 0.003270
# 3 -0.002165 -0.007038 0.016038 0.007796 -0.005654 -0.000919
# 4 -0.012484 0.011149 0.007796 0.060213 -0.018511 0.002360
# 5 -0.000297 -0.003966 -0.005654 -0.018511 0.036625 0.007183
# 6 -0.004768 0.003270 -0.000919 0.002360 0.007183 0.027026
#
#
# Mechanical properties :
#
#
# Convention : Reuss Voigt Hill
#
# Bulk Modulus (GPa) = 38.86839 45.02288 41.94564
# Shear Modulus (GPa) = 23.07904 32.47366 27.77635
#
# Velocity S-wave (km/s) = 3.32274 3.94143 3.64523
# Velocity P-wave (km/s) = 5.77190 6.50010 6.14679
#
# Compressibility (1/GPa) = 0.02572785
#
# Stress axis : x y z
#
# Youngs Moduli (GPa) = 57.60412 46.36097 62.35237
#
# Poissons Ratio (x) = 0.25112 0.13499
# Poissons Ratio (y) = 0.31201 0.43886
# Poissons Ratio (z) = 0.12471 0.32631
#
# Static dielectric constant tensor:
#      x y z
#    x 1.825580 0.029290 -0.049810 
#    y 0.029290 1.770370 -0.014240 
#    z -0.049810 -0.014240 1.763000 
# 
# From -- ./inp_files/215426.got.cif
#   From: 2010.05.17/outbox.cif.g08.bks.cpg/sg2_108_cif.got.tgz:215426.got - 2010.06.03 11:33:40.
