data_PCOD9027080
_publ_section_title
;
Structure prediction by ZEFSAII (Michael W. Deem and Ramdas Pophale) SiO2 
 PCOD9027080
Probable space group: P -1
;
_chemical_formula_sum "Si O2"
_cell_formula_units_Z 15
_cell_length_a 13.490779
_cell_length_b 11.012653
_cell_length_c 6.740427
_cell_angle_alpha 94.047404
_cell_angle_beta 54.773874
_cell_angle_gamma 122.168381
_cell_volume 650.696367
_symmetry_space_group_name_H-M "P -1"
_symmetry_group_IT_number 2
_symmetry_cell_setting 'triclinic'
loop_
_space_group_symop_operation_xyz
x,y,z
-x,-y,-z
loop_
_atom_site_type_symbol
_atom_site_label
_atom_site_fract_x
_atom_site_fract_y
_atom_site_fract_z
Si Si1 0.441422 0.701778 0.636282
Si Si2 0.191681 0.385697 0.698189
Si Si3 0.000000 0.000000 0.000000
Si Si4 0.595366 0.659329 0.789812
Si Si5 0.908258 0.157705 0.284810
Si Si6 0.294392 0.860212 0.818769
Si Si7 0.977862 0.357129 0.609258
Si Si8 0.291353 0.130831 0.949790
O O1 0.286034 0.542187 0.729269
O O2 0.484961 0.683227 0.801409
O O3 0.423319 0.836550 0.659254
O O4 0.574068 0.742325 0.336661
O O5 0.303641 0.351018 0.487231
O O6 0.116455 0.400656 0.593810
O O7 0.057771 0.244987 0.972119
O O8 0.873715 0.949185 0.962216
O O9 0.118939 0.001541 0.703522
O O10 0.500000 0.500000 0.000000
O O11 0.690394 0.789259 0.857514
O O12 0.778981 0.151746 0.312517
O O13 0.947426 0.242666 0.455423
O O14 0.321937 0.004711 0.912280
O O15 0.162244 0.719971 0.087405
O O16 0.000000 0.500000 0.500000
#
# Coordination Sequence:
#
# PCOD9027080 Si02
#       8
#     2   2   1   2   2   2   2   2
#     4  12  25  43  68  94 142 179 221 282 337 396
#     4  11  24  40  65  99 133 174 227 274 332 399
#     4  10  22  42  70  90 130 174 216 274 328 388
#     4  12  27  42  67 103 133 176 229 277 339 401
#     4  10  22  41  66  96 134 177 224 274 332 394
#     4  10  25  43  65 102 134 180 229 271 336 406
#     4  11  23  40  69  98 135 180 224 279 331 393
#     4  11  25  46  69 100 136 179 226 275 339 405
#
# _framework density 23.052226999999998
#
# number of rings (size 3 to 8) (size 9 to 14) (size 15 to 20)
#    0.000    1.067    1.333    4.000    5.600    6.933 
#    0.000    6.000    0.000    0.000    0.000    0.000 
#    0.000    0.000    0.000    0.000    0.000    0.000 
#
# Total GULP energy -83777.091733 kJ/mol
# GULP energy per Si atom -5585.139449 kJ/mol
# Density = 2.299976 g / cm^3
# Si number density = 23.052227 Si / 1000 Ang^3
#
#
#
# Elastic Constant Matrix: (Units=GPa)
#
#
# Indices 1 2 3 4 5 6 
#
# 1 130.5669 32.2721 53.8707 25.7767 -1.2088 -7.9505
# 2 32.2721 95.1910 24.3021 24.8419 11.6830 10.8164
# 3 53.8707 24.3021 59.2851 12.7492 -1.9320 3.4130
# 4 25.7767 24.8419 12.7492 54.5568 3.6978 7.7398
# 5 -1.2088 11.6830 -1.9320 3.6978 19.4201 9.2920
# 6 -7.9505 10.8164 3.4130 7.7398 9.2920 37.5712
#
#
#
# Elastic Compliance Matrix: (Units=1/GPa)
#
#
# Indices 1 2 3 4 5 6 
#
# 1 0.013842 -0.001126 -0.011623 -0.003990 -0.001489 0.005499
# 2 -0.001126 0.014087 -0.004013 -0.004264 -0.007568 -0.001179
# 3 -0.011623 -0.004013 0.029489 0.000776 0.007326 -0.005955
# 4 -0.003990 -0.004264 0.000776 0.022585 0.000193 -0.004387
# 5 -0.001489 -0.007568 0.007326 0.000193 0.063619 -0.014576
# 6 0.005499 -0.001179 -0.005955 -0.004387 -0.014576 0.033169
#
#
# Mechanical properties :
#
#
# Convention : Reuss Voigt Hill
#
# Bulk Modulus (GPa) = 41.85249 56.21477 49.03363
# Shear Modulus (GPa) = 22.90651 33.94949 28.42800
#
# Velocity S-wave (km/s) = 3.15569 3.84177 3.51550
# Velocity P-wave (km/s) = 5.61006 6.64211 6.14778
#
# Compressibility (1/GPa) = 0.02389344
#
# Stress axis : x y z
#
# Youngs Moduli (GPa) = 72.24624 70.98654 33.91136
#
# Poissons Ratio (x) = 0.07994 0.39415
# Poissons Ratio (y) = 0.08136 0.13608
# Poissons Ratio (z) = 0.83970 0.28487
#
# Static dielectric constant tensor:
#      x y z
#    x 1.820020 0.073820 -0.046740 
#    y 0.073820 1.730090 -0.004130 
#    z -0.046740 -0.004130 1.853480 
# 
# From -- ./inp_files/66520.got.cif
#   From: 2010.05.17/outbox.cif.g08.bks.cpg/sg2_34_cif.got.tgz:66520.got - 2010.06.03 11:33:40.
