data_PCOD9027643
_publ_section_title
;
Structure prediction by ZEFSAII (Michael W. Deem and Ramdas Pophale) SiO2 
 PCOD9027643
Probable space group: P -1
;
_chemical_formula_sum "Si O2"
_cell_formula_units_Z 14
_cell_length_a 8.363415
_cell_length_b 15.559109
_cell_length_c 9.107650
_cell_angle_alpha 95.914571
_cell_angle_beta 98.531255
_cell_angle_gamma 32.955209
_cell_volume 637.063962
_symmetry_space_group_name_H-M "P -1"
_symmetry_group_IT_number 2
_symmetry_cell_setting 'triclinic'
loop_
_space_group_symop_operation_xyz
x,y,z
-x,-y,-z
loop_
_atom_site_type_symbol
_atom_site_label
_atom_site_fract_x
_atom_site_fract_y
_atom_site_fract_z
Si Si1 0.276815 0.546994 0.875578
Si Si2 0.238571 0.557415 0.534149
Si Si3 0.315370 0.791104 0.067766
Si Si4 0.572071 0.872692 0.431122
Si Si5 0.504340 0.733654 0.595552
Si Si6 0.977218 0.935933 0.766484
Si Si7 0.220019 0.332576 0.071931
O O1 0.205598 0.600909 0.707280
O O2 0.452821 0.376863 0.858669
O O3 0.967004 0.670381 0.937769
O O4 0.500000 0.500000 0.000000
O O5 0.500000 0.500000 0.500000
O O6 0.339978 0.412742 0.499260
O O7 0.926564 0.708010 0.433832
O O8 0.094784 0.932179 0.177798
O O9 0.494584 0.788784 0.012668
O O10 0.147236 0.823201 0.912404
O O11 0.489445 0.828512 0.517894
O O12 0.500000 0.000000 0.500000
O O13 0.338504 0.965249 0.285260
O O14 0.691555 0.673599 0.755992
O O15 0.192338 0.839464 0.638125
O O16 0.000000 0.500000 0.000000
#
# Coordination Sequence:
#
# PCOD9027643 Si02
#       7
#     2   2   2   2   2   2   2
#     4  11  24  40  67  96 139 175 233 287 337 406
#     4  12  28  44  70 106 137 185 239 286 348 407
#     4   9  21  40  67  96 130 178 228 276 343 417
#     4  12  26  41  67  98 144 180 225 284 348 414
#     4  11  23  45  71  96 141 182 234 285 341 419
#     4  10  22  41  68  98 135 176 223 281 350 408
#     4   9  20  37  67  97 129 175 231 276 346 398
#
# _framework density 21.975815000000001
#
# number of rings (size 3 to 8) (size 9 to 14) (size 15 to 20)
#    0.000    1.429    1.429    2.571   12.000    1.143 
#    0.000    0.000    0.000    6.000    0.000    0.000 
#    0.000    0.000    0.000    0.000    0.000    0.000 
#
# Total GULP energy -78140.070968 kJ/mol
# GULP energy per Si atom -5581.433641 kJ/mol
# Density = 2.192580 g / cm^3
# Si number density = 21.975815 Si / 1000 Ang^3
#
#
#
# Elastic Constant Matrix: (Units=GPa)
#
#
# Indices 1 2 3 4 5 6 
#
# 1 94.1948 28.9082 29.1698 -4.8955 15.6947 -19.9444
# 2 28.9082 104.3104 18.7444 -5.2272 8.3853 -17.2262
# 3 29.1698 18.7444 59.3786 -3.8153 17.2912 -19.0473
# 4 -4.8955 -5.2272 -3.8153 38.1985 -1.4667 14.0870
# 5 15.6947 8.3853 17.2912 -1.4667 28.8588 -6.1779
# 6 -19.9444 -17.2262 -19.0473 14.0870 -6.1779 48.4779
#
#
#
# Elastic Compliance Matrix: (Units=1/GPa)
#
#
# Indices 1 2 3 4 5 6 
#
# 1 0.013809 -0.002336 -0.004041 -0.000139 -0.003814 0.002818
# 2 -0.002336 0.010911 -0.001401 0.000209 -0.000572 0.002232
# 3 -0.004041 -0.001401 0.024346 -0.001027 -0.010677 0.006343
# 4 -0.000139 0.000209 -0.001027 0.029376 0.000219 -0.008895
# 5 -0.003814 -0.000572 -0.010677 0.000219 0.043188 -0.000528
# 6 0.002818 0.002232 0.006343 -0.008895 -0.000528 0.027590
#
#
# Mechanical properties :
#
#
# Convention : Reuss Voigt Hill
#
# Bulk Modulus (GPa) = 29.84023 45.72541 37.78282
# Shear Modulus (GPa) = 28.41775 35.17780 31.79777
#
# Velocity S-wave (km/s) = 3.59992 4.00528 3.80800
# Velocity P-wave (km/s) = 5.55764 6.49938 6.04688
#
# Compressibility (1/GPa) = 0.03351181
#
# Stress axis : x y z
#
# Youngs Moduli (GPa) = 72.41393 91.65110 41.07388
#
# Poissons Ratio (x) = 0.21409 0.16597
# Poissons Ratio (y) = 0.16916 0.05753
# Poissons Ratio (z) = 0.29261 0.12838
#
# Static dielectric constant tensor:
#      x y z
#    x 1.856130 -0.006480 0.020330 
#    y -0.006480 1.846360 0.007140 
#    z 0.020330 0.007140 1.848030 
# 
# From -- ./inp_files/158553.got.cif
#   From: 2010.05.17/outbox.cif.g08.bks.cpg/sg2_80_cif.got.tgz:158553.got - 2010.06.03 11:33:40.
