data_PCOD9027282
_publ_section_title
;
Structure prediction by ZEFSAII (Michael W. Deem and Ramdas Pophale) SiO2 
 PCOD9027282
Probable space group: P -1
;
_chemical_formula_sum "Si O2"
_cell_formula_units_Z 16
_cell_length_a 25.232750
_cell_length_b 7.046681
_cell_length_c 16.540834
_cell_angle_alpha 130.898729
_cell_angle_beta 159.389048
_cell_angle_gamma 48.816811
_cell_volume 770.961130
_symmetry_space_group_name_H-M "P -1"
_symmetry_group_IT_number 2
_symmetry_cell_setting 'triclinic'
loop_
_space_group_symop_operation_xyz
x,y,z
-x,-y,-z
loop_
_atom_site_type_symbol
_atom_site_label
_atom_site_fract_x
_atom_site_fract_y
_atom_site_fract_z
Si Si1 0.639019 0.718965 0.495891
Si Si2 0.846948 0.128101 0.860694
Si Si3 0.711991 0.157535 0.386060
Si Si4 0.740048 0.685219 0.805377
Si Si5 0.055506 0.932806 0.841341
Si Si6 0.398624 0.065156 0.983968
Si Si7 0.332962 0.955757 0.043801
Si Si8 0.833423 0.424529 0.239709
O O1 0.721896 0.437997 0.510874
O O2 0.626727 0.741030 0.582163
O O3 0.476716 0.768055 0.234309
O O4 0.730775 0.932094 0.652829
O O5 0.772141 0.384910 0.781605
O O6 0.905055 0.182303 0.047357
O O7 0.000000 0.000000 0.000000
O O8 0.658984 0.147843 0.214187
O O9 0.575745 0.065499 0.216563
O O10 0.875775 0.978899 0.580230
O O11 0.697888 0.822271 0.869925
O O12 0.887495 0.797263 0.014803
O O13 0.160618 0.741122 0.878967
O O14 0.296179 0.328065 0.879953
O O15 0.369810 0.043001 0.031645
O O16 0.199858 0.782996 0.800152
O O17 0.000000 0.500000 0.500000
#
# Coordination Sequence:
#
# PCOD9027282 Si02
#       8
#     2   2   2   2   2   2   2   2
#     4  11  24  41  65  96 134 170 215 271 325 383
#     4  11  23  39  64  97 127 172 216 263 329 390
#     4  11  23  45  65  95 139 174 208 276 325 382
#     4  10  23  44  65  96 131 168 220 273 321 386
#     4  10  22  41  67  94 132 169 215 268 327 381
#     4  11  25  44  67  97 133 172 222 261 328 393
#     4  11  25  43  68  99 127 174 222 266 325 392
#     4  11  22  46  68  94 129 170 215 273 323 377
#
# _framework density 20.753314
#
# number of rings (size 3 to 8) (size 9 to 14) (size 15 to 20)
#    0.000    1.250    2.500    2.625    3.500    3.500 
#    4.500    0.000    0.000    0.000    0.000    0.000 
#    0.000    0.000    0.000    0.000    0.000    0.000 
#
# Total GULP energy -89332.720667 kJ/mol
# GULP energy per Si atom -5583.295042 kJ/mol
# Density = 2.070608 g / cm^3
# Si number density = 20.753314 Si / 1000 Ang^3
#
#
#
# Elastic Constant Matrix: (Units=GPa)
#
#
# Indices 1 2 3 4 5 6 
#
# 1 69.9398 38.9924 -5.5175 11.5324 -2.0848 4.2463
# 2 38.9924 67.9030 9.3268 9.1181 -8.2525 2.0046
# 3 -5.5175 9.3268 56.6729 4.7320 -1.9997 5.2514
# 4 11.5324 9.1181 4.7320 20.8308 -9.8460 4.5432
# 5 -2.0848 -8.2525 -1.9997 -9.8460 22.7074 -3.8985
# 6 4.2463 2.0046 5.2514 4.5432 -3.8985 30.0443
#
#
#
# Elastic Compliance Matrix: (Units=1/GPa)
#
#
# Indices 1 2 3 4 5 6 
#
# 1 0.024527 -0.014165 0.005682 -0.011852 -0.008009 -0.002761
# 2 -0.014165 0.024294 -0.005439 0.001869 0.008223 0.002116
# 3 0.005682 -0.005439 0.019796 -0.005864 -0.002835 -0.003381
# 4 -0.011852 0.001869 -0.005864 0.069460 0.028466 -0.004234
# 5 -0.008009 0.008223 -0.002835 0.028466 0.059149 0.004449
# 6 -0.002761 0.002116 -0.003381 -0.004234 0.004449 0.035342
#
#
# Mechanical properties :
#
#
# Convention : Reuss Voigt Hill
#
# Bulk Modulus (GPa) = 24.52619 31.12434 27.82526
# Shear Modulus (GPa) = 18.24799 24.83076 21.53937
#
# Velocity S-wave (km/s) = 2.96848 3.46276 3.22510
# Velocity P-wave (km/s) = 4.85724 5.56933 5.22543
#
# Compressibility (1/GPa) = 0.04077274
#
# Stress axis : x y z
#
# Youngs Moduli (GPa) = 40.77216 41.16262 50.51432
#
# Poissons Ratio (x) = 0.58306 -0.28702
# Poissons Ratio (y) = 0.57753 0.27475
# Poissons Ratio (z) = -0.23166 0.22389
#
# Static dielectric constant tensor:
#      x y z
#    x 1.497430 0.004830 -0.031490 
#    y 0.004830 1.753930 0.060540 
#    z -0.031490 0.060540 1.783920 
# 
# From -- ./inp_files/579559.got.cif
#   From: 2010.05.17/outbox.cif.g08.bks.cpg/sg2_290_cif.got.tgz:579559.got - 2010.06.03 11:33:40.
