data_PCOD9027108
_publ_section_title
;
Structure prediction by ZEFSAII (Michael W. Deem and Ramdas Pophale) SiO2 
 PCOD9027108
Probable space group: P -1
;
_chemical_formula_sum "Si O2"
_cell_formula_units_Z 14
_cell_length_a 20.488825
_cell_length_b 13.633505
_cell_length_c 5.415794
_cell_angle_alpha 92.311659
_cell_angle_beta 83.927578
_cell_angle_gamma 157.849944
_cell_volume 560.438927
_symmetry_space_group_name_H-M "P -1"
_symmetry_group_IT_number 2
_symmetry_cell_setting 'triclinic'
loop_
_space_group_symop_operation_xyz
x,y,z
-x,-y,-z
loop_
_atom_site_type_symbol
_atom_site_label
_atom_site_fract_x
_atom_site_fract_y
_atom_site_fract_z
Si Si1 0.084270 0.073132 0.719476
Si Si2 0.537941 0.167728 0.022532
Si Si3 0.257257 0.082816 0.026500
Si Si4 0.810975 0.287618 0.683277
Si Si5 0.273208 0.910845 0.794694
Si Si6 0.074849 0.344180 0.121289
Si Si7 0.444537 0.506465 0.713526
O O1 0.040114 0.895048 0.711039
O O2 0.000000 0.000000 0.500000
O O3 0.297046 0.376381 0.663664
O O4 0.000000 0.000000 0.000000
O O5 0.406043 0.013747 0.276986
O O6 0.745050 0.460944 0.000088
O O7 0.500000 0.000000 0.000000
O O8 0.456377 0.110292 0.811440
O O9 0.336409 0.299484 0.954989
O O10 0.296953 0.060168 0.790122
O O11 0.374407 0.204194 0.213773
O O12 0.046860 0.798573 0.080685
O O13 0.845528 0.290511 0.403868
O O14 0.878562 0.491659 0.733064
O O15 0.829357 0.253062 0.924777
O O16 0.500000 0.500000 0.500000
#
# Coordination Sequence:
#
# PCOD9027108 Si02
#       7
#     2   2   2   2   2   2   2
#     4  11  28  48  72 110 137 180 243 296 348 415
#     4   8  19  40  61  97 133 179 221 278 335 401
#     4  10  24  43  68  99 134 184 232 281 353 406
#     4   9  22  42  66 100 136 179 225 276 345 402
#     4  10  22  41  66  97 135 179 229 274 337 415
#     4  10  22  46  67 101 139 184 221 291 344 415
#     4  10  25  47  71  95 144 187 232 296 357 418
#
# _framework density 24.980423999999999
#
# number of rings (size 3 to 8) (size 9 to 14) (size 15 to 20)
#    0.857    1.429    0.000    0.000   10.000    4.571 
#    5.143    0.000    0.000    0.000    0.000    0.000 
#    0.000    0.000    0.000    0.000    0.000    0.000 
#
# Total GULP energy -78084.242869 kJ/mol
# GULP energy per Si atom -5577.445919 kJ/mol
# Density = 2.492357 g / cm^3
# Si number density = 24.980424 Si / 1000 Ang^3
#
#
#
# Elastic Constant Matrix: (Units=GPa)
#
#
# Indices 1 2 3 4 5 6 
#
# 1 97.6580 34.0116 21.9583 22.4503 17.1683 -2.3198
# 2 34.0116 157.9968 47.2182 48.3761 15.2980 34.9017
# 3 21.9583 47.2182 131.8931 32.2393 1.1752 3.5305
# 4 22.4503 48.3761 32.2393 36.4080 -1.5764 10.0847
# 5 17.1683 15.2980 1.1752 -1.5764 24.5806 12.1557
# 6 -2.3198 34.9017 3.5305 10.0847 12.1557 58.8786
#
#
#
# Elastic Compliance Matrix: (Units=1/GPa)
#
#
# Indices 1 2 3 4 5 6 
#
# 1 0.015698 0.000820 0.000310 -0.013215 -0.015049 0.005484
# 2 0.000820 0.012860 -0.000518 -0.016646 -0.008119 -0.003033
# 3 0.000310 -0.000518 0.009816 -0.008705 -0.001700 0.001573
# 4 -0.013215 -0.016646 -0.008705 0.068811 0.028251 -0.007750
# 5 -0.015049 -0.008119 -0.001700 0.028251 0.065035 -0.013944
# 6 0.005484 -0.003033 0.001573 -0.007750 -0.013944 0.023110
#
#
# Mechanical properties :
#
#
# Convention : Reuss Voigt Hill
#
# Bulk Modulus (GPa) = 25.25295 65.99157 45.62226
# Shear Modulus (GPa) = 24.11879 42.93077 33.52478
#
# Velocity S-wave (km/s) = 3.11063 4.15007 3.66736
# Velocity P-wave (km/s) = 4.79921 7.03127 6.01960
#
# Compressibility (1/GPa) = 0.03959934
#
# Stress axis : x y z
#
# Youngs Moduli (GPa) = 63.70081 77.75751 101.86959
#
# Poissons Ratio (x) = -0.06373 -0.03163
# Poissons Ratio (y) = -0.05221 0.05278
# Poissons Ratio (z) = -0.01978 0.04029
#
# Static dielectric constant tensor:
#      x y z
#    x 1.983020 0.041390 0.027840 
#    y 0.041390 2.145980 -0.062700 
#    z 0.027840 -0.062700 2.019040 
# 
# From -- ./inp_files/90589.got.cif
#   From: 2010.05.17/outbox.cif.g08.bks.cpg/sg2_46_cif.got.tgz:90589.got - 2010.06.03 11:33:40.
