data_PCOD9027404
_publ_section_title
;
Structure prediction by ZEFSAII (Michael W. Deem and Ramdas Pophale) SiO2 
 PCOD9027404
Probable space group: P -1
;
_chemical_formula_sum "Si O2"
_cell_formula_units_Z 14
_cell_length_a 8.069850
_cell_length_b 15.230828
_cell_length_c 15.284146
_cell_angle_alpha 152.913619
_cell_angle_beta 58.595486
_cell_angle_gamma 100.087400
_cell_volume 488.586924
_symmetry_space_group_name_H-M "P -1"
_symmetry_group_IT_number 2
_symmetry_cell_setting 'triclinic'
loop_
_space_group_symop_operation_xyz
x,y,z
-x,-y,-z
loop_
_atom_site_type_symbol
_atom_site_label
_atom_site_fract_x
_atom_site_fract_y
_atom_site_fract_z
Si Si1 0.175323 0.162712 0.239669
Si Si2 0.913267 0.513932 0.795368
Si Si3 0.235879 0.672338 0.848047
Si Si4 0.676525 0.928240 0.475753
Si Si5 0.789828 0.213231 0.617862
Si Si6 0.513188 0.285831 0.574144
Si Si7 0.979672 0.807319 0.878459
O O1 0.995237 0.413661 0.583880
O O2 0.500000 0.000000 0.000000
O O3 0.177528 0.938798 0.075861
O O4 0.061555 0.270725 0.268636
O O5 0.989133 0.256648 0.596285
O O6 0.059566 0.604607 0.868174
O O7 0.571281 0.790510 0.147159
O O8 0.435368 0.527611 0.750576
O O9 0.261590 0.571077 0.651810
O O10 0.889485 0.945204 0.403376
O O11 0.500000 0.000000 0.500000
O O12 0.723318 0.688032 0.296393
O O13 0.695191 0.217223 0.549197
O O14 0.500000 0.500000 0.000000
O O15 0.715931 0.021140 0.211632
O O16 0.000000 0.000000 0.000000
#
# Coordination Sequence:
#
# PCOD9027404 Si02
#       7
#     2   2   2   2   2   2   2
#     4  11  26  45  70 107 142 188 239 287 355 423
#     4  11  22  43  74 101 140 182 235 295 347 420
#     4  11  25  44  69 102 142 184 238 284 357 415
#     4   9  20  41  73  99 136 185 229 288 362 415
#     4   9  20  40  69 103 133 182 233 289 358 409
#     4  11  21  43  71  98 144 187 231 296 352 422
#     4  10  22  41  67  98 137 186 230 286 353 416
#
# _framework density 28.654059
#
# number of rings (size 3 to 8) (size 9 to 14) (size 15 to 20)
#    0.000    1.714    1.429    2.571    2.000    6.857 
#    5.143    7.143    0.000    0.000    0.000    0.000 
#    0.000    0.000    0.000    0.000    0.000    0.000 
#
# Total GULP energy -78039.007868 kJ/mol
# GULP energy per Si atom -5574.214848 kJ/mol
# Density = 2.858884 g / cm^3
# Si number density = 28.654059 Si / 1000 Ang^3
#
#
#
# Elastic Constant Matrix: (Units=GPa)
#
#
# Indices 1 2 3 4 5 6 
#
# 1 113.1640 71.6602 38.2553 -5.0228 33.7132 24.9559
# 2 71.6602 260.1344 61.1386 12.5312 7.6501 -1.4485
# 3 38.2553 61.1386 119.1199 -26.5564 49.7606 -4.9441
# 4 -5.0228 12.5312 -26.5564 64.2676 6.1947 12.2480
# 5 33.7132 7.6501 49.7606 6.1947 41.3923 1.2780
# 6 24.9559 -1.4485 -4.9441 12.2480 1.2780 59.9264
#
#
#
# Elastic Compliance Matrix: (Units=1/GPa)
#
#
# Indices 1 2 3 4 5 6 
#
# 1 0.028961 -0.013263 0.024175 0.022606 -0.053154 -0.013874
# 2 -0.013263 0.011811 -0.019185 -0.015813 0.033842 0.006736
# 3 0.024175 -0.019185 0.056020 0.039672 -0.089052 -0.012118
# 4 0.022606 -0.015813 0.039672 0.046280 -0.069660 -0.014497
# 5 -0.053154 0.033842 -0.089052 -0.069660 0.177874 0.026051
# 6 -0.013874 0.006736 -0.012118 -0.014497 0.026051 0.024035
#
#
# Mechanical properties :
#
#
# Convention : Reuss Voigt Hill
#
# Bulk Modulus (GPa) = 12.46189 92.72518 52.59354
# Shear Modulus (GPa) = 12.87744 54.54154 33.70949
#
# Velocity S-wave (km/s) = 2.12223 4.36759 3.43363
# Velocity P-wave (km/s) = 3.21927 7.60690 5.84074
#
# Compressibility (1/GPa) = 0.08024463
#
# Stress axis : x y z
#
# Youngs Moduli (GPa) = 34.52879 84.66833 17.85090
#
# Poissons Ratio (x) = 1.12294 -0.43154
# Poissons Ratio (y) = 0.45795 0.34247
# Poissons Ratio (z) = -0.83472 1.62438
#
# Static dielectric constant tensor:
#      x y z
#    x 2.330040 0.093870 -0.119740 
#    y 0.093870 2.269080 0.080230 
#    z -0.119740 0.080230 2.501990 
# 
# From -- ./inp_files/504576.got.cif
#   From: 2010.05.17/outbox.cif.g08.bks.cpg/sg2_253_cif.got.tgz:504576.got - 2010.06.03 11:33:40.
