data_PCOD9027277
_publ_section_title
;
Structure prediction by ZEFSAII (Michael W. Deem and Ramdas Pophale) SiO2 
 PCOD9027277
Probable space group: P -1
;
_chemical_formula_sum "Si O2"
_cell_formula_units_Z 16
_cell_length_a 9.023668
_cell_length_b 18.477149
_cell_length_c 19.964402
_cell_angle_alpha 20.346620
_cell_angle_beta 60.706557
_cell_angle_gamma 49.673197
_cell_volume 790.949455
_symmetry_space_group_name_H-M "P -1"
_symmetry_group_IT_number 2
_symmetry_cell_setting 'triclinic'
loop_
_space_group_symop_operation_xyz
x,y,z
-x,-y,-z
loop_
_atom_site_type_symbol
_atom_site_label
_atom_site_fract_x
_atom_site_fract_y
_atom_site_fract_z
Si Si1 0.922736 0.605741 0.500091
Si Si2 0.782389 0.956617 0.431124
Si Si3 0.528856 0.271483 0.477215
Si Si4 0.469424 0.278193 0.339283
Si Si5 0.643342 0.707962 0.252898
Si Si6 0.724093 0.518732 0.257045
Si Si7 0.856707 0.104112 0.144010
Si Si8 0.302458 0.970642 0.207632
O O1 0.709289 0.636961 0.536002
O O2 0.000000 0.500000 0.500000
O O3 0.121133 0.394475 0.687992
O O4 0.880475 0.882558 0.284175
O O5 0.680999 0.806230 0.570207
O O6 0.031116 0.739756 0.586392
O O7 0.638697 0.170506 0.334863
O O8 0.780321 0.080864 0.253933
O O9 0.588052 0.151858 0.493592
O O10 0.553013 0.502051 0.272945
O O11 0.673637 0.091444 0.664827
O O12 0.314309 0.596027 0.103672
O O13 0.682469 0.526460 0.339428
O O14 0.512294 0.733059 0.325192
O O15 0.500000 0.000000 0.000000
O O16 0.702498 0.775670 0.019910
O O17 0.088286 0.038301 0.162525
#
# Coordination Sequence:
#
# PCOD9027277 Si02
#       8
#     2   2   2   2   2   2   2   2
#     4  12  25  42  66 102 141 173 219 275 335 392
#     4  11  22  47  71  97 133 176 232 279 332 405
#     4  12  25  42  65  96 139 172 216 283 331 390
#     4  11  26  43  72 100 131 177 229 284 337 388
#     4  10  22  41  67  94 130 179 224 260 329 408
#     4  11  23  43  68  97 134 177 227 270 333 405
#     4  12  24  45  72  96 138 177 225 274 334 409
#     4  11  24  42  67  98 133 181 220 270 334 402
#
# _framework density 20.228853000000001
#
# number of rings (size 3 to 8) (size 9 to 14) (size 15 to 20)
#    0.000    0.750    6.250    0.375    5.250    1.500 
#    0.000    3.750    0.000    0.000    0.000    0.000 
#    0.000    0.000    0.000    0.000    0.000    0.000 
#
# Total GULP energy -89421.559004 kJ/mol
# GULP energy per Si atom -5588.847438 kJ/mol
# Density = 2.018281 g / cm^3
# Si number density = 20.228853 Si / 1000 Ang^3
#
#
#
# Elastic Constant Matrix: (Units=GPa)
#
#
# Indices 1 2 3 4 5 6 
#
# 1 131.6717 44.4645 46.5152 -16.7878 -21.0395 3.2690
# 2 44.4645 100.8496 20.5263 -4.4697 -14.5607 14.1158
# 3 46.5152 20.5263 82.7653 -3.9908 -7.8201 -1.1442
# 4 -16.7878 -4.4697 -3.9908 25.5717 -3.8130 -0.8936
# 5 -21.0395 -14.5607 -7.8201 -3.8130 31.8035 7.2449
# 6 3.2690 14.1158 -1.1442 -0.8936 7.2449 34.6547
#
#
#
# Elastic Compliance Matrix: (Units=1/GPa)
#
#
# Indices 1 2 3 4 5 6 
#
# 1 0.012637 -0.002920 -0.005355 0.007941 0.006985 -0.001435
# 2 -0.002920 0.013101 -0.001157 0.000764 0.005282 -0.006184
# 3 -0.005355 -0.001157 0.015252 -0.001409 -0.000861 0.001624
# 4 0.007941 0.000764 -0.001409 0.045834 0.011271 -0.002281
# 5 0.006985 0.005282 -0.000861 0.011271 0.042213 -0.011373
# 6 -0.001435 -0.006184 0.001624 -0.002281 -0.011373 0.033883
#
#
# Mechanical properties :
#
#
# Convention : Reuss Voigt Hill
#
# Bulk Modulus (GPa) = 45.19863 59.81097 52.50480
# Shear Modulus (GPa) = 26.43291 31.99135 29.21213
#
# Velocity S-wave (km/s) = 3.61874 3.98109 3.80423
# Velocity P-wave (km/s) = 6.31289 7.12484 6.73112
#
# Compressibility (1/GPa) = 0.02212457
#
# Stress axis : x y z
#
# Youngs Moduli (GPa) = 79.13465 76.33109 65.56531
#
# Poissons Ratio (x) = 0.22291 0.35108
# Poissons Ratio (y) = 0.23110 0.07589
# Poissons Ratio (z) = 0.42374 0.08835
#
# Static dielectric constant tensor:
#      x y z
#    x 1.711250 0.008850 -0.016230 
#    y 0.008850 1.729130 0.016950 
#    z -0.016230 0.016950 1.745090 
# 
# From -- ./inp_files/590884.got.cif
#   From: 2010.05.17/outbox.cif.g08.bks.cpg/sg2_296_cif.got.tgz:590884.got - 2010.06.03 11:33:40.
