data_PCOD9027444
_publ_section_title
;
Structure prediction by ZEFSAII (Michael W. Deem and Ramdas Pophale) SiO2 
 PCOD9027444
Probable space group: P -1
;
_chemical_formula_sum "Si O2"
_cell_formula_units_Z 14
_cell_length_a 8.698234
_cell_length_b 5.777655
_cell_length_c 17.954071
_cell_angle_alpha 111.136510
_cell_angle_beta 52.928919
_cell_angle_gamma 127.493900
_cell_volume 571.173683
_symmetry_space_group_name_H-M "P -1"
_symmetry_group_IT_number 2
_symmetry_cell_setting 'triclinic'
loop_
_space_group_symop_operation_xyz
x,y,z
-x,-y,-z
loop_
_atom_site_type_symbol
_atom_site_label
_atom_site_fract_x
_atom_site_fract_y
_atom_site_fract_z
Si Si1 0.910113 0.028302 0.252509
Si Si2 0.424938 0.761195 0.590801
Si Si3 0.855933 0.881714 0.412567
Si Si4 0.292946 0.671614 0.204374
Si Si5 0.686635 0.646840 0.144835
Si Si6 0.369929 0.660017 0.021132
Si Si7 0.339906 0.218879 0.324547
O O1 0.889712 0.854955 0.311909
O O2 0.893779 0.879599 0.161396
O O3 0.701183 0.078828 0.326318
O O4 0.139144 0.335759 0.231181
O O5 0.649029 0.930807 0.494420
O O6 0.245688 0.451148 0.569492
O O7 0.523917 0.703212 0.630302
O O8 0.090483 0.165313 0.403471
O O9 0.553555 0.780462 0.158573
O O10 0.236021 0.662313 0.132901
O O11 0.256354 0.887348 0.288297
O O12 0.506727 0.420933 0.232948
O O13 0.739952 0.503836 0.043403
O O14 0.500000 0.500000 0.000000
O O15 0.500000 0.000000 0.000000
#
# Coordination Sequence:
#
# PCOD9027444 Si02
#       7
#     2   2   2   2   2   2   2
#     4  12  23  41  64  94 128 170 216 269 327 396
#     4  11  24  40  61  93 128 166 215 275 328 386
#     4  11  24  40  61  93 128 166 215 275 328 386
#     4  11  23  40  66  92 132 168 215 267 334 392
#     4  11  23  40  66  92 132 168 215 267 334 392
#     4  10  22  41  68 101 135 176 221 277 334 401
#     4  12  21  41  66  90 124 172 214 265 327 400
#
# _framework density 24.510933000000001
#
# number of rings (size 3 to 8) (size 9 to 14) (size 15 to 20)
#    0.000    0.857    7.143    0.857    0.000    0.571 
#    0.000    1.429    0.000    5.143    0.000    0.000 
#    0.000    0.000    0.000    0.000    0.000    0.000 
#
# Total GULP energy -78111.817134 kJ/mol
# GULP energy per Si atom -5579.415510 kJ/mol
# Density = 2.445514 g / cm^3
# Si number density = 24.510933 Si / 1000 Ang^3
#
#
#
# Elastic Constant Matrix: (Units=GPa)
#
#
# Indices 1 2 3 4 5 6 
#
# 1 62.6636 5.5214 -0.6343 7.1179 11.8614 8.8789
# 2 5.5214 83.6224 1.6627 6.9261 9.1225 5.9077
# 3 -0.6343 1.6627 82.5093 12.0306 30.3369 0.6626
# 4 7.1179 6.9261 12.0306 39.6946 6.3944 4.8290
# 5 11.8614 9.1225 30.3369 6.3944 30.8853 1.2173
# 6 8.8789 5.9077 0.6626 4.8290 1.2173 21.6899
#
#
#
# Elastic Compliance Matrix: (Units=1/GPa)
#
#
# Indices 1 2 3 4 5 6 
#
# 1 0.019411 0.000577 0.004784 -0.002306 -0.011567 -0.007087
# 2 0.000577 0.012847 0.002067 -0.001696 -0.005573 -0.003108
# 3 0.004784 0.002067 0.020780 -0.003839 -0.022022 -0.001065
# 4 -0.002306 -0.001696 -0.003839 0.027691 -0.000393 -0.004620
# 5 -0.011567 -0.005573 -0.022022 -0.000393 0.060035 0.003644
# 6 -0.007087 -0.003108 -0.001065 -0.004620 0.003644 0.050709
#
#
# Mechanical properties :
#
#
# Convention : Reuss Voigt Hill
#
# Bulk Modulus (GPa) = 14.72896 26.87722 20.80309
# Shear Modulus (GPa) = 25.09404 33.27031 29.18218
#
# Velocity S-wave (km/s) = 3.20314 3.68824 3.45422
# Velocity P-wave (km/s) = 4.43873 5.39692 4.94111
#
# Compressibility (1/GPa) = 0.06789345
#
# Stress axis : x y z
#
# Youngs Moduli (GPa) = 51.51597 77.83739 48.12228
#
# Poissons Ratio (x) = -0.04489 -0.23021
# Poissons Ratio (y) = -0.02971 -0.09945
# Poissons Ratio (z) = -0.24644 -0.16086
#
# Static dielectric constant tensor:
#      x y z
#    x 2.016470 -0.018910 -0.029930 
#    y -0.018910 2.050250 -0.110220 
#    z -0.029930 -0.110220 2.052870 
# 
# From -- ./inp_files/10245.got.cif
#   From: 2010.05.17/outbox.cif.g08.bks.cpg/sg2_6_cif.got.tgz:10245.got - 2010.06.03 11:33:40.
