data_PCOD9027573
_publ_section_title
;
Structure prediction by ZEFSAII (Michael W. Deem and Ramdas Pophale) SiO2 
 PCOD9027573
Probable space group: P -1
;
_chemical_formula_sum "Si O2"
_cell_formula_units_Z 16
_cell_length_a 9.237843
_cell_length_b 13.538433
_cell_length_c 10.376514
_cell_angle_alpha 111.008447
_cell_angle_beta 41.510134
_cell_angle_gamma 86.101523
_cell_volume 673.814152
_symmetry_space_group_name_H-M "P -1"
_symmetry_group_IT_number 2
_symmetry_cell_setting 'triclinic'
loop_
_space_group_symop_operation_xyz
x,y,z
-x,-y,-z
loop_
_atom_site_type_symbol
_atom_site_label
_atom_site_fract_x
_atom_site_fract_y
_atom_site_fract_z
Si Si1 0.303756 0.796150 0.167921
Si Si2 0.517862 0.417244 0.262525
Si Si3 0.757372 0.820987 0.943679
Si Si4 0.949072 0.727298 0.509917
Si Si5 0.662618 0.078131 0.032976
Si Si6 0.360232 0.367527 0.723951
Si Si7 0.988897 0.516805 0.234800
Si Si8 0.822349 0.203658 0.176011
O O1 0.434632 0.667941 0.934054
O O2 0.515503 0.806524 0.110689
O O3 0.213694 0.905248 0.171285
O O4 0.087981 0.795033 0.395606
O O5 0.594193 0.518230 0.244220
O O6 0.224177 0.486826 0.540927
O O7 0.690445 0.320079 0.216999
O O8 0.947721 0.720904 0.661689
O O9 0.906928 0.821272 0.968989
O O10 0.668879 0.952050 0.990671
O O11 0.642497 0.806327 0.710812
O O12 0.081473 0.590713 0.292645
O O13 0.812391 0.096065 0.057590
O O14 0.167988 0.396943 0.745236
O O15 0.632295 0.245042 0.446076
O O16 0.208990 0.385681 0.964937
#
# Coordination Sequence:
#
# PCOD9027573 Si02
#       8
#     2   2   2   2   2   2   2   2
#     4  10  20  36  61  85 110 147 191 228 277 332
#     4  10  18  36  62  85 107 143 193 232 269 328
#     4  11  23  38  56  80 123 150 177 233 292 329
#     4  11  19  37  61  83 114 145 190 235 271 333
#     4  10  21  39  61  82 105 152 198 234 267 323
#     4  10  19  33  60  88 108 143 189 231 276 321
#     4  10  17  31  58  86 108 139 185 234 270 320
#     4  10  20  38  57  86 114 147 185 230 285 333
#
# _framework density 23.745421
#
# number of rings (size 3 to 8) (size 9 to 14) (size 15 to 20)
#    0.000    1.750    6.250    3.375    0.000    2.000 
#    0.000    8.750    0.000    5.250    0.000    0.000 
#    0.000    0.000    0.000    0.000    0.000    0.000 
#
# Total GULP energy -89510.971010 kJ/mol
# GULP energy per Si atom -5594.435688 kJ/mol
# Density = 2.369138 g / cm^3
# Si number density = 23.745421 Si / 1000 Ang^3
#
#
#
# Elastic Constant Matrix: (Units=GPa)
#
#
# Indices 1 2 3 4 5 6 
#
# 1 124.0621 32.0596 4.5911 3.0597 -16.8995 27.1023
# 2 32.0596 72.6698 0.9511 -12.4725 -13.3983 9.5589
# 3 4.5911 0.9511 32.0707 -12.8494 -9.8492 5.8160
# 4 3.0597 -12.4725 -12.8494 33.7112 23.1237 -6.9753
# 5 -16.8995 -13.3983 -9.8492 23.1237 14.5937 4.2017
# 6 27.1023 9.5589 5.8160 -6.9753 4.2017 36.9344
#
#
#
# Elastic Compliance Matrix: (Units=1/GPa)
#
#
# Indices 1 2 3 4 5 6 
#
# 1 0.004801 -0.004674 -0.003059 0.014567 -0.024959 0.003758
# 2 -0.004674 0.017212 0.003433 0.007768 0.000440 -0.000148
# 3 -0.003059 0.003433 0.037882 0.018269 -0.003555 -0.000754
# 4 0.014567 0.007768 0.018269 -0.020809 0.077455 -0.028317
# 5 -0.024959 0.000440 -0.003555 0.077455 -0.097922 0.044528
# 6 0.003758 -0.000148 -0.000754 -0.028317 0.044528 0.014061
#
#
# Mechanical properties :
#
#
# Convention : Reuss Voigt Hill
#
# Bulk Modulus (GPa) = 19.49485 33.77846 26.63666
# Shear Modulus (GPa) = -262.11378 29.79456 -116.15961
#
# Velocity S-wave (km/s) = -10.51782 3.54609 -7.00178
# Velocity P-wave (km/s) = 11.80134 5.56978 7.35694
#
# Compressibility (1/GPa) = 0.05129560
#
# Stress axis : x y z
#
# Youngs Moduli (GPa) = 208.27074 58.09902 26.39763
#
# Poissons Ratio (x) = 0.27156 0.08075
# Poissons Ratio (y) = 0.97349 -0.09063
# Poissons Ratio (z) = 0.63711 -0.19947
#
# Static dielectric constant tensor:
#      x y z
#    x 1.911090 -0.018410 0.000860 
#    y -0.018410 1.900030 0.019470 
#    z 0.000860 0.019470 1.916950 
# 
# From -- ./inp_files/312853.got.cif
#   From: 2010.05.17/outbox.cif.g08.bks.cpg/sg2_157_cif.got.tgz:312853.got - 2010.06.03 11:33:40.
