data_PCOD9027968
_publ_section_title
;
Structure prediction by ZEFSAII (Michael W. Deem and Ramdas Pophale) SiO2 
 PCOD9027968
Probable space group: P -1
;
_chemical_formula_sum "Si O2"
_cell_formula_units_Z 14
_cell_length_a 8.585626
_cell_length_b 9.142811
_cell_length_c 11.658364
_cell_angle_alpha 53.918358
_cell_angle_beta 75.698252
_cell_angle_gamma 66.558050
_cell_volume 678.455599
_symmetry_space_group_name_H-M "P -1"
_symmetry_group_IT_number 2
_symmetry_cell_setting 'triclinic'
loop_
_space_group_symop_operation_xyz
x,y,z
-x,-y,-z
loop_
_atom_site_type_symbol
_atom_site_label
_atom_site_fract_x
_atom_site_fract_y
_atom_site_fract_z
Si Si1 0.717297 0.704165 0.145241
Si Si2 0.298725 0.057059 0.189650
Si Si3 0.924700 0.597757 0.801735
Si Si4 0.684306 0.358496 0.994956
Si Si5 0.637877 0.337705 0.742452
Si Si6 0.169174 0.376300 0.459783
Si Si7 0.324091 0.036287 0.750732
O O1 0.560967 0.634366 0.241175
O O2 0.748377 0.832153 0.184819
O O3 0.879908 0.525118 0.172198
O O4 0.669654 0.839978 0.980113
O O5 0.139048 0.201780 0.214726
O O6 0.274318 0.858736 0.249996
O O7 0.471101 0.018457 0.250113
O O8 0.820124 0.467758 0.935215
O O9 0.872548 0.630338 0.663145
O O10 0.682684 0.314852 0.879716
O O11 0.500000 0.500000 0.000000
O O12 0.719304 0.159205 0.145632
O O13 0.695533 0.509695 0.606258
O O14 0.247450 0.168369 0.596252
O O15 0.000000 0.500000 0.500000
#
# Coordination Sequence:
#
# PCOD9027968 Si02
#       7
#     2   2   2   2   2   2   2
#     4  11  20  39  67  99 126 164 214 268 316 371
#     4  11  21  40  66 101 124 167 215 263 318 376
#     4  11  24  39  68  95 135 160 216 269 311 376
#     4  11  20  40  67 100 121 168 217 263 313 374
#     4  10  22  41  70  87 128 171 211 253 327 380
#     4  11  25  45  63  95 128 172 216 260 315 384
#     4  11  21  40  69  89 134 165 214 261 316 378
#
# _framework density 20.635102
#
# number of rings (size 3 to 8) (size 9 to 14) (size 15 to 20)
#    0.000    1.143    5.714    1.286    0.000    4.571 
#    0.000    0.714    3.143    0.000    0.000    0.000 
#    0.000    0.000    0.000    0.000    0.000    0.000 
#
# Total GULP energy -78335.292574 kJ/mol
# GULP energy per Si atom -5595.378041 kJ/mol
# Density = 2.058814 g / cm^3
# Si number density = 20.635102 Si / 1000 Ang^3
#
#
#
# Elastic Constant Matrix: (Units=GPa)
#
#
# Indices 1 2 3 4 5 6 
#
# 1 46.4743 38.9907 35.6515 -13.0129 -1.2912 -7.6602
# 2 38.9907 133.1594 32.1954 -16.9192 -10.4290 -15.0042
# 3 35.6515 32.1954 132.8136 -28.7479 0.0468 -2.9928
# 4 -13.0129 -16.9192 -28.7479 27.3632 -3.7856 4.8026
# 5 -1.2912 -10.4290 0.0468 -3.7856 28.7404 -1.7581
# 6 -7.6602 -15.0042 -2.9928 4.8026 -1.7581 30.2236
#
#
#
# Elastic Compliance Matrix: (Units=1/GPa)
#
#
# Indices 1 2 3 4 5 6 
#
# 1 0.034687 -0.007680 -0.006440 0.004284 -0.000431 0.003636
# 2 -0.007680 0.010808 0.000224 0.003293 0.004204 0.003163
# 3 -0.006440 0.000224 0.011164 0.009248 0.000880 -0.001834
# 4 0.004284 0.003293 0.009248 0.052175 0.007988 -0.004190
# 5 -0.000431 0.004204 0.000880 0.007988 0.037533 0.002979
# 6 0.003636 0.003163 -0.001834 -0.004190 0.002979 0.036236
#
#
# Mechanical properties :
#
#
# Convention : Reuss Voigt Hill
#
# Bulk Modulus (GPa) = 34.64086 58.45805 46.54946
# Shear Modulus (GPa) = 22.72535 30.97277 26.84906
#
# Velocity S-wave (km/s) = 3.32218 3.87844 3.61104
# Velocity P-wave (km/s) = 5.61601 6.96041 6.32404
#
# Compressibility (1/GPa) = 0.02886764
#
# Stress axis : x y z
#
# Youngs Moduli (GPa) = 28.82885 92.52139 89.57328
#
# Poissons Ratio (x) = 0.71053 0.57689
# Poissons Ratio (y) = 0.22139 -0.02005
# Poissons Ratio (z) = 0.18567 -0.02071
#
# Static dielectric constant tensor:
#      x y z
#    x 1.741110 0.009280 0.009420 
#    y 0.009280 1.730930 0.016000 
#    z 0.009420 0.016000 1.712570 
# 
# From -- ./inp_files/150859.got.cif
#   From: 2010.05.17/outbox.cif.g08.bks.cpg/sg2_76_cif.got.tgz:150859.got - 2010.06.03 11:33:40.
