data_PCOD9027791
_publ_section_title
;
Structure prediction by ZEFSAII (Michael W. Deem and Ramdas Pophale) SiO2 
 PCOD9027791
Probable space group: P -1
;
_chemical_formula_sum "Si O2"
_cell_formula_units_Z 16
_cell_length_a 16.996195
_cell_length_b 8.817562
_cell_length_c 8.090140
_cell_angle_alpha 103.370135
_cell_angle_beta 69.498030
_cell_angle_gamma 144.014067
_cell_volume 664.279778
_symmetry_space_group_name_H-M "P -1"
_symmetry_group_IT_number 2
_symmetry_cell_setting 'triclinic'
loop_
_space_group_symop_operation_xyz
x,y,z
-x,-y,-z
loop_
_atom_site_type_symbol
_atom_site_label
_atom_site_fract_x
_atom_site_fract_y
_atom_site_fract_z
Si Si1 0.526871 0.357112 0.895382
Si Si2 0.269785 0.420012 0.762420
Si Si3 0.067248 0.381577 0.826006
Si Si4 0.848130 0.796397 0.867557
Si Si5 0.829389 0.286519 0.491099
Si Si6 0.993594 0.676815 0.766767
Si Si7 0.601777 0.581906 0.583606
Si Si8 0.586552 0.891883 0.772249
O O1 0.691440 0.561441 0.851285
O O2 0.508376 0.334235 0.708180
O O3 0.500000 0.500000 0.000000
O O4 0.429513 0.103673 0.017721
O O5 0.205545 0.491718 0.800586
O O6 0.278529 0.342796 0.565606
O O7 0.425858 0.656617 0.777020
O O8 0.176894 0.203653 0.919132
O O9 0.108186 0.528352 0.664354
O O10 0.023602 0.385273 0.040642
O O11 0.945278 0.075936 0.797000
O O12 0.928104 0.749474 0.792871
O O13 0.903897 0.430807 0.649234
O O14 0.853556 0.146621 0.368395
O O15 0.674447 0.105108 0.618743
O O16 0.500000 0.500000 0.500000
O O17 0.648950 0.808440 0.698293
#
# Coordination Sequence:
#
# PCOD9027791 Si02
#       8
#     2   2   2   2   2   2   2   2
#     4   9  19  38  62  95 129 157 212 265 328 380
#     4   9  19  38  62  95 125 159 218 273 318 374
#     4  11  24  43  67  95 129 170 222 271 325 380
#     4  10  22  41  69  93 125 168 219 277 318 374
#     4  11  25  42  64  93 136 176 217 260 329 401
#     4  10  24  46  61  92 133 176 222 266 318 385
#     4   9  18  34  60  94 125 159 205 264 315 377
#     4   9  20  38  59  91 131 168 209 259 327 388
#
# _framework density 24.086238999999999
#
# number of rings (size 3 to 8) (size 9 to 14) (size 15 to 20)
#    0.000    2.250    0.000    2.625    5.250    5.000 
#    4.500    5.625    0.000    0.000    0.000    0.000 
#    0.000    0.000    0.000    0.000    0.000    0.000 
#
# Total GULP energy -89105.632520 kJ/mol
# GULP energy per Si atom -5569.102032 kJ/mol
# Density = 2.403142 g / cm^3
# Si number density = 24.086239 Si / 1000 Ang^3
#
#
#
# Elastic Constant Matrix: (Units=GPa)
#
#
# Indices 1 2 3 4 5 6 
#
# 1 86.8021 17.5406 57.7446 -22.4644 5.4633 4.5346
# 2 17.5406 43.3439 53.2558 -17.7647 2.9808 -7.2849
# 3 57.7446 53.2558 183.8332 -34.6237 18.9315 -12.3972
# 4 -22.4644 -17.7647 -34.6237 38.4822 -0.7142 3.7409
# 5 5.4633 2.9808 18.9315 -0.7142 44.2410 -8.8100
# 6 4.5346 -7.2849 -12.3972 3.7409 -8.8100 13.6232
#
#
#
# Elastic Compliance Matrix: (Units=1/GPa)
#
#
# Indices 1 2 3 4 5 6 
#
# 1 0.017481 -0.000685 -0.004628 0.007049 -0.002840 -0.014168
# 2 -0.000685 0.040401 -0.009393 0.008548 0.004245 0.013682
# 3 -0.004628 -0.009393 0.010510 0.001990 -0.002478 0.003933
# 4 0.007049 0.008548 0.001990 0.036569 -0.003333 -0.008162
# 5 -0.002840 0.004245 -0.002478 -0.003333 0.027603 0.019726
# 6 -0.014168 0.013682 0.003933 -0.008162 0.019726 0.104013
#
#
# Mechanical properties :
#
#
# Convention : Reuss Voigt Hill
#
# Bulk Modulus (GPa) = 25.65481 63.45123 44.55302
# Shear Modulus (GPa) = 17.92232 31.63184 24.77708
#
# Velocity S-wave (km/s) = 2.73076 3.62784 3.21079
# Velocity P-wave (km/s) = 4.54060 6.62940 5.68181
#
# Compressibility (1/GPa) = 0.03897905
#
# Stress axis : x y z
#
# Youngs Moduli (GPa) = 57.20568 24.75194 95.14960
#
# Poissons Ratio (x) = 0.01695 0.44035
# Poissons Ratio (y) = 0.03918 0.89378
# Poissons Ratio (z) = 0.26474 0.23250
#
# Static dielectric constant tensor:
#      x y z
#    x 1.955010 0.003670 -0.004810 
#    y 0.003670 2.062810 -0.032090 
#    z -0.004810 -0.032090 2.038050 
# 
# From -- ./inp_files/329150.got.cif
#   From: 2010.05.17/outbox.cif.g08.bks.cpg/sg2_165_cif.got.tgz:329150.got - 2010.06.03 11:33:40.
