data_PCOD9027390
_publ_section_title
;
Structure prediction by ZEFSAII (Michael W. Deem and Ramdas Pophale) SiO2 
 PCOD9027390
Probable space group: P -1
;
_chemical_formula_sum "Si O2"
_cell_formula_units_Z 14
_cell_length_a 17.627024
_cell_length_b 17.363001
_cell_length_c 9.127039
_cell_angle_alpha 37.538593
_cell_angle_beta 141.424714
_cell_angle_gamma 158.354959
_cell_volume 615.218557
_symmetry_space_group_name_H-M "P -1"
_symmetry_group_IT_number 2
_symmetry_cell_setting 'triclinic'
loop_
_space_group_symop_operation_xyz
x,y,z
-x,-y,-z
loop_
_atom_site_type_symbol
_atom_site_label
_atom_site_fract_x
_atom_site_fract_y
_atom_site_fract_z
Si Si1 0.521069 0.822772 0.779952
Si Si2 0.228181 0.797799 0.915755
Si Si3 0.307048 0.414857 0.906460
Si Si4 0.434100 0.914776 0.771338
Si Si5 0.961393 0.073882 0.124592
Si Si6 0.278535 0.362340 0.432528
Si Si7 0.812474 0.533615 0.634031
O O1 0.414159 0.605550 0.890171
O O2 0.491047 0.905055 0.487003
O O3 0.412302 0.783230 0.822572
O O4 0.770467 0.009948 0.899493
O O5 0.036705 0.727545 0.759128
O O6 0.249698 0.812077 0.750071
O O7 0.411697 0.996896 0.998520
O O8 0.209425 0.633978 0.174702
O O9 0.206853 0.407098 0.633041
O O10 0.500000 0.500000 0.000000
O O11 0.119444 0.187966 0.053936
O O12 0.114897 0.246709 0.227585
O O13 0.838859 0.843478 0.335728
O O14 0.500000 0.500000 0.500000
O O15 0.332661 0.525222 0.374931
#
# Coordination Sequence:
#
# PCOD9027390 Si02
#       7
#     2   2   2   2   2   2   2
#     4  11  23  43  66  99 135 176 222 285 335 413
#     4  10  22  41  67  98 129 177 224 285 332 401
#     4  12  26  45  67 101 141 182 223 283 341 408
#     4  10  22  42  65  97 132 176 227 275 344 393
#     4  11  25  43  68 100 130 180 227 276 347 397
#     4  11  25  46  69 100 134 178 229 287 337 406
#     4  11  23  42  66  98 134 176 226 277 343 402
#
# _framework density 22.756141
#
# number of rings (size 3 to 8) (size 9 to 14) (size 15 to 20)
#    0.000    1.143    1.429    4.286    4.000    3.429 
#    2.571    2.143    0.000    0.000    0.000    0.000 
#    0.000    0.000    0.000    0.000    0.000    0.000 
#
# Total GULP energy -78177.557829 kJ/mol
# GULP energy per Si atom -5584.111273 kJ/mol
# Density = 2.270435 g / cm^3
# Si number density = 22.756141 Si / 1000 Ang^3
#
#
#
# Elastic Constant Matrix: (Units=GPa)
#
#
# Indices 1 2 3 4 5 6 
#
# 1 155.4198 33.1101 48.7461 -11.2380 -7.8633 1.9109
# 2 33.1101 86.8748 35.1767 2.8666 -4.1707 1.3836
# 3 48.7461 35.1767 94.7073 4.4969 -17.5759 2.4020
# 4 -11.2380 2.8666 4.4969 35.0186 5.8885 -2.8534
# 5 -7.8633 -4.1707 -17.5759 5.8885 38.1353 -3.7463
# 6 1.9109 1.3836 2.4020 -2.8534 -3.7463 37.4957
#
#
#
# Elastic Compliance Matrix: (Units=1/GPa)
#
#
# Indices 1 2 3 4 5 6 
#
# 1 0.008233 -0.001703 -0.003921 0.003428 -0.000818 0.000074
# 2 -0.001703 0.013936 -0.004376 -0.001030 -0.000714 -0.000297
# 3 -0.003921 -0.004376 0.015606 -0.004021 0.006498 -0.000295
# 4 0.003428 -0.001030 -0.004021 0.031409 -0.005920 0.001920
# 5 -0.000818 -0.000714 0.006498 -0.005920 0.030101 0.002209
# 6 0.000074 -0.000297 -0.000295 0.001920 0.002209 0.027063
#
#
# Mechanical properties :
#
#
# Convention : Reuss Voigt Hill
#
# Bulk Modulus (GPa) = 56.25879 63.45196 59.85537
# Shear Modulus (GPa) = 32.83571 36.79454 34.81512
#
# Velocity S-wave (km/s) = 3.80272 4.02544 3.91567
# Velocity P-wave (km/s) = 6.63755 7.03914 6.84129
#
# Compressibility (1/GPa) = 0.01777500
#
# Stress axis : x y z
#
# Youngs Moduli (GPa) = 121.46975 71.75563 64.07612
#
# Poissons Ratio (x) = 0.12224 0.25125
# Poissons Ratio (y) = 0.20692 0.28037
# Poissons Ratio (z) = 0.47629 0.31397
#
# Static dielectric constant tensor:
#      x y z
#    x 1.877310 0.062560 -0.001350 
#    y 0.062560 1.941110 0.000240 
#    z -0.001350 0.000240 1.839340 
# 
# From -- ./inp_files/314529.got.cif
#   From: 2010.05.17/outbox.cif.g08.bks.cpg/sg2_158_cif.got.tgz:314529.got - 2010.06.03 11:33:40.
