data_PCOD9027933
_publ_section_title
;
Structure prediction by ZEFSAII (Michael W. Deem and Ramdas Pophale) SiO2 
 PCOD9027933
Probable space group: P -1
;
_chemical_formula_sum "Si O2"
_cell_formula_units_Z 11
_cell_length_a 9.260512
_cell_length_b 7.221485
_cell_length_c 7.037272
_cell_angle_alpha 112.733253
_cell_angle_beta 97.945403
_cell_angle_gamma 66.081418
_cell_volume 396.684327
_symmetry_space_group_name_H-M "P -1"
_symmetry_group_IT_number 2
_symmetry_cell_setting 'triclinic'
loop_
_space_group_symop_operation_xyz
x,y,z
-x,-y,-z
loop_
_atom_site_type_symbol
_atom_site_label
_atom_site_fract_x
_atom_site_fract_y
_atom_site_fract_z
Si Si1 0.136479 0.591538 0.684187
Si Si2 0.397670 0.426685 0.184591
Si Si3 0.156877 0.999969 0.916004
Si Si4 0.546534 0.762080 0.487233
Si Si5 0.500000 0.000000 0.000000
Si Si6 0.029025 0.652680 0.278179
O O1 0.232538 0.739391 0.803169
O O2 0.267929 0.365516 0.555232
O O3 0.032783 0.696796 0.522276
O O4 0.034178 0.543676 0.810725
O O5 0.459576 0.612063 0.329886
O O6 0.476675 0.228115 0.281184
O O7 0.445900 0.246061 0.959588
O O8 0.210197 0.558297 0.209199
O O9 0.085248 0.138187 0.769046
O O10 0.303199 0.056167 0.028189
O O11 0.000000 0.000000 0.000000
O O12 0.500000 0.000000 0.500000
#
# Coordination Sequence:
#
# PCOD9027933 Si02
#       6
#     2   2   2   2   1   2
#     4  10  22  45  75 108 141 195 253 305 375 439
#     4  10  23  44  66 104 144 183 244 303 358 444
#     4  12  27  48  73 109 156 198 242 311 379 448
#     4  10  22  41  70 102 138 187 245 299 358 436
#     4  12  26  46  74 106 154 196 246 302 382 446
#     4  10  24  45  75 103 147 194 253 309 365 449
#
# _framework density 27.729859000000001
#
# number of rings (size 3 to 8) (size 9 to 14) (size 15 to 20)
#    0.000    1.455    1.818    1.636    2.545    8.727 
#    0.000    2.727    0.000    0.000    0.000    0.000 
#    0.000    0.000    0.000    0.000    0.000    0.000 
#
# Total GULP energy -61361.962333 kJ/mol
# GULP energy per Si atom -5578.360212 kJ/mol
# Density = 2.766675 g / cm^3
# Si number density = 27.729859 Si / 1000 Ang^3
#
#
#
# Elastic Constant Matrix: (Units=GPa)
#
#
# Indices 1 2 3 4 5 6 
#
# 1 229.3030 59.2295 61.1141 -0.0692 24.0009 11.3667
# 2 59.2295 163.1075 52.3816 3.9805 13.3749 30.8069
# 3 61.1141 52.3816 68.1634 8.3030 7.7098 27.2967
# 4 -0.0692 3.9805 8.3030 45.0983 15.4871 -0.6679
# 5 24.0009 13.3749 7.7098 15.4871 37.8847 26.9760
# 6 11.3667 30.8069 27.2967 -0.6679 26.9760 52.6038
#
#
#
# Elastic Compliance Matrix: (Units=1/GPa)
#
#
# Indices 1 2 3 4 5 6 
#
# 1 0.008258 -0.000764 -0.010618 0.006879 -0.013620 0.011244
# 2 -0.000764 0.008394 -0.004881 0.000094 0.000085 -0.002260
# 3 -0.010618 -0.004881 0.038773 -0.017101 0.028923 -0.030016
# 4 0.006879 0.000094 -0.017101 0.037492 -0.034335 0.025416
# 5 -0.013620 0.000085 0.028923 -0.034335 0.082038 -0.054621
# 6 0.011244 -0.002260 -0.030016 0.025416 -0.054621 0.061813
#
#
# Mechanical properties :
#
#
# Convention : Reuss Voigt Hill
#
# Bulk Modulus (GPa) = 43.66911 89.55824 66.61368
# Shear Modulus (GPa) = 18.05534 46.30729 32.18131
#
# Velocity S-wave (km/s) = 2.55446 4.09093 3.41035
# Velocity P-wave (km/s) = 4.94799 7.39466 6.29141
#
# Compressibility (1/GPa) = 0.02289948
#
# Stress axis : x y z
#
# Youngs Moduli (GPa) = 121.08794 119.13924 25.79087
#
# Poissons Ratio (x) = 0.09101 0.27384
# Poissons Ratio (y) = 0.09250 0.12590
# Poissons Ratio (z) = 1.28567 0.58157
#
# Static dielectric constant tensor:
#      x y z
#    x 2.147310 0.067940 -0.159130 
#    y 0.067940 2.389810 0.314790 
#    z -0.159130 0.314790 3.106850 
# 
# From -- ./inp_files/17412.got.cif
#   From: 2010.05.17/outbox.cif.g08.bks.cpg/sg2_9_cif.got.tgz:17412.got - 2010.06.03 11:33:40.
