data_PCOD9027969
_publ_section_title
;
Structure prediction by ZEFSAII (Michael W. Deem and Ramdas Pophale) SiO2 
 PCOD9027969
Probable space group: P -1
;
_chemical_formula_sum "Si O2"
_cell_formula_units_Z 16
_cell_length_a 7.835051
_cell_length_b 15.539604
_cell_length_c 13.004333
_cell_angle_alpha 27.592279
_cell_angle_beta 78.461758
_cell_angle_gamma 92.750735
_cell_volume 623.768864
_symmetry_space_group_name_H-M "P -1"
_symmetry_group_IT_number 2
_symmetry_cell_setting 'triclinic'
loop_
_space_group_symop_operation_xyz
x,y,z
-x,-y,-z
loop_
_atom_site_type_symbol
_atom_site_label
_atom_site_fract_x
_atom_site_fract_y
_atom_site_fract_z
Si Si1 0.564952 0.643219 0.474373
Si Si2 0.039602 0.314906 0.657794
Si Si3 0.890817 0.047420 0.639103
Si Si4 0.270991 0.737254 0.699444
Si Si5 0.345437 0.391493 0.945164
Si Si6 0.646753 0.222441 0.125595
Si Si7 0.659143 0.956571 0.966798
Si Si8 0.839710 0.039785 0.157475
O O1 0.369298 0.477874 0.733124
O O2 0.742280 0.588394 0.517804
O O3 0.654601 0.858867 0.306565
O O4 0.577280 0.721283 0.273899
O O5 0.869559 0.151269 0.775548
O O6 0.000000 0.500000 0.500000
O O7 0.011076 0.170443 0.914504
O O8 0.081393 0.070067 0.654290
O O9 0.893309 0.240418 0.372427
O O10 0.704264 0.969078 0.826976
O O11 0.833293 0.850804 0.776824
O O12 0.317206 0.556202 0.844088
O O13 0.232652 0.714398 0.849343
O O14 0.469172 0.973112 0.416301
O O15 0.539196 0.365391 0.975128
O O16 0.785634 0.207654 0.036876
O O17 0.500000 0.000000 0.000000
#
# Coordination Sequence:
#
# PCOD9027969 Si02
#       8
#     2   2   2   2   2   2   2   2
#     4  11  21  41  61  88 124 168 205 242 302 370
#     4  11  23  38  61  90 125 166 213 245 296 374
#     4  11  24  41  62  91 134 160 202 259 311 365
#     4  10  22  43  64  94 120 162 208 261 314 363
#     4  11  23  40  66  94 123 159 214 256 304 372
#     4  10  22  41  70  88 121 163 209 260 311 366
#     4  11  23  38  58  87 127 164 197 250 306 357
#     4  11  21  43  60  91 128 166 204 253 312 369
#
# _framework density 25.650528000000001
#
# number of rings (size 3 to 8) (size 9 to 14) (size 15 to 20)
#    0.000    1.250    3.750    2.625    7.000    3.000 
#    2.250    0.625    0.000    0.000    0.000    0.000 
#    0.000    0.000    0.000    0.000    0.000    0.000 
#
# Total GULP energy -89501.411914 kJ/mol
# GULP energy per Si atom -5593.838245 kJ/mol
# Density = 2.559215 g / cm^3
# Si number density = 25.650528 Si / 1000 Ang^3
#
#
#
# Elastic Constant Matrix: (Units=GPa)
#
#
# Indices 1 2 3 4 5 6 
#
# 1 63.4107 21.3087 17.1449 -15.9391 19.8397 2.0348
# 2 21.3087 134.6918 44.6107 -22.1012 19.6956 -13.6659
# 3 17.1449 44.6107 72.0169 -24.0917 12.1813 2.7077
# 4 -15.9391 -22.1012 -24.0917 41.7893 -8.4649 18.0186
# 5 19.8397 19.6956 12.1813 -8.4649 43.4894 2.3106
# 6 2.0348 -13.6659 2.7077 18.0186 2.3106 38.4634
#
#
#
# Elastic Compliance Matrix: (Units=1/GPa)
#
#
# Indices 1 2 3 4 5 6 
#
# 1 0.020528 -0.001430 -0.000079 0.007676 -0.006948 -0.004767
# 2 -0.001430 0.010438 -0.006310 -0.001426 -0.002854 0.005068
# 3 -0.000079 -0.006310 0.023096 0.014499 -0.000187 -0.010645
# 4 0.007676 -0.001426 0.014499 0.045117 0.003100 -0.023255
# 5 -0.006948 -0.002854 -0.000187 0.003100 0.028314 -0.003787
# 6 -0.004767 0.005068 -0.010645 -0.023255 -0.003787 0.039923
#
#
# Mechanical properties :
#
#
# Convention : Reuss Voigt Hill
#
# Bulk Modulus (GPa) = 26.02566 48.47200 37.24883
# Shear Modulus (GPa) = 25.52829 37.21876 31.37352
#
# Velocity S-wave (km/s) = 3.15816 3.81332 3.50110
# Velocity P-wave (km/s) = 4.84426 6.19086 5.55849
#
# Compressibility (1/GPa) = 0.03842362
#
# Stress axis : x y z
#
# Youngs Moduli (GPa) = 48.71326 95.80264 43.29820
#
# Poissons Ratio (x) = 0.13695 0.00343
# Poissons Ratio (y) = 0.06964 0.27323
# Poissons Ratio (z) = 0.00386 0.60455
#
# Static dielectric constant tensor:
#      x y z
#    x 2.058470 0.039100 0.057740 
#    y 0.039100 1.997800 -0.002740 
#    z 0.057740 -0.002740 2.073460 
# 
# From -- ./inp_files/201812.got.cif
#   From: 2010.05.17/outbox.cif.g08.bks.cpg/sg2_101_cif.got.tgz:201812.got - 2010.06.03 11:33:40.
