data_PCOD9027760
_publ_section_title
;
Structure prediction by ZEFSAII (Michael W. Deem and Ramdas Pophale) SiO2 
 PCOD9027760
Probable space group: P -1
;
_chemical_formula_sum "Si O2"
_cell_formula_units_Z 14
_cell_length_a 5.018269
_cell_length_b 12.471343
_cell_length_c 11.103551
_cell_angle_alpha 52.714073
_cell_angle_beta 91.921537
_cell_angle_gamma 83.276846
_cell_volume 544.265795
_symmetry_space_group_name_H-M "P -1"
_symmetry_group_IT_number 2
_symmetry_cell_setting 'triclinic'
loop_
_space_group_symop_operation_xyz
x,y,z
-x,-y,-z
loop_
_atom_site_type_symbol
_atom_site_label
_atom_site_fract_x
_atom_site_fract_y
_atom_site_fract_z
Si Si1 0.401259 0.851766 0.095439
Si Si2 0.783603 0.254240 0.588801
Si Si3 0.773104 0.427765 0.110013
Si Si4 0.955114 0.186006 0.119468
Si Si5 0.780117 0.574942 0.540731
Si Si6 0.255300 0.967800 0.439673
Si Si7 0.841724 0.610605 0.183267
O O1 0.224458 0.828183 0.228107
O O2 0.642863 0.716516 0.192132
O O3 0.238191 0.847433 0.969418
O O4 0.500000 0.000000 0.000000
O O5 0.536346 0.381628 0.512357
O O6 0.693882 0.178424 0.522258
O O7 0.078966 0.289334 0.537705
O O8 0.812744 0.270762 0.174264
O O9 0.754017 0.475683 0.215944
O O10 0.500000 0.500000 0.000000
O O11 0.000000 0.500000 0.000000
O O12 0.165769 0.062436 0.258456
O O13 0.128553 0.287385 0.992527
O O14 0.000000 0.500000 0.500000
O O15 0.856617 0.457221 0.722937
O O16 0.500000 0.000000 0.500000
O O17 0.000000 0.000000 0.500000
#
# Coordination Sequence:
#
# PCOD9027760 Si02
#       7
#     2   2   2   2   2   2   2
#     4  12  27  46  80 113 157 206 263 320 383 463
#     4  12  29  50  77 114 158 205 259 317 393 459
#     4  10  22  41  69 105 144 186 244 310 381 442
#     4  11  27  49  77 113 154 200 265 323 384 461
#     4  12  26  47  76 112 159 202 251 315 391 469
#     4  12  31  54  79 109 156 209 263 319 391 467
#     4  11  25  45  75 113 152 199 257 321 390 458
#
# _framework density 25.722723999999999
#
# number of rings (size 3 to 8) (size 9 to 14) (size 15 to 20)
#    0.000    0.571    2.857    3.000   12.000    1.143 
#    0.000    0.000    0.000    0.000    0.000    0.000 
#    0.000    0.000    0.000    0.000    0.000    0.000 
#
# Total GULP energy -78187.532850 kJ/mol
# GULP energy per Si atom -5584.823775 kJ/mol
# Density = 2.566418 g / cm^3
# Si number density = 25.722724 Si / 1000 Ang^3
#
#
#
# Elastic Constant Matrix: (Units=GPa)
#
#
# Indices 1 2 3 4 5 6 
#
# 1 142.0509 35.6962 26.5610 0.5107 10.2034 7.2248
# 2 35.6962 189.9545 10.6973 1.1099 1.7780 5.6631
# 3 26.5610 10.6973 114.0466 -2.2960 0.8243 -2.3631
# 4 0.5107 1.1099 -2.2960 33.1520 -2.1488 3.3879
# 5 10.2034 1.7780 0.8243 -2.1488 45.4241 4.4535
# 6 7.2248 5.6631 -2.3631 3.3879 4.4535 41.5679
#
#
#
# Elastic Compliance Matrix: (Units=1/GPa)
#
#
# Indices 1 2 3 4 5 6 
#
# 1 0.007867 -0.001333 -0.001722 -0.000186 -0.001585 -0.001099
# 2 -0.001333 0.005543 -0.000224 -0.000117 0.000134 -0.000541
# 3 -0.001722 -0.000224 0.009218 0.000604 0.000180 0.000785
# 4 -0.000186 -0.000117 0.000604 0.030591 0.001737 -0.002597
# 5 -0.001585 0.000134 0.000180 0.001737 0.022670 -0.002303
# 6 -0.001099 -0.000541 0.000785 -0.002597 -0.002303 0.024825
#
#
# Mechanical properties :
#
#
# Convention : Reuss Voigt Hill
#
# Bulk Modulus (GPa) = 62.22924 65.77342 64.00133
# Shear Modulus (GPa) = 44.39398 48.90197 46.64797
#
# Velocity S-wave (km/s) = 4.15886 4.36491 4.26313
# Velocity P-wave (km/s) = 6.87796 7.14346 7.01196
#
# Compressibility (1/GPa) = 0.01606962
#
# Stress axis : x y z
#
# Youngs Moduli (GPa) = 127.11249 180.40644 108.48813
#
# Poissons Ratio (x) = 0.24043 0.18684
# Poissons Ratio (y) = 0.16940 0.02431
# Poissons Ratio (z) = 0.21892 0.04042
#
# Static dielectric constant tensor:
#      x y z
#    x 2.027030 -0.043550 0.005360 
#    y -0.043550 2.343340 0.027830 
#    z 0.005360 0.027830 2.251480 
# 
# From -- ./inp_files/363712.got.cif
#   From: 2010.05.17/outbox.cif.g08.bks.cpg/sg2_182_cif.got.tgz:363712.got - 2010.06.03 11:33:40.
