data_PCOD9027254
_publ_section_title
;
Structure prediction by ZEFSAII (Michael W. Deem and Ramdas Pophale) SiO2 
 PCOD9027254
Probable space group: P -1
;
_chemical_formula_sum "Si O2"
_cell_formula_units_Z 16
_cell_length_a 9.253075
_cell_length_b 10.820506
_cell_length_c 8.477887
_cell_angle_alpha 84.423249
_cell_angle_beta 81.767203
_cell_angle_gamma 119.560980
_cell_volume 716.710539
_symmetry_space_group_name_H-M "P -1"
_symmetry_group_IT_number 2
_symmetry_cell_setting 'triclinic'
loop_
_space_group_symop_operation_xyz
x,y,z
-x,-y,-z
loop_
_atom_site_type_symbol
_atom_site_label
_atom_site_fract_x
_atom_site_fract_y
_atom_site_fract_z
Si Si1 0.619747 0.092241 0.825196
Si Si2 0.105079 0.427677 0.047031
Si Si3 0.925549 0.132182 0.945560
Si Si4 0.205396 0.458780 0.538599
Si Si5 0.395739 0.623215 0.177111
Si Si6 0.690167 0.015240 0.313848
Si Si7 0.742093 0.773684 0.257127
Si Si8 0.885773 0.311050 0.404356
O O1 0.793472 0.096068 0.828291
O O2 0.656449 0.255053 0.813979
O O3 0.497166 0.022168 0.703797
O O4 0.500000 0.000000 0.000000
O O5 0.302919 0.534897 0.044373
O O6 0.020811 0.361306 0.235931
O O7 0.000000 0.500000 0.000000
O O8 0.052442 0.301648 0.946989
O O9 0.073059 0.108806 0.857243
O O10 0.806946 0.075533 0.127614
O O11 0.322178 0.523027 0.356346
O O12 0.255378 0.355914 0.635361
O O13 0.210896 0.598445 0.600891
O O14 0.005635 0.360431 0.532777
O O15 0.599319 0.707339 0.149887
O O16 0.769099 0.140962 0.414510
O O17 0.687865 0.866680 0.364657
#
# Coordination Sequence:
#
# PCOD9027254 Si02
#       8
#     2   2   2   2   2   2   2   2
#     4   9  18  34  56  82 109 150 188 231 282 338
#     4  10  17  31  57  86 113 145 187 239 282 335
#     4  10  19  33  59  84 115 151 191 229 287 343
#     4  10  21  37  61  81 115 152 195 235 279 335
#     4  10  21  36  56  84 119 149 190 236 287 335
#     4   9  20  38  58  85 117 146 189 241 284 338
#     4  11  22  36  57  84 119 159 181 233 293 338
#     4   9  20  36  59  87 108 147 201 236 272 337
#
# _framework density 22.324214000000001
#
# number of rings (size 3 to 8) (size 9 to 14) (size 15 to 20)
#    0.000    2.250    1.250    1.500    3.500    1.000 
#    0.000    2.500   11.000    0.000    0.000    0.000 
#    0.000    0.000    0.000    0.000    0.000    0.000 
#
# Total GULP energy -89189.328776 kJ/mol
# GULP energy per Si atom -5574.333049 kJ/mol
# Density = 2.227340 g / cm^3
# Si number density = 22.324214 Si / 1000 Ang^3
#
#
#
# Elastic Constant Matrix: (Units=GPa)
#
#
# Indices 1 2 3 4 5 6 
#
# 1 129.2786 44.0530 24.6082 13.8229 18.5988 30.6164
# 2 44.0530 100.8725 19.4215 20.1352 19.2230 1.9464
# 3 24.6082 19.4215 38.7572 -14.1297 -0.8763 8.1817
# 4 13.8229 20.1352 -14.1297 40.3378 12.1634 0.1586
# 5 18.5988 19.2230 -0.8763 12.1634 24.1950 -1.1872
# 6 30.6164 1.9464 8.1817 0.1586 -1.1872 34.7866
#
#
#
# Elastic Compliance Matrix: (Units=1/GPa)
#
#
# Indices 1 2 3 4 5 6 
#
# 1 0.013882 -0.002326 -0.006881 -0.003618 -0.007779 -0.010718
# 2 -0.002326 0.015954 -0.010651 -0.008915 -0.006621 0.003474
# 3 -0.006881 -0.010651 0.044417 0.022008 0.004112 -0.003755
# 4 -0.003618 -0.008915 0.022008 0.041269 -0.010185 -0.002028
# 5 -0.007779 -0.006621 0.004112 -0.010185 0.058247 0.008284
# 6 -0.010718 0.003474 -0.003755 -0.002028 0.008284 0.039161
#
#
# Mechanical properties :
#
#
# Convention : Reuss Voigt Hill
#
# Bulk Modulus (GPa) = 28.95442 49.45264 39.20353
# Shear Modulus (GPa) = 18.92802 31.91891 25.42347
#
# Velocity S-wave (km/s) = 2.91498 3.78536 3.37832
# Velocity P-wave (km/s) = 4.93230 6.42692 5.72857
#
# Compressibility (1/GPa) = 0.03453704
#
# Stress axis : x y z
#
# Youngs Moduli (GPa) = 72.03504 62.67880 22.51392
#
# Poissons Ratio (x) = 0.14581 0.15492
# Poissons Ratio (y) = 0.16757 0.23980
# Poissons Ratio (z) = 0.49567 0.66760
#
# Static dielectric constant tensor:
#      x y z
#    x 2.750810 -0.008590 -0.952190 
#    y -0.008590 1.871510 -0.024280 
#    z -0.952190 -0.024280 2.917570 
# 
# From -- ./inp_files/177962.got.cif
#   From: 2010.05.17/outbox.cif.g08.bks.cpg/sg2_89_cif.got.tgz:177962.got - 2010.06.03 11:33:40.
