data_PCOD9027971
_publ_section_title
;
Structure prediction by ZEFSAII (Michael W. Deem and Ramdas Pophale) SiO2 
 PCOD9027971
Probable space group: P -1
;
_chemical_formula_sum "Si O2"
_cell_formula_units_Z 14
_cell_length_a 7.281083
_cell_length_b 10.157301
_cell_length_c 11.998013
_cell_angle_alpha 63.240673
_cell_angle_beta 71.031236
_cell_angle_gamma 47.428747
_cell_volume 583.195620
_symmetry_space_group_name_H-M "P -1"
_symmetry_group_IT_number 2
_symmetry_cell_setting 'triclinic'
loop_
_space_group_symop_operation_xyz
x,y,z
-x,-y,-z
loop_
_atom_site_type_symbol
_atom_site_label
_atom_site_fract_x
_atom_site_fract_y
_atom_site_fract_z
Si Si1 0.973597 0.082636 0.093461
Si Si2 0.708729 0.523994 0.411410
Si Si3 0.442444 0.719258 0.163670
Si Si4 0.201994 0.272949 0.056013
Si Si5 0.593255 0.332793 0.233171
Si Si6 0.089024 0.172365 0.339236
Si Si7 0.472700 0.171862 0.498809
O O1 0.168913 0.888961 0.196896
O O2 0.081158 0.195180 0.041451
O O3 0.695634 0.218613 0.142685
O O4 0.000000 0.000000 0.000000
O O5 0.500000 0.500000 0.500000
O O6 0.621237 0.624793 0.270241
O O7 0.968135 0.317973 0.411974
O O8 0.713432 0.662015 0.439743
O O9 0.457089 0.553077 0.165845
O O10 0.551638 0.787986 0.031366
O O11 0.227412 0.206385 0.204557
O O12 0.000000 0.500000 0.000000
O O13 0.847784 0.235171 0.292398
O O14 0.446385 0.292040 0.353566
O O15 0.269828 0.958447 0.429270
O O16 0.500000 0.000000 0.500000
#
# Coordination Sequence:
#
# PCOD9027971 Si02
#       7
#     2   2   2   2   2   2   2
#     4  11  25  40  64  99 129 168 204 261 324 374
#     4  11  21  39  69  92 114 172 219 245 308 378
#     4  11  22  42  71  92 125 168 218 259 302 385
#     4  11  20  45  66  95 126 162 220 259 305 373
#     4  10  22  43  63  92 128 167 215 260 309 374
#     4  10  22  41  70  88 125 172 211 257 304 380
#     4  12  26  41  60  99 134 159 208 269 324 365
#
# _framework density 24.005665
#
# number of rings (size 3 to 8) (size 9 to 14) (size 15 to 20)
#    0.000    1.143    7.143    2.571    2.000    3.429 
#    2.571    0.000    0.000    0.000    0.000    0.000 
#    0.000    0.000    0.000    0.000    0.000    0.000 
#
# Total GULP energy -78191.696086 kJ/mol
# GULP energy per Si atom -5585.121149 kJ/mol
# Density = 2.395103 g / cm^3
# Si number density = 24.005665 Si / 1000 Ang^3
#
#
#
# Elastic Constant Matrix: (Units=GPa)
#
#
# Indices 1 2 3 4 5 6 
#
# 1 40.3088 11.0901 7.3910 6.7058 -1.2939 6.7172
# 2 11.0901 173.1829 31.1490 29.3568 3.8634 6.9705
# 3 7.3910 31.1490 101.7263 20.1095 -19.5300 5.5322
# 4 6.7058 29.3568 20.1095 38.7549 -5.8998 18.9326
# 5 -1.2939 3.8634 -19.5300 -5.8998 27.5936 9.9583
# 6 6.7172 6.9705 5.5322 18.9326 9.9583 18.2407
#
#
#
# Elastic Compliance Matrix: (Units=1/GPa)
#
#
# Indices 1 2 3 4 5 6 
#
# 1 0.033917 -0.008291 0.004257 0.045133 0.045021 -0.082037
# 2 -0.008291 0.013701 -0.006496 -0.048568 -0.044093 0.074270
# 3 0.004257 -0.006496 0.016164 0.027120 0.037293 -0.052496
# 4 0.045133 -0.048568 0.027120 0.320673 0.272814 -0.488064
# 5 0.045021 -0.044093 0.037293 0.272814 0.293193 -0.454269
# 6 -0.082037 0.074270 -0.052496 -0.488064 -0.454269 0.827156
#
#
# Mechanical properties :
#
#
# Convention : Reuss Voigt Hill
#
# Bulk Modulus (GPa) = 23.40711 46.05314 34.73013
# Shear Modulus (GPa) = 3.24653 34.62370 18.93512
#
# Velocity S-wave (km/s) = 1.16419 3.80190 2.81156
# Velocity P-wave (km/s) = 3.40278 6.20472 5.00387
#
# Compressibility (1/GPa) = 0.04272207
#
# Stress axis : x y z
#
# Youngs Moduli (GPa) = 29.48393 72.98835 61.86707
#
# Poissons Ratio (x) = 0.60513 -0.26338
# Poissons Ratio (y) = 0.24444 0.40189
# Poissons Ratio (z) = -0.12552 0.47414
#
# Static dielectric constant tensor:
#      x y z
#    x 2.073300 -0.006630 0.006000 
#    y -0.006630 1.960670 0.040250 
#    z 0.006000 0.040250 1.945820 
# 
# From -- ./inp_files/241408.got.cif
#   From: 2010.05.17/outbox.cif.g08.bks.cpg/sg2_121_cif.got.tgz:241408.got - 2010.06.03 11:33:40.
