data_PCOD9027000
_publ_section_title
;
Structure prediction by ZEFSAII (Michael W. Deem and Ramdas Pophale) SiO2 
 PCOD9027000
Probable space group: P -1
;
_chemical_formula_sum "Si O2"
_cell_formula_units_Z 16
_cell_length_a 12.834601
_cell_length_b 12.664050
_cell_length_c 13.407333
_cell_angle_alpha 31.696443
_cell_angle_beta 31.980582
_cell_angle_gamma 44.521546
_cell_volume 606.127029
_symmetry_space_group_name_H-M "P -1"
_symmetry_group_IT_number 2
_symmetry_cell_setting 'triclinic'
loop_
_space_group_symop_operation_xyz
x,y,z
-x,-y,-z
loop_
_atom_site_type_symbol
_atom_site_label
_atom_site_fract_x
_atom_site_fract_y
_atom_site_fract_z
Si Si1 0.718909 0.083368 0.377071
Si Si2 0.004779 0.091604 0.315040
Si Si3 0.796993 0.419919 0.653156
Si Si4 0.256055 0.572353 0.696235
Si Si5 0.085024 0.157919 0.883629
Si Si6 0.220507 0.338500 0.335334
Si Si7 0.608224 0.521838 0.124422
Si Si8 0.658822 0.803489 0.178979
O O1 0.658289 0.858281 0.571938
O O2 0.583468 0.276243 0.333908
O O3 0.825838 0.024933 0.441044
O O4 0.903829 0.173872 0.092883
O O5 0.939675 0.315786 0.210120
O O6 0.214511 0.075433 0.104002
O O7 0.000000 0.000000 0.500000
O O8 0.863542 0.633991 0.379372
O O9 0.743113 0.475685 0.766514
O O10 0.593419 0.360779 0.814996
O O11 0.987269 0.289510 0.584972
O O12 0.318913 0.456972 0.838772
O O13 0.429430 0.746612 0.398177
O O14 0.254470 0.422357 0.724604
O O15 0.270585 0.107553 0.843790
O O16 0.000000 0.000000 0.000000
O O17 0.264660 0.405338 0.132696
#
# Coordination Sequence:
#
# PCOD9027000 Si02
#       8
#     2   2   2   2   2   2   2   2
#     4  10  23  42  64  97 133 175 224 272 343 410
#     4  10  23  40  63  97 131 168 215 277 337 403
#     4  11  23  42  66  94 136 180 225 281 338 396
#     4  10  22  41  68  96 127 175 224 271 344 403
#     4  11  20  42  68  92 133 184 221 273 341 407
#     4  11  24  42  64  98 138 173 232 281 334 413
#     4  11  23  43  66  98 137 175 224 284 338 407
#     4  10  22  41  66  94 127 173 224 271 331 404
#
# _framework density 26.397107999999999
#
# number of rings (size 3 to 8) (size 9 to 14) (size 15 to 20)
#    0.000    1.500    3.750    0.750    1.750    2.000 
#    2.250    0.000    0.000    0.000    0.000    0.000 
#    0.000    0.000    0.000    0.000    0.000    0.000 
#
# Total GULP energy -89409.197930 kJ/mol
# GULP energy per Si atom -5588.074871 kJ/mol
# Density = 2.633703 g / cm^3
# Si number density = 26.397108 Si / 1000 Ang^3
#
#
#
# Elastic Constant Matrix: (Units=GPa)
#
#
# Indices 1 2 3 4 5 6 
#
# 1 113.5805 8.5403 35.0117 2.4114 4.6781 7.2593
# 2 8.5403 88.5735 3.7751 -2.8033 -4.7652 1.9682
# 3 35.0117 3.7751 113.0575 15.0866 22.1664 9.8927
# 4 2.4114 -2.8033 15.0866 40.3290 1.9010 0.6842
# 5 4.6781 -4.7652 22.1664 1.9010 43.1144 1.1290
# 6 7.2593 1.9682 9.8927 0.6842 1.1290 29.8397
#
#
#
# Elastic Compliance Matrix: (Units=1/GPa)
#
#
# Indices 1 2 3 4 5 6 
#
# 1 0.009863 -0.000751 -0.003063 0.000507 0.000435 -0.001363
# 2 -0.000751 0.011515 -0.000558 0.000986 0.001610 -0.000476
# 3 -0.003063 -0.000558 0.011651 -0.003909 -0.005474 -0.002784
# 4 0.000507 0.000986 -0.003909 0.026246 0.000894 0.000472
# 5 0.000435 0.001610 -0.005474 0.000894 0.026084 0.000595
# 6 -0.001363 -0.000476 -0.002784 0.000472 0.000595 0.034765
#
#
# Mechanical properties :
#
#
# Convention : Reuss Voigt Hill
#
# Bulk Modulus (GPa) = 41.17627 45.54064 43.35845
# Shear Modulus (GPa) = 36.50646 40.51559 38.51103
#
# Velocity S-wave (km/s) = 3.72287 3.92197 3.82371
# Velocity P-wave (km/s) = 5.84057 6.14806 5.99629
#
# Compressibility (1/GPa) = 0.02428583
#
# Stress axis : x y z
#
# Youngs Moduli (GPa) = 101.38490 86.84640 85.83205
#
# Poissons Ratio (x) = 0.06520 0.26291
# Poissons Ratio (y) = 0.07612 0.04786
# Poissons Ratio (z) = 0.31055 0.04842
#
# Static dielectric constant tensor:
#      x y z
#    x 2.121630 0.067640 -0.047850 
#    y 0.067640 2.085420 0.001710 
#    z -0.047850 0.001710 2.066060 
# 
# From -- ./inp_files/534076.got.cif
#   From: 2010.05.17/outbox.cif.g08.bks.cpg/sg2_268_cif.got.tgz:534076.got - 2010.06.03 11:33:40.
