data_PCOD9027598
_publ_section_title
;
Structure prediction by ZEFSAII (Michael W. Deem and Ramdas Pophale) SiO2 
 PCOD9027598
Probable space group: P -1
;
_chemical_formula_sum "Si O2"
_cell_formula_units_Z 16
_cell_length_a 6.801394
_cell_length_b 15.695990
_cell_length_c 13.292094
_cell_angle_alpha 140.790845
_cell_angle_beta 94.863365
_cell_angle_gamma 61.968137
_cell_volume 685.404000
_symmetry_space_group_name_H-M "P -1"
_symmetry_group_IT_number 2
_symmetry_cell_setting 'triclinic'
loop_
_space_group_symop_operation_xyz
x,y,z
-x,-y,-z
loop_
_atom_site_type_symbol
_atom_site_label
_atom_site_fract_x
_atom_site_fract_y
_atom_site_fract_z
Si Si1 0.839712 0.371330 0.627903
Si Si2 0.602912 0.316535 0.748572
Si Si3 0.188741 0.293828 0.073790
Si Si4 0.612768 0.282631 0.363169
Si Si5 0.090915 0.665293 0.695142
Si Si6 0.438142 0.071140 0.176103
Si Si7 0.673846 0.820909 0.405976
Si Si8 0.930463 0.337992 0.892894
O O1 0.671528 0.391732 0.733373
O O2 0.802280 0.548175 0.775483
O O3 0.734070 0.326693 0.492454
O O4 0.141296 0.215955 0.528274
O O5 0.522487 0.210129 0.600136
O O6 0.844771 0.224247 0.750379
O O7 0.343836 0.469391 0.935347
O O8 0.021928 0.314337 0.180782
O O9 0.058862 0.302267 0.972945
O O10 0.463990 0.098296 0.911380
O O11 0.319131 0.459624 0.496129
O O12 0.774056 0.248440 0.238467
O O13 0.603327 0.132841 0.259037
O O14 0.859543 0.759077 0.690486
O O15 0.500000 0.000000 0.000000
O O16 0.886902 0.686424 0.208660
O O17 0.500000 0.000000 0.500000
#
# Coordination Sequence:
#
# PCOD9027598 Si02
#       8
#     2   2   2   2   2   2   2   2
#     4  11  26  42  70 102 132 178 232 267 340 406
#     4  10  22  42  69  95 134 173 225 273 326 402
#     4  11  24  44  68 100 138 174 228 286 324 399
#     4  11  25  43  72  97 131 186 222 274 345 399
#     4  10  25  45  69  96 136 177 227 272 339 404
#     4  10  25  45  65  97 135 171 225 285 333 388
#     4  11  25  44  68  99 140 174 220 278 332 400
#     4  10  22  41  68  96 129 178 219 268 338 383
#
# _framework density 23.343897999999999
#
# number of rings (size 3 to 8) (size 9 to 14) (size 15 to 20)
#    0.000    1.500    1.250    1.500   12.250    7.000 
#    2.250    0.000    0.000    0.000    0.000    0.000 
#    0.000    0.000    0.000    0.000    0.000    0.000 
#
# Total GULP energy -89346.573571 kJ/mol
# GULP energy per Si atom -5584.160848 kJ/mol
# Density = 2.329077 g / cm^3
# Si number density = 23.343898 Si / 1000 Ang^3
#
#
#
# Elastic Constant Matrix: (Units=GPa)
#
#
# Indices 1 2 3 4 5 6 
#
# 1 156.2632 66.5302 55.6214 7.4530 5.1533 -13.5215
# 2 66.5302 115.6393 43.5420 0.0963 11.3001 -20.4104
# 3 55.6214 43.5420 58.3724 3.4797 9.8094 -5.0127
# 4 7.4530 0.0963 3.4797 40.7671 7.0626 -1.8738
# 5 5.1533 11.3001 9.8094 7.0626 21.3053 -14.4024
# 6 -13.5215 -20.4104 -5.0127 -1.8738 -14.4024 40.9953
#
#
#
# Elastic Compliance Matrix: (Units=1/GPa)
#
#
# Indices 1 2 3 4 5 6 
#
# 1 0.010988 -0.003057 -0.008767 -0.002102 0.005677 0.002929
# 2 -0.003057 0.014013 -0.007109 0.001454 -0.000538 0.004977
# 3 -0.008767 -0.007109 0.032518 0.001009 -0.014483 -0.007497
# 4 -0.002102 0.001454 0.001009 0.026667 -0.011330 -0.002607
# 5 0.005677 -0.000538 -0.014483 -0.011330 0.073193 0.025030
# 6 0.002929 0.004977 -0.007497 -0.002607 0.025030 0.035594
#
#
# Mechanical properties :
#
#
# Convention : Reuss Voigt Hill
#
# Bulk Modulus (GPa) = 50.88221 73.51800 62.20011
# Shear Modulus (GPa) = 21.06240 31.58563 26.32401
#
# Velocity S-wave (km/s) = 3.00703 3.68238 3.36171
# Velocity P-wave (km/s) = 5.82241 7.04569 6.46306
#
# Compressibility (1/GPa) = 0.01965323
#
# Stress axis : x y z
#
# Youngs Moduli (GPa) = 91.00883 71.36464 30.75198
#
# Poissons Ratio (x) = 0.21813 0.26961
# Poissons Ratio (y) = 0.27817 0.21861
# Poissons Ratio (z) = 0.79790 0.50733
#
# Static dielectric constant tensor:
#      x y z
#    x 1.924920 -0.014860 0.018890 
#    y -0.014860 1.988460 0.014430 
#    z 0.018890 0.014430 1.971340 
# 
# From -- ./inp_files/484489.got.cif
#   From: 2010.05.17/outbox.cif.g08.bks.cpg/sg2_243_cif.got.tgz:484489.got - 2010.06.03 11:33:40.
