data_PCOD9027179
_publ_section_title
;
Structure prediction by ZEFSAII (Michael W. Deem and Ramdas Pophale) SiO2 
 PCOD9027179
Probable space group: P -1
;
_chemical_formula_sum "Si O2"
_cell_formula_units_Z 16
_cell_length_a 22.232766
_cell_length_b 6.964670
_cell_length_c 11.194301
_cell_angle_alpha 58.296586
_cell_angle_beta 27.352103
_cell_angle_gamma 69.056388
_cell_volume 650.532533
_symmetry_space_group_name_H-M "P -1"
_symmetry_group_IT_number 2
_symmetry_cell_setting 'triclinic'
loop_
_space_group_symop_operation_xyz
x,y,z
-x,-y,-z
loop_
_atom_site_type_symbol
_atom_site_label
_atom_site_fract_x
_atom_site_fract_y
_atom_site_fract_z
Si Si1 0.894385 0.739593 0.762728
Si Si2 0.410759 0.250248 0.686069
Si Si3 0.074390 0.857537 0.785714
Si Si4 0.079892 0.551127 0.659400
Si Si5 0.535535 0.664811 0.072481
Si Si6 0.661424 0.098293 0.542857
Si Si7 0.475879 0.145949 0.336273
Si Si8 0.174987 0.339991 0.356282
O O1 0.877643 0.639248 0.689808
O O2 0.946422 0.577495 0.816424
O O3 0.744549 0.753920 0.051884
O O4 0.000000 0.000000 0.500000
O O5 0.500000 0.500000 0.500000
O O6 0.465739 0.206313 0.473287
O O7 0.423673 0.017305 0.808965
O O8 0.117248 0.765021 0.615286
O O9 0.193722 0.866734 0.665074
O O10 0.068675 0.116203 0.679482
O O11 0.945578 0.670766 0.132375
O O12 0.179696 0.544048 0.376589
O O13 0.409760 0.700285 0.361086
O O14 0.506828 0.409546 0.147877
O O15 0.675171 0.700317 0.891655
O O16 0.567687 0.865943 0.850153
O O17 0.657530 0.027208 0.434247
#
# Coordination Sequence:
#
# PCOD9027179 Si02
#       8
#     2   2   2   2   2   2   2   2
#     4  12  26  46  72 102 139 182 233 288 344 409
#     4  11  27  48  68 100 141 179 228 291 348 404
#     4  10  24  45  66  98 136 178 224 289 339 408
#     4  11  25  44  69  95 136 184 227 279 346 408
#     4  10  23  40  67 101 138 173 224 287 341 407
#     4  10  22  41  67 101 135 173 226 284 346 406
#     4  11  23  42  71  98 131 183 229 277 348 417
#     4  11  23  45  68  99 137 179 230 282 345 411
#
# _framework density 24.595234000000001
#
# number of rings (size 3 to 8) (size 9 to 14) (size 15 to 20)
#    0.000    1.250    1.250    3.375    5.250    6.000 
#    6.750    0.000    0.000    0.000    0.000    0.000 
#    0.000    0.000    0.000    0.000    0.000    0.000 
#
# Total GULP energy -89421.596997 kJ/mol
# GULP energy per Si atom -5588.849812 kJ/mol
# Density = 2.453925 g / cm^3
# Si number density = 24.595234 Si / 1000 Ang^3
#
#
#
# Elastic Constant Matrix: (Units=GPa)
#
#
# Indices 1 2 3 4 5 6 
#
# 1 96.5320 40.0138 -1.7836 -14.6433 -2.0472 18.9928
# 2 40.0138 135.1972 33.7569 -2.7137 4.0635 13.0261
# 3 -1.7836 33.7569 49.9068 -6.0335 -1.4594 -1.7472
# 4 -14.6433 -2.7137 -6.0335 23.4805 -4.0866 3.7852
# 5 -2.0472 4.0635 -1.4594 -4.0866 29.8189 -0.0530
# 6 18.9928 13.0261 -1.7472 3.7852 -0.0530 56.6969
#
#
#
# Elastic Compliance Matrix: (Units=1/GPa)
#
#
# Indices 1 2 3 4 5 6 
#
# 1 0.015476 -0.005411 0.005593 0.011840 0.003688 -0.004556
# 2 -0.005411 0.011162 -0.008416 -0.004646 -0.002942 -0.000704
# 3 0.005593 -0.008416 0.027300 0.010238 0.004270 0.000222
# 4 0.011840 -0.004646 0.010238 0.054712 0.009434 -0.006227
# 5 0.003688 -0.002942 0.004270 0.009434 0.035690 -0.001024
# 6 -0.004556 -0.000704 0.000222 -0.006227 -0.001024 0.019747
#
#
# Mechanical properties :
#
#
# Convention : Reuss Voigt Hill
#
# Bulk Modulus (GPa) = 26.68790 47.29002 36.98896
# Shear Modulus (GPa) = 25.90057 35.97585 30.93821
#
# Velocity S-wave (km/s) = 3.24863 3.82870 3.55053
# Velocity P-wave (km/s) = 4.99458 6.23011 5.64624
#
# Compressibility (1/GPa) = 0.03747016
#
# Stress axis : x y z
#
# Youngs Moduli (GPa) = 64.61573 89.58591 36.62993
#
# Poissons Ratio (x) = 0.48476 -0.20487
# Poissons Ratio (y) = 0.34964 0.30828
# Poissons Ratio (z) = -0.36139 0.75395
#
# Static dielectric constant tensor:
#      x y z
#    x 1.983180 -0.020420 0.063410 
#    y -0.020420 1.984950 0.000760 
#    z 0.063410 0.000760 2.006350 
# 
# From -- ./inp_files/473359.got.cif
#   From: 2010.05.17/outbox.cif.g08.bks.cpg/sg2_237_cif.got.tgz:473359.got - 2010.06.03 11:33:40.
