data_PCOD9027477
_publ_section_title
;
Structure prediction by ZEFSAII (Michael W. Deem and Ramdas Pophale) SiO2 
 PCOD9027477
Probable space group: P -1
;
_chemical_formula_sum "Si O2"
_cell_formula_units_Z 16
_cell_length_a 10.111853
_cell_length_b 9.176907
_cell_length_c 14.538345
_cell_angle_alpha 128.290060
_cell_angle_beta 107.090977
_cell_angle_gamma 109.098123
_cell_volume 743.170917
_symmetry_space_group_name_H-M "P -1"
_symmetry_group_IT_number 2
_symmetry_cell_setting 'triclinic'
loop_
_space_group_symop_operation_xyz
x,y,z
-x,-y,-z
loop_
_atom_site_type_symbol
_atom_site_label
_atom_site_fract_x
_atom_site_fract_y
_atom_site_fract_z
Si Si1 0.356265 0.858834 0.794814
Si Si2 0.769154 0.195773 0.447612
Si Si3 0.438117 0.664793 0.457995
Si Si4 0.653572 0.849266 0.760869
Si Si5 0.547206 0.433491 0.077910
Si Si6 0.105602 0.440909 0.733857
Si Si7 0.980543 0.584523 0.931649
Si Si8 0.552959 0.322463 0.734919
O O1 0.216050 0.757192 0.639420
O O2 0.509267 0.843701 0.788672
O O3 0.245259 0.689185 0.794963
O O4 0.455913 0.146948 0.942698
O O5 0.733368 0.359923 0.555215
O O6 0.935319 0.239554 0.550606
O O7 0.573564 0.908033 0.310295
O O8 0.590517 0.821043 0.630837
O O9 0.372129 0.393119 0.325477
O O10 0.521638 0.793862 0.427159
O O11 0.863174 0.111906 0.922108
O O12 0.767925 0.605180 0.213007
O O13 0.466365 0.482547 0.163345
O O14 0.500000 0.500000 0.000000
O O15 0.025601 0.486230 0.819565
O O16 0.769530 0.465459 0.836034
O O17 0.000000 0.500000 0.000000
#
# Coordination Sequence:
#
# PCOD9027477 Si02
#       8
#     2   2   2   2   2   2   2   2
#     4  11  23  47  71 101 145 184 230 298 346 414
#     4  11  24  46  70 101 144 183 238 294 347 412
#     4  10  22  41  68 103 136 184 227 290 352 406
#     4  10  23  43  71 101 142 182 234 286 348 420
#     4  12  25  47  68 105 141 187 231 290 352 422
#     4  12  26  43  76 101 138 192 239 277 361 417
#     4  12  25  43  68 104 134 182 230 286 346 416
#     4  12  25  43  70  99 143 181 230 292 350 404
#
# _framework density 21.529367000000001
#
# number of rings (size 3 to 8) (size 9 to 14) (size 15 to 20)
#    0.000    0.750    3.750    4.125    3.500    2.000 
#    0.000    1.250    0.000    0.000    0.000    0.000 
#    0.000    0.000    0.000    0.000    0.000    0.000 
#
# Total GULP energy -89506.098420 kJ/mol
# GULP energy per Si atom -5594.131151 kJ/mol
# Density = 2.148037 g / cm^3
# Si number density = 21.529367 Si / 1000 Ang^3
#
#
#
# Elastic Constant Matrix: (Units=GPa)
#
#
# Indices 1 2 3 4 5 6 
#
# 1 145.4063 29.5918 67.1803 -7.3091 2.6902 -5.1710
# 2 29.5918 70.1128 35.7922 -20.2830 3.3010 3.7237
# 3 67.1803 35.7922 80.9119 -7.9079 1.8268 4.1844
# 4 -7.3091 -20.2830 -7.9079 43.2680 -0.5263 -0.2777
# 5 2.6902 3.3010 1.8268 -0.5263 47.8955 -0.5641
# 6 -5.1710 3.7237 4.1844 -0.2777 -0.5641 27.8789
#
#
#
# Elastic Compliance Matrix: (Units=1/GPa)
#
#
# Indices 1 2 3 4 5 6 
#
# 1 0.011508 -0.000032 -0.009704 0.000176 -0.000230 0.003593
# 2 -0.000032 0.021099 -0.008391 0.008329 -0.001058 -0.001503
# 3 -0.009704 -0.008391 0.024235 -0.001170 0.000135 -0.004326
# 4 0.000176 0.008329 -0.001170 0.026825 -0.000252 -0.000642
# 5 -0.000230 -0.001058 0.000135 -0.000252 0.020963 0.000500
# 6 0.003593 -0.001503 -0.004326 -0.000642 0.000500 0.037390
#
#
# Mechanical properties :
#
#
# Convention : Reuss Voigt Hill
#
# Bulk Modulus (GPa) = 48.57452 62.39551 55.48501
# Shear Modulus (GPa) = 27.00708 34.73292 30.87000
#
# Velocity S-wave (km/s) = 3.54564 4.02092 3.79074
# Velocity P-wave (km/s) = 6.27479 7.11348 6.70726
#
# Compressibility (1/GPa) = 0.02058693
#
# Stress axis : x y z
#
# Youngs Moduli (GPa) = 86.89386 47.39541 41.26320
#
# Poissons Ratio (x) = 0.00153 0.40043
# Poissons Ratio (y) = 0.00281 0.34623
# Poissons Ratio (z) = 0.84325 0.39769
#
# Static dielectric constant tensor:
#      x y z
#    x 1.764960 -0.037360 0.020350 
#    y -0.037360 1.806390 -0.027280 
#    z 0.020350 -0.027280 1.810930 
# 
# From -- ./inp_files/308335.got.cif
#   From: 2010.05.17/outbox.cif.g08.bks.cpg/sg2_155_cif.got.tgz:308335.got - 2010.06.03 11:33:40.
