data_PCOD9027525
_publ_section_title
;
Structure prediction by ZEFSAII (Michael W. Deem and Ramdas Pophale) SiO2 
 PCOD9027525
Probable space group: P -1
;
_chemical_formula_sum "Si O2"
_cell_formula_units_Z 16
_cell_length_a 25.823176
_cell_length_b 11.437528
_cell_length_c 10.964092
_cell_angle_alpha 142.834826
_cell_angle_beta 148.406272
_cell_angle_gamma 30.239190
_cell_volume 831.221555
_symmetry_space_group_name_H-M "P -1"
_symmetry_group_IT_number 2
_symmetry_cell_setting 'triclinic'
loop_
_space_group_symop_operation_xyz
x,y,z
-x,-y,-z
loop_
_atom_site_type_symbol
_atom_site_label
_atom_site_fract_x
_atom_site_fract_y
_atom_site_fract_z
Si Si1 0.191613 0.151361 0.797612
Si Si2 0.144284 0.824764 0.134367
Si Si3 0.235694 0.529367 0.839325
Si Si4 0.496792 0.610593 0.718287
Si Si5 0.401491 0.594010 0.772188
Si Si6 0.999245 0.043726 0.393799
Si Si7 0.195820 0.567129 0.270799
Si Si8 0.252308 0.102795 0.599490
O O1 0.077668 0.144037 0.596752
O O2 0.191833 0.195481 0.689539
O O3 0.310684 0.882920 0.837744
O O4 0.194708 0.346771 0.042559
O O5 0.200984 0.697065 0.269427
O O6 0.194810 0.974602 0.323354
O O7 0.186855 0.622561 0.954551
O O8 0.000000 0.000000 0.000000
O O9 0.234655 0.300002 0.636985
O O10 0.139177 0.755729 0.753995
O O11 0.371467 0.453172 0.042456
O O12 0.500000 0.500000 0.500000
O O13 0.459919 0.532036 0.701012
O O14 0.394216 0.894003 0.734011
O O15 0.312709 0.507274 0.532324
O O16 0.500000 0.500000 0.000000
O O17 0.069169 0.782558 0.255478
O O18 0.000000 0.000000 0.500000
#
# Coordination Sequence:
#
# PCOD9027525 Si02
#       8
#     2   2   2   2   2   2   2   2
#     4  10  22  41  68  91 124 165 211 270 307 375
#     4  12  21  38  64  97 123 157 206 264 318 371
#     4  12  24  37  67  93 127 168 205 263 323 379
#     4  11  22  42  62  95 131 165 207 270 327 370
#     4  10  23  43  67  93 125 173 219 255 315 388
#     4  11  26  43  60  92 133 170 209 258 313 378
#     4  11  21  42  67  91 126 162 210 266 310 367
#     4  11  22  40  63  99 125 158 215 262 324 378
#
# _framework density 19.248778999999999
#
# number of rings (size 3 to 8) (size 9 to 14) (size 15 to 20)
#    0.000    1.000    7.500    0.375    5.250    2.000 
#    0.000    1.250    0.000    0.000    0.000    0.000 
#    0.000    0.000    0.000    0.000    0.000    0.000 
#
# Total GULP energy -89276.763137 kJ/mol
# GULP energy per Si atom -5579.797696 kJ/mol
# Density = 1.920497 g / cm^3
# Si number density = 19.248779 Si / 1000 Ang^3
#
#
#
# Elastic Constant Matrix: (Units=GPa)
#
#
# Indices 1 2 3 4 5 6 
#
# 1 64.3732 22.6660 3.6536 -5.2138 -4.1156 -5.7079
# 2 22.6660 62.3755 35.4341 4.5430 10.8739 -12.0550
# 3 3.6536 35.4341 75.8754 -1.5542 10.1860 -0.9646
# 4 -5.2138 4.5430 -1.5542 49.3705 -2.4790 -1.1047
# 5 -4.1156 10.8739 10.1860 -2.4790 34.4301 -8.6409
# 6 -5.7079 -12.0550 -0.9646 -1.1047 -8.6409 16.8001
#
#
#
# Elastic Compliance Matrix: (Units=1/GPa)
#
#
# Indices 1 2 3 4 5 6 
#
# 1 0.019539 -0.009241 0.002748 0.003348 0.005487 0.003207
# 2 -0.009241 0.031117 -0.013549 -0.004049 -0.003056 0.016573
# 3 0.002748 -0.013549 0.019755 0.001778 -0.003445 -0.009310
# 4 0.003348 -0.004049 0.001778 0.021216 0.003000 0.001272
# 5 0.005487 -0.003056 -0.003445 0.003000 0.036534 0.018462
# 6 0.003207 0.016573 -0.009310 0.001272 0.018462 0.081550
#
#
# Mechanical properties :
#
#
# Convention : Reuss Voigt Hill
#
# Bulk Modulus (GPa) = 32.97503 36.23683 34.60593
# Shear Modulus (GPa) = 19.23778 29.51149 24.37463
#
# Velocity S-wave (km/s) = 3.16480 3.91981 3.56236
# Velocity P-wave (km/s) = 5.52474 6.27319 5.91083
#
# Compressibility (1/GPa) = 0.03032598
#
# Stress axis : x y z
#
# Youngs Moduli (GPa) = 51.18045 32.13635 50.61961
#
# Poissons Ratio (x) = 0.29698 -0.13908
# Poissons Ratio (y) = 0.47298 0.68584
# Poissons Ratio (z) = -0.14062 0.43541
#
# Static dielectric constant tensor:
#      x y z
#    x 1.689320 -0.000080 0.002560 
#    y -0.000080 1.698050 0.000400 
#    z 0.002560 0.000400 1.672910 
# 
# From -- ./inp_files/476572.got.cif
#   From: 2010.05.17/outbox.cif.g08.bks.cpg/sg2_239_cif.got.tgz:476572.got - 2010.06.03 11:33:40.
