data_PCOD9027451
_publ_section_title
;
Structure prediction by ZEFSAII (Michael W. Deem and Ramdas Pophale) SiO2 
 PCOD9027451
Probable space group: P -1
;
_chemical_formula_sum "Si O2"
_cell_formula_units_Z 14
_cell_length_a 9.015722
_cell_length_b 17.724498
_cell_length_c 4.946967
_cell_angle_alpha 129.147517
_cell_angle_beta 78.139374
_cell_angle_gamma 123.489484
_cell_volume 498.669065
_symmetry_space_group_name_H-M "P -1"
_symmetry_group_IT_number 2
_symmetry_cell_setting 'triclinic'
loop_
_space_group_symop_operation_xyz
x,y,z
-x,-y,-z
loop_
_atom_site_type_symbol
_atom_site_label
_atom_site_fract_x
_atom_site_fract_y
_atom_site_fract_z
Si Si1 0.954614 0.103904 0.007487
Si Si2 0.810399 0.218559 0.643678
Si Si3 0.434757 0.078287 0.336761
Si Si4 0.186184 0.602314 0.295429
Si Si5 0.318283 0.213397 0.319387
Si Si6 0.834016 0.677791 0.972211
Si Si7 0.369002 0.584986 0.689396
O O1 0.861782 0.126645 0.344355
O O2 0.125694 0.101249 0.031587
O O3 0.067034 0.225013 0.074594
O O4 0.777149 0.006002 0.689031
O O5 0.598508 0.152450 0.661829
O O6 0.804834 0.280900 0.514046
O O7 0.992126 0.315979 0.949731
O O8 0.418800 0.163231 0.328472
O O9 0.500000 0.000000 0.000000
O O10 0.333982 0.598684 0.043911
O O11 0.226355 0.591452 0.562979
O O12 0.000000 0.500000 0.000000
O O13 0.441662 0.305830 0.249130
O O14 0.257015 0.279650 0.688733
O O15 0.686005 0.546330 0.636859
#
# Coordination Sequence:
#
# PCOD9027451 Si02
#       7
#     2   2   2   2   2   2   2
#     4  10  24  43  70  98 145 189 242 298 364 429
#     4  10  22  41  68 101 139 183 244 298 360 423
#     4  10  22  45  73 100 138 184 248 307 364 427
#     4  12  24  43  72 110 148 193 241 302 362 427
#     4  11  25  45  67 104 144 190 240 296 364 439
#     4  11  25  43  67 103 144 193 235 298 361 440
#     4  12  27  43  76 107 152 193 244 294 364 440
#
# _framework density 28.074729999999999
#
# number of rings (size 3 to 8) (size 9 to 14) (size 15 to 20)
#    0.000    1.143    2.857    2.143    6.000    1.714 
#    0.000    2.857    0.000    0.000    0.000    0.000 
#    0.000    0.000    0.000    0.000    0.000    0.000 
#
# Total GULP energy -78389.049668 kJ/mol
# GULP energy per Si atom -5599.217833 kJ/mol
# Density = 2.801083 g / cm^3
# Si number density = 28.074730 Si / 1000 Ang^3
#
#
#
# Elastic Constant Matrix: (Units=GPa)
#
#
# Indices 1 2 3 4 5 6 
#
# 1 223.0380 38.1461 61.9616 21.6163 37.4185 36.5478
# 2 38.1461 119.7191 36.5964 22.5006 1.4626 23.7404
# 3 61.9616 36.5964 97.7363 9.9557 -28.9350 18.9156
# 4 21.6163 22.5006 9.9557 46.5189 10.7984 7.7651
# 5 37.4185 1.4626 -28.9350 10.7984 59.2765 13.2278
# 6 36.5478 23.7404 18.9156 7.7651 13.2278 64.2025
#
#
#
# Elastic Compliance Matrix: (Units=1/GPa)
#
#
# Indices 1 2 3 4 5 6 
#
# 1 0.008186 -0.000043 -0.007658 -0.000011 -0.008773 -0.000579
# 2 -0.000043 0.010558 -0.003260 -0.003861 -0.000602 -0.002328
# 3 -0.007658 -0.003260 0.022633 -0.003043 0.017485 -0.004338
# 4 -0.000011 -0.003861 -0.003043 0.025353 -0.006119 0.000525
# 5 -0.008773 -0.000602 0.017485 -0.006119 0.033430 -0.006082
# 6 -0.000579 -0.002328 -0.004338 0.000525 -0.006082 0.019234
#
#
# Mechanical properties :
#
#
# Convention : Reuss Voigt Hill
#
# Bulk Modulus (GPa) = 51.40188 79.32238 65.36213
# Shear Modulus (GPa) = 33.82932 54.25220 44.04076
#
# Velocity S-wave (km/s) = 3.47504 4.40070 3.96498
# Velocity P-wave (km/s) = 5.86940 7.35778 6.65533
#
# Compressibility (1/GPa) = 0.01945454
#
# Stress axis : x y z
#
# Youngs Moduli (GPa) = 122.15842 94.71635 44.18354
#
# Poissons Ratio (x) = 0.00412 0.33834
# Poissons Ratio (y) = 0.00531 0.14404
# Poissons Ratio (z) = 0.93544 0.30878
#
# Static dielectric constant tensor:
#      x y z
#    x 2.283310 0.010250 0.088780 
#    y 0.010250 2.185750 0.040630 
#    z 0.088780 0.040630 2.229000 
# 
# From -- ./inp_files/46570.got.cif
#   From: 2010.05.17/outbox.cif.g08.bks.cpg/sg2_24_cif.got.tgz:46570.got - 2010.06.03 11:33:40.
