data_PCOD9027231
_publ_section_title
;
Structure prediction by ZEFSAII (Michael W. Deem and Ramdas Pophale) SiO2 
 PCOD9027231
Probable space group: P -1
;
_chemical_formula_sum "Si O2"
_cell_formula_units_Z 16
_cell_length_a 13.514765
_cell_length_b 8.403876
_cell_length_c 19.688661
_cell_angle_alpha 40.894127
_cell_angle_beta 149.958207
_cell_angle_gamma 135.121424
_cell_volume 722.789480
_symmetry_space_group_name_H-M "P -1"
_symmetry_group_IT_number 2
_symmetry_cell_setting 'triclinic'
loop_
_space_group_symop_operation_xyz
x,y,z
-x,-y,-z
loop_
_atom_site_type_symbol
_atom_site_label
_atom_site_fract_x
_atom_site_fract_y
_atom_site_fract_z
Si Si1 0.324187 0.732671 0.760685
Si Si2 0.801711 0.599726 0.882409
Si Si3 0.669484 0.606721 0.665419
Si Si4 0.864265 0.207501 0.140472
Si Si5 0.028064 0.332637 0.337211
Si Si6 0.349673 0.167444 0.973914
Si Si7 0.988361 0.099453 0.884602
Si Si8 0.444873 0.163941 0.603495
O O1 0.361999 0.453409 0.870290
O O2 0.090456 0.718269 0.646066
O O3 0.409256 0.884523 0.696294
O O4 0.448459 0.859665 0.858119
O O5 0.631338 0.552750 0.739194
O O6 0.775273 0.447685 0.985424
O O7 0.834810 0.886895 0.825490
O O8 0.000000 0.500000 0.000000
O O9 0.630061 0.340627 0.691214
O O10 0.552421 0.774151 0.494684
O O11 0.899101 0.745552 0.754108
O O12 0.888780 0.192431 0.240062
O O13 0.732419 0.992527 0.088500
O O14 0.245960 0.257713 0.485395
O O15 0.048034 0.621819 0.236327
O O16 0.189309 0.099050 0.960940
O O17 0.000000 0.000000 0.000000
#
# Coordination Sequence:
#
# PCOD9027231 Si02
#       8
#     2   2   2   2   2   2   2   2
#     4  10  22  38  58  80 111 155 190 228 274 330
#     4  10  17  31  57  86 111 140 177 227 293 329
#     4   9  19  32  57  88 103 145 190 230 271 339
#     4  10  18  34  60  86 113 141 182 238 287 328
#     4  10  22  36  53  85 114 154 191 222 274 334
#     4  10  21  37  59  84 113 141 192 238 277 334
#     4  11  20  32  57  88 117 140 176 239 292 328
#     4  10  20  36  58  79 116 152 189 221 279 339
#
# _framework density 22.13646
#
# number of rings (size 3 to 8) (size 9 to 14) (size 15 to 20)
#    0.000    2.000    3.750    1.125    1.750    1.500 
#    0.000    3.125    2.750    0.000    0.000    0.000 
#    0.000    0.000    0.000    0.000    0.000    0.000 
#
# Total GULP energy -89203.026035 kJ/mol
# GULP energy per Si atom -5575.189127 kJ/mol
# Density = 2.208608 g / cm^3
# Si number density = 22.136460 Si / 1000 Ang^3
#
#
#
# Elastic Constant Matrix: (Units=GPa)
#
#
# Indices 1 2 3 4 5 6 
#
# 1 36.8974 4.5716 3.0932 1.7571 -3.5894 6.0329
# 2 4.5716 116.0519 29.7603 3.4242 -13.4495 -2.2806
# 3 3.0932 29.7603 45.1161 5.6604 -10.8169 -4.5504
# 4 1.7571 3.4242 5.6604 32.7534 1.6177 -12.0353
# 5 -3.5894 -13.4495 -10.8169 1.6177 31.4201 1.4483
# 6 6.0329 -2.2806 -4.5504 -12.0353 1.4483 24.2320
#
#
#
# Elastic Compliance Matrix: (Units=1/GPa)
#
#
# Indices 1 2 3 4 5 6 
#
# 1 0.029583 -0.000486 -0.001257 -0.005356 0.003499 -0.010516
# 2 -0.000486 0.010535 -0.006375 -0.000205 0.002285 -0.000323
# 3 -0.001257 -0.006375 0.028906 -0.003524 0.007123 0.002965
# 4 -0.005356 -0.000205 -0.003524 0.039188 -0.004871 0.020407
# 5 0.003499 0.002285 0.007123 -0.004871 0.036087 -0.003895
# 6 -0.010516 -0.000323 0.002965 0.020407 -0.003895 0.054781
#
#
# Mechanical properties :
#
#
# Convention : Reuss Voigt Hill
#
# Bulk Modulus (GPa) = 18.94430 30.32396 24.63413
# Shear Modulus (GPa) = 21.46731 28.39045 24.92888
#
# Velocity S-wave (km/s) = 3.11749 3.58511 3.35945
# Velocity P-wave (km/s) = 4.64057 5.55570 5.11863
#
# Compressibility (1/GPa) = 0.05278633
#
# Stress axis : x y z
#
# Youngs Moduli (GPa) = 33.80355 94.91859 34.59533
#
# Poissons Ratio (x) = 0.04613 0.04350
# Poissons Ratio (y) = 0.01643 0.22055
# Poissons Ratio (z) = 0.04251 0.60513
#
# Static dielectric constant tensor:
#      x y z
#    x 1.942190 0.035640 0.025550 
#    y 0.035640 1.829680 0.017460 
#    z 0.025550 0.017460 1.867630 
# 
# From -- ./inp_files/277018.got.cif
#   From: 2010.05.17/outbox.cif.g08.bks.cpg/sg2_139_cif.got.tgz:277018.got - 2010.06.03 11:33:40.
