data_PCOD9027498
_publ_section_title
;
Structure prediction by ZEFSAII (Michael W. Deem and Ramdas Pophale) SiO2 
 PCOD9027498
Probable space group: P -1
;
_chemical_formula_sum "Si O2"
_cell_formula_units_Z 13
_cell_length_a 8.834772
_cell_length_b 8.164222
_cell_length_c 10.649478
_cell_angle_alpha 47.927475
_cell_angle_beta 84.134230
_cell_angle_gamma 73.390325
_cell_volume 542.067470
_symmetry_space_group_name_H-M "P -1"
_symmetry_group_IT_number 2
_symmetry_cell_setting 'triclinic'
loop_
_space_group_symop_operation_xyz
x,y,z
-x,-y,-z
loop_
_atom_site_type_symbol
_atom_site_label
_atom_site_fract_x
_atom_site_fract_y
_atom_site_fract_z
Si Si1 0.793377 0.316185 0.284741
Si Si2 0.313850 0.095613 0.436275
Si Si3 0.201306 0.856029 0.913221
Si Si4 0.924874 0.527570 0.853703
Si Si5 0.820244 0.658539 0.417922
Si Si6 0.494188 0.740628 0.119528
Si Si7 0.500000 0.500000 0.500000
O O1 0.804642 0.206756 0.200987
O O2 0.661374 0.559590 0.164621
O O3 0.957058 0.360184 0.288430
O O4 0.740543 0.131999 0.468916
O O5 0.248511 0.283331 0.236832
O O6 0.238917 0.230146 0.498464
O O7 0.500000 0.000000 0.500000
O O8 0.172853 0.128171 0.781006
O O9 0.087678 0.721817 0.055471
O O10 0.372075 0.741342 0.018271
O O11 0.000000 0.500000 0.000000
O O12 0.677840 0.555443 0.442111
O O13 0.000000 0.500000 0.500000
O O14 0.439367 0.648038 0.300585
O O15 0.500000 0.000000 0.000000
#
# Coordination Sequence:
#
# PCOD9027498 Si02
#       7
#     2   2   2   2   2   2   1
#     4  10  23  42  72 105 140 192 246 310 370 451
#     4  11  23  45  72 102 144 193 249 307 377 448
#     4  10  22  47  69 106 142 192 246 312 376 446
#     4  10  22  41  68 106 139 183 243 310 374 441
#     4  11  26  46  73 104 151 196 250 309 380 456
#     4  12  25  46  72 104 151 190 253 305 378 455
#     4  12  26  48  68 110 146 202 244 304 386 446
#
# _framework density 23.982251000000002
#
# number of rings (size 3 to 8) (size 9 to 14) (size 15 to 20)
#    0.000    1.231    1.538    3.692    2.154    4.923 
#   13.846    2.308    0.000    0.000    0.000    0.000 
#    0.000    0.000    0.000    0.000    0.000    0.000 
#
# Total GULP energy -72440.303923 kJ/mol
# GULP energy per Si atom -5572.331071 kJ/mol
# Density = 2.392767 g / cm^3
# Si number density = 23.982251 Si / 1000 Ang^3
#
#
#
# Elastic Constant Matrix: (Units=GPa)
#
#
# Indices 1 2 3 4 5 6 
#
# 1 195.9272 46.1362 69.3981 -31.0524 -2.4796 7.4237
# 2 46.1362 65.4528 21.1193 -19.4270 -5.3398 -6.5679
# 3 69.3981 21.1193 137.0785 -28.7598 1.2071 -2.4116
# 4 -31.0524 -19.4270 -28.7598 35.8906 11.4121 3.7566
# 5 -2.4796 -5.3398 1.2071 11.4121 56.5975 -12.3178
# 6 7.4237 -6.5679 -2.4116 3.7566 -12.3178 35.3207
#
#
#
# Elastic Compliance Matrix: (Units=1/GPa)
#
#
# Indices 1 2 3 4 5 6 
#
# 1 0.007571 -0.004029 -0.002622 0.003035 -0.001324 -0.003304
# 2 -0.004029 0.020654 0.000429 0.007171 0.001274 0.004398
# 3 -0.002622 0.000429 0.009913 0.006393 -0.001556 0.000085
# 4 0.003035 0.007171 0.006393 0.043231 -0.009521 -0.006786
# 5 -0.001324 0.001274 -0.001556 -0.009521 0.021635 0.008967
# 6 -0.003304 0.004398 0.000085 -0.006786 0.008967 0.033679
#
#
# Mechanical properties :
#
#
# Convention : Reuss Voigt Hill
#
# Bulk Modulus (GPa) = 38.92164 74.64063 56.78113
# Shear Modulus (GPa) = 31.70754 43.01543 37.36149
#
# Velocity S-wave (km/s) = 3.64005 4.23973 3.95128
# Velocity P-wave (km/s) = 5.82505 7.42684 6.67417
#
# Compressibility (1/GPa) = 0.02569265
#
# Stress axis : x y z
#
# Youngs Moduli (GPa) = 132.08602 48.41709 100.87903
#
# Poissons Ratio (x) = 0.19508 0.26448
# Poissons Ratio (y) = 0.53220 -0.04323
# Poissons Ratio (z) = 0.34630 -0.02075
#
# Static dielectric constant tensor:
#      x y z
#    x 1.936380 -0.023530 -0.062210 
#    y -0.023530 1.988270 0.076130 
#    z -0.062210 0.076130 2.066330 
# 
# From -- ./inp_files/377495.got.cif
#   From: 2010.05.17/outbox.cif.g08.bks.cpg/sg2_189_cif.got.tgz:377495.got - 2010.06.03 11:33:40.
