data_PCOD9027103
_publ_section_title
;
Structure prediction by ZEFSAII (Michael W. Deem and Ramdas Pophale) SiO2 
 PCOD9027103
Probable space group: P -1
;
_chemical_formula_sum "Si O2"
_cell_formula_units_Z 14
_cell_length_a 10.147548
_cell_length_b 5.174478
_cell_length_c 16.224730
_cell_angle_alpha 120.729477
_cell_angle_beta 129.639459
_cell_angle_gamma 68.627741
_cell_volume 562.982900
_symmetry_space_group_name_H-M "P -1"
_symmetry_group_IT_number 2
_symmetry_cell_setting 'triclinic'
loop_
_space_group_symop_operation_xyz
x,y,z
-x,-y,-z
loop_
_atom_site_type_symbol
_atom_site_label
_atom_site_fract_x
_atom_site_fract_y
_atom_site_fract_z
Si Si1 0.303327 0.851358 0.481870
Si Si2 0.058510 0.231441 0.629889
Si Si3 0.062420 0.468864 0.895748
Si Si4 0.177213 0.884824 0.767290
Si Si5 0.453153 0.442923 0.610549
Si Si6 0.278495 0.356809 0.126692
Si Si7 0.647215 0.246549 0.031546
O O1 0.117663 0.723306 0.381396
O O2 0.381294 0.739605 0.582457
O O3 0.420053 0.713400 0.432643
O O4 0.307531 0.210601 0.533195
O O5 0.114409 0.552308 0.674344
O O6 0.000000 0.000000 0.500000
O O7 0.192872 0.051323 0.713963
O O8 0.169181 0.611094 0.888834
O O9 0.879324 0.628153 0.868963
O O10 0.056044 0.115702 0.812720
O O11 0.185705 0.491218 0.029105
O O12 0.344889 0.854372 0.886503
O O13 0.564726 0.486567 0.743455
O O14 0.346860 0.025849 0.074006
O O15 0.500000 0.500000 0.000000
#
# Coordination Sequence:
#
# PCOD9027103 Si02
#       7
#     2   2   2   2   2   2   2
#     4  10  23  43  63  98 136 175 226 285 342 398
#     4  12  25  46  69 103 137 187 241 284 338 427
#     4  10  22  46  68 107 136 182 237 285 348 424
#     4  11  24  45  72 100 139 193 226 291 352 411
#     4  10  22  41  66  97 133 177 222 285 344 395
#     4  10  23  40  73 104 137 184 235 288 341 426
#     4  11  25  46  69 107 146 182 229 288 359 427
#
# _framework density 24.867540000000002
#
# number of rings (size 3 to 8) (size 9 to 14) (size 15 to 20)
#    0.000    1.429    1.429    2.571    2.000    5.714 
#    5.143    0.000    0.000    0.000    0.000    0.000 
#    0.000    0.000    0.000    0.000    0.000    0.000 
#
# Total GULP energy -78365.202687 kJ/mol
# GULP energy per Si atom -5597.514478 kJ/mol
# Density = 2.481094 g / cm^3
# Si number density = 24.867540 Si / 1000 Ang^3
#
#
#
# Elastic Constant Matrix: (Units=GPa)
#
#
# Indices 1 2 3 4 5 6 
#
# 1 74.7625 45.3301 3.0336 19.4283 -2.0872 -15.0450
# 2 45.3301 120.2184 44.6595 8.1024 -10.5250 0.5904
# 3 3.0336 44.6595 120.2057 6.6630 -15.2161 -1.5671
# 4 19.4283 8.1024 6.6630 47.4236 4.2334 5.7278
# 5 -2.0872 -10.5250 -15.2161 4.2334 36.2360 0.3342
# 6 -15.0450 0.5904 -1.5671 5.7278 0.3342 37.2363
#
#
#
# Elastic Compliance Matrix: (Units=1/GPa)
#
#
# Indices 1 2 3 4 5 6 
#
# 1 0.024279 -0.009867 0.003942 -0.010344 0.001288 0.011712
# 2 -0.009867 0.013808 -0.004969 0.002874 0.001065 -0.004866
# 3 0.003942 -0.004969 0.010715 -0.002899 0.003598 0.002536
# 4 -0.010344 0.002874 -0.002899 0.026614 -0.004010 -0.008405
# 5 0.001288 0.001065 0.003598 -0.004010 0.029951 0.001003
# 6 0.011712 -0.004866 0.002536 -0.008405 0.001003 0.033055
#
#
# Mechanical properties :
#
#
# Convention : Reuss Voigt Hill
#
# Bulk Modulus (GPa) = 37.01661 55.69258 46.35460
# Shear Modulus (GPa) = 29.54841 38.99007 34.26924
#
# Velocity S-wave (km/s) = 3.45081 3.96398 3.71627
# Velocity P-wave (km/s) = 5.54935 6.58750 6.09059
#
# Compressibility (1/GPa) = 0.02701490
#
# Stress axis : x y z
#
# Youngs Moduli (GPa) = 41.18763 72.42197 93.32760
#
# Poissons Ratio (x) = 0.71458 -0.36792
# Poissons Ratio (y) = 0.40639 0.46374
# Poissons Ratio (z) = -0.16237 0.35986
#
# Static dielectric constant tensor:
#      x y z
#    x 2.028200 0.012410 -0.021110 
#    y 0.012410 1.979440 -0.012270 
#    z -0.021110 -0.012270 1.981150 
# 
# From -- ./inp_files/564596.got.cif
#   From: 2010.05.17/outbox.cif.g08.bks.cpg/sg2_283_cif.got.tgz:564596.got - 2010.06.03 11:33:40.
