data_PCOD9027155
_publ_section_title
;
Structure prediction by ZEFSAII (Michael W. Deem and Ramdas Pophale) SiO2 
 PCOD9027155
Probable space group: P -1
;
_chemical_formula_sum "Si O2"
_cell_formula_units_Z 16
_cell_length_a 6.866070
_cell_length_b 7.350311
_cell_length_c 20.690529
_cell_angle_alpha 129.978325
_cell_angle_beta 129.451448
_cell_angle_gamma 70.384993
_cell_volume 613.191556
_symmetry_space_group_name_H-M "P -1"
_symmetry_group_IT_number 2
_symmetry_cell_setting 'triclinic'
loop_
_space_group_symop_operation_xyz
x,y,z
-x,-y,-z
loop_
_atom_site_type_symbol
_atom_site_label
_atom_site_fract_x
_atom_site_fract_y
_atom_site_fract_z
Si Si1 0.123992 0.404618 0.921728
Si Si2 0.891834 0.917249 0.782810
Si Si3 0.353047 0.701263 0.792722
Si Si4 0.836560 0.827745 0.994859
Si Si5 0.578084 0.467423 0.435965
Si Si6 0.201034 0.951599 0.585810
Si Si7 0.459350 0.708698 0.349325
Si Si8 0.144054 0.319928 0.767296
O O1 0.025723 0.660976 0.963356
O O2 0.252823 0.354156 0.870177
O O3 0.261591 0.333888 0.999794
O O4 0.877980 0.197344 0.828784
O O5 0.642706 0.732596 0.684663
O O6 0.108682 0.839967 0.762327
O O7 0.011939 0.942636 0.886324
O O8 0.602905 0.864915 0.908503
O O9 0.437923 0.519374 0.716168
O O10 0.253510 0.531803 0.792234
O O11 0.500000 0.500000 0.500000
O O12 0.581113 0.697772 0.444183
O O13 0.817168 0.324362 0.462420
O O14 0.450312 0.061597 0.622941
O O15 0.187491 0.090620 0.681748
O O16 0.000000 0.000000 0.500000
O O17 0.158306 0.677981 0.288170
#
# Coordination Sequence:
#
# PCOD9027155 Si02
#       8
#     2   2   2   2   2   2   2   2
#     4   9  20  38  66  96 140 185 230 289 351 406
#     4  10  22  41  66  99 138 178 237 282 345 422
#     4  11  22  40  68  99 140 181 232 282 346 419
#     4   9  20  39  67  99 140 185 235 288 342 416
#     4  12  27  47  74 106 140 186 235 295 358 421
#     4  11  28  47  74 106 135 184 243 288 359 424
#     4  11  25  47  71 103 147 178 230 301 347 417
#     4  11  22  42  68  99 139 187 227 286 357 417
#
# _framework density 26.092987000000001
#
# number of rings (size 3 to 8) (size 9 to 14) (size 15 to 20)
#    0.750    0.750    2.500    1.875    5.250    4.000 
#    0.000    3.750    0.000    0.000    0.000    0.000 
#    0.000    0.000    0.000    0.000    0.000    0.000 
#
# Total GULP energy -89436.471798 kJ/mol
# GULP energy per Si atom -5589.779487 kJ/mol
# Density = 2.603360 g / cm^3
# Si number density = 26.092987 Si / 1000 Ang^3
#
#
#
# Elastic Constant Matrix: (Units=GPa)
#
#
# Indices 1 2 3 4 5 6 
#
# 1 112.8036 29.6442 26.9768 -3.5679 -24.0830 22.0888
# 2 29.6442 77.6559 -5.2905 -0.8674 -18.5664 3.6032
# 3 26.9768 -5.2905 49.1021 -1.1405 -19.6027 6.3251
# 4 -3.5679 -0.8674 -1.1405 38.5529 -3.9152 -6.6615
# 5 -24.0830 -18.5664 -19.6027 -3.9152 62.2058 -3.2726
# 6 22.0888 3.6032 6.3251 -6.6615 -3.2726 38.5576
#
#
#
# Elastic Compliance Matrix: (Units=1/GPa)
#
#
# Indices 1 2 3 4 5 6 
#
# 1 0.013116 -0.004867 -0.006460 0.000026 0.001281 -0.005886
# 2 -0.004867 0.016363 0.006392 0.000759 0.005102 0.000775
# 3 -0.006460 0.006392 0.028008 0.001111 0.008272 -0.000597
# 4 0.000026 0.000759 0.001111 0.027046 0.002532 0.004619
# 5 0.001281 0.005102 0.008272 0.002532 0.020842 -0.000361
# 6 -0.005886 0.000775 -0.000597 0.004619 -0.000361 0.030100
#
#
# Mechanical properties :
#
#
# Convention : Reuss Voigt Hill
#
# Bulk Modulus (GPa) = 21.00083 38.02473 29.51278
# Shear Modulus (GPa) = 31.01387 40.41201 35.71294
#
# Velocity S-wave (km/s) = 3.45133 3.93971 3.70358
# Velocity P-wave (km/s) = 4.89369 5.94134 5.44278
#
# Compressibility (1/GPa) = 0.04761716
#
# Stress axis : x y z
#
# Youngs Moduli (GPa) = 76.24328 61.11272 35.70347
#
# Poissons Ratio (x) = 0.29745 0.23064
# Poissons Ratio (y) = 0.37109 -0.22821
# Poissons Ratio (z) = 0.49253 -0.39063
#
# Static dielectric constant tensor:
#      x y z
#    x 2.069840 -0.054020 0.007490 
#    y -0.054020 2.092130 -0.039330 
#    z 0.007490 -0.039330 2.115040 
# 
# From -- ./inp_files/110820.got.cif
#   From: 2010.05.17/outbox.cif.g08.bks.cpg/sg2_56_cif.got.tgz:110820.got - 2010.06.03 11:33:40.
