data_PCOD9027157
_publ_section_title
;
Structure prediction by ZEFSAII (Michael W. Deem and Ramdas Pophale) SiO2 
 PCOD9027157
Probable space group: P -1
;
_chemical_formula_sum "Si O2"
_cell_formula_units_Z 16
_cell_length_a 16.719533
_cell_length_b 20.315415
_cell_length_c 5.191332
_cell_angle_alpha 94.934607
_cell_angle_beta 85.660689
_cell_angle_gamma 158.706341
_cell_volume 637.920267
_symmetry_space_group_name_H-M "P -1"
_symmetry_group_IT_number 2
_symmetry_cell_setting 'triclinic'
loop_
_space_group_symop_operation_xyz
x,y,z
-x,-y,-z
loop_
_atom_site_type_symbol
_atom_site_label
_atom_site_fract_x
_atom_site_fract_y
_atom_site_fract_z
Si Si1 0.886929 0.471850 0.861465
Si Si2 0.446350 0.620666 0.239869
Si Si3 0.204828 0.475343 0.734298
Si Si4 0.937805 0.018131 0.372433
Si Si5 0.720382 0.641373 0.873043
Si Si6 0.091240 0.872777 0.248927
Si Si7 0.302981 0.839240 0.695199
Si Si8 0.538221 0.914553 0.040777
O O1 0.872482 0.518741 0.093922
O O2 0.641542 0.257258 0.786980
O O3 0.000000 0.500000 0.000000
O O4 0.054731 0.622510 0.644788
O O5 0.336957 0.584233 0.470405
O O6 0.366353 0.487165 0.314509
O O7 0.706969 0.827079 0.229332
O O8 0.359155 0.563307 0.952442
O O9 0.004279 0.269872 0.668162
O O10 0.896023 0.055326 0.542549
O O11 0.157033 0.203341 0.228033
O O12 0.000000 0.000000 0.500000
O O13 0.500000 0.500000 0.000000
O O14 0.911642 0.758247 0.045510
O O15 0.328115 0.038523 0.125852
O O16 0.405640 0.864424 0.876035
O O17 0.500000 0.000000 0.500000
O O18 0.282060 0.898459 0.819093
#
# Coordination Sequence:
#
# PCOD9027157 Si02
#       8
#     2   2   2   2   2   2   2   2
#     4  10  22  44  68 102 146 191 240 302 368 428
#     4  11  27  47  77 106 150 193 249 307 374 437
#     4  11  24  50  73 109 149 197 247 309 364 445
#     4  12  28  45  76 106 141 191 246 308 376 448
#     4  11  27  48  72 106 148 195 241 308 376 446
#     4  11  24  45  76 100 145 191 252 297 372 439
#     4  10  22  41  66  99 142 186 234 299 362 429
#     4  10  22  42  66  98 138 185 241 297 358 436
#
# _framework density 25.081505
#
# number of rings (size 3 to 8) (size 9 to 14) (size 15 to 20)
#    0.000    1.250    2.500    1.500    7.000    4.500 
#    4.500    0.000    0.000    0.000    0.000    0.000 
#    0.000    0.000    0.000    0.000    0.000    0.000 
#
# Total GULP energy -89450.533428 kJ/mol
# GULP energy per Si atom -5590.658339 kJ/mol
# Density = 2.502442 g / cm^3
# Si number density = 25.081505 Si / 1000 Ang^3
#
#
#
# Elastic Constant Matrix: (Units=GPa)
#
#
# Indices 1 2 3 4 5 6 
#
# 1 203.9716 96.2646 15.3316 0.6528 -83.0107 -44.5445
# 2 96.2646 243.0256 42.2422 -28.8114 -24.7231 -24.6107
# 3 15.3316 42.2422 54.3867 -8.4965 -5.9838 -1.1983
# 4 0.6528 -28.8114 -8.4965 47.0087 3.6819 -3.2658
# 5 -83.0107 -24.7231 -5.9838 3.6819 82.4506 18.7680
# 6 -44.5445 -24.6107 -1.1983 -3.2658 18.7680 54.4944
#
#
#
# Elastic Compliance Matrix: (Units=1/GPa)
#
#
# Indices 1 2 3 4 5 6 
#
# 1 0.011336 -0.003440 0.000201 -0.002680 0.009544 0.004270
# 2 -0.003440 0.006413 -0.003676 0.003553 -0.002186 0.000970
# 3 0.000201 -0.003676 0.021484 0.001473 0.000875 -0.001236
# 4 -0.002680 0.003553 0.001473 0.024127 -0.003045 0.001941
# 5 0.009544 -0.002186 0.000875 -0.003045 0.021449 -0.000736
# 6 0.004270 0.000970 -0.001236 0.001941 -0.000736 0.022621
#
#
# Mechanical properties :
#
#
# Convention : Reuss Voigt Hill
#
# Bulk Modulus (GPa) = 39.36149 89.89564 64.62856
# Shear Modulus (GPa) = 38.54260 59.96046 49.25153
#
# Velocity S-wave (km/s) = 3.92432 4.89471 4.43613
# Velocity P-wave (km/s) = 6.02173 8.23792 7.21542
#
# Compressibility (1/GPa) = 0.02540555
#
# Stress axis : x y z
#
# Youngs Moduli (GPa) = 88.21392 155.92924 46.54601
#
# Poissons Ratio (x) = 0.53636 -0.00938
# Poissons Ratio (y) = 0.30344 0.17108
# Poissons Ratio (z) = -0.01777 0.57313
#
# Static dielectric constant tensor:
#      x y z
#    x 2.332910 0.156730 -0.015860 
#    y 0.156730 2.156980 -0.025810 
#    z -0.015860 -0.025810 2.073550 
# 
# From -- ./inp_files/112429.got.cif
#   From: 2010.05.17/outbox.cif.g08.bks.cpg/sg2_57_cif.got.tgz:112429.got - 2010.06.03 11:33:40.
