data_PCOD9027552
_publ_section_title
;
Structure prediction by ZEFSAII (Michael W. Deem and Ramdas Pophale) SiO2 
 PCOD9027552
Probable space group: P -1
;
_chemical_formula_sum "Si O2"
_cell_formula_units_Z 16
_cell_length_a 19.991301
_cell_length_b 9.086576
_cell_length_c 12.272712
_cell_angle_alpha 36.072307
_cell_angle_beta 43.792404
_cell_angle_gamma 70.117196
_cell_volume 728.626551
_symmetry_space_group_name_H-M "P -1"
_symmetry_group_IT_number 2
_symmetry_cell_setting 'triclinic'
loop_
_space_group_symop_operation_xyz
x,y,z
-x,-y,-z
loop_
_atom_site_type_symbol
_atom_site_label
_atom_site_fract_x
_atom_site_fract_y
_atom_site_fract_z
Si Si1 0.927225 0.225924 0.156918
Si Si2 0.487482 0.251317 0.810246
Si Si3 0.708194 0.732905 0.387653
Si Si4 0.737102 0.825601 0.774100
Si Si5 0.681699 0.217204 0.880122
Si Si6 0.091085 0.740629 0.494728
Si Si7 0.359618 0.831725 0.785676
Si Si8 0.034424 0.845827 0.276753
O O1 0.955309 0.970694 0.271469
O O2 0.976016 0.418701 0.872169
O O3 0.790339 0.025980 0.480343
O O4 0.000000 0.500000 0.000000
O O5 0.618023 0.569199 0.487505
O O6 0.388413 0.247638 0.998372
O O7 0.500000 0.000000 0.000000
O O8 0.427415 0.115323 0.844712
O O9 0.681386 0.477221 0.659458
O O10 0.681127 0.961493 0.330855
O O11 0.842353 0.919182 0.073895
O O12 0.834394 0.026776 0.632967
O O13 0.716518 0.502411 0.979510
O O14 0.810645 0.291879 0.656697
O O15 0.665368 0.219743 0.025258
O O16 0.054549 0.879029 0.363024
O O17 0.500000 0.000000 0.500000
O O18 0.000000 0.500000 0.500000
#
# Coordination Sequence:
#
# PCOD9027552 Si02
#       8
#     2   2   2   2   2   2   2   2
#     4  10  23  42  67  93 135 168 215 272 326 375
#     4   9  20  40  68  93 123 170 222 254 308 395
#     4  11  22  42  67  94 129 170 215 264 317 389
#     4  10  22  42  64  96 132 167 211 268 325 379
#     4  10  22  41  68  94 124 171 218 261 319 387
#     4  10  22  44  70  92 126 174 219 262 324 388
#     4  12  24  40  61  96 136 162 208 273 322 374
#     4  12  25  41  69 100 129 168 225 271 318 392
#
# _framework density 21.959122000000001
#
# number of rings (size 3 to 8) (size 9 to 14) (size 15 to 20)
#    0.000    1.500    3.750    0.750    1.750    5.500 
#    0.000    2.500    0.000    0.000    0.000    0.000 
#    0.000    0.000    0.000    0.000    0.000    0.000 
#
# Total GULP energy -89411.165573 kJ/mol
# GULP energy per Si atom -5588.197848 kJ/mol
# Density = 2.190914 g / cm^3
# Si number density = 21.959122 Si / 1000 Ang^3
#
#
#
# Elastic Constant Matrix: (Units=GPa)
#
#
# Indices 1 2 3 4 5 6 
#
# 1 45.4347 16.3307 7.3493 0.2970 12.9928 -1.9724
# 2 16.3307 110.7569 39.8248 -1.6104 4.3545 -3.8259
# 3 7.3493 39.8248 86.6126 -0.6665 3.6230 9.7555
# 4 0.2970 -1.6104 -0.6665 31.7125 -2.9382 8.3420
# 5 12.9928 4.3545 3.6230 -2.9382 28.9188 -0.4635
# 6 -1.9724 -3.8259 9.7555 8.3420 -0.4635 15.7930
#
#
#
# Elastic Compliance Matrix: (Units=1/GPa)
#
#
# Indices 1 2 3 4 5 6 
#
# 1 0.026787 -0.003076 -0.000860 -0.002601 -0.011662 0.004163
# 2 -0.003076 0.011837 -0.005977 -0.001269 0.000329 0.006855
# 3 -0.000860 -0.005977 0.015907 0.003466 -0.000567 -0.013229
# 4 -0.002601 -0.001269 0.003466 0.037943 0.004417 -0.022685
# 5 -0.011662 0.000329 -0.000567 0.004417 0.040254 -0.002178
# 6 0.004163 0.006855 -0.013229 -0.022685 -0.002178 0.085590
#
#
# Mechanical properties :
#
#
# Convention : Reuss Voigt Hill
#
# Bulk Modulus (GPa) = 28.81417 41.09043 34.95230
# Shear Modulus (GPa) = 20.02299 27.23815 23.63057
#
# Velocity S-wave (km/s) = 3.02293 3.52576 3.28398
# Velocity P-wave (km/s) = 5.03332 5.94369 5.50735
#
# Compressibility (1/GPa) = 0.03470514
#
# Stress axis : x y z
#
# Youngs Moduli (GPa) = 37.33183 84.48049 62.86354
#
# Poissons Ratio (x) = 0.25987 0.05404
# Poissons Ratio (y) = 0.11484 0.37576
# Poissons Ratio (z) = 0.03209 0.50497
#
# Static dielectric constant tensor:
#      x y z
#    x 1.801470 0.043140 -0.030470 
#    y 0.043140 1.806280 -0.032590 
#    z -0.030470 -0.032590 1.823870 
# 
# From -- ./inp_files/455021.got.cif
#   From: 2010.05.17/outbox.cif.g08.bks.cpg/sg2_228_cif.got.tgz:455021.got - 2010.06.03 11:33:40.
