data_PCOD9027112
_publ_section_title
;
Structure prediction by ZEFSAII (Michael W. Deem and Ramdas Pophale) SiO2 
 PCOD9027112
Probable space group: P -1
;
_chemical_formula_sum "Si O2"
_cell_formula_units_Z 16
_cell_length_a 14.087060
_cell_length_b 12.293983
_cell_length_c 9.250535
_cell_angle_alpha 108.094187
_cell_angle_beta 69.757526
_cell_angle_gamma 50.275845
_cell_volume 781.632337
_symmetry_space_group_name_H-M "P -1"
_symmetry_group_IT_number 2
_symmetry_cell_setting 'triclinic'
loop_
_space_group_symop_operation_xyz
x,y,z
-x,-y,-z
loop_
_atom_site_type_symbol
_atom_site_label
_atom_site_fract_x
_atom_site_fract_y
_atom_site_fract_z
Si Si1 0.554448 0.718127 0.209555
Si Si2 0.912757 0.469974 0.964042
Si Si3 0.869572 0.862485 0.891593
Si Si4 0.802916 0.996491 0.292161
Si Si5 0.291551 0.654148 0.148220
Si Si6 0.386118 0.017607 0.163365
Si Si7 0.952339 0.541701 0.373973
Si Si8 0.963708 0.086440 0.337002
O O1 0.374608 0.854582 0.451418
O O2 0.497044 0.830488 0.135068
O O3 0.698470 0.661252 0.195761
O O4 0.677961 0.490727 0.014694
O O5 0.925810 0.485143 0.792366
O O6 0.039423 0.241767 0.838733
O O7 0.000000 0.500000 0.000000
O O8 0.999987 0.631657 0.769821
O O9 0.992473 0.850676 0.765168
O O10 0.735982 0.942826 0.867552
O O11 0.763427 0.004027 0.149122
O O12 0.879908 0.052069 0.293436
O O13 0.181125 0.740072 0.390941
O O14 0.500000 0.500000 0.000000
O O15 0.158436 0.866413 0.218579
O O16 0.255403 0.216250 0.420222
O O17 0.500000 0.000000 0.000000
O O18 0.000000 0.500000 0.500000
#
# Coordination Sequence:
#
# PCOD9027112 Si02
#       8
#     2   2   2   2   2   2   2   2
#     4  12  25  43  74 100 138 178 230 288 338 410
#     4  12  25  45  69 100 137 179 225 282 346 409
#     4  11  25  45  68  97 145 186 220 284 347 403
#     4  12  25  47  68 103 140 183 229 276 351 414
#     4  11  23  42  70 103 129 177 233 283 339 393
#     4  11  25  42  67 107 137 176 238 281 339 408
#     4  10  22  41  66  97 136 177 222 276 339 397
#     4  11  25  43  71  99 138 179 235 282 335 414
#
# _framework density 20.469982999999999
#
# number of rings (size 3 to 8) (size 9 to 14) (size 15 to 20)
#    0.000    0.750    5.000    2.625    7.000    1.500 
#    0.000    0.625    0.000    0.000    0.000    0.000 
#    0.000    0.000    0.000    0.000    0.000    0.000 
#
# Total GULP energy -89392.394178 kJ/mol
# GULP energy per Si atom -5587.024636 kJ/mol
# Density = 2.042339 g / cm^3
# Si number density = 20.469983 Si / 1000 Ang^3
#
#
#
# Elastic Constant Matrix: (Units=GPa)
#
#
# Indices 1 2 3 4 5 6 
#
# 1 136.2021 31.6935 45.2322 2.3930 -12.7106 5.5714
# 2 31.6935 74.0321 38.0726 -2.8512 -10.6085 12.7600
# 3 45.2322 38.0726 115.7909 1.9601 -6.8375 2.6087
# 4 2.3930 -2.8512 1.9601 27.5601 -6.0506 -6.1992
# 5 -12.7106 -10.6085 -6.8375 -6.0506 34.9678 -2.7799
# 6 5.5714 12.7600 2.6087 -6.1992 -2.7799 34.3845
#
#
#
# Elastic Compliance Matrix: (Units=1/GPa)
#
#
# Indices 1 2 3 4 5 6 
#
# 1 0.008926 -0.002126 -0.002655 -0.000459 0.001971 -0.000379
# 2 -0.002126 0.018531 -0.004950 0.002056 0.003802 -0.005479
# 3 -0.002655 -0.004950 0.011269 -0.000876 -0.000317 0.001228
# 4 -0.000459 0.002056 -0.000876 0.039925 0.007767 0.007204
# 5 0.001971 0.003802 -0.000317 0.007767 0.031930 0.002276
# 6 -0.000379 -0.005479 0.001228 0.007204 0.002276 0.032567
#
#
# Mechanical properties :
#
#
# Convention : Reuss Voigt Hill
#
# Bulk Modulus (GPa) = 51.90574 61.78018 56.84296
# Shear Modulus (GPa) = 29.58022 33.45094 31.51558
#
# Velocity S-wave (km/s) = 3.80551 4.04684 3.92803
# Velocity P-wave (km/s) = 6.68740 7.21681 6.95714
#
# Compressibility (1/GPa) = 0.01926569
#
# Stress axis : x y z
#
# Youngs Moduli (GPa) = 112.03300 53.96228 88.73579
#
# Poissons Ratio (x) = 0.11470 0.23561
# Poissons Ratio (y) = 0.23814 0.43922
# Poissons Ratio (z) = 0.29747 0.26710
#
# Static dielectric constant tensor:
#      x y z
#    x 1.803040 -0.010220 0.005890 
#    y -0.010220 1.733450 -0.001170 
#    z 0.005890 -0.001170 1.750920 
# 
# From -- ./inp_files/307951.got.cif
#   From: 2010.05.17/outbox.cif.g08.bks.cpg/sg2_154_cif.got.tgz:307951.got - 2010.06.03 11:33:40.
