data_PCOD9027777
_publ_section_title
;
Structure prediction by ZEFSAII (Michael W. Deem and Ramdas Pophale) SiO2 
 PCOD9027777
Probable space group: P -1
;
_chemical_formula_sum "Si O2"
_cell_formula_units_Z 14
_cell_length_a 7.803051
_cell_length_b 13.912333
_cell_length_c 11.520567
_cell_angle_alpha 135.420171
_cell_angle_beta 138.827489
_cell_angle_gamma 49.926510
_cell_volume 562.014216
_symmetry_space_group_name_H-M "P -1"
_symmetry_group_IT_number 2
_symmetry_cell_setting 'triclinic'
loop_
_space_group_symop_operation_xyz
x,y,z
-x,-y,-z
loop_
_atom_site_type_symbol
_atom_site_label
_atom_site_fract_x
_atom_site_fract_y
_atom_site_fract_z
Si Si1 0.165368 0.389111 0.770854
Si Si2 0.368360 0.615896 0.425160
Si Si3 0.721050 0.007617 0.936767
Si Si4 0.588961 0.784902 0.861253
Si Si5 0.119278 0.795718 0.255302
Si Si6 0.694338 0.938925 0.441448
Si Si7 0.557293 0.531225 0.215154
O O1 0.190760 0.225145 0.621029
O O2 0.406786 0.414954 0.995345
O O3 0.773613 0.239501 0.590802
O O4 0.186693 0.470192 0.731955
O O5 0.489412 0.659972 0.641094
O O6 0.112308 0.552396 0.257475
O O7 0.572778 0.535062 0.363944
O O8 0.689978 0.871497 0.880183
O O9 0.485334 0.037967 0.746673
O O10 0.648545 0.127696 0.102770
O O11 0.000000 0.000000 0.000000
O O12 0.844856 0.755703 0.051070
O O13 0.352402 0.683089 0.209727
O O14 0.102002 0.958649 0.366546
O O15 0.500000 0.000000 0.500000
#
# Coordination Sequence:
#
# PCOD9027777 Si02
#       7
#     2   2   2   2   2   2   2
#     4  11  22  38  72  91 130 172 220 263 334 375
#     4  10  22  41  69  90 127 174 215 264 327 383
#     4  11  25  39  59  95 141 167 219 262 331 386
#     4  11  24  41  63  97 133 174 208 279 320 390
#     4  10  22  42  64  96 136 161 221 264 324 385
#     4  12  22  39  68 102 126 179 212 273 327 389
#     4   9  22  44  64  97 125 174 217 270 316 401
#
# _framework density 24.910399999999999
#
# number of rings (size 3 to 8) (size 9 to 14) (size 15 to 20)
#    0.857    0.571    2.857    2.143    6.000    1.143 
#    0.000    0.714    0.000    1.714    0.000    0.000 
#    0.000    0.000    0.000    0.000    0.000    0.000 
#
# Total GULP energy -78245.644432 kJ/mol
# GULP energy per Si atom -5588.974602 kJ/mol
# Density = 2.485370 g / cm^3
# Si number density = 24.910400 Si / 1000 Ang^3
#
#
#
# Elastic Constant Matrix: (Units=GPa)
#
#
# Indices 1 2 3 4 5 6 
#
# 1 113.3331 2.4012 30.2477 5.4112 -7.2203 18.3335
# 2 2.4012 63.5405 24.3396 -5.2680 0.9497 11.7181
# 3 30.2477 24.3396 124.9513 9.2446 -6.1567 -0.9349
# 4 5.4112 -5.2680 9.2446 43.4632 2.7226 2.3289
# 5 -7.2203 0.9497 -6.1567 2.7226 42.2607 -0.8567
# 6 18.3335 11.7181 -0.9349 2.3289 -0.8567 18.4468
#
#
#
# Elastic Compliance Matrix: (Units=1/GPa)
#
#
# Indices 1 2 3 4 5 6 
#
# 1 0.012164 0.003696 -0.003751 0.000445 0.001123 -0.014631
# 2 0.003696 0.021492 -0.005608 0.004397 -0.001321 -0.018226
# 3 -0.003751 -0.005608 0.010349 -0.002941 0.001350 0.008249
# 4 0.000445 0.004397 -0.002941 0.024600 -0.002170 -0.006591
# 5 0.001123 -0.001321 0.001350 -0.002170 0.024245 0.001191
# 6 -0.014631 -0.018226 0.008249 -0.006591 0.001191 0.081634
#
#
# Mechanical properties :
#
#
# Convention : Reuss Voigt Hill
#
# Bulk Modulus (GPa) = 30.60206 46.20020 38.40113
# Shear Modulus (GPa) = 25.41892 37.15658 31.28775
#
# Velocity S-wave (km/s) = 3.19786 3.86633 3.54787
# Velocity P-wave (km/s) = 5.09378 6.20630 5.67735
#
# Compressibility (1/GPa) = 0.03267753
#
# Stress axis : x y z
#
# Youngs Moduli (GPa) = 82.21305 46.52885 96.62388
#
# Poissons Ratio (x) = -0.17195 0.36248
# Poissons Ratio (y) = -0.30383 0.54186
# Poissons Ratio (z) = 0.30842 0.26093
#
# Static dielectric constant tensor:
#      x y z
#    x 2.005750 0.030490 0.003610 
#    y 0.030490 2.052070 0.034250 
#    z 0.003610 0.034250 1.897060 
# 
# From -- ./inp_files/396700.got.cif
#   From: 2010.05.17/outbox.cif.g08.bks.cpg/sg2_199_cif.got.tgz:396700.got - 2010.06.03 11:33:40.
