data_PCOD9027813
_publ_section_title
;
Structure prediction by ZEFSAII (Michael W. Deem and Ramdas Pophale) SiO2 
 PCOD9027813
Probable space group: P -1
;
_chemical_formula_sum "Si O2"
_cell_formula_units_Z 14
_cell_length_a 5.247278
_cell_length_b 22.253532
_cell_length_c 6.988814
_cell_angle_alpha 115.935638
_cell_angle_beta 87.458751
_cell_angle_gamma 58.079233
_cell_volume 580.896967
_symmetry_space_group_name_H-M "P -1"
_symmetry_group_IT_number 2
_symmetry_cell_setting 'triclinic'
loop_
_space_group_symop_operation_xyz
x,y,z
-x,-y,-z
loop_
_atom_site_type_symbol
_atom_site_label
_atom_site_fract_x
_atom_site_fract_y
_atom_site_fract_z
Si Si1 0.297423 0.759804 0.532141
Si Si2 0.287588 0.255193 0.200004
Si Si3 0.041263 0.083578 0.458539
Si Si4 0.393582 0.615903 0.600651
Si Si5 0.477592 0.104267 0.745218
Si Si6 0.432288 0.326359 0.986635
Si Si7 0.204025 0.523572 0.913830
O O1 0.579959 0.760799 0.613645
O O2 0.312512 0.695087 0.586219
O O3 0.018586 0.857749 0.637054
O O4 0.351865 0.716789 0.265674
O O5 0.509889 0.256576 0.038229
O O6 0.969406 0.352303 0.336127
O O7 0.284283 0.182706 0.006950
O O8 0.229765 0.097445 0.629313
O O9 0.704355 0.109108 0.593244
O O10 0.269438 0.983606 0.274583
O O11 0.517235 0.615537 0.806378
O O12 0.641540 0.531771 0.359899
O O13 0.070634 0.379245 0.990470
O O14 0.500000 0.500000 0.000000
O O15 0.000000 0.500000 0.000000
#
# Coordination Sequence:
#
# PCOD9027813 Si02
#       7
#     2   2   2   2   2   2   2
#     4  11  23  42  67 100 131 178 223 275 333 396
#     4  11  25  40  69 101 131 177 225 277 330 402
#     4  10  22  41  69  95 134 180 219 274 332 397
#     4  11  26  43  68 100 134 175 227 272 337 398
#     4  10  22  42  66  99 133 176 225 269 336 396
#     4  11  24  45  69  94 138 176 220 276 337 393
#     4  12  27  46  72 100 135 177 225 275 333 400
#
# _framework density 24.100659
#
# number of rings (size 3 to 8) (size 9 to 14) (size 15 to 20)
#    0.000    1.143    2.857    2.143    8.000    3.429 
#    0.000    0.714    0.000    0.000    0.000    0.000 
#    0.000    0.000    0.000    0.000    0.000    0.000 
#
# Total GULP energy -78174.197090 kJ/mol
# GULP energy per Si atom -5583.871221 kJ/mol
# Density = 2.404581 g / cm^3
# Si number density = 24.100659 Si / 1000 Ang^3
#
#
#
# Elastic Constant Matrix: (Units=GPa)
#
#
# Indices 1 2 3 4 5 6 
#
# 1 71.1242 -4.7933 10.7934 -7.8346 2.1664 -10.2585
# 2 -4.7933 87.5296 -2.8940 -9.0434 -4.7452 -1.6875
# 3 10.7934 -2.8940 96.8836 -2.8085 6.4616 -2.6572
# 4 -7.8346 -9.0434 -2.8085 41.8679 -6.2490 -1.0972
# 5 2.1664 -4.7452 6.4616 -6.2490 32.8604 -3.4331
# 6 -10.2585 -1.6875 -2.6572 -1.0972 -3.4331 36.3409
#
#
#
# Elastic Compliance Matrix: (Units=1/GPa)
#
#
# Indices 1 2 3 4 5 6 
#
# 1 0.015349 0.001240 -0.001494 0.003236 0.000539 0.004430
# 2 0.001240 0.011983 0.000190 0.003217 0.002352 0.001240
# 3 -0.001494 0.000190 0.010632 0.000195 -0.001908 0.000190
# 4 0.003236 0.003217 0.000195 0.026069 0.005419 0.002376
# 5 0.000539 0.002352 -0.001908 0.005419 0.032492 0.003355
# 6 0.004430 0.001240 0.000190 0.002376 0.003355 0.029228
#
#
# Mechanical properties :
#
#
# Convention : Reuss Voigt Hill
#
# Bulk Modulus (GPa) = 26.42903 29.08329 27.75616
# Shear Modulus (GPa) = 36.10327 39.04261 37.57294
#
# Velocity S-wave (km/s) = 3.87462 4.02926 3.95270
# Velocity P-wave (km/s) = 5.56838 5.80864 5.68978
#
# Compressibility (1/GPa) = 0.03783718
#
# Stress axis : x y z
#
# Youngs Moduli (GPa) = 65.15009 83.45376 94.05710
#
# Poissons Ratio (x) = -0.10350 0.14048
# Poissons Ratio (y) = -0.08080 -0.01788
# Poissons Ratio (z) = 0.09731 -0.01587
#
# Static dielectric constant tensor:
#      x y z
#    x 2.161850 0.058000 -0.036400 
#    y 0.058000 1.936940 0.002770 
#    z -0.036400 0.002770 1.880430 
# 
# From -- ./inp_files/7444.got.cif
#   From: 2010.05.17/outbox.cif.g08.bks.cpg/sg2_4_cif.got.tgz:7444.got - 2010.06.03 11:33:40.
