data_PCOD9027101
_publ_section_title
;
Structure prediction by ZEFSAII (Michael W. Deem and Ramdas Pophale) SiO2 
 PCOD9027101
Probable space group: P -1
;
_chemical_formula_sum "Si O2"
_cell_formula_units_Z 16
_cell_length_a 11.762860
_cell_length_b 5.621432
_cell_length_c 12.432059
_cell_angle_alpha 82.064591
_cell_angle_beta 101.630078
_cell_angle_gamma 123.109347
_cell_volume 674.052848
_symmetry_space_group_name_H-M "P -1"
_symmetry_group_IT_number 2
_symmetry_cell_setting 'triclinic'
loop_
_space_group_symop_operation_xyz
x,y,z
-x,-y,-z
loop_
_atom_site_type_symbol
_atom_site_label
_atom_site_fract_x
_atom_site_fract_y
_atom_site_fract_z
Si Si1 0.512002 0.153015 0.830655
Si Si2 0.756449 0.533696 0.736729
Si Si3 0.647692 0.436447 0.045452
Si Si4 0.551421 0.703559 0.601910
Si Si5 0.192471 0.720960 0.432998
Si Si6 0.948297 0.776717 0.407105
Si Si7 0.318692 0.320347 0.736847
Si Si8 0.075725 0.327913 0.029062
O O1 0.640333 0.220153 0.778461
O O2 0.389179 0.140421 0.742819
O O3 0.450406 0.863083 0.898755
O O4 0.576808 0.407784 0.917879
O O5 0.661517 0.659018 0.689427
O O6 0.818809 0.500933 0.642629
O O7 0.869033 0.669041 0.841416
O O8 0.676603 0.649124 0.134722
O O9 0.793430 0.494066 0.034534
O O10 0.500000 0.500000 0.500000
O O11 0.422560 0.597986 0.665226
O O12 0.649200 0.022641 0.556016
O O13 0.138363 0.546977 0.543879
O O14 0.084980 0.815001 0.378090
O O15 0.836808 0.804903 0.318435
O O16 0.000000 0.000000 0.500000
O O17 0.000000 0.500000 0.000000
O O18 0.000000 0.000000 0.000000
#
# Coordination Sequence:
#
# PCOD9027101 Si02
#       8
#     2   2   2   2   2   2   2   2
#     4   9  21  42  64  98 128 167 223 290 348 411
#     4  10  23  43  70  99 134 181 232 291 356 422
#     4  10  22  41  66  97 132 172 227 285 344 418
#     4  11  24  43  69 101 136 178 234 299 355 429
#     4  11  24  43  69  91 141 179 229 287 355 426
#     4  11  26  44  61  97 134 180 228 288 351 420
#     4  11  23  39  69  95 128 175 229 283 353 416
#     4  11  28  47  70 105 148 192 240 290 357 435
#
# _framework density 23.737013999999999
#
# number of rings (size 3 to 8) (size 9 to 14) (size 15 to 20)
#    0.000    1.500    0.000    3.375    5.250    7.000 
#    4.500    0.000    0.000    0.000    0.000    0.000 
#    0.000    0.000    0.000    0.000    0.000    0.000 
#
# Total GULP energy -89342.145337 kJ/mol
# GULP energy per Si atom -5583.884084 kJ/mol
# Density = 2.368299 g / cm^3
# Si number density = 23.737014 Si / 1000 Ang^3
#
#
#
# Elastic Constant Matrix: (Units=GPa)
#
#
# Indices 1 2 3 4 5 6 
#
# 1 145.6750 -2.9169 28.2429 10.3295 12.5422 3.7292
# 2 -2.9169 52.3617 2.0273 0.2377 3.1604 7.7752
# 3 28.2429 2.0273 64.3140 6.0854 4.9636 0.9933
# 4 10.3295 0.2377 6.0854 32.4762 8.2997 -8.4927
# 5 12.5422 3.1604 4.9636 8.2997 47.9913 -10.9744
# 6 3.7292 7.7752 0.9933 -8.4927 -10.9744 30.0788
#
#
#
# Elastic Compliance Matrix: (Units=1/GPa)
#
#
# Indices 1 2 3 4 5 6 
#
# 1 0.007869 0.001055 -0.003101 -0.002059 -0.002012 -0.002461
# 2 0.001055 0.020374 -0.000645 -0.001415 -0.002866 -0.006821
# 3 -0.003101 -0.000645 0.017219 -0.002290 -0.000746 -0.000936
# 4 -0.002059 -0.001415 -0.002290 0.035150 -0.003035 0.009514
# 5 -0.002012 -0.002866 -0.000746 -0.003035 0.024210 0.008991
# 6 -0.002461 -0.006821 -0.000936 0.009514 0.008991 0.041312
#
#
# Mechanical properties :
#
#
# Convention : Reuss Voigt Hill
#
# Bulk Modulus (GPa) = 24.94986 35.22859 30.08923
# Shear Modulus (GPa) = 30.32582 37.77574 34.05078
#
# Velocity S-wave (km/s) = 3.57820 3.99360 3.79159
# Velocity P-wave (km/s) = 5.25405 6.01153 5.64551
#
# Compressibility (1/GPa) = 0.04008038
#
# Stress axis : x y z
#
# Youngs Moduli (GPa) = 127.07899 49.08237 58.07387
#
# Poissons Ratio (x) = -0.05177 0.18007
# Poissons Ratio (y) = -0.13403 0.03746
# Poissons Ratio (z) = 0.39404 0.03166
#
# Static dielectric constant tensor:
#      x y z
#    x 1.910660 -0.032190 -0.027540 
#    y -0.032190 2.041980 0.017680 
#    z -0.027540 0.017680 1.990520 
# 
# From -- ./inp_files/98448.got.cif
#   From: 2010.05.17/outbox.cif.g08.bks.cpg/sg2_50_cif.got.tgz:98448.got - 2010.06.03 11:33:40.
