data_PCOD9027988
_publ_section_title
;
Structure prediction by ZEFSAII (Michael W. Deem and Ramdas Pophale) SiO2 
 PCOD9027988
Probable space group: P -1
;
_chemical_formula_sum "Si O2"
_cell_formula_units_Z 12
_cell_length_a 8.866632
_cell_length_b 9.615296
_cell_length_c 13.732922
_cell_angle_alpha 127.645040
_cell_angle_beta 147.525029
_cell_angle_gamma 59.513439
_cell_volume 497.677835
_symmetry_space_group_name_H-M "P -1"
_symmetry_group_IT_number 2
_symmetry_cell_setting 'triclinic'
loop_
_space_group_symop_operation_xyz
x,y,z
-x,-y,-z
loop_
_atom_site_type_symbol
_atom_site_label
_atom_site_fract_x
_atom_site_fract_y
_atom_site_fract_z
Si Si1 0.506839 0.872219 0.854789
Si Si2 0.940965 0.729119 0.536036
Si Si3 0.164426 0.438236 0.180628
Si Si4 0.465665 0.043863 0.700211
Si Si5 0.426020 0.571869 0.096071
Si Si6 0.316451 0.310169 0.419999
O O1 0.766850 0.747804 0.913841
O O2 0.435761 0.991104 0.773436
O O3 0.254841 0.730592 0.671407
O O4 0.500000 0.000000 0.000000
O O5 0.724027 0.579672 0.316494
O O6 0.900551 0.726915 0.627787
O O7 0.811936 0.901275 0.486614
O O8 0.200659 0.409996 0.305446
O O9 0.401817 0.584774 0.347314
O O10 0.844656 0.505190 0.028357
O O11 0.595084 0.879799 0.648782
O O12 0.648154 0.222316 0.868564
O O13 0.500000 0.500000 0.000000
#
# Coordination Sequence:
#
# PCOD9027988 Si02
#       6
#     2   2   2   2   2   2
#     4  11  25  41  68  99 133 170 218 265 328 386
#     4  10  24  40  67  96 128 175 216 266 322 382
#     4  10  25  43  65  97 133 172 213 273 324 379
#     4   9  23  42  65  93 132 177 211 270 318 382
#     4  10  25  42  67  94 131 170 219 265 323 384
#     4  10  22  41  70  94 134 170 220 265 324 385
#
# _framework density 24.111982000000001
#
# number of rings (size 3 to 8) (size 9 to 14) (size 15 to 20)
#    1.000    1.000    0.000    1.000   11.667    4.000 
#    0.000    0.000    0.000    0.000    0.000    0.000 
#    0.000    0.000    0.000    0.000    0.000    0.000 
#
# Total GULP energy -67035.025061 kJ/mol
# GULP energy per Si atom -5586.252088 kJ/mol
# Density = 2.405710 g / cm^3
# Si number density = 24.111982 Si / 1000 Ang^3
#
#
#
# Elastic Constant Matrix: (Units=GPa)
#
#
# Indices 1 2 3 4 5 6 
#
# 1 140.8477 40.1480 32.2250 -12.3896 -2.9821 -6.6234
# 2 40.1480 79.5966 10.8475 1.5612 -9.4701 10.1264
# 3 32.2250 10.8475 78.0086 -0.0614 10.3177 -16.2797
# 4 -12.3896 1.5612 -0.0614 24.8846 -2.2385 0.2445
# 5 -2.9821 -9.4701 10.3177 -2.2385 50.0789 -0.4329
# 6 -6.6234 10.1264 -16.2797 0.2445 -0.4329 45.8850
#
#
#
# Elastic Compliance Matrix: (Units=1/GPa)
#
#
# Indices 1 2 3 4 5 6 
#
# 1 0.009669 -0.004640 -0.003156 0.005138 0.000589 0.001278
# 2 -0.004640 0.016162 -0.001727 -0.003015 0.002959 -0.004805
# 3 -0.003156 -0.001727 0.016038 -0.001825 -0.003852 0.005589
# 4 0.005138 -0.003015 -0.001825 0.043107 0.002043 0.000549
# 5 0.000589 0.002959 -0.003852 0.002043 0.021433 -0.001743
# 6 0.001278 -0.004805 0.005589 0.000549 -0.001743 0.025002
#
#
# Mechanical properties :
#
#
# Convention : Reuss Voigt Hill
#
# Bulk Modulus (GPa) = 43.81871 51.65488 47.73680
# Shear Modulus (GPa) = 31.63259 38.51851 35.07555
#
# Velocity S-wave (km/s) = 3.62595 4.00119 3.81818
# Velocity P-wave (km/s) = 5.97850 6.54335 6.26729
#
# Compressibility (1/GPa) = 0.02282130
#
# Stress axis : x y z
#
# Youngs Moduli (GPa) = 103.42117 61.87417 62.35384
#
# Poissons Ratio (x) = 0.28711 0.19680
# Poissons Ratio (y) = 0.47990 0.10770
# Poissons Ratio (z) = 0.32642 0.10687
#
# Static dielectric constant tensor:
#      x y z
#    x 1.906350 0.028070 -0.031110 
#    y 0.028070 1.945490 -0.029990 
#    z -0.031110 -0.029990 1.985070 
# 
# From -- ./inp_files/500920.got.cif
#   From: 2010.05.17/outbox.cif.g08.bks.cpg/sg2_251_cif.got.tgz:500920.got - 2010.06.03 11:33:40.
