data_PCOD9027675
_publ_section_title
;
Structure prediction by ZEFSAII (Michael W. Deem and Ramdas Pophale) SiO2 
 PCOD9027675
Probable space group: P -1
;
_chemical_formula_sum "Si O2"
_cell_formula_units_Z 14
_cell_length_a 8.719664
_cell_length_b 8.337242
_cell_length_c 11.928958
_cell_angle_alpha 116.305272
_cell_angle_beta 50.578273
_cell_angle_gamma 114.328294
_cell_volume 589.773207
_symmetry_space_group_name_H-M "P -1"
_symmetry_group_IT_number 2
_symmetry_cell_setting 'triclinic'
loop_
_space_group_symop_operation_xyz
x,y,z
-x,-y,-z
loop_
_atom_site_type_symbol
_atom_site_label
_atom_site_fract_x
_atom_site_fract_y
_atom_site_fract_z
Si Si1 0.024332 0.959372 0.178281
Si Si2 0.390153 0.799903 0.943770
Si Si3 0.376499 0.533873 0.677854
Si Si4 0.996985 0.501840 0.312627
Si Si5 0.575877 0.789185 0.276032
Si Si6 0.669515 0.705813 0.961000
Si Si7 0.129994 0.796451 0.522711
O O1 0.795362 0.915472 0.228681
O O2 0.162974 0.111502 0.085175
O O3 0.152315 0.798489 0.070399
O O4 0.998116 0.050338 0.338795
O O5 0.423286 0.728780 0.780938
O O6 0.502024 0.679982 0.934525
O O7 0.500000 0.000000 0.000000
O O8 0.500000 0.500000 0.500000
O O9 0.151595 0.502865 0.723746
O O10 0.414379 0.382093 0.701414
O O11 0.906371 0.348069 0.400861
O O12 0.201003 0.449889 0.157009
O O13 0.043979 0.687660 0.418338
O O14 0.371092 0.862891 0.420402
O O15 0.571090 0.733345 0.132278
#
# Coordination Sequence:
#
# PCOD9027675 Si02
#       7
#     2   2   2   2   2   2   2
#     4  10  23  44  67 101 139 180 225 285 345 402
#     4  10  24  46  72 100 136 184 226 278 349 403
#     4  12  26  43  71 101 140 176 229 284 340 403
#     4  10  22  43  69  97 137 182 225 282 343 402
#     4  12  24  43  69 105 135 181 233 281 342 404
#     4  10  23  43  73  95 139 178 234 278 344 406
#     4  10  22  41  68  99 138 180 228 277 342 409
#
# _framework density 23.737939000000001
#
# number of rings (size 3 to 8) (size 9 to 14) (size 15 to 20)
#    0.000    1.429    1.429    2.571    6.000    9.143 
#    5.143    1.429    0.000    0.000    0.000    0.000 
#    0.000    0.000    0.000    0.000    0.000    0.000 
#
# Total GULP energy -78277.308939 kJ/mol
# GULP energy per Si atom -5591.236353 kJ/mol
# Density = 2.368391 g / cm^3
# Si number density = 23.737939 Si / 1000 Ang^3
#
#
#
# Elastic Constant Matrix: (Units=GPa)
#
#
# Indices 1 2 3 4 5 6 
#
# 1 105.7677 15.2828 61.3987 7.6176 -0.1447 11.5175
# 2 15.2828 61.9684 31.1693 -8.1289 -3.0254 23.0645
# 3 61.3987 31.1693 174.9536 8.9794 -10.8843 3.9210
# 4 7.6176 -8.1289 8.9794 40.3164 4.5078 -4.4232
# 5 -0.1447 -3.0254 -10.8843 4.5078 42.6193 3.6849
# 6 11.5175 23.0645 3.9210 -4.4232 3.6849 27.8493
#
#
#
# Elastic Compliance Matrix: (Units=1/GPa)
#
#
# Indices 1 2 3 4 5 6 
#
# 1 0.012611 0.000939 -0.004396 -0.001792 -0.000338 -0.005614
# 2 0.000939 0.026956 -0.004695 0.003669 0.002211 -0.021762
# 3 -0.004396 -0.004695 0.008187 -0.001667 0.001566 0.004082
# 4 -0.001792 0.003669 -0.001667 0.026906 -0.003245 0.002641
# 5 -0.000338 0.002211 0.001566 -0.003245 0.024857 -0.005716
# 6 -0.005614 -0.021762 0.004082 0.002641 -0.005716 0.056853
#
#
# Mechanical properties :
#
#
# Convention : Reuss Voigt Hill
#
# Bulk Modulus (GPa) = 31.79723 62.04348 46.92035
# Shear Modulus (GPa) = 27.29894 37.81293 32.55594
#
# Velocity S-wave (km/s) = 3.39486 3.99549 3.70736
# Velocity P-wave (km/s) = 5.36572 6.89049 6.17535
#
# Compressibility (1/GPa) = 0.03144928
#
# Stress axis : x y z
#
# Youngs Moduli (GPa) = 79.29561 37.09729 122.15156
#
# Poissons Ratio (x) = -0.03484 0.53701
# Poissons Ratio (y) = -0.07446 0.57350
# Poissons Ratio (z) = 0.34861 0.17417
#
# Static dielectric constant tensor:
#      x y z
#    x 1.885640 0.004670 -0.017220 
#    y 0.004670 2.039660 0.034930 
#    z -0.017220 0.034930 1.900460 
# 
# From -- ./inp_files/209404.got.cif
#   From: 2010.05.17/outbox.cif.g08.bks.cpg/sg2_105_cif.got.tgz:209404.got - 2010.06.03 11:33:40.
