data_PCOD9027686
_publ_section_title
;
Structure prediction by ZEFSAII (Michael W. Deem and Ramdas Pophale) SiO2 
 PCOD9027686
Probable space group: P -1
;
_chemical_formula_sum "Si O2"
_cell_formula_units_Z 16
_cell_length_a 9.613022
_cell_length_b 11.539873
_cell_length_c 8.175204
_cell_angle_alpha 62.275541
_cell_angle_beta 111.098269
_cell_angle_gamma 119.721399
_cell_volume 687.239209
_symmetry_space_group_name_H-M "P -1"
_symmetry_group_IT_number 2
_symmetry_cell_setting 'triclinic'
loop_
_space_group_symop_operation_xyz
x,y,z
-x,-y,-z
loop_
_atom_site_type_symbol
_atom_site_label
_atom_site_fract_x
_atom_site_fract_y
_atom_site_fract_z
Si Si1 0.372159 0.612201 0.920602
Si Si2 0.109332 0.876042 0.274944
Si Si3 0.008167 0.086595 0.279086
Si Si4 0.587912 0.396504 0.563391
Si Si5 0.869522 0.562158 0.356910
Si Si6 0.271867 0.874035 0.697236
Si Si7 0.649579 0.659050 0.778909
Si Si8 0.422492 0.903518 0.189284
O O1 0.245981 0.515853 0.792055
O O2 0.326852 0.745515 0.838031
O O3 0.559911 0.662487 0.909691
O O4 0.352069 0.499627 0.129810
O O5 0.182504 0.852921 0.497345
O O6 0.258588 0.911351 0.188361
O O7 0.963731 0.729253 0.258903
O O8 0.031785 0.990445 0.206805
O O9 0.170957 0.228194 0.246738
O O10 0.849736 0.120496 0.213885
O O11 0.000000 0.000000 0.500000
O O12 0.500000 0.500000 0.500000
O O13 0.757762 0.514208 0.499784
O O14 0.474707 0.317358 0.412805
O O15 0.603803 0.261075 0.745379
O O16 0.000000 0.500000 0.500000
O O17 0.432226 0.019428 0.669772
O O18 0.500000 0.000000 0.000000
#
# Coordination Sequence:
#
# PCOD9027686 Si02
#       8
#     2   2   2   2   2   2   2   2
#     4  10  22  41  69 100 132 178 230 288 335 418
#     4  11  22  45  73  94 141 182 229 285 348 425
#     4  10  23  40  67  99 128 179 229 279 337 413
#     4  11  25  41  69  94 139 183 222 283 340 416
#     4  11  21  42  69 102 131 179 232 277 355 400
#     4  11  23  41  70 100 137 181 233 283 347 411
#     4  10  22  43  64  95 132 179 232 270 347 404
#     4  12  27  45  67 106 140 178 236 289 355 413
#
# _framework density 23.281559000000001
#
# number of rings (size 3 to 8) (size 9 to 14) (size 15 to 20)
#    0.000    1.250    2.500    3.375    7.000    1.500 
#    2.250    1.250    0.000    0.000    0.000    0.000 
#    0.000    0.000    0.000    0.000    0.000    0.000 
#
# Total GULP energy -89347.524952 kJ/mol
# GULP energy per Si atom -5584.220309 kJ/mol
# Density = 2.322857 g / cm^3
# Si number density = 23.281559 Si / 1000 Ang^3
#
#
#
# Elastic Constant Matrix: (Units=GPa)
#
#
# Indices 1 2 3 4 5 6 
#
# 1 228.0333 74.8021 28.1763 -34.7019 -10.1923 -1.3117
# 2 74.8021 119.1532 10.4964 -26.8090 -15.9264 7.1646
# 3 28.1763 10.4964 79.6410 -9.2092 -10.8727 -8.0629
# 4 -34.7019 -26.8090 -9.2092 40.0284 5.4858 4.9762
# 5 -10.1923 -15.9264 -10.8727 5.4858 30.3362 -10.7575
# 6 -1.3117 7.1646 -8.0629 4.9762 -10.7575 44.1038
#
#
#
# Elastic Compliance Matrix: (Units=1/GPa)
#
#
# Indices 1 2 3 4 5 6 
#
# 1 0.005982 -0.003058 -0.001480 0.002902 -0.000683 -0.000090
# 2 -0.003058 0.012065 0.000475 0.005190 0.003978 -0.001579
# 3 -0.001480 0.000475 0.014359 0.001023 0.006087 0.003873
# 4 0.002902 0.005190 0.001023 0.032334 -0.003587 -0.005093
# 5 -0.000683 0.003978 0.006087 -0.003587 0.041549 0.010985
# 6 -0.000090 -0.001579 0.003873 -0.005093 0.010985 0.026890
#
#
# Mechanical properties :
#
#
# Convention : Reuss Voigt Hill
#
# Bulk Modulus (GPa) = 41.18632 72.64190 56.91411
# Shear Modulus (GPa) = 33.46794 43.78387 38.62590
#
# Velocity S-wave (km/s) = 3.79559 4.34132 4.07760
# Velocity P-wave (km/s) = 6.07763 7.50990 6.83141
#
# Compressibility (1/GPa) = 0.02427991
#
# Stress axis : x y z
#
# Youngs Moduli (GPa) = 167.17177 82.88603 69.64403
#
# Poissons Ratio (x) = 0.25345 0.10308
# Poissons Ratio (y) = 0.51118 -0.03309
# Poissons Ratio (z) = 0.24742 -0.03938
#
# Static dielectric constant tensor:
#      x y z
#    x 1.824630 -0.007650 -0.037820 
#    y -0.007650 1.769320 -0.026500 
#    z -0.037820 -0.026500 1.954800 
# 
# From -- ./inp_files/185259.got.cif
#   From: 2010.05.17/outbox.cif.g08.bks.cpg/sg2_93_cif.got.tgz:185259.got - 2010.06.03 11:33:40.
