data_PCOD9027059
_publ_section_title
;
Structure prediction by ZEFSAII (Michael W. Deem and Ramdas Pophale) SiO2 
 PCOD9027059
Probable space group: P -1
;
_chemical_formula_sum "Si O2"
_cell_formula_units_Z 16
_cell_length_a 17.458498
_cell_length_b 10.843643
_cell_length_c 7.454884
_cell_angle_alpha 36.262036
_cell_angle_beta 58.779604
_cell_angle_gamma 48.877600
_cell_volume 628.604399
_symmetry_space_group_name_H-M "P -1"
_symmetry_group_IT_number 2
_symmetry_cell_setting 'triclinic'
loop_
_space_group_symop_operation_xyz
x,y,z
-x,-y,-z
loop_
_atom_site_type_symbol
_atom_site_label
_atom_site_fract_x
_atom_site_fract_y
_atom_site_fract_z
Si Si1 0.355985 0.133817 0.697477
Si Si2 0.183350 0.600716 0.451905
Si Si3 0.896569 0.995952 0.191990
Si Si4 0.468605 0.869246 0.339179
Si Si5 0.688350 0.707529 0.811714
Si Si6 0.001752 0.498101 0.780622
Si Si7 0.500552 0.393610 0.920260
Si Si8 0.120155 0.745302 0.750607
O O1 0.287584 0.355927 0.650847
O O2 0.463048 0.139495 0.563334
O O3 0.292789 0.231099 0.480896
O O4 0.398805 0.850028 0.972356
O O5 0.134309 0.755000 0.510250
O O6 0.105832 0.501415 0.607208
O O7 0.186157 0.785803 0.084456
O O8 0.876714 0.063285 0.347576
O O9 0.921198 0.723191 0.496190
O O10 0.000000 0.000000 0.000000
O O11 0.492097 0.612627 0.558846
O O12 0.353679 0.047838 0.316037
O O13 0.500000 0.000000 0.000000
O O14 0.598195 0.636167 0.975460
O O15 0.783741 0.499985 0.026928
O O16 0.977224 0.283258 0.035403
O O17 0.000000 0.500000 0.000000
O O18 0.500000 0.500000 0.000000
#
# Coordination Sequence:
#
# PCOD9027059 Si02
#       8
#     2   2   2   2   2   2   2   2
#     4  11  21  41  63  97 130 168 229 268 316 406
#     4  10  22  43  67  95 135 172 219 272 324 393
#     4  10  22  41  66  96 126 170 221 264 325 391
#     4  11  23  41  65  94 131 168 216 275 326 383
#     4  11  22  39  66  94 132 171 222 270 322 397
#     4   9  22  43  68  96 130 175 219 265 327 389
#     4  11  21  41  69  90 127 181 213 265 338 383
#     4  11  23  44  67  94 138 172 212 281 326 378
#
# _framework density 25.453208
#
# number of rings (size 3 to 8) (size 9 to 14) (size 15 to 20)
#    0.000    1.500    3.750    1.500    0.000    9.500 
#    2.250    7.500    0.000    0.000    0.000    0.000 
#    0.000    0.000    0.000    0.000    0.000    0.000 
#
# Total GULP energy -89209.022940 kJ/mol
# GULP energy per Si atom -5575.563934 kJ/mol
# Density = 2.539528 g / cm^3
# Si number density = 25.453208 Si / 1000 Ang^3
#
#
#
# Elastic Constant Matrix: (Units=GPa)
#
#
# Indices 1 2 3 4 5 6 
#
# 1 59.7103 10.2881 27.6242 -11.6783 14.4742 -1.4771
# 2 10.2881 107.9336 46.4391 -19.6626 4.4835 12.1693
# 3 27.6242 46.4391 146.9769 -24.6412 9.1562 2.6651
# 4 -11.6783 -19.6626 -24.6412 41.9348 -0.5936 10.8937
# 5 14.4742 4.4835 9.1562 -0.5936 31.0333 -5.6328
# 6 -1.4771 12.1693 2.6651 10.8937 -5.6328 37.7651
#
#
#
# Elastic Compliance Matrix: (Units=1/GPa)
#
#
# Indices 1 2 3 4 5 6 
#
# 1 0.021097 0.000694 -0.002722 0.005001 -0.009414 -0.002053
# 2 0.000694 0.012163 -0.002778 0.005705 -0.002181 -0.005667
# 3 -0.002722 -0.002778 0.008841 0.003370 -0.001048 -0.000963
# 4 0.005001 0.005705 0.003370 0.032997 -0.005744 -0.012255
# 5 -0.009414 -0.002181 -0.001048 -0.005744 0.038547 0.007815
# 6 -0.002053 -0.005667 -0.000963 -0.012255 0.007815 0.032994
#
#
# Mechanical properties :
#
#
# Convention : Reuss Voigt Hill
#
# Bulk Modulus (GPa) = 30.78143 53.70262 42.24203
# Shear Modulus (GPa) = 29.92565 37.49793 33.71179
#
# Velocity S-wave (km/s) = 3.43259 3.84241 3.64326
# Velocity P-wave (km/s) = 5.27540 6.38982 5.85916
#
# Compressibility (1/GPa) = 0.03248711
#
# Stress axis : x y z
#
# Youngs Moduli (GPa) = 47.40099 82.21601 113.10974
#
# Poissons Ratio (x) = -0.05705 0.30791
# Poissons Ratio (y) = -0.03289 0.31427
# Poissons Ratio (z) = 0.12904 0.22843
#
# Static dielectric constant tensor:
#      x y z
#    x 2.114080 0.082230 0.093480 
#    y 0.082230 2.225760 0.030010 
#    z 0.093480 0.030010 2.078590 
# 
# From -- ./inp_files/332640.got.cif
#   From: 2010.05.17/outbox.cif.g08.bks.cpg/sg2_167_cif.got.tgz:332640.got - 2010.06.03 11:33:40.
