data_PCOD9027123
_publ_section_title
;
Structure prediction by ZEFSAII (Michael W. Deem and Ramdas Pophale) SiO2 
 PCOD9027123
Probable space group: P -1
;
_chemical_formula_sum "Si O2"
_cell_formula_units_Z 16
_cell_length_a 12.182404
_cell_length_b 8.090886
_cell_length_c 13.301543
_cell_angle_alpha 31.729200
_cell_angle_beta 69.343622
_cell_angle_gamma 68.298516
_cell_volume 638.670111
_symmetry_space_group_name_H-M "P -1"
_symmetry_group_IT_number 2
_symmetry_cell_setting 'triclinic'
loop_
_space_group_symop_operation_xyz
x,y,z
-x,-y,-z
loop_
_atom_site_type_symbol
_atom_site_label
_atom_site_fract_x
_atom_site_fract_y
_atom_site_fract_z
Si Si1 0.616464 0.551353 0.533249
Si Si2 0.877485 0.887335 0.118139
Si Si3 0.214504 0.737164 0.552563
Si Si4 0.065292 0.167894 0.227636
Si Si5 0.573613 0.300542 0.166475
Si Si6 0.747965 0.112965 0.860611
Si Si7 0.849945 0.188396 0.169022
Si Si8 0.407182 0.446598 0.770701
O O1 0.692841 0.394287 0.497804
O O2 0.699950 0.450247 0.654475
O O3 0.500398 0.388326 0.679765
O O4 0.577005 0.925884 0.343494
O O5 0.863834 0.543330 0.260142
O O6 0.858677 0.901508 0.235860
O O7 0.785019 0.120665 0.960788
O O8 0.000000 0.000000 0.000000
O O9 0.302370 0.724679 0.625238
O O10 0.129892 0.021620 0.382548
O O11 0.930858 0.095442 0.289679
O O12 0.144657 0.030846 0.174991
O O13 0.077680 0.537380 0.036323
O O14 0.712460 0.338671 0.121954
O O15 0.523099 0.428711 0.223551
O O16 0.500000 0.500000 0.000000
O O17 0.652302 0.863170 0.022093
#
# Coordination Sequence:
#
# PCOD9027123 Si02
#       8
#     2   2   2   2   2   2   2   2
#     4  11  24  42  66  97 129 179 220 271 331 385
#     4  11  22  40  67  99 131 169 213 276 332 396
#     4  10  24  42  68 100 130 168 227 270 333 393
#     4  10  22  42  70  96 128 179 213 272 333 394
#     4  12  28  44  66  97 137 177 222 274 333 393
#     4  10  22  41  66  98 129 170 224 271 330 388
#     4  11  23  43  67  92 137 170 220 264 342 381
#     4  11  24  43  65  94 139 173 224 273 320 402
#
# _framework density 25.052057000000001
#
# number of rings (size 3 to 8) (size 9 to 14) (size 15 to 20)
#    0.000    1.250    3.750    1.125    3.500    3.500 
#    0.000    1.250    0.000    0.000    0.000    0.000 
#    0.000    0.000    0.000    0.000    0.000    0.000 
#
# Total GULP energy -89392.221701 kJ/mol
# GULP energy per Si atom -5587.013856 kJ/mol
# Density = 2.499504 g / cm^3
# Si number density = 25.052057 Si / 1000 Ang^3
#
#
#
# Elastic Constant Matrix: (Units=GPa)
#
#
# Indices 1 2 3 4 5 6 
#
# 1 140.4424 30.5503 55.5938 7.1802 24.6155 6.4204
# 2 30.5503 66.3615 8.0401 4.0854 -2.9848 2.9856
# 3 55.5938 8.0401 101.1233 3.5225 44.9668 -0.6073
# 4 7.1802 4.0854 3.5225 24.8337 -10.1180 -0.7297
# 5 24.6155 -2.9848 44.9668 -10.1180 50.0151 22.4615
# 6 6.4204 2.9856 -0.6073 -0.7297 22.4615 50.5773
#
#
#
# Elastic Compliance Matrix: (Units=1/GPa)
#
#
# Indices 1 2 3 4 5 6 
#
# 1 0.010196 -0.004024 -0.004672 -0.002138 -0.001220 -0.000602
# 2 -0.004024 0.017628 -0.002489 0.001462 0.007254 -0.003760
# 3 -0.004672 -0.002489 0.027983 -0.015225 -0.033067 0.015542
# 4 -0.002138 0.001462 -0.015225 0.055485 0.032092 -0.013449
# 5 -0.001220 0.007254 -0.033067 0.032092 0.071628 -0.032017
# 6 -0.000602 -0.003760 0.015542 -0.013449 -0.032017 0.034282
#
#
# Mechanical properties :
#
#
# Convention : Reuss Voigt Hill
#
# Bulk Modulus (GPa) = 29.90613 55.14398 42.52506
# Shear Modulus (GPa) = 19.94279 39.33476 29.63878
#
# Velocity S-wave (km/s) = 2.82450 3.96677 3.44334
# Velocity P-wave (km/s) = 4.75401 6.56048 5.72890
#
# Compressibility (1/GPa) = 0.03343796
#
# Stress axis : x y z
#
# Youngs Moduli (GPa) = 98.08082 56.72667 35.73582
#
# Poissons Ratio (x) = 0.22826 0.16696
# Poissons Ratio (y) = 0.39466 0.08894
# Poissons Ratio (z) = 0.45824 0.14118
#
# Static dielectric constant tensor:
#      x y z
#    x 2.060830 -0.044320 0.050420 
#    y -0.044320 2.057010 0.064070 
#    z 0.050420 0.064070 1.958540 
# 
# From -- ./inp_files/514799.got.cif
#   From: 2010.05.17/outbox.cif.g08.bks.cpg/sg2_258_cif.got.tgz:514799.got - 2010.06.03 11:33:40.
