data_PCOD9027353
_publ_section_title
;
Structure prediction by ZEFSAII (Michael W. Deem and Ramdas Pophale) SiO2 
 PCOD9027353
Probable space group: P -1
;
_chemical_formula_sum "Si O2"
_cell_formula_units_Z 16
_cell_length_a 8.263005
_cell_length_b 14.650276
_cell_length_c 11.338453
_cell_angle_alpha 48.891992
_cell_angle_beta 45.219404
_cell_angle_gamma 71.620843
_cell_volume 705.487945
_symmetry_space_group_name_H-M "P -1"
_symmetry_group_IT_number 2
_symmetry_cell_setting 'triclinic'
loop_
_space_group_symop_operation_xyz
x,y,z
-x,-y,-z
loop_
_atom_site_type_symbol
_atom_site_label
_atom_site_fract_x
_atom_site_fract_y
_atom_site_fract_z
Si Si1 0.214415 0.465290 0.483737
Si Si2 0.000643 0.821530 0.126310
Si Si3 0.431353 0.865469 0.720045
Si Si4 0.072881 0.164762 0.567325
Si Si5 0.323774 0.577048 0.698930
Si Si6 0.320744 0.714444 0.364730
Si Si7 0.216189 0.109208 0.060165
Si Si8 0.012313 0.682425 0.943428
O O1 0.456138 0.444019 0.321816
O O2 0.317843 0.591728 0.396716
O O3 0.000000 0.500000 0.500000
O O4 0.085834 0.329435 0.720379
O O5 0.929646 0.838841 0.283780
O O6 0.876687 0.880726 0.035688
O O7 0.284559 0.873359 0.908790
O O8 0.233502 0.757345 0.845468
O O9 0.670911 0.822515 0.630975
O O10 0.500000 0.000000 0.500000
O O11 0.942382 0.269624 0.510219
O O12 0.906760 0.031729 0.719779
O O13 0.422723 0.684386 0.461408
O O14 0.137902 0.632109 0.815313
O O15 0.184288 0.448093 0.813438
O O16 0.501816 0.841649 0.117467
O O17 0.122004 0.210695 0.096408
#
# Coordination Sequence:
#
# PCOD9027353 Si02
#       8
#     2   2   2   2   2   2   2   2
#     4  12  23  43  70  99 129 172 225 283 329 401
#     4  11  23  43  71  96 130 179 224 271 343 381
#     4  11  23  41  68  99 135 174 227 274 322 400
#     4  12  25  44  64 103 138 176 225 274 329 400
#     4  11  23  43  70  91 132 174 217 277 343 394
#     4  12  24  41  67  98 131 175 222 271 336 400
#     4  11  22  43  69  92 132 174 224 267 327 408
#     4  10  22  41  67  97 124 173 224 271 335 395
#
# _framework density 22.679338999999999
#
# number of rings (size 3 to 8) (size 9 to 14) (size 15 to 20)
#    0.000    0.750    6.250    3.375    0.000    0.000 
#    6.750    1.875    0.000    0.000    0.000    0.000 
#    0.000    0.000    0.000    0.000    0.000    0.000 
#
# Total GULP energy -89172.894025 kJ/mol
# GULP energy per Si atom -5573.305877 kJ/mol
# Density = 2.262772 g / cm^3
# Si number density = 22.679339 Si / 1000 Ang^3
#
#
#
# Elastic Constant Matrix: (Units=GPa)
#
#
# Indices 1 2 3 4 5 6 
#
# 1 52.6595 9.0943 11.9259 15.2614 -16.4704 -16.0678
# 2 9.0943 90.0288 12.3283 -4.3010 -12.7823 -6.4207
# 3 11.9259 12.3283 92.4571 -5.6450 -38.1382 4.5898
# 4 15.2614 -4.3010 -5.6450 44.0926 -6.3529 -13.4550
# 5 -16.4704 -12.7823 -38.1382 -6.3529 32.8852 4.0595
# 6 -16.0678 -6.4207 4.5898 -13.4550 4.0595 32.4826
#
#
#
# Elastic Compliance Matrix: (Units=1/GPa)
#
#
# Indices 1 2 3 4 5 6 
#
# 1 0.027005 -0.000642 0.000882 -0.004582 0.012218 0.009682
# 2 -0.000642 0.012197 0.000889 0.003130 0.005741 0.002547
# 3 0.000882 0.000889 0.023232 0.005779 0.029334 -0.003943
# 4 -0.004582 0.003130 0.005779 0.029356 0.010257 0.008414
# 5 0.012218 0.005741 0.029334 0.010257 0.075019 -0.002093
# 6 0.009682 0.002547 -0.003943 0.008414 -0.002093 0.040382
#
#
# Mechanical properties :
#
#
# Convention : Reuss Voigt Hill
#
# Bulk Modulus (GPa) = 15.45806 33.53803 24.49805
# Shear Modulus (GPa) = 22.07537 35.34519 28.71028
#
# Velocity S-wave (km/s) = 3.12327 3.95204 3.56184
# Velocity P-wave (km/s) = 4.45389 5.97033 5.26697
#
# Compressibility (1/GPa) = 0.06469117
#
# Stress axis : x y z
#
# Youngs Moduli (GPa) = 37.03074 81.98788 43.04380
#
# Poissons Ratio (x) = 0.05266 -0.03796
# Poissons Ratio (y) = 0.02379 -0.03828
# Poissons Ratio (z) = -0.03265 -0.07291
#
# Static dielectric constant tensor:
#      x y z
#    x 1.865300 0.015260 -0.000190 
#    y 0.015260 1.861780 0.035660 
#    z -0.000190 0.035660 1.893840 
# 
# From -- ./inp_files/208295.got.cif
#   From: 2010.05.17/outbox.cif.g08.bks.cpg/sg2_105_cif.got.tgz:208295.got - 2010.06.03 11:33:40.
