data_PCOD9027453
_publ_section_title
;
Structure prediction by ZEFSAII (Michael W. Deem and Ramdas Pophale) SiO2 
 PCOD9027453
Probable space group: P -1
;
_chemical_formula_sum "Si O2"
_cell_formula_units_Z 15
_cell_length_a 12.022843
_cell_length_b 11.359478
_cell_length_c 12.058649
_cell_angle_alpha 64.002629
_cell_angle_beta 46.607028
_cell_angle_gamma 100.241863
_cell_volume 731.339281
_symmetry_space_group_name_H-M "P -1"
_symmetry_group_IT_number 2
_symmetry_cell_setting 'triclinic'
loop_
_space_group_symop_operation_xyz
x,y,z
-x,-y,-z
loop_
_atom_site_type_symbol
_atom_site_label
_atom_site_fract_x
_atom_site_fract_y
_atom_site_fract_z
Si Si1 0.522414 0.003061 0.852415
Si Si2 0.566512 0.844506 0.324786
Si Si3 0.620630 0.305145 0.083729
Si Si4 0.895541 0.933436 0.431050
Si Si5 0.018171 0.878650 0.921227
Si Si6 0.968169 0.758862 0.624006
Si Si7 0.788643 0.277486 0.205322
Si Si8 0.500000 0.500000 0.500000
O O1 0.394943 0.798773 0.969784
O O2 0.436108 0.077901 0.819085
O O3 0.785148 0.149352 0.582389
O O4 0.500000 0.000000 0.000000
O O5 0.409807 0.824028 0.528728
O O6 0.464105 0.636943 0.469988
O O7 0.815224 0.992212 0.144341
O O8 0.368721 0.198836 0.322883
O O9 0.704042 0.272398 0.144824
O O10 0.783580 0.531364 0.862183
O O11 0.936181 0.818955 0.506834
O O12 0.964304 0.993618 0.232361
O O13 0.032854 0.128787 0.327272
O O14 0.125968 0.817491 0.814261
O O15 0.765005 0.689708 0.204823
O O16 0.000000 0.500000 0.000000
#
# Coordination Sequence:
#
# PCOD9027453 Si02
#       8
#     2   2   2   2   2   2   2   1
#     4  11  26  45  68  96 139 187 232 285 344 419
#     4  12  25  48  70 104 142 181 239 292 355 417
#     4  11  21  43  71 106 131 179 237 292 347 404
#     4  10  22  41  68 101 142 174 222 289 349 406
#     4  12  24  45  71 104 141 185 229 293 356 413
#     4  10  23  41  66 104 138 178 228 280 341 420
#     4  12  21  41  78 107 135 179 239 297 343 411
#     4  12  30  44  66 104 148 186 220 284 362 442
#
# _framework density 20.510314999999999
#
# number of rings (size 3 to 8) (size 9 to 14) (size 15 to 20)
#    0.000    0.800    4.000    4.400    1.867    0.533 
#    2.400    0.000    0.000    0.000    0.000    0.000 
#    0.000    0.000    0.000    0.000    0.000    0.000 
#
# Total GULP energy -83694.361420 kJ/mol
# GULP energy per Si atom -5579.624095 kJ/mol
# Density = 2.046363 g / cm^3
# Si number density = 20.510315 Si / 1000 Ang^3
#
#
#
# Elastic Constant Matrix: (Units=GPa)
#
#
# Indices 1 2 3 4 5 6 
#
# 1 139.4373 28.1912 54.9499 2.8714 22.6179 11.4218
# 2 28.1912 83.0932 48.2070 -12.5579 16.6791 -0.4042
# 3 54.9499 48.2070 128.9861 -18.1958 9.8472 6.9087
# 4 2.8714 -12.5579 -18.1958 35.1434 -4.4589 1.9469
# 5 22.6179 16.6791 9.8472 -4.4589 35.7381 3.8400
# 6 11.4218 -0.4042 6.9087 1.9469 3.8400 34.2303
#
#
#
# Elastic Compliance Matrix: (Units=1/GPa)
#
#
# Indices 1 2 3 4 5 6 
#
# 1 0.009940 -0.000535 -0.004064 -0.003672 -0.005196 -0.001711
# 2 -0.000535 0.016932 -0.005409 0.002423 -0.005986 0.002004
# 3 -0.004064 -0.005409 0.012121 0.005098 0.002579 -0.001733
# 4 -0.003672 0.002423 0.005098 0.032900 0.004120 -0.002109
# 5 -0.005196 -0.005986 0.002579 0.004120 0.034181 -0.002926
# 6 -0.001711 0.002004 -0.001733 -0.002109 -0.002926 0.030607
#
#
# Mechanical properties :
#
#
# Convention : Reuss Voigt Hill
#
# Bulk Modulus (GPa) = 52.69604 68.24588 60.47096
# Shear Modulus (GPa) = 30.67082 35.70026 33.18554
#
# Velocity S-wave (km/s) = 3.87122 4.17658 4.02679
# Velocity P-wave (km/s) = 6.76239 7.52360 7.15313
#
# Compressibility (1/GPa) = 0.01897676
#
# Stress axis : x y z
#
# Youngs Moduli (GPa) = 100.60266 59.06144 82.50228
#
# Poissons Ratio (x) = 0.03158 0.33533
# Poissons Ratio (y) = 0.05379 0.44623
# Poissons Ratio (z) = 0.40890 0.31944
#
# Static dielectric constant tensor:
#      x y z
#    x 0.434110 0.835690 0.649930 
#    y 0.835690 1.233160 -0.392520 
#    z 0.649930 -0.392520 1.350920 
# 
# From -- ./inp_files/427754.got.cif
#   From: 2010.05.17/outbox.cif.g08.bks.cpg/sg2_214_cif.got.tgz:427754.got - 2010.06.03 11:33:40.
