data_PCOD9027619
_publ_section_title
;
Structure prediction by ZEFSAII (Michael W. Deem and Ramdas Pophale) SiO2 
 PCOD9027619
Probable space group: P -1
;
_chemical_formula_sum "Si O2"
_cell_formula_units_Z 14
_cell_length_a 14.680178
_cell_length_b 8.178722
_cell_length_c 11.249730
_cell_angle_alpha 55.839312
_cell_angle_beta 146.824103
_cell_angle_gamma 109.600705
_cell_volume 583.981037
_symmetry_space_group_name_H-M "P -1"
_symmetry_group_IT_number 2
_symmetry_cell_setting 'triclinic'
loop_
_space_group_symop_operation_xyz
x,y,z
-x,-y,-z
loop_
_atom_site_type_symbol
_atom_site_label
_atom_site_fract_x
_atom_site_fract_y
_atom_site_fract_z
Si Si1 0.389231 0.750305 0.958862
Si Si2 0.522409 0.967091 0.398704
Si Si3 0.811265 0.134916 0.531261
Si Si4 0.686294 0.547241 0.846284
Si Si5 0.757940 0.790268 0.292140
Si Si6 0.023727 0.324442 0.195851
Si Si7 0.151970 0.239382 0.855481
O O1 0.269683 0.726035 0.728002
O O2 0.282098 0.965294 0.818403
O O3 0.440666 0.558217 0.182864
O O4 0.564381 0.770812 0.083014
O O5 0.613335 0.720664 0.595424
O O6 0.500000 0.000000 0.500000
O O7 0.647643 0.102379 0.438890
O O8 0.326027 0.040483 0.106962
O O9 0.974865 0.204495 0.726477
O O10 0.902223 0.900719 0.685122
O O11 0.778285 0.637053 0.017606
O O12 0.834049 0.359886 0.028061
O O13 0.851748 0.668467 0.560447
O O14 0.868827 0.701083 0.331644
O O15 0.000000 0.500000 0.000000
#
# Coordination Sequence:
#
# PCOD9027619 Si02
#       7
#     2   2   2   2   2   2   2
#     4  10  22  41  68  97 128 174 220 272 323 385
#     4  10  23  44  63  97 139 171 214 269 328 391
#     4  11  22  44  72  90 136 177 215 269 330 389
#     4  11  24  42  64 100 136 165 224 276 319 387
#     4  10  22  42  67  96 131 173 221 265 333 389
#     4  11  23  42  64  97 132 169 219 272 320 390
#     4  11  24  43  70  98 129 178 219 266 333 389
#
# _framework density 23.973382999999998
#
# number of rings (size 3 to 8) (size 9 to 14) (size 15 to 20)
#    0.000    1.429    2.857    1.714    0.000    8.571 
#    5.143    2.143    0.000    0.000    0.000    0.000 
#    0.000    0.000    0.000    0.000    0.000    0.000 
#
# Total GULP energy -78142.799232 kJ/mol
# GULP energy per Si atom -5581.628517 kJ/mol
# Density = 2.391882 g / cm^3
# Si number density = 23.973383 Si / 1000 Ang^3
#
#
#
# Elastic Constant Matrix: (Units=GPa)
#
#
# Indices 1 2 3 4 5 6 
#
# 1 71.5787 21.6778 4.1024 2.5240 2.3012 20.1332
# 2 21.6778 48.2163 18.6525 5.1514 -4.2803 26.3081
# 3 4.1024 18.6525 80.7828 0.5385 -6.0373 19.4467
# 4 2.5240 5.1514 0.5385 23.4978 2.4476 2.7596
# 5 2.3012 -4.2803 -6.0373 2.4476 40.0727 -2.2854
# 6 20.1332 26.3081 19.4467 2.7596 -2.2854 39.0320
#
#
#
# Elastic Compliance Matrix: (Units=1/GPa)
#
#
# Indices 1 2 3 4 5 6 
#
# 1 0.017272 -0.005072 0.001724 0.000147 -0.001651 -0.006457
# 2 -0.005072 0.035527 -0.003059 -0.005207 0.002844 -0.019271
# 3 0.001724 -0.003059 0.014552 0.000719 0.001378 -0.006047
# 4 0.000147 -0.005207 0.000719 0.044021 -0.003158 -0.000222
# 5 -0.001651 0.002844 0.001378 -0.003158 0.025753 -0.000021
# 6 -0.006457 -0.019271 -0.006047 -0.000222 -0.000021 0.044967
#
#
# Mechanical properties :
#
#
# Convention : Reuss Voigt Hill
#
# Bulk Modulus (GPa) = 18.33640 32.16035 25.24837
# Shear Modulus (GPa) = 23.46500 30.93019 27.19760
#
# Velocity S-wave (km/s) = 3.13196 3.59582 3.37188
# Velocity P-wave (km/s) = 4.55458 5.53932 5.07091
#
# Compressibility (1/GPa) = 0.05453634
#
# Stress axis : x y z
#
# Youngs Moduli (GPa) = 57.89803 28.14766 68.72079
#
# Poissons Ratio (x) = 0.14275 -0.11846
# Poissons Ratio (y) = 0.29363 0.21023
# Poissons Ratio (z) = -0.09981 0.08611
#
# Static dielectric constant tensor:
#      x y z
#    x 1.946000 0.010550 0.001690 
#    y 0.010550 2.017320 -0.066840 
#    z 0.001690 -0.066840 2.015260 
# 
# From -- ./inp_files/174189.got.cif
#   From: 2010.05.17/outbox.cif.g08.bks.cpg/sg2_88_cif.got.tgz:174189.got - 2010.06.03 11:33:40.
