data_PCOD9027954
_publ_section_title
;
Structure prediction by ZEFSAII (Michael W. Deem and Ramdas Pophale) SiO2 
 PCOD9027954
Probable space group: P -1
;
_chemical_formula_sum "Si O2"
_cell_formula_units_Z 14
_cell_length_a 14.364496
_cell_length_b 8.719117
_cell_length_c 5.229756
_cell_angle_alpha 92.938924
_cell_angle_beta 92.467206
_cell_angle_gamma 58.000214
_cell_volume 554.648583
_symmetry_space_group_name_H-M "P -1"
_symmetry_group_IT_number 2
_symmetry_cell_setting 'triclinic'
loop_
_space_group_symop_operation_xyz
x,y,z
-x,-y,-z
loop_
_atom_site_type_symbol
_atom_site_label
_atom_site_fract_x
_atom_site_fract_y
_atom_site_fract_z
Si Si1 0.743228 0.728691 0.004882
Si Si2 0.273906 0.522048 0.404256
Si Si3 0.121737 0.903088 0.625410
Si Si4 0.047188 0.539856 0.757007
Si Si5 0.437196 0.613553 0.248547
Si Si6 0.861790 0.927312 0.837062
Si Si7 0.459391 0.169807 0.694910
O O1 0.823970 0.611356 0.236065
O O2 0.615252 0.830524 0.080660
O O3 0.769675 0.571335 0.793613
O O4 0.784253 0.855100 0.913236
O O5 0.185745 0.688052 0.577153
O O6 0.325890 0.613521 0.245917
O O7 0.370716 0.355661 0.557331
O O8 0.175066 0.978126 0.435651
O O9 0.000000 0.000000 0.500000
O O10 0.131019 0.958800 0.917966
O O11 0.000000 0.500000 0.500000
O O12 0.986145 0.755274 0.797404
O O13 0.000000 0.500000 0.000000
O O14 0.500000 0.500000 0.500000
O O15 0.442980 0.793043 0.241526
O O16 0.500000 0.500000 0.000000
O O17 0.500000 0.000000 0.500000
#
# Coordination Sequence:
#
# PCOD9027954 Si02
#       7
#     2   2   2   2   2   2   2
#     4  11  25  44  76 110 147 196 254 310 379 439
#     4  11  27  46  76 106 151 202 246 310 381 451
#     4  12  28  48  74 109 153 195 246 299 370 457
#     4  10  22  41  70 105 152 190 236 301 368 433
#     4  10  22  48  70 104 143 192 242 305 374 433
#     4  11  26  45  72 111 147 194 245 304 359 444
#     4  11  27  47  76 109 147 195 259 321 374 447
#
# _framework density 25.241209999999999
#
# number of rings (size 3 to 8) (size 9 to 14) (size 15 to 20)
#    0.000    1.143    1.429    3.000   12.000    0.571 
#    2.571    0.000    0.000    0.000    0.000    0.000 
#    0.000    0.000    0.000    0.000    0.000    0.000 
#
# Total GULP energy -78352.905915 kJ/mol
# GULP energy per Si atom -5596.636137 kJ/mol
# Density = 2.518376 g / cm^3
# Si number density = 25.241210 Si / 1000 Ang^3
#
#
#
# Elastic Constant Matrix: (Units=GPa)
#
#
# Indices 1 2 3 4 5 6 
#
# 1 136.2666 38.9162 22.7765 18.0752 -18.5244 19.1616
# 2 38.9162 153.6583 34.6389 32.3657 -7.2559 -3.9759
# 3 22.7765 34.6389 137.2809 28.8168 0.0415 3.9161
# 4 18.0752 32.3657 28.8168 62.4227 5.6936 4.5600
# 5 -18.5244 -7.2559 0.0415 5.6936 52.6390 0.4116
# 6 19.1616 -3.9759 3.9161 4.5600 0.4116 46.1176
#
#
#
# Elastic Compliance Matrix: (Units=1/GPa)
#
#
# Indices 1 2 3 4 5 6 
#
# 1 0.009109 -0.001813 -0.000652 -0.001407 0.003138 -0.003775
# 2 -0.001813 0.007998 -0.001070 -0.003337 0.000812 0.001856
# 3 -0.000652 -0.001070 0.008314 -0.003074 -0.000049 -0.000223
# 4 -0.001407 -0.003337 -0.003074 0.019961 -0.003101 -0.001388
# 5 0.003138 0.000812 -0.000049 -0.003101 0.020558 -0.001107
# 6 -0.003775 0.001856 -0.000223 -0.001388 -0.001107 0.023578
#
#
# Mechanical properties :
#
#
# Convention : Reuss Voigt Hill
#
# Bulk Modulus (GPa) = 54.49120 68.87433 61.68276
# Shear Modulus (GPa) = 48.68333 54.29415 51.48874
#
# Velocity S-wave (km/s) = 4.39649 4.64293 4.52139
# Velocity P-wave (km/s) = 6.88529 7.48920 7.19358
#
# Compressibility (1/GPa) = 0.01835159
#
# Stress axis : x y z
#
# Youngs Moduli (GPa) = 109.77703 125.03610 120.27881
#
# Poissons Ratio (x) = 0.22672 0.07839
# Poissons Ratio (y) = 0.19905 0.12867
# Poissons Ratio (z) = 0.07154 0.13376
#
# Static dielectric constant tensor:
#      x y z
#    x 2.151980 -0.008530 -0.018750 
#    y -0.008530 2.001850 -0.090230 
#    z -0.018750 -0.090230 1.983690 
# 
# From -- ./inp_files/88935.got.cif
#   From: 2010.05.17/outbox.cif.g08.bks.cpg/sg2_45_cif.got.tgz:88935.got - 2010.06.03 11:33:40.
