data_PCOD9027844
_publ_section_title
;
Structure prediction by ZEFSAII (Michael W. Deem and Ramdas Pophale) SiO2 
 PCOD9027844
Probable space group: P -1
;
_chemical_formula_sum "Si O2"
_cell_formula_units_Z 13
_cell_length_a 11.284059
_cell_length_b 11.010360
_cell_length_c 13.438029
_cell_angle_alpha 116.310962
_cell_angle_beta 148.668189
_cell_angle_gamma 85.470935
_cell_volume 596.121242
_symmetry_space_group_name_H-M "P -1"
_symmetry_group_IT_number 2
_symmetry_cell_setting 'triclinic'
loop_
_space_group_symop_operation_xyz
x,y,z
-x,-y,-z
loop_
_atom_site_type_symbol
_atom_site_label
_atom_site_fract_x
_atom_site_fract_y
_atom_site_fract_z
Si Si1 0.641087 0.643414 0.739570
Si Si2 0.930632 0.668557 0.523233
Si Si3 0.082716 0.029995 0.453556
Si Si4 0.791990 0.301537 0.467687
Si Si5 0.000000 0.000000 0.000000
Si Si6 0.653292 0.089515 0.921409
Si Si7 0.252791 0.360966 0.978420
O O1 0.500000 0.500000 0.500000
O O2 0.376597 0.629870 0.593549
O O3 0.869123 0.836722 0.925680
O O4 0.770345 0.605476 0.910349
O O5 0.939540 0.829616 0.554489
O O6 0.070095 0.639853 0.521323
O O7 0.587959 0.502576 0.233457
O O8 0.126641 0.741601 0.789793
O O9 0.414782 0.097787 0.701831
O O10 0.000000 0.000000 0.500000
O O11 0.857514 0.836750 0.173735
O O12 0.040277 0.358187 0.748531
O O13 0.555248 0.087695 0.224949
O O14 0.829580 0.058510 0.962383
#
# Coordination Sequence:
#
# PCOD9027844 Si02
#       7
#     2   2   2   2   1   2   2
#     4  11  25  45  65  93 130 176 225 271 328 387
#     4  12  23  41  68 101 136 171 219 272 340 391
#     4  11  23  41  67  97 137 172 214 269 336 389
#     4  10  23  41  66  96 138 168 217 279 327 396
#     4  10  22  46  66  90 130 174 226 264 320 388
#     4  10  22  41  69  97 131 181 221 273 326 393
#     4  11  25  42  65 102 131 170 220 273 327 402
#
# _framework density 21.807645000000001
#
# number of rings (size 3 to 8) (size 9 to 14) (size 15 to 20)
#    0.000    1.231    3.077    3.692    2.154    3.692 
#    0.000   13.846    0.000    0.000    0.000    0.000 
#    0.000    0.000    0.000    0.000    0.000    0.000 
#
# Total GULP energy -72506.015318 kJ/mol
# GULP energy per Si atom -5577.385794 kJ/mol
# Density = 2.175801 g / cm^3
# Si number density = 21.807645 Si / 1000 Ang^3
#
#
#
# Elastic Constant Matrix: (Units=GPa)
#
#
# Indices 1 2 3 4 5 6 
#
# 1 150.7407 5.9928 57.7656 3.7773 6.8128 9.4110
# 2 5.9928 -22.8205 22.5493 36.1838 0.2062 5.9393
# 3 57.7656 22.5493 140.1790 -0.9291 -0.2624 8.2331
# 4 3.7773 36.1838 -0.9291 -0.3116 6.5071 2.8007
# 5 6.8128 0.2062 -0.2624 6.5071 32.6999 9.9347
# 6 9.4110 5.9393 8.2331 2.8007 9.9347 39.4821
#
#
#
# Elastic Compliance Matrix: (Units=1/GPa)
#
#
# Indices 1 2 3 4 5 6 
#
# 1 0.007970 -0.000573 -0.003145 0.000419 -0.001521 -0.000805
# 2 -0.000573 0.001333 0.000248 0.028579 -0.005331 -0.000802
# 3 -0.003145 0.000248 0.008437 -0.004389 0.001969 -0.001231
# 4 0.000419 0.028579 -0.004389 0.021394 -0.003292 -0.004173
# 5 -0.001521 -0.005331 0.001969 -0.003292 0.033894 -0.007541
# 6 -0.000805 -0.000802 -0.001231 -0.004173 -0.007541 0.028091
#
#
# Mechanical properties :
#
#
# Convention : Reuss Voigt Hill
#
# Bulk Modulus (GPa) = 92.59240 48.96832 70.78036
# Shear Modulus (GPa) = 44.77927 26.49351 35.63639
#
# Velocity S-wave (km/s) = 4.53633 3.48928 4.04682
# Velocity P-wave (km/s) = 8.36592 6.22390 7.37311
#
# Compressibility (1/GPa) = 0.01080002
#
# Stress axis : x y z
#
# Youngs Moduli (GPa) = 125.46396 750.18778 118.52960
#
# Poissons Ratio (x) = 0.43012 0.37278
# Poissons Ratio (y) = 0.07193 -0.02944
# Poissons Ratio (z) = 0.39459 -0.18632
#
# Static dielectric constant tensor:
#      x y z
#    x 1.781190 0.014200 -0.034950 
#    y 0.014200 1.844110 -0.024210 
#    z -0.034950 -0.024210 1.816890 
# 
# From -- ./inp_files/392930.got.cif
#   From: 2010.05.17/outbox.cif.g08.bks.cpg/sg2_197_cif.got.tgz:392930.got - 2010.06.03 11:33:40.
