data_PCOD9027543
_publ_section_title
;
Structure prediction by ZEFSAII (Michael W. Deem and Ramdas Pophale) SiO2 
 PCOD9027543
Probable space group: P -1
;
_chemical_formula_sum "Si O2"
_cell_formula_units_Z 16
_cell_length_a 10.381699
_cell_length_b 11.708114
_cell_length_c 10.197534
_cell_angle_alpha 122.593820
_cell_angle_beta 46.506171
_cell_angle_gamma 129.745951
_cell_volume 680.495323
_symmetry_space_group_name_H-M "P -1"
_symmetry_group_IT_number 2
_symmetry_cell_setting 'triclinic'
loop_
_space_group_symop_operation_xyz
x,y,z
-x,-y,-z
loop_
_atom_site_type_symbol
_atom_site_label
_atom_site_fract_x
_atom_site_fract_y
_atom_site_fract_z
Si Si1 0.824942 0.250519 0.041357
Si Si2 0.229006 0.983777 0.569527
Si Si3 0.550844 0.732315 0.572401
Si Si4 0.777167 0.461460 0.677674
Si Si5 0.907416 0.422148 0.833018
Si Si6 0.293155 0.410130 0.427679
Si Si7 0.493384 0.146745 0.726358
Si Si8 0.873072 0.960731 0.928553
O O1 0.629117 0.227631 0.243684
O O2 0.997523 0.411474 0.065481
O O3 0.803386 0.289642 0.929350
O O4 0.871732 0.111230 0.958921
O O5 0.287523 0.137650 0.546462
O O6 0.341798 0.024169 0.655843
O O7 0.997806 0.905576 0.711068
O O8 0.333089 0.893430 0.369921
O O9 0.459669 0.572772 0.462380
O O10 0.645929 0.710375 0.626595
O O11 0.776978 0.443028 0.821728
O O12 0.721171 0.576486 0.709873
O O13 0.613747 0.296228 0.650018
O O14 0.000000 0.500000 0.500000
O O15 0.089714 0.397850 0.627629
O O16 0.349517 0.149072 0.942494
O O17 0.000000 0.000000 0.000000
#
# Coordination Sequence:
#
# PCOD9027543 Si02
#       8
#     2   2   2   2   2   2   2   2
#     4  10  19  37  57  86 116 148 203 242 293 345
#     4  10  19  33  62  86 118 152 194 246 288 343
#     4  10  17  31  58  84 114 150 191 244 289 335
#     4  10  20  37  61  83 120 156 194 242 303 352
#     4   9  20  35  60  82 115 158 189 248 294 348
#     4   9  18  31  55  85 112 150 195 237 289 350
#     4  10  20  36  57  88 117 154 196 241 294 352
#     4  10  21  34  59  89 118 149 195 250 290 344
#
# _framework density 23.512283
#
# number of rings (size 3 to 8) (size 9 to 14) (size 15 to 20)
#    0.000    2.250    2.500    0.750    0.000    1.000 
#    0.000    1.250    5.500    3.750    0.000    0.000 
#    0.000    0.000    0.000    0.000    0.000    0.000 
#
# Total GULP energy -89308.119002 kJ/mol
# GULP energy per Si atom -5581.757438 kJ/mol
# Density = 2.345877 g / cm^3
# Si number density = 23.512283 Si / 1000 Ang^3
#
#
#
# Elastic Constant Matrix: (Units=GPa)
#
#
# Indices 1 2 3 4 5 6 
#
# 1 110.0010 25.1942 26.4525 -1.0000 4.7665 -32.3299
# 2 25.1942 83.6187 45.1827 -18.5746 -16.0423 -19.3083
# 3 26.4525 45.1827 101.0861 -21.2950 -24.8039 -3.9046
# 4 -1.0000 -18.5746 -21.2950 32.5722 -1.1703 -0.8344
# 5 4.7665 -16.0423 -24.8039 -1.1703 36.1933 -7.0978
# 6 -32.3299 -19.3083 -3.9046 -0.8344 -7.0978 38.8157
#
#
#
# Elastic Compliance Matrix: (Units=1/GPa)
#
#
# Indices 1 2 3 4 5 6 
#
# 1 0.013143 -0.000702 -0.004011 -0.002481 -0.002990 0.009594
# 2 -0.000702 0.021082 -0.004635 0.009574 0.008776 0.011247
# 3 -0.004011 -0.004635 0.017341 0.008893 0.010287 -0.001830
# 4 -0.002481 0.009574 0.008893 0.042559 0.013406 0.006957
# 5 -0.002990 0.008776 0.010287 0.013406 0.041512 0.010789
# 6 0.009594 0.011247 -0.001830 0.006957 0.010789 0.041287
#
#
# Mechanical properties :
#
#
# Convention : Reuss Voigt Hill
#
# Bulk Modulus (GPa) = 30.42260 54.26273 42.34267
# Shear Modulus (GPa) = 24.20418 34.70798 29.45608
#
# Velocity S-wave (km/s) = 3.21195 3.84626 3.54332
# Velocity P-wave (km/s) = 5.16939 6.54626 5.89814
#
# Compressibility (1/GPa) = 0.03287030
#
# Stress axis : x y z
#
# Youngs Moduli (GPa) = 76.08647 47.43328 57.66753
#
# Poissons Ratio (x) = 0.03329 0.23131
# Poissons Ratio (y) = 0.05339 0.26729
# Poissons Ratio (z) = 0.30520 0.21985
#
# Static dielectric constant tensor:
#      x y z
#    x 1.925280 0.043630 0.035390 
#    y 0.043630 1.930000 0.002330 
#    z 0.035390 0.002330 1.928900 
# 
# From -- ./inp_files/387999.got.cif
#   From: 2010.05.17/outbox.cif.g08.bks.cpg/sg2_194_cif.got.tgz:387999.got - 2010.06.03 11:33:40.
