data_PCOD9027292
_publ_section_title
;
Structure prediction by ZEFSAII (Michael W. Deem and Ramdas Pophale) SiO2 
 PCOD9027292
Probable space group: P -1
;
_chemical_formula_sum "Si O2"
_cell_formula_units_Z 14
_cell_length_a 8.703571
_cell_length_b 6.208117
_cell_length_c 11.915888
_cell_angle_alpha 75.145352
_cell_angle_beta 77.657554
_cell_angle_gamma 102.536400
_cell_volume 582.204434
_symmetry_space_group_name_H-M "P -1"
_symmetry_group_IT_number 2
_symmetry_cell_setting 'triclinic'
loop_
_space_group_symop_operation_xyz
x,y,z
-x,-y,-z
loop_
_atom_site_type_symbol
_atom_site_label
_atom_site_fract_x
_atom_site_fract_y
_atom_site_fract_z
Si Si1 0.659806 0.415393 0.998369
Si Si2 0.236976 0.723876 0.384365
Si Si3 0.974043 0.977235 0.375324
Si Si4 0.127550 0.235625 0.897069
Si Si5 0.316970 0.905239 0.585013
Si Si6 0.081750 0.489759 0.242669
Si Si7 0.600737 0.982313 0.210473
O O1 0.790501 0.585010 0.040221
O O2 0.600387 0.151937 0.085625
O O3 0.500000 0.500000 0.000000
O O4 0.753410 0.425874 0.865822
O O5 0.234254 0.729179 0.520049
O O6 0.140213 0.495411 0.363132
O O7 0.422468 0.821720 0.298392
O O8 0.123513 0.878865 0.333317
O O9 0.774773 0.891662 0.415287
O O10 0.999705 0.217263 0.272380
O O11 0.000000 0.000000 0.500000
O O12 0.034858 0.362129 0.806879
O O13 0.272684 0.160325 0.822256
O O14 0.000000 0.000000 0.000000
O O15 0.337892 0.839899 0.718001
O O16 0.500000 0.000000 0.500000
#
# Coordination Sequence:
#
# PCOD9027292 Si02
#       7
#     2   2   2   2   2   2   2
#     4  12  27  43  69 103 138 185 238 284 349 418
#     4  10  23  42  70 103 136 185 228 288 349 411
#     4  10  22  41  67  94 135 175 228 284 343 402
#     4  12  27  43  68 102 141 188 230 285 353 408
#     4   9  20  40  66  95 130 177 226 276 342 406
#     4  12  25  41  71 102 139 178 238 281 352 420
#     4  11  23  44  69  98 145 184 230 288 345 412
#
# _framework density 24.046536
#
# number of rings (size 3 to 8) (size 9 to 14) (size 15 to 20)
#    0.000    1.143    1.429    3.857    6.000    3.429 
#    0.000    4.286    0.000   21.429    0.000    0.000 
#    0.000    0.000    0.000    0.000    0.000    0.000 
#
# Total GULP energy -78086.861569 kJ/mol
# GULP energy per Si atom -5577.632969 kJ/mol
# Density = 2.399180 g / cm^3
# Si number density = 24.046536 Si / 1000 Ang^3
#
#
#
# Elastic Constant Matrix: (Units=GPa)
#
#
# Indices 1 2 3 4 5 6 
#
# 1 156.0840 24.7844 21.3214 3.4340 -21.5330 -21.3057
# 2 24.7844 53.3729 21.0247 -6.7990 0.0132 -9.4866
# 3 21.3214 21.0247 71.9253 8.5157 6.0855 -2.1091
# 4 3.4340 -6.7990 8.5157 42.2359 6.3953 8.9348
# 5 -21.5330 0.0132 6.0855 6.3953 50.3698 13.3200
# 6 -21.3057 -9.4866 -2.1091 8.9348 13.3200 54.5460
#
#
#
# Elastic Compliance Matrix: (Units=1/GPa)
#
#
# Indices 1 2 3 4 5 6 
#
# 1 0.007825 -0.002918 -0.001477 -0.001715 0.003217 0.001987
# 2 -0.002918 0.023699 -0.006455 0.005126 -0.001737 0.002317
# 3 -0.001477 -0.006455 0.016895 -0.004024 -0.002200 0.000150
# 4 -0.001715 0.005126 -0.004024 0.026627 -0.002665 -0.003645
# 5 0.003217 -0.001737 -0.002200 -0.002665 0.022971 -0.004304
# 6 0.001987 0.002317 0.000150 -0.003645 -0.004304 0.021166
#
#
# Mechanical properties :
#
#
# Convention : Reuss Voigt Hill
#
# Bulk Modulus (GPa) = 37.42632 46.18260 41.80446
# Shear Modulus (GPa) = 33.38041 43.71379 38.54710
#
# Velocity S-wave (km/s) = 3.72984 4.26829 4.00812
# Velocity P-wave (km/s) = 5.84353 6.59835 6.23238
#
# Compressibility (1/GPa) = 0.02671916
#
# Stress axis : x y z
#
# Youngs Moduli (GPa) = 127.80097 42.19620 59.18912
#
# Poissons Ratio (x) = 0.12311 0.08745
# Poissons Ratio (y) = 0.37287 0.38204
# Poissons Ratio (z) = 0.18882 0.27236
#
# Static dielectric constant tensor:
#      x y z
#    x 2.006520 -0.016080 -0.019530 
#    y -0.016080 2.065440 0.090640 
#    z -0.019530 0.090640 1.917950 
# 
# From -- ./inp_files/48323.got.cif
#   From: 2010.05.17/outbox.cif.g08.bks.cpg/sg2_25_cif.got.tgz:48323.got - 2010.06.03 11:33:40.
