data_PCOD9027026
_publ_section_title
;
Structure prediction by ZEFSAII (Michael W. Deem and Ramdas Pophale) SiO2 
 PCOD9027026
Probable space group: P -1
;
_chemical_formula_sum "Si O2"
_cell_formula_units_Z 16
_cell_length_a 5.202955
_cell_length_b 13.627270
_cell_length_c 17.253149
_cell_angle_alpha 147.594212
_cell_angle_beta 71.400223
_cell_angle_gamma 102.989847
_cell_volume 618.941873
_symmetry_space_group_name_H-M "P -1"
_symmetry_group_IT_number 2
_symmetry_cell_setting 'triclinic'
loop_
_space_group_symop_operation_xyz
x,y,z
-x,-y,-z
loop_
_atom_site_type_symbol
_atom_site_label
_atom_site_fract_x
_atom_site_fract_y
_atom_site_fract_z
Si Si1 0.486628 0.613946 0.223876
Si Si2 0.193771 0.959128 0.525227
Si Si3 0.036667 0.715719 0.648355
Si Si4 0.381211 0.158636 0.356547
Si Si5 0.123649 0.288413 0.863840
Si Si6 0.681845 0.790401 0.052299
Si Si7 0.199700 0.301777 0.180417
Si Si8 0.289972 0.449834 0.687561
O O1 0.251197 0.737718 0.375312
O O2 0.568501 0.692196 0.185397
O O3 0.735968 0.598498 0.251285
O O4 0.418535 0.409849 0.078496
O O5 0.500000 0.000000 0.500000
O O6 0.077656 0.100243 0.696346
O O7 0.000000 0.000000 0.500000
O O8 0.878345 0.805418 0.649667
O O9 0.890611 0.780519 0.785279
O O10 0.000000 0.500000 0.500000
O O11 0.352239 0.752316 0.644129
O O12 0.341257 0.260319 0.509815
O O13 0.473576 0.945511 0.210778
O O14 0.086824 0.240107 0.925079
O O15 0.000000 0.500000 0.000000
O O16 0.735591 0.839522 0.990755
O O17 0.450576 0.425673 0.255693
O O18 0.947271 0.430008 0.254096
#
# Coordination Sequence:
#
# PCOD9027026 Si02
#       8
#     2   2   2   2   2   2   2   2
#     4  10  23  43  68  94 140 187 229 276 335 406
#     4  10  22  41  66  95 123 172 232 274 322 389
#     4  12  23  45  74 103 130 178 230 278 346 420
#     4  12  25  42  72 103 137 172 227 288 341 409
#     4  11  22  42  70 101 140 186 233 283 337 399
#     4  11  26  43  63 104 141 180 225 288 348 394
#     4  11  24  42  69  96 136 174 221 277 341 412
#     4  11  21  41  66 100 130 174 226 278 329 397
#
# _framework density 25.850569
#
# number of rings (size 3 to 8) (size 9 to 14) (size 15 to 20)
#    0.000    1.000    2.500    3.750    0.000    8.000 
#    0.000    7.500    0.000    0.000    0.000    0.000 
#    0.000    0.000    0.000    0.000    0.000    0.000 
#
# Total GULP energy -89500.090962 kJ/mol
# GULP energy per Si atom -5593.755685 kJ/mol
# Density = 2.579173 g / cm^3
# Si number density = 25.850569 Si / 1000 Ang^3
#
#
#
# Elastic Constant Matrix: (Units=GPa)
#
#
# Indices 1 2 3 4 5 6 
#
# 1 100.0562 11.2419 35.0832 -2.2091 2.6783 -12.1056
# 2 11.2419 65.6137 22.9724 -20.1767 12.1030 -6.4228
# 3 35.0832 22.9724 199.5610 -1.4300 7.3340 -15.2983
# 4 -2.2091 -20.1767 -1.4300 59.8735 -7.8417 -1.0371
# 5 2.6783 12.1030 7.3340 -7.8417 38.9194 -3.5704
# 6 -12.1056 -6.4228 -15.2983 -1.0371 -3.5704 50.6053
#
#
#
# Elastic Compliance Matrix: (Units=1/GPa)
#
#
# Indices 1 2 3 4 5 6 
#
# 1 0.010934 -0.001109 -0.001646 0.000037 0.000092 0.001985
# 2 -0.001109 0.018662 -0.001651 0.005691 -0.004138 0.001429
# 3 -0.001646 -0.001651 0.005583 -0.000523 -0.000435 0.001043
# 4 0.000037 0.005691 -0.000523 0.018922 0.002241 0.001119
# 5 0.000092 -0.004138 -0.000435 0.002241 0.027633 0.001361
# 6 0.001985 0.001429 0.001043 0.001119 0.001361 0.020851
#
#
# Mechanical properties :
#
#
# Convention : Reuss Voigt Hill
#
# Bulk Modulus (GPa) = 37.92382 55.98063 46.95223
# Shear Modulus (GPa) = 41.60260 49.60853 45.60557
#
# Velocity S-wave (km/s) = 4.01602 4.38545 4.20479
# Velocity P-wave (km/s) = 6.01721 6.88080 6.46344
#
# Compressibility (1/GPa) = 0.02636865
#
# Stress axis : x y z
#
# Youngs Moduli (GPa) = 91.45410 53.58475 179.12941
#
# Poissons Ratio (x) = 0.05940 0.29478
# Poissons Ratio (y) = 0.10138 0.29574
# Poissons Ratio (z) = 0.15050 0.08847
#
# Static dielectric constant tensor:
#      x y z
#    x 2.146920 0.055210 0.029140 
#    y 0.055210 2.126040 -0.001170 
#    z 0.029140 -0.001170 2.112600 
# 
# From -- ./inp_files/138800.got.cif
#   From: 2010.05.17/outbox.cif.g08.bks.cpg/sg2_70_cif.got.tgz:138800.got - 2010.06.03 11:33:40.
