data_PCOD9027614
_publ_section_title
;
Structure prediction by ZEFSAII (Michael W. Deem and Ramdas Pophale) SiO2 
 PCOD9027614
Probable space group: P -1
;
_chemical_formula_sum "Si O2"
_cell_formula_units_Z 10
_cell_length_a 13.710164
_cell_length_b 9.684617
_cell_length_c 17.259120
_cell_angle_alpha 31.931792
_cell_angle_beta 23.353455
_cell_angle_gamma 27.000722
_cell_volume 406.384275
_symmetry_space_group_name_H-M "P -1"
_symmetry_group_IT_number 2
_symmetry_cell_setting 'triclinic'
loop_
_space_group_symop_operation_xyz
x,y,z
-x,-y,-z
loop_
_atom_site_type_symbol
_atom_site_label
_atom_site_fract_x
_atom_site_fract_y
_atom_site_fract_z
Si Si1 0.696386 0.326375 0.066470
Si Si2 0.866247 0.038375 0.495673
Si Si3 0.313598 0.854470 0.679919
Si Si4 0.184654 0.465393 0.270501
Si Si5 0.234489 0.515867 0.768598
O O1 0.654645 0.375868 0.164846
O O2 0.439699 0.306794 0.222772
O O3 0.721189 0.547694 0.881997
O O4 0.000000 0.000000 0.000000
O O5 0.515471 0.201944 0.682874
O O6 0.916547 0.262369 0.299772
O O7 0.982185 0.712912 0.523935
O O8 0.000000 0.000000 0.500000
O O9 0.371680 0.674604 0.643867
O O10 0.500000 0.000000 0.500000
O O11 0.996702 0.169816 0.753569
O O12 0.000000 0.500000 0.000000
#
# Coordination Sequence:
#
# PCOD9027614 Si02
#       5
#     2   2   2   2   2
#     4   9  21  37  65  94 128 166 220 277 331 385
#     4  11  26  47  69  97 143 185 223 281 349 411
#     4  11  23  42  67  99 135 175 223 284 341 401
#     4  10  22  41  68  97 127 173 231 272 328 410
#     4  11  28  45  68 102 144 178 228 286 346 408
#
# _framework density 24.607251000000002
#
# number of rings (size 3 to 8) (size 9 to 14) (size 15 to 20)
#    0.000    1.600    0.000    2.400   11.200    8.800 
#    0.000    0.000    0.000    0.000    0.000    0.000 
#    0.000    0.000    0.000    0.000    0.000    0.000 
#
# Total GULP energy -55903.254989 kJ/mol
# GULP energy per Si atom -5590.325499 kJ/mol
# Density = 2.455124 g / cm^3
# Si number density = 24.607251 Si / 1000 Ang^3
#
#
#
# Elastic Constant Matrix: (Units=GPa)
#
#
# Indices 1 2 3 4 5 6 
#
# 1 135.6903 42.2715 9.0000 -9.3825 19.7031 -36.5649
# 2 42.2715 91.9094 20.6879 -10.8944 9.4133 -8.9365
# 3 9.0000 20.6879 85.7273 -2.2408 19.3162 -15.4635
# 4 -9.3825 -10.8944 -2.2408 29.6451 -7.2888 3.2594
# 5 19.7031 9.4133 19.3162 -7.2888 43.1429 -7.8033
# 6 -36.5649 -8.9365 -15.4635 3.2594 -7.8033 41.2613
#
#
#
# Elastic Compliance Matrix: (Units=1/GPa)
#
#
# Indices 1 2 3 4 5 6 
#
# 1 0.011809 -0.004638 0.002462 0.000248 -0.003693 0.009665
# 2 -0.004638 0.013910 -0.003406 0.003862 0.000803 -0.002527
# 3 0.002462 -0.003406 0.014631 -0.001520 -0.006123 0.005889
# 4 0.000248 0.003862 -0.001520 0.036658 0.005676 -0.001335
# 5 -0.003693 0.000803 -0.006123 0.005676 0.028302 -0.000490
# 6 0.009665 -0.002527 0.005889 -0.001335 -0.000490 0.034473
#
#
# Mechanical properties :
#
#
# Convention : Reuss Voigt Hill
#
# Bulk Modulus (GPa) = 34.26394 50.80507 42.53451
# Shear Modulus (GPa) = 31.11862 38.90102 35.00982
#
# Velocity S-wave (km/s) = 3.56000 3.98034 3.77602
# Velocity P-wave (km/s) = 5.55452 6.46648 6.02777
#
# Compressibility (1/GPa) = 0.02918520
#
# Stress axis : x y z
#
# Youngs Moduli (GPa) = 84.67929 71.89190 68.35012
#
# Poissons Ratio (x) = 0.33343 -0.16824
# Poissons Ratio (y) = 0.39274 0.23278
# Poissons Ratio (z) = -0.20844 0.24484
#
# Static dielectric constant tensor:
#      x y z
#    x 1.912680 -0.014140 0.002690 
#    y -0.014140 1.946490 0.032350 
#    z 0.002690 0.032350 2.072990 
# 
# From -- ./inp_files/17370.got.cif
#   From: 2010.05.17/outbox.cif.g08.bks.cpg/sg2_9_cif.got.tgz:17370.got - 2010.06.03 11:33:40.
