data_PCOD9027208
_publ_section_title
;
Structure prediction by ZEFSAII (Michael W. Deem and Ramdas Pophale) SiO2 
 PCOD9027208
Probable space group: P -1
;
_chemical_formula_sum "Si O2"
_cell_formula_units_Z 16
_cell_length_a 17.224983
_cell_length_b 5.546940
_cell_length_c 22.468295
_cell_angle_alpha 53.527752
_cell_angle_beta 155.749229
_cell_angle_gamma 127.749644
_cell_volume 692.829631
_symmetry_space_group_name_H-M "P -1"
_symmetry_group_IT_number 2
_symmetry_cell_setting 'triclinic'
loop_
_space_group_symop_operation_xyz
x,y,z
-x,-y,-z
loop_
_atom_site_type_symbol
_atom_site_label
_atom_site_fract_x
_atom_site_fract_y
_atom_site_fract_z
Si Si1 0.612857 0.740745 0.091450
Si Si2 0.489845 0.336989 0.168024
Si Si3 0.772205 0.199161 0.484136
Si Si4 0.141315 0.686074 0.871164
Si Si5 0.848512 0.211039 0.008510
Si Si6 0.867344 0.638349 0.581472
Si Si7 0.457822 0.899065 0.553205
Si Si8 0.864801 0.857468 0.873538
O O1 0.638697 0.528068 0.196562
O O2 0.790502 0.954815 0.150894
O O3 0.500000 0.500000 0.000000
O O4 0.500000 0.000000 0.000000
O O5 0.597351 0.282757 0.311463
O O6 0.327585 0.538675 0.032381
O O7 0.358342 0.022268 0.096465
O O8 0.898327 0.506121 0.557513
O O9 0.687507 0.002797 0.513673
O O10 0.872601 0.995106 0.541207
O O11 0.056427 0.671379 0.879633
O O12 0.009777 0.549016 0.743737
O O13 0.006283 0.065149 0.106274
O O14 0.816264 0.492735 0.904353
O O15 0.648148 0.460291 0.469219
O O16 0.667359 0.967691 0.718542
O O17 0.500000 0.000000 0.500000
O O18 0.000000 0.000000 0.000000
#
# Coordination Sequence:
#
# PCOD9027208 Si02
#       8
#     2   2   2   2   2   2   2   2
#     4  10  22  41  67 107 132 166 220 283 338 391
#     4  11  23  43  72  95 133 174 226 278 337 398
#     4  10  24  44  64  93 132 178 218 268 335 396
#     4  11  24  42  69 100 132 172 226 278 334 402
#     4  11  23  36  70  88 136 162 227 274 333 380
#     4  10  26  43  64  94 136 174 220 268 338 395
#     4  10  24  40  60  86 134 171 225 262 331 387
#     4  11  24  40  58 100 125 173 223 278 323 394
#
# _framework density 23.093700999999999
#
# number of rings (size 3 to 8) (size 9 to 14) (size 15 to 20)
#    0.750    0.750    1.250    3.000    8.750    1.500 
#    0.000    1.250    0.000    0.000    0.000    0.000 
#    0.000    0.000    0.000    0.000    0.000    0.000 
#
# Total GULP energy -89222.278387 kJ/mol
# GULP energy per Si atom -5576.392399 kJ/mol
# Density = 2.304114 g / cm^3
# Si number density = 23.093701 Si / 1000 Ang^3
#
#
#
# Elastic Constant Matrix: (Units=GPa)
#
#
# Indices 1 2 3 4 5 6 
#
# 1 55.4811 9.3310 10.0634 -3.2803 -21.2668 -16.2464
# 2 9.3310 90.1506 23.1089 3.9817 -11.4667 -16.2641
# 3 10.0634 23.1089 109.2807 12.2361 -21.0519 -16.9473
# 4 -3.2803 3.9817 12.2361 29.9184 -4.5569 -10.8599
# 5 -21.2668 -11.4667 -21.0519 -4.5569 29.3381 0.1883
# 6 -16.2464 -16.2641 -16.9473 -10.8599 0.1883 48.0756
#
#
#
# Elastic Compliance Matrix: (Units=1/GPa)
#
#
# Indices 1 2 3 4 5 6 
#
# 1 0.033704 0.001702 0.003234 0.012324 0.029230 0.015775
# 2 0.001702 0.012727 -0.001212 0.001572 0.005552 0.004787
# 3 0.003234 -0.001212 0.011916 -0.001137 0.010214 0.004586
# 4 0.012324 0.001572 -0.001137 0.042361 0.015223 0.013805
# 5 0.029230 0.005552 0.010214 0.015223 0.067019 0.018533
# 6 0.015775 0.004787 0.004586 0.013805 0.018533 0.032414
#
#
# Mechanical properties :
#
#
# Convention : Reuss Voigt Hill
#
# Bulk Modulus (GPa) = 15.19897 37.76879 26.48388
# Shear Modulus (GPa) = 23.29649 35.62701 29.46175
#
# Velocity S-wave (km/s) = 3.17958 3.93200 3.57564
# Velocity P-wave (km/s) = 4.48055 6.08311 5.34227
#
# Compressibility (1/GPa) = 0.06579395
#
# Stress axis : x y z
#
# Youngs Moduli (GPa) = 29.67026 78.57016 83.92386
#
# Poissons Ratio (x) = -0.13374 -0.27138
# Poissons Ratio (y) = -0.05050 0.10174
# Poissons Ratio (z) = -0.09594 0.09525
#
# Static dielectric constant tensor:
#      x y z
#    x 1.781810 0.021420 -0.030550 
#    y 0.021420 1.890470 -0.015720 
#    z -0.030550 -0.015720 1.835900 
# 
# From -- ./inp_files/475876.got.cif
#   From: 2010.05.17/outbox.cif.g08.bks.cpg/sg2_238_cif.got.tgz:475876.got - 2010.06.03 11:33:40.
