data_PCOD9027913
_publ_section_title
;
Structure prediction by ZEFSAII (Michael W. Deem and Ramdas Pophale) SiO2 
 PCOD9027913
Probable space group: P -1
;
_chemical_formula_sum "Si O2"
_cell_formula_units_Z 16
_cell_length_a 9.341408
_cell_length_b 17.269470
_cell_length_c 8.631001
_cell_angle_alpha 125.226322
_cell_angle_beta 51.726907
_cell_angle_gamma 89.838787
_cell_volume 738.878179
_symmetry_space_group_name_H-M "P -1"
_symmetry_group_IT_number 2
_symmetry_cell_setting 'triclinic'
loop_
_space_group_symop_operation_xyz
x,y,z
-x,-y,-z
loop_
_atom_site_type_symbol
_atom_site_label
_atom_site_fract_x
_atom_site_fract_y
_atom_site_fract_z
Si Si1 0.898786 0.065210 0.302519
Si Si2 0.988993 0.223130 0.605250
Si Si3 0.380602 0.224934 0.217108
Si Si4 0.934282 0.514923 0.378969
Si Si5 0.743821 0.432513 0.823230
Si Si6 0.940545 0.312215 0.229038
Si Si7 0.152280 0.838753 0.060201
Si Si8 0.560558 0.875063 0.270921
O O1 0.983968 0.142347 0.385865
O O2 0.635122 0.136143 0.553987
O O3 0.981416 0.966587 0.262055
O O4 0.000000 0.000000 0.000000
O O5 0.789213 0.352034 0.844569
O O6 0.945594 0.184662 0.750931
O O7 0.211018 0.219539 0.436452
O O8 0.260490 0.356513 0.388968
O O9 0.614216 0.182098 0.084155
O O10 0.421632 0.147013 0.950317
O O11 0.878177 0.421023 0.290899
O O12 0.000000 0.500000 0.500000
O O13 0.152786 0.494300 0.127890
O O14 0.887894 0.349762 0.487003
O O15 0.500000 0.500000 0.000000
O O16 0.822091 0.251038 0.187807
O O17 0.201502 0.220148 0.931286
O O18 0.500000 0.000000 0.500000
#
# Coordination Sequence:
#
# PCOD9027913 Si02
#       8
#     2   2   2   2   2   2   2   2
#     4  12  26  44  71 102 138 187 245 291 346 427
#     4  11  24  44  67 100 143 181 235 288 359 420
#     4  11  24  46  69 101 145 185 231 295 357 415
#     4   9  19  40  68  96 130 182 232 282 341 414
#     4  10  22  41  70 101 132 181 243 289 343 418
#     4  11  23  44  69 103 140 182 244 285 350 424
#     4  12  27  45  67 107 144 184 230 296 364 416
#     4  12  22  42  73  98 142 184 235 293 344 419
#
# _framework density 21.654449
#
# number of rings (size 3 to 8) (size 9 to 14) (size 15 to 20)
#    0.000    1.000    6.250    1.875    5.250    2.000 
#    2.250    1.250    0.000    0.000    0.000    0.000 
#    0.000    0.000    0.000    0.000    0.000    0.000 
#
# Total GULP energy -89451.824394 kJ/mol
# GULP energy per Si atom -5590.739025 kJ/mol
# Density = 2.160516 g / cm^3
# Si number density = 21.654449 Si / 1000 Ang^3
#
#
#
# Elastic Constant Matrix: (Units=GPa)
#
#
# Indices 1 2 3 4 5 6 
#
# 1 83.6174 14.8420 13.7906 2.2376 -17.6841 12.0496
# 2 14.8420 119.7804 17.4706 0.8360 -11.5006 2.8175
# 3 13.7906 17.4706 70.9468 -0.7910 -30.0456 -5.4298
# 4 2.2376 0.8360 -0.7910 30.0506 4.8650 7.2216
# 5 -17.6841 -11.5006 -30.0456 4.8650 24.2918 3.5061
# 6 12.0496 2.8175 -5.4298 7.2216 3.5061 32.4214
#
#
#
# Elastic Compliance Matrix: (Units=1/GPa)
#
#
# Indices 1 2 3 4 5 6 
#
# 1 0.016249 -0.000708 0.004108 -0.002388 0.018021 -0.006706
# 2 -0.000708 0.008860 -0.000979 -0.000447 0.002682 -0.000861
# 3 0.004108 -0.000979 0.031714 -0.006565 0.042968 0.000685
# 4 -0.002388 -0.000447 -0.006565 0.037609 -0.016627 -0.006752
# 5 0.018021 0.002682 0.042968 -0.016627 0.113225 -0.008275
# 6 -0.006706 -0.000861 0.000685 -0.006752 -0.008275 0.035925
#
#
# Mechanical properties :
#
#
# Convention : Reuss Voigt Hill
#
# Bulk Modulus (GPa) = 16.21698 40.72790 28.47244
# Shear Modulus (GPa) = 19.28298 32.56885 25.92592
#
# Velocity S-wave (km/s) = 2.98734 3.88238 3.46389
# Velocity P-wave (km/s) = 4.40502 6.24068 5.40140
#
# Compressibility (1/GPa) = 0.06166377
#
# Stress axis : x y z
#
# Youngs Moduli (GPa) = 61.54251 112.86632 31.53188
#
# Poissons Ratio (x) = 0.07989 -0.12952
# Poissons Ratio (y) = 0.04356 0.03088
# Poissons Ratio (z) = -0.25280 0.11054
#
# Static dielectric constant tensor:
#      x y z
#    x 1.791780 0.063720 -0.001650 
#    y 0.063720 1.639040 0.090730 
#    z -0.001650 0.090730 1.742790 
# 
# From -- ./inp_files/218173.got.cif
#   From: 2010.05.17/outbox.cif.g08.bks.cpg/sg2_110_cif.got.tgz:218173.got - 2010.06.03 11:33:40.
