data_PCOD9027959
_publ_section_title
;
Structure prediction by ZEFSAII (Michael W. Deem and Ramdas Pophale) SiO2 
 PCOD9027959
Probable space group: P -1
;
_chemical_formula_sum "Si O2"
_cell_formula_units_Z 14
_cell_length_a 8.438659
_cell_length_b 15.605012
_cell_length_c 4.911414
_cell_angle_alpha 91.382011
_cell_angle_beta 99.103357
_cell_angle_gamma 51.534522
_cell_volume 497.710466
_symmetry_space_group_name_H-M "P -1"
_symmetry_group_IT_number 2
_symmetry_cell_setting 'triclinic'
loop_
_space_group_symop_operation_xyz
x,y,z
-x,-y,-z
loop_
_atom_site_type_symbol
_atom_site_label
_atom_site_fract_x
_atom_site_fract_y
_atom_site_fract_z
Si Si1 0.679860 0.185662 0.498678
Si Si2 0.328844 0.226067 0.012898
Si Si3 0.893202 0.879337 0.402929
Si Si4 0.189626 0.447642 0.841366
Si Si5 0.960526 0.333967 0.348545
Si Si6 0.326643 0.973195 0.158294
Si Si7 0.541910 0.404839 0.316622
O O1 0.519309 0.194793 0.251473
O O2 0.706868 0.112600 0.750363
O O3 0.581441 0.312070 0.523646
O O4 0.905554 0.133850 0.445674
O O5 0.138566 0.275233 0.167276
O O6 0.270336 0.324251 0.801938
O O7 0.437631 0.109682 0.887229
O O8 0.961905 0.756510 0.402127
O O9 0.724039 0.950879 0.593596
O O10 0.823962 0.946614 0.112905
O O11 0.110313 0.544045 0.607404
O O12 0.365705 0.435972 0.064636
O O13 0.000000 0.500000 0.000000
O O14 0.750580 0.356471 0.204626
O O15 0.500000 0.500000 0.500000
#
# Coordination Sequence:
#
# PCOD9027959 Si02
#       7
#     2   2   2   2   2   2   2
#     4  10  23  44  68 104 140 186 242 295 357 432
#     4  10  23  43  69 100 140 190 236 295 360 430
#     4  11  26  43  72 101 140 189 239 302 355 424
#     4   9  20  44  71 100 140 183 237 292 361 433
#     4  10  23  45  64 103 146 184 237 294 365 426
#     4  12  24  45  71 102 142 188 247 289 360 432
#     4  10  22  41  70 107 143 188 233 304 363 432
#
# _framework density 28.128803000000001
#
# number of rings (size 3 to 8) (size 9 to 14) (size 15 to 20)
#    0.000    1.714    1.429    1.286    4.000    3.429 
#    7.714    2.143    0.000    0.000    0.000    0.000 
#    0.000    0.000    0.000    0.000    0.000    0.000 
#
# Total GULP energy -78541.418450 kJ/mol
# GULP energy per Si atom -5610.101318 kJ/mol
# Density = 2.806478 g / cm^3
# Si number density = 28.128803 Si / 1000 Ang^3
#
#
#
# Elastic Constant Matrix: (Units=GPa)
#
#
# Indices 1 2 3 4 5 6 
#
# 1 166.3538 64.2765 43.0472 -14.4772 -0.5455 -22.6317
# 2 64.2765 207.5486 89.5622 -38.5074 -4.6362 32.9137
# 3 43.0472 89.5622 141.9462 -27.1856 2.2135 1.4248
# 4 -14.4772 -38.5074 -27.1856 69.8800 10.4714 -13.3590
# 5 -0.5455 -4.6362 2.2135 10.4714 40.8301 -10.5751
# 6 -22.6317 32.9137 1.4248 -13.3590 -10.5751 60.9936
#
#
#
# Elastic Compliance Matrix: (Units=1/GPa)
#
#
# Indices 1 2 3 4 5 6 
#
# 1 0.007969 -0.002849 -0.000557 0.000649 0.000891 0.004804
# 2 -0.002849 0.008665 -0.004233 0.001602 -0.000632 -0.005393
# 3 -0.000557 -0.004233 0.010284 0.002114 -0.001039 0.002120
# 4 0.000649 0.001602 0.002114 0.017171 -0.003694 0.002448
# 5 0.000891 -0.000632 -0.001039 -0.003694 0.026601 0.004499
# 6 0.004804 -0.005393 0.002120 0.002448 0.004499 0.022355
#
#
# Mechanical properties :
#
#
# Convention : Reuss Voigt Hill
#
# Bulk Modulus (GPa) = 85.89984 101.06895 93.48439
# Shear Modulus (GPa) = 44.56187 55.60494 50.08340
#
# Velocity S-wave (km/s) = 3.98453 4.45094 4.22418
# Velocity P-wave (km/s) = 7.19534 7.90084 7.55633
#
# Compressibility (1/GPa) = 0.01164147
#
# Stress axis : x y z
#
# Youngs Moduli (GPa) = 125.48153 115.40180 97.23658
#
# Poissons Ratio (x) = 0.32881 0.05414
# Poissons Ratio (y) = 0.35753 0.41157
# Poissons Ratio (z) = 0.06987 0.48845
#
# Static dielectric constant tensor:
#      x y z
#    x 2.261810 0.011580 0.032640 
#    y 0.011580 2.189750 -0.022290 
#    z 0.032640 -0.022290 2.141230 
# 
# From -- ./inp_files/44198.got.cif
#   From: 2010.05.17/outbox.cif.g08.bks.cpg/sg2_23_cif.got.tgz:44198.got - 2010.06.03 11:33:40.
