data_PCOD9027202
_publ_section_title
;
Structure prediction by ZEFSAII (Michael W. Deem and Ramdas Pophale) SiO2 
 PCOD9027202
Probable space group: P -1
;
_chemical_formula_sum "Si O2"
_cell_formula_units_Z 15
_cell_length_a 11.227524
_cell_length_b 11.242857
_cell_length_c 10.999167
_cell_angle_alpha 75.213895
_cell_angle_beta 77.451076
_cell_angle_gamma 140.721900
_cell_volume 624.957562
_symmetry_space_group_name_H-M "P -1"
_symmetry_group_IT_number 2
_symmetry_cell_setting 'triclinic'
loop_
_space_group_symop_operation_xyz
x,y,z
-x,-y,-z
loop_
_atom_site_type_symbol
_atom_site_label
_atom_site_fract_x
_atom_site_fract_y
_atom_site_fract_z
Si Si1 0.147519 0.494642 0.601396
Si Si2 0.276660 0.391085 0.038557
Si Si3 0.490922 0.299543 0.719110
Si Si4 0.015699 0.150668 0.401941
Si Si5 0.263224 0.868897 0.433259
Si Si6 0.838682 0.208180 0.976484
Si Si7 0.276222 0.656473 0.945412
Si Si8 0.000000 0.000000 0.000000
O O1 0.385988 0.631619 0.455425
O O2 0.221722 0.703019 0.553762
O O3 0.930103 0.303554 0.594471
O O4 0.013754 0.321636 0.795974
O O5 0.054467 0.181229 0.241830
O O6 0.500000 0.500000 0.000000
O O7 0.394285 0.631181 0.959389
O O8 0.172825 0.255793 0.968033
O O9 0.727014 0.562978 0.673612
O O10 0.254635 0.182730 0.814775
O O11 0.384802 0.082717 0.865621
O O12 0.797460 0.057205 0.505115
O O13 0.000000 0.000000 0.500000
O O14 0.547371 0.124839 0.251390
O O15 0.011457 0.380448 0.013907
O O16 0.746944 0.267191 0.961013
#
# Coordination Sequence:
#
# PCOD9027202 Si02
#       8
#     2   2   2   2   2   2   2   1
#     4  10  23  43  68 104 142 187 236 301 361 436
#     4  12  25  46  73 102 145 194 245 305 358 442
#     4  11  24  47  68 105 144 182 249 298 360 451
#     4  11  25  44  71 104 143 190 245 302 369 442
#     4  10  22  41  67 105 143 181 241 294 362 440
#     4  11  24  44  73 103 147 191 236 304 370 437
#     4  11  24  43  70 107 141 190 247 291 370 443
#     4  12  26  46  76 100 146 196 248 298 382 424
#
# _framework density 24.001628
#
# number of rings (size 3 to 8) (size 9 to 14) (size 15 to 20)
#    0.000    1.067    4.000    1.600    1.867    4.267 
#    0.000    1.333    0.000    0.000    0.000    0.000 
#    0.000    0.000    0.000    0.000    0.000    0.000 
#
# Total GULP energy -83648.996040 kJ/mol
# GULP energy per Si atom -5576.599736 kJ/mol
# Density = 2.394700 g / cm^3
# Si number density = 24.001628 Si / 1000 Ang^3
#
#
#
# Elastic Constant Matrix: (Units=GPa)
#
#
# Indices 1 2 3 4 5 6 
#
# 1 65.6320 36.5081 40.5530 11.9587 -15.3997 -34.5496
# 2 36.5081 91.3834 54.7551 -0.5049 2.3470 -32.9700
# 3 40.5530 54.7551 147.5646 10.6979 -22.4756 -25.5605
# 4 11.9587 -0.5049 10.6979 46.9112 -8.1633 -7.1381
# 5 -15.3997 2.3470 -22.4756 -8.1633 50.0170 -1.3526
# 6 -34.5496 -32.9700 -25.5605 -7.1381 -1.3526 37.0091
#
#
#
# Elastic Compliance Matrix: (Units=1/GPa)
#
#
# Indices 1 2 3 4 5 6 
#
# 1 0.037432 -0.002929 -0.001958 -0.002471 0.011215 0.030916
# 2 -0.002929 0.019486 -0.005160 0.003325 -0.003279 0.011583
# 3 -0.001958 -0.005160 0.009981 -0.001082 0.003959 0.000405
# 4 -0.002471 0.003325 -0.001082 0.023355 0.002530 0.004505
# 5 0.011215 -0.003279 0.003959 0.002530 0.026109 0.011725
# 6 0.030916 0.011583 0.000405 0.004505 0.011725 0.067778
#
#
# Mechanical properties :
#
#
# Convention : Reuss Voigt Hill
#
# Bulk Modulus (GPa) = 21.36440 63.13472 42.24956
# Shear Modulus (GPa) = 22.74426 38.30505 30.52465
#
# Velocity S-wave (km/s) = 3.08167 3.99925 3.57006
# Velocity P-wave (km/s) = 4.64573 6.90556 5.88513
#
# Compressibility (1/GPa) = 0.04680684
#
# Stress axis : x y z
#
# Youngs Moduli (GPa) = 26.71530 51.31828 100.19237
#
# Poissons Ratio (x) = 0.15030 0.19613
# Poissons Ratio (y) = 0.07824 0.51696
# Poissons Ratio (z) = 0.05230 0.26479
#
# Static dielectric constant tensor:
#      x y z
#    x 2.082380 0.033090 -0.081840 
#    y 0.033090 1.926800 -0.001430 
#    z -0.081840 -0.001430 1.942250 
# 
# From -- ./inp_files/397937.got.cif
#   From: 2010.05.17/outbox.cif.g08.bks.cpg/sg2_199_cif.got.tgz:397937.got - 2010.06.03 11:33:40.
