data_PCOD9027719
_publ_section_title
;
Structure prediction by ZEFSAII (Michael W. Deem and Ramdas Pophale) SiO2 
 PCOD9027719
Probable space group: P -1
;
_chemical_formula_sum "Si O2"
_cell_formula_units_Z 13
_cell_length_a 12.658888
_cell_length_b 9.364651
_cell_length_c 8.970035
_cell_angle_alpha 116.823353
_cell_angle_beta 146.582673
_cell_angle_gamma 59.027197
_cell_volume 501.595194
_symmetry_space_group_name_H-M "P -1"
_symmetry_group_IT_number 2
_symmetry_cell_setting 'triclinic'
loop_
_space_group_symop_operation_xyz
x,y,z
-x,-y,-z
loop_
_atom_site_type_symbol
_atom_site_label
_atom_site_fract_x
_atom_site_fract_y
_atom_site_fract_z
Si Si1 0.000000 0.500000 0.500000
Si Si2 0.695849 0.308300 0.604715
Si Si3 0.183131 0.427214 0.292303
Si Si4 0.137046 0.090392 0.987419
Si Si5 0.747979 0.287398 0.997744
Si Si6 0.471735 0.048270 0.158710
Si Si7 0.656339 0.689216 0.293181
O O1 0.756513 0.609378 0.221453
O O2 0.931232 0.327250 0.316018
O O3 0.673690 0.467039 0.546893
O O4 0.728146 0.349653 0.833476
O O5 0.528094 0.215180 0.342960
O O6 0.903167 0.173658 0.739758
O O7 0.160078 0.437538 0.450363
O O8 0.231383 0.228689 0.238346
O O9 0.000000 0.500000 0.000000
O O10 0.246067 0.061561 0.944356
O O11 0.195663 0.913699 0.052401
O O12 0.544865 0.335064 0.881526
O O13 0.612442 0.887042 0.334085
O O14 0.500000 0.000000 0.000000
#
# Coordination Sequence:
#
# PCOD9027719 Si02
#       7
#     1   2   2   2   2   2   2
#     4  12  24  42  68  98 136 178 224 276 336 398
#     4  11  23  41  69  98 131 176 225 276 333 397
#     4  10  22  41  69 102 134 172 224 280 334 400
#     4  10  22  43  66  96 132 173 222 275 336 396
#     4  11  24  42  69 100 133 178 227 278 335 402
#     4  11  26  44  67  98 135 179 227 276 331 399
#     4  11  25  44  66  97 136 179 223 277 339 401
#
# _framework density 25.917314000000001
#
# number of rings (size 3 to 8) (size 9 to 14) (size 15 to 20)
#    0.000    1.231    0.000    5.538    0.000   12.923 
#    0.000    0.000    0.000    0.000    0.000    0.000 
#    0.000    0.000    0.000    0.000    0.000    0.000 
#
# Total GULP energy -72465.950208 kJ/mol
# GULP energy per Si atom -5574.303862 kJ/mol
# Density = 2.585833 g / cm^3
# Si number density = 25.917314 Si / 1000 Ang^3
#
#
#
# Elastic Constant Matrix: (Units=GPa)
#
#
# Indices 1 2 3 4 5 6 
#
# 1 87.9440 29.3918 38.1595 -12.9825 14.2949 -2.6364
# 2 29.3918 122.8676 28.5776 -0.1102 7.9897 8.7889
# 3 38.1595 28.5776 86.6793 -0.7230 3.3148 14.0763
# 4 -12.9825 -0.1102 -0.7230 41.0863 -5.7942 11.1228
# 5 14.2949 7.9897 3.3148 -5.7942 55.9800 -4.0800
# 6 -2.6364 8.7889 14.0763 11.1228 -4.0800 54.4266
#
#
#
# Elastic Compliance Matrix: (Units=1/GPa)
#
#
# Indices 1 2 3 4 5 6 
#
# 1 0.016051 -0.002275 -0.006461 0.004072 -0.002841 0.001771
# 2 -0.002275 0.009238 -0.001846 -0.000544 -0.000763 -0.001071
# 3 -0.006461 -0.001846 0.015588 -0.000634 0.000643 -0.003869
# 4 0.004072 -0.000544 -0.000634 0.027179 0.001525 -0.004991
# 5 -0.002841 -0.000763 0.000643 0.001525 0.018885 0.000923
# 6 0.001771 -0.001071 -0.003869 -0.004991 0.000923 0.020722
#
#
# Mechanical properties :
#
#
# Convention : Reuss Voigt Hill
#
# Bulk Modulus (GPa) = 50.72727 54.41653 52.57190
# Shear Modulus (GPa) = 36.92842 43.72271 40.32556
#
# Velocity S-wave (km/s) = 3.77882 4.11178 3.94881
# Velocity P-wave (km/s) = 6.21728 6.60182 6.41243
#
# Compressibility (1/GPa) = 0.01971326
#
# Stress axis : x y z
#
# Youngs Moduli (GPa) = 62.30284 108.24808 64.15184
#
# Poissons Ratio (x) = 0.24627 0.41448
# Poissons Ratio (y) = 0.14174 0.11840
# Poissons Ratio (z) = 0.40254 0.19979
#
# Static dielectric constant tensor:
#      x y z
#    x 1.374430 0.140450 0.165910 
#    y 0.140450 2.054430 -0.042000 
#    z 0.165910 -0.042000 2.070930 
# 
# From -- ./inp_files/240807.got.cif
#   From: 2010.05.17/outbox.cif.g08.bks.cpg/sg2_121_cif.got.tgz:240807.got - 2010.06.03 11:33:40.
