data_PCOD9027527
_publ_section_title
;
Structure prediction by ZEFSAII (Michael W. Deem and Ramdas Pophale) SiO2 
 PCOD9027527
Probable space group: P -1
;
_chemical_formula_sum "Si O2"
_cell_formula_units_Z 16
_cell_length_a 11.003565
_cell_length_b 7.233184
_cell_length_c 12.875191
_cell_angle_alpha 129.533807
_cell_angle_beta 57.000799
_cell_angle_gamma 116.709908
_cell_volume 654.412189
_symmetry_space_group_name_H-M "P -1"
_symmetry_group_IT_number 2
_symmetry_cell_setting 'triclinic'
loop_
_space_group_symop_operation_xyz
x,y,z
-x,-y,-z
loop_
_atom_site_type_symbol
_atom_site_label
_atom_site_fract_x
_atom_site_fract_y
_atom_site_fract_z
Si Si1 0.750094 0.703576 0.957455
Si Si2 0.453690 0.046861 0.418538
Si Si3 0.806692 0.740930 0.304482
Si Si4 0.752198 0.228060 0.247636
Si Si5 0.082246 0.129361 0.360716
Si Si6 0.995921 0.537933 0.663868
Si Si7 0.578729 0.608583 0.189752
Si Si8 0.613453 0.831069 0.849139
O O1 0.647539 0.534281 0.024673
O O2 0.776780 0.975728 0.092869
O O3 0.893905 0.587157 0.824856
O O4 0.675397 0.744883 0.897977
O O5 0.301200 0.142235 0.525667
O O6 0.584102 0.211689 0.355902
O O7 0.500000 0.000000 0.500000
O O8 0.463122 0.783239 0.273945
O O9 0.803116 0.460717 0.235130
O O10 0.720432 0.736264 0.233741
O O11 0.965372 0.903643 0.295351
O O12 0.849481 0.291343 0.327824
O O13 0.078614 0.350522 0.359139
O O14 0.249063 0.079009 0.257101
O O15 0.025967 0.263792 0.535345
O O16 0.491191 0.404455 0.230345
O O17 0.500000 0.000000 0.000000
#
# Coordination Sequence:
#
# PCOD9027527 Si02
#       8
#     2   2   2   2   2   2   2   2
#     4  10  22  42  65  96 128 175 225 268 323 397
#     4   9  20  36  64  91 128 168 221 257 318 388
#     4  11  23  40  64  99 133 169 218 277 336 379
#     4  11  22  39  63 101 132 170 218 278 327 385
#     4  10  24  42  67  96 130 175 217 267 330 398
#     4  10  22  41  68  91 134 170 225 267 325 393
#     4  10  22  41  68  93 127 180 221 265 322 405
#     4  11  24  43  66  99 135 169 215 276 335 383
#
# _framework density 24.449422999999999
#
# number of rings (size 3 to 8) (size 9 to 14) (size 15 to 20)
#    0.000    1.750    0.000    4.125    8.750    2.500 
#    4.500    3.750    0.000    0.000    0.000    0.000 
#    0.000    0.000    0.000    0.000    0.000    0.000 
#
# Total GULP energy -89353.150963 kJ/mol
# GULP energy per Si atom -5584.571935 kJ/mol
# Density = 2.439378 g / cm^3
# Si number density = 24.449423 Si / 1000 Ang^3
#
#
#
# Elastic Constant Matrix: (Units=GPa)
#
#
# Indices 1 2 3 4 5 6 
#
# 1 70.9099 26.0259 34.2767 -0.5007 -17.2090 10.5067
# 2 26.0259 111.7971 55.4678 7.6126 -21.8140 27.0197
# 3 34.2767 55.4678 118.8006 -10.9895 -26.3622 17.8180
# 4 -0.5007 7.6126 -10.9895 32.5778 8.5939 0.0440
# 5 -17.2090 -21.8140 -26.3622 8.5939 44.5219 -6.0523
# 6 10.5067 27.0197 17.8180 0.0440 -6.0523 40.1031
#
#
#
# Elastic Compliance Matrix: (Units=1/GPa)
#
#
# Indices 1 2 3 4 5 6 
#
# 1 0.017448 -0.000908 -0.003567 -0.001858 0.004312 -0.001722
# 2 -0.000908 0.014556 -0.005230 -0.006221 0.003982 -0.006638
# 3 -0.003567 -0.005230 0.013089 0.004861 0.002741 -0.000948
# 4 -0.001858 -0.006221 0.004861 0.035767 -0.007611 0.001331
# 5 0.004312 0.003982 0.002741 -0.007611 0.029085 -0.000633
# 6 -0.001722 -0.006638 -0.000948 0.001331 -0.000633 0.030183
#
#
# Mechanical properties :
#
#
# Convention : Reuss Voigt Hill
#
# Bulk Modulus (GPa) = 38.93752 59.22762 49.08257
# Shear Modulus (GPa) = 29.74402 35.82305 32.78353
#
# Velocity S-wave (km/s) = 3.49170 3.83193 3.66576
# Velocity P-wave (km/s) = 5.67593 6.62234 6.16732
#
# Compressibility (1/GPa) = 0.02568217
#
# Stress axis : x y z
#
# Youngs Moduli (GPa) = 57.31181 68.69929 76.40000
#
# Poissons Ratio (x) = 0.06239 0.27253
# Poissons Ratio (y) = 0.05205 0.39961
# Poissons Ratio (z) = 0.20444 0.35933
#
# Static dielectric constant tensor:
#      x y z
#    x 1.991060 -0.004790 0.028870 
#    y -0.004790 2.014670 0.002620 
#    z 0.028870 0.002620 2.066860 
# 
# From -- ./inp_files/335657.got.cif
#   From: 2010.05.17/outbox.cif.g08.bks.cpg/sg2_168_cif.got.tgz:335657.got - 2010.06.03 11:33:40.
