data_PCOD9027772
_publ_section_title
;
Structure prediction by ZEFSAII (Michael W. Deem and Ramdas Pophale) SiO2 
 PCOD9027772
Probable space group: P -1
;
_chemical_formula_sum "Si O2"
_cell_formula_units_Z 12
_cell_length_a 7.250469
_cell_length_b 7.213163
_cell_length_c 11.796818
_cell_angle_alpha 70.083889
_cell_angle_beta 118.526686
_cell_angle_gamma 84.393180
_cell_volume 483.657249
_symmetry_space_group_name_H-M "P -1"
_symmetry_group_IT_number 2
_symmetry_cell_setting 'triclinic'
loop_
_space_group_symop_operation_xyz
x,y,z
-x,-y,-z
loop_
_atom_site_type_symbol
_atom_site_label
_atom_site_fract_x
_atom_site_fract_y
_atom_site_fract_z
Si Si1 0.726628 0.304588 0.861517
Si Si2 0.376716 0.958035 0.313814
Si Si3 0.454139 0.319154 0.130978
Si Si4 0.264969 0.995094 0.881420
Si Si5 0.133313 0.105917 0.434599
Si Si6 0.090307 0.436863 0.811362
O O1 0.642392 0.203685 0.752371
O O2 0.537507 0.495169 0.823774
O O3 0.908491 0.400887 0.850403
O O4 0.821806 0.126385 0.021426
O O5 0.203909 0.985463 0.360217
O O6 0.336496 0.178535 0.194836
O O7 0.627266 0.900086 0.444550
O O8 0.671849 0.149889 0.179419
O O9 0.298496 0.418868 0.958148
O O10 0.138849 0.237890 0.783702
O O11 0.500000 0.000000 0.000000
O O12 0.000000 0.000000 0.500000
O O13 0.000236 0.344975 0.321535
#
# Coordination Sequence:
#
# PCOD9027772 Si02
#       6
#     2   2   2   2   2   2
#     4  12  23  43  80 111 155 194 248 319 376 453
#     4  11  26  51  77 115 149 201 259 315 385 449
#     4  11  24  47  77 111 157 193 250 316 382 442
#     4  10  22  41  69 117 151 188 245 314 377 446
#     4  11  28  55  77 105 160 202 258 317 380 463
#     4  11  24  46  78 114 144 207 255 308 386 449
#
# _framework density 24.810956000000001
#
# number of rings (size 3 to 8) (size 9 to 14) (size 15 to 20)
#    0.000    1.000    5.000    1.500    0.000    6.000 
#    0.000    1.667    0.000    0.000    0.000    0.000 
#    0.000    0.000    0.000    0.000    0.000    0.000 
#
# Total GULP energy -67288.091749 kJ/mol
# GULP energy per Si atom -5607.340979 kJ/mol
# Density = 2.475448 g / cm^3
# Si number density = 24.810956 Si / 1000 Ang^3
#
#
#
# Elastic Constant Matrix: (Units=GPa)
#
#
# Indices 1 2 3 4 5 6 
#
# 1 157.8261 76.9016 69.4840 -14.4623 -33.2897 -16.8497
# 2 76.9016 262.2771 85.1984 -15.3548 -2.3596 -36.2487
# 3 69.4840 85.1984 153.4813 -29.6023 -12.4585 -9.2253
# 4 -14.4623 -15.3548 -29.6023 43.8703 0.3480 -2.8034
# 5 -33.2897 -2.3596 -12.4585 0.3480 45.7754 -3.4706
# 6 -16.8497 -36.2487 -9.2253 -2.8034 -3.4706 41.7994
#
#
#
# Elastic Compliance Matrix: (Units=1/GPa)
#
#
# Indices 1 2 3 4 5 6 
#
# 1 0.010142 -0.001559 -0.002819 0.001017 0.006728 0.002741
# 2 -0.001559 0.005467 -0.002180 0.000165 -0.001178 0.003545
# 3 -0.002819 -0.002180 0.009980 0.005010 0.000482 -0.000448
# 4 0.001017 0.000165 0.005010 0.026783 0.002184 0.003636
# 5 0.006728 -0.001178 0.000482 0.002184 0.027110 0.004195
# 6 0.002741 0.003545 -0.000448 0.003636 0.004195 0.028596
#
#
# Mechanical properties :
#
#
# Convention : Reuss Voigt Hill
#
# Bulk Modulus (GPa) = 80.17054 115.19471 97.68262
# Shear Modulus (GPa) = 39.88816 49.08906 44.48861
#
# Velocity S-wave (km/s) = 4.01394 4.45289 4.23910
# Velocity P-wave (km/s) = 7.33928 8.54209 7.96343
#
# Compressibility (1/GPa) = 0.01247341
#
# Stress axis : x y z
#
# Youngs Moduli (GPa) = 98.60281 182.92016 100.20106
#
# Poissons Ratio (x) = 0.28518 0.28245
# Poissons Ratio (y) = 0.15373 0.21841
# Poissons Ratio (z) = 0.27794 0.39871
#
# Static dielectric constant tensor:
#      x y z
#    x 2.048380 -0.008470 0.032650 
#    y -0.008470 1.956590 0.026870 
#    z 0.032650 0.026870 1.937190 
# 
# From -- ./inp_files/492081.got.cif
#   From: 2010.05.17/outbox.cif.g08.bks.cpg/sg2_247_cif.got.tgz:492081.got - 2010.06.03 11:33:40.
