data_PCOD9027043
_publ_section_title
;
Structure prediction by ZEFSAII (Michael W. Deem and Ramdas Pophale) SiO2 
 PCOD9027043
Probable space group: P -1
;
_chemical_formula_sum "Si O2"
_cell_formula_units_Z 16
_cell_length_a 8.177732
_cell_length_b 14.124217
_cell_length_c 9.407345
_cell_angle_alpha 67.284521
_cell_angle_beta 102.919607
_cell_angle_gamma 138.967510
_cell_volume 653.873696
_symmetry_space_group_name_H-M "P -1"
_symmetry_group_IT_number 2
_symmetry_cell_setting 'triclinic'
loop_
_space_group_symop_operation_xyz
x,y,z
-x,-y,-z
loop_
_atom_site_type_symbol
_atom_site_label
_atom_site_fract_x
_atom_site_fract_y
_atom_site_fract_z
Si Si1 0.818579 0.530785 0.609625
Si Si2 0.593930 0.786544 0.462414
Si Si3 0.746457 0.208713 0.644240
Si Si4 0.540900 0.654974 0.823146
Si Si5 0.731986 0.826856 0.047167
Si Si6 0.894569 0.784003 0.363952
Si Si7 0.665803 0.176080 0.961291
Si Si8 0.142978 0.406401 0.098664
O O1 0.610616 0.366814 0.587833
O O2 0.773674 0.631997 0.509658
O O3 0.849332 0.532060 0.784095
O O4 0.082189 0.643116 0.511216
O O5 0.534326 0.879193 0.379607
O O6 0.552500 0.730275 0.644989
O O7 0.856825 0.866831 0.404210
O O8 0.825920 0.129308 0.665563
O O9 0.812041 0.256002 0.793940
O O10 0.673417 0.607604 0.838873
O O11 0.695799 0.770027 0.916600
O O12 0.269944 0.521217 0.922613
O O13 0.755118 0.744394 0.211972
O O14 0.521479 0.814394 0.053200
O O15 0.000000 0.000000 0.000000
O O16 0.862440 0.253390 0.082624
O O17 0.500000 0.000000 0.000000
#
# Coordination Sequence:
#
# PCOD9027043 Si02
#       8
#     2   2   2   2   2   2   2   2
#     4  10  23  39  67  97 143 181 224 283 339 415
#     4  12  21  42  65 103 139 187 225 276 353 405
#     4  10  23  40  66  96 132 180 228 280 337 409
#     4  11  25  41  70 105 143 179 233 285 343 417
#     4  12  26  47  72  98 138 186 235 287 349 416
#     4  10  22  41  66  95 133 179 229 278 340 406
#     4  12  26  47  71  99 139 184 236 288 347 417
#     4  11  24  43  69 106 141 182 228 288 347 405
#
# _framework density 24.469556999999998
#
# number of rings (size 3 to 8) (size 9 to 14) (size 15 to 20)
#    0.750    0.250    2.500    4.500    5.250    0.500 
#    0.000    2.500    0.000    0.000    0.000    0.000 
#    0.000    0.000    0.000    0.000    0.000    0.000 
#
# Total GULP energy -89465.158454 kJ/mol
# GULP energy per Si atom -5591.572403 kJ/mol
# Density = 2.441386 g / cm^3
# Si number density = 24.469557 Si / 1000 Ang^3
#
#
#
# Elastic Constant Matrix: (Units=GPa)
#
#
# Indices 1 2 3 4 5 6 
#
# 1 143.5073 5.6360 50.6145 1.6969 -6.8305 -4.5471
# 2 5.6360 82.0855 35.5102 7.6060 -3.4666 5.2090
# 3 50.6145 35.5102 166.3199 33.3359 -10.2299 -3.2081
# 4 1.6969 7.6060 33.3359 19.7240 -3.1389 -4.3857
# 5 -6.8305 -3.4666 -10.2299 -3.1389 42.9688 3.9376
# 6 -4.5471 5.2090 -3.2081 -4.3857 3.9376 19.9200
#
#
#
# Elastic Compliance Matrix: (Units=1/GPa)
#
#
# Indices 1 2 3 4 5 6 
#
# 1 0.008311 0.000358 -0.003744 0.006120 0.000685 0.002413
# 2 0.000358 0.013825 -0.002796 -0.001503 0.000807 -0.004474
# 3 -0.003744 -0.002796 0.011424 -0.018332 0.000787 -0.002475
# 4 0.006120 -0.001503 -0.018332 0.085812 0.001152 0.017502
# 5 0.000685 0.000807 0.000787 0.001152 0.024125 -0.004443
# 6 0.002413 -0.004474 -0.002475 0.017502 -0.004443 0.056254
#
#
# Mechanical properties :
#
#
# Convention : Reuss Voigt Hill
#
# Bulk Modulus (GPa) = 47.17890 63.93711 55.55800
# Shear Modulus (GPa) = 22.81230 36.53270 29.67250
#
# Velocity S-wave (km/s) = 3.05663 3.86811 3.48606
# Velocity P-wave (km/s) = 5.63736 6.79232 6.24161
#
# Compressibility (1/GPa) = 0.02119592
#
# Stress axis : x y z
#
# Youngs Moduli (GPa) = 120.31893 72.33470 87.53704
#
# Poissons Ratio (x) = -0.02586 0.32770
# Poissons Ratio (y) = -0.04302 0.24474
# Poissons Ratio (z) = 0.45042 0.20224
#
# Static dielectric constant tensor:
#      x y z
#    x 2.052670 0.012620 -0.008930 
#    y 0.012620 1.958070 -0.044310 
#    z -0.008930 -0.044310 1.947100 
# 
# From -- ./inp_files/200919.got.cif
#   From: 2010.05.17/outbox.cif.g08.bks.cpg/sg2_101_cif.got.tgz:200919.got - 2010.06.03 11:33:40.
