data_PCOD9027121
_publ_section_title
;
Structure prediction by ZEFSAII (Michael W. Deem and Ramdas Pophale) SiO2 
 PCOD9027121
Probable space group: P -1
;
_chemical_formula_sum "Si O2"
_cell_formula_units_Z 14
_cell_length_a 7.962217
_cell_length_b 8.123483
_cell_length_c 11.601100
_cell_angle_alpha 113.348694
_cell_angle_beta 51.917688
_cell_angle_gamma 114.655325
_cell_volume 526.554825
_symmetry_space_group_name_H-M "P -1"
_symmetry_group_IT_number 2
_symmetry_cell_setting 'triclinic'
loop_
_space_group_symop_operation_xyz
x,y,z
-x,-y,-z
loop_
_atom_site_type_symbol
_atom_site_label
_atom_site_fract_x
_atom_site_fract_y
_atom_site_fract_z
Si Si1 0.465559 0.341680 0.295861
Si Si2 0.514103 0.326623 0.791376
Si Si3 0.897499 0.518031 0.421877
Si Si4 0.954043 0.916087 0.180121
Si Si5 0.414567 0.030990 0.919881
Si Si6 0.044028 0.445566 0.832999
Si Si7 0.285918 0.844522 0.524445
O O1 0.444083 0.464111 0.219240
O O2 0.244832 0.331317 0.459866
O O3 0.511016 0.137420 0.221677
O O4 0.697204 0.473348 0.272485
O O5 0.275065 0.206499 0.809719
O O6 0.693527 0.225276 0.632353
O O7 0.492038 0.243518 0.905709
O O8 0.040177 0.505476 0.243470
O O9 0.704659 0.330319 0.451714
O O10 0.000000 0.500000 0.500000
O O11 0.025944 0.773092 0.194972
O O12 0.913525 0.082279 0.320400
O O13 0.149489 0.978485 0.024702
O O14 0.500000 0.000000 0.000000
O O15 0.000000 0.500000 0.000000
O O16 0.500000 0.000000 0.500000
#
# Coordination Sequence:
#
# PCOD9027121 Si02
#       7
#     2   2   2   2   2   2   2
#     4  10  24  46  66 100 134 185 238 279 348 430
#     4   9  22  43  67  93 131 177 236 288 338 411
#     4  11  26  45  71 104 139 183 229 296 361 408
#     4  10  22  41  66  98 128 174 234 282 341 412
#     4  12  26  40  63 101 141 182 223 288 358 408
#     4  11  23  44  72 101 133 180 235 284 344 425
#     4   9  21  41  68  97 126 178 232 278 344 416
#
# _framework density 26.587923
#
# number of rings (size 3 to 8) (size 9 to 14) (size 15 to 20)
#    0.000    1.714    1.429    1.714    8.000    5.143 
#    0.000    1.429    0.000    0.000    0.000    0.000 
#    0.000    0.000    0.000    0.000    0.000    0.000 
#
# Total GULP energy -77951.980799 kJ/mol
# GULP energy per Si atom -5567.998628 kJ/mol
# Density = 2.652741 g / cm^3
# Si number density = 26.587923 Si / 1000 Ang^3
#
#
#
# Elastic Constant Matrix: (Units=GPa)
#
#
# Indices 1 2 3 4 5 6 
#
# 1 83.4230 -2.8298 42.5387 -8.0261 12.6652 -9.4873
# 2 -2.8298 65.9216 29.2415 -17.4357 3.6308 -12.9465
# 3 42.5387 29.2415 156.3428 4.8726 -0.7863 -16.7222
# 4 -8.0261 -17.4357 4.8726 52.7233 -10.8975 1.1287
# 5 12.6652 3.6308 -0.7863 -10.8975 53.6559 -8.8521
# 6 -9.4873 -12.9465 -16.7222 1.1287 -8.8521 29.5964
#
#
#
# Elastic Compliance Matrix: (Units=1/GPa)
#
#
# Indices 1 2 3 4 5 6 
#
# 1 0.015847 0.004690 -0.004963 0.003769 -0.002814 0.003342
# 2 0.004690 0.021072 -0.004620 0.008009 0.000330 0.007904
# 3 -0.004963 -0.004620 0.008914 -0.002869 0.001352 0.001939
# 4 0.003769 0.008009 -0.002869 0.023165 0.003782 0.003338
# 5 -0.002814 0.000330 0.001352 0.003782 0.021085 0.006168
# 6 0.003342 0.007904 0.001939 0.003338 0.006168 0.041129
#
#
# Mechanical properties :
#
#
# Convention : Reuss Voigt Hill
#
# Bulk Modulus (GPa) = 27.74126 49.28760 38.51443
# Shear Modulus (GPa) = 32.67677 42.97759 37.82718
#
# Velocity S-wave (km/s) = 3.50952 4.02485 3.77599
# Velocity P-wave (km/s) = 5.18447 6.33854 5.79033
#
# Compressibility (1/GPa) = 0.03604739
#
# Stress axis : x y z
#
# Youngs Moduli (GPa) = 63.10442 47.45528 112.18055
#
# Poissons Ratio (x) = -0.22256 0.55675
# Poissons Ratio (y) = -0.29595 0.51826
# Poissons Ratio (z) = 0.31319 0.21924
#
# Static dielectric constant tensor:
#      x y z
#    x 1.574170 0.135490 0.312900 
#    y 0.135490 2.204710 0.064540 
#    z 0.312900 0.064540 2.168630 
# 
# From -- ./inp_files/379809.got.cif
#   From: 2010.05.17/outbox.cif.g08.bks.cpg/sg2_190_cif.got.tgz:379809.got - 2010.06.03 11:33:40.
