data_PCOD9027200
_publ_section_title
;
Structure prediction by ZEFSAII (Michael W. Deem and Ramdas Pophale) SiO2 
 PCOD9027200
Probable space group: P -1
;
_chemical_formula_sum "Si O2"
_cell_formula_units_Z 14
_cell_length_a 14.706281
_cell_length_b 8.682200
_cell_length_c 5.733288
_cell_angle_alpha 77.678445
_cell_angle_beta 129.165861
_cell_angle_gamma 92.825891
_cell_volume 550.952661
_symmetry_space_group_name_H-M "P -1"
_symmetry_group_IT_number 2
_symmetry_cell_setting 'triclinic'
loop_
_space_group_symop_operation_xyz
x,y,z
-x,-y,-z
loop_
_atom_site_type_symbol
_atom_site_label
_atom_site_fract_x
_atom_site_fract_y
_atom_site_fract_z
Si Si1 0.453443 0.063850 0.651607
Si Si2 0.774180 0.304663 0.498226
Si Si3 0.920125 0.596548 0.637530
Si Si4 0.805534 0.806329 0.747446
Si Si5 0.692488 0.493821 0.688767
Si Si6 0.459372 0.635208 0.134430
Si Si7 0.982709 0.151975 0.594967
O O1 0.312605 0.080373 0.437852
O O2 0.498404 0.235316 0.667842
O O3 0.500000 0.000000 0.500000
O O4 0.500000 0.000000 0.000000
O O5 0.828079 0.471349 0.465304
O O6 0.765005 0.334595 0.754072
O O7 0.862212 0.176445 0.543917
O O8 0.639918 0.281959 0.223040
O O9 0.845778 0.756753 0.568216
O O10 0.000126 0.678486 0.556650
O O11 0.000000 0.500000 0.000000
O O12 0.772759 0.631592 0.825454
O O13 0.911991 0.862910 0.042621
O O14 0.589252 0.549515 0.307214
O O15 0.618526 0.468783 0.804277
O O16 0.000000 0.000000 0.500000
#
# Coordination Sequence:
#
# PCOD9027200 Si02
#       7
#     2   2   2   2   2   2   2
#     4  11  28  49  73 105 151 203 244 300 387 466
#     4  11  23  39  73  98 135 184 241 300 362 443
#     4  11  24  46  71 102 140 191 250 301 372 444
#     4  10  24  47  73  99 142 190 245 309 368 452
#     4   9  21  42  70 102 128 176 243 308 362 424
#     4  10  22  41  67 105 135 174 239 310 356 433
#     4  12  28  44  68 106 148 193 242 308 379 452
#
# _framework density 25.410534999999999
#
# number of rings (size 3 to 8) (size 9 to 14) (size 15 to 20)
#    0.000    1.429    1.429    1.714   10.000    0.571 
#    7.714    0.000    0.000    0.000    0.000    0.000 
#    0.000    0.000    0.000    0.000    0.000    0.000 
#
# Total GULP energy -78098.016010 kJ/mol
# GULP energy per Si atom -5578.429715 kJ/mol
# Density = 2.535270 g / cm^3
# Si number density = 25.410535 Si / 1000 Ang^3
#
#
#
# Elastic Constant Matrix: (Units=GPa)
#
#
# Indices 1 2 3 4 5 6 
#
# 1 127.6163 37.2226 20.8773 8.7292 3.6274 -40.3980
# 2 37.2226 102.4431 19.8396 16.9559 1.0810 -30.3546
# 3 20.8773 19.8396 80.6045 9.7419 22.8062 -25.9136
# 4 8.7292 16.9559 9.7419 36.0050 16.7178 -5.5878
# 5 3.6274 1.0810 22.8062 16.7178 35.8905 -4.3739
# 6 -40.3980 -30.3546 -25.9136 -5.5878 -4.3739 67.4510
#
#
#
# Elastic Compliance Matrix: (Units=1/GPa)
#
#
# Indices 1 2 3 4 5 6 
#
# 1 0.010100 -0.001988 -0.000557 -0.000762 0.000345 0.004900
# 2 -0.001988 0.013013 -0.002029 -0.006697 0.004661 0.003633
# 3 -0.000557 -0.002029 0.017648 0.002500 -0.011654 0.004985
# 4 -0.000762 -0.006697 0.002500 0.039547 -0.019794 -0.000517
# 5 0.000345 0.004661 -0.011654 -0.019794 0.044197 -0.000947
# 6 0.004900 0.003633 0.004985 -0.000517 -0.000947 0.021206
#
#
# Mechanical properties :
#
#
# Convention : Reuss Voigt Hill
#
# Bulk Modulus (GPa) = 31.63296 51.83811 41.73554
# Shear Modulus (GPa) = 30.23043 43.38424 36.80734
#
# Velocity S-wave (km/s) = 3.45292 4.13647 3.81005
# Velocity P-wave (km/s) = 5.32660 6.57711 5.98461
#
# Compressibility (1/GPa) = 0.03161260
#
# Stress axis : x y z
#
# Youngs Moduli (GPa) = 99.00651 76.84826 56.66483
#
# Poissons Ratio (x) = 0.15275 0.03157
# Poissons Ratio (y) = 0.19680 0.11499
# Poissons Ratio (z) = 0.05515 0.15594
#
# Static dielectric constant tensor:
#      x y z
#    x 2.251970 -0.001970 -0.210390 
#    y -0.001970 2.152370 -0.196760 
#    z -0.210390 -0.196760 2.341970 
# 
# From -- ./inp_files/90628.got.cif
#   From: 2010.05.17/outbox.cif.g08.bks.cpg/sg2_46_cif.got.tgz:90628.got - 2010.06.03 11:33:40.
