data_PCOD9027934
_publ_section_title
;
Structure prediction by ZEFSAII (Michael W. Deem and Ramdas Pophale) SiO2 
 PCOD9027934
Probable space group: P -1
;
_chemical_formula_sum "Si O2"
_cell_formula_units_Z 16
_cell_length_a 8.300361
_cell_length_b 9.686576
_cell_length_c 17.648370
_cell_angle_alpha 63.249765
_cell_angle_beta 147.096150
_cell_angle_gamma 117.515177
_cell_volume 677.910149
_symmetry_space_group_name_H-M "P -1"
_symmetry_group_IT_number 2
_symmetry_cell_setting 'triclinic'
loop_
_space_group_symop_operation_xyz
x,y,z
-x,-y,-z
loop_
_atom_site_type_symbol
_atom_site_label
_atom_site_fract_x
_atom_site_fract_y
_atom_site_fract_z
Si Si1 0.774701 0.253490 0.314753
Si Si2 0.738869 0.836785 0.560677
Si Si3 0.749978 0.663116 0.381555
Si Si4 0.628950 0.566497 0.797096
Si Si5 0.413008 0.896710 0.263441
Si Si6 0.264190 0.744511 0.997376
Si Si7 0.137517 0.858899 0.384275
Si Si8 0.190212 0.084902 0.912581
O O1 0.526574 0.357312 0.213273
O O2 0.001032 0.264332 0.328875
O O3 0.007116 0.298439 0.465409
O O4 0.590934 0.075119 0.284411
O O5 0.539017 0.832520 0.407014
O O6 0.476166 0.826089 0.522001
O O7 0.895660 0.015654 0.594487
O O8 0.575899 0.488897 0.343232
O O9 0.514805 0.780155 0.272238
O O10 0.922159 0.702078 0.361033
O O11 0.916676 0.688091 0.851714
O O12 0.694586 0.402362 0.897943
O O13 0.053484 0.886177 0.128656
O O14 0.285316 0.915696 0.002291
O O15 0.515098 0.784476 0.020125
O O16 0.007927 0.922622 0.241213
#
# Coordination Sequence:
#
# PCOD9027934 Si02
#       8
#     2   2   2   2   2   2   2   2
#     4  11  19  36  58  91 124 154 184 239 298 355
#     4   9  18  30  56  91 121 148 187 242 287 345
#     4  11  20  36  59  93 121 152 191 237 294 364
#     4  11  23  38  61  87 119 158 195 241 296 349
#     4  10  18  34  61  89 120 149 198 237 290 346
#     4  10  22  40  62  80 114 158 209 241 285 341
#     4  10  17  31  59  92 115 145 197 243 281 342
#     4  10  20  38  65  84 109 158 206 246 281 335
#
# _framework density 23.601946000000002
#
# number of rings (size 3 to 8) (size 9 to 14) (size 15 to 20)
#    0.000    1.750    5.000    1.125    0.000    0.000 
#    0.000    1.875   16.500    0.000    0.000    0.000 
#    0.000    0.000    0.000    0.000    0.000    0.000 
#
# Total GULP energy -89199.815737 kJ/mol
# GULP energy per Si atom -5574.988484 kJ/mol
# Density = 2.354823 g / cm^3
# Si number density = 23.601946 Si / 1000 Ang^3
#
#
#
# Elastic Constant Matrix: (Units=GPa)
#
#
# Indices 1 2 3 4 5 6 
#
# 1 67.1179 36.4700 44.9675 1.5065 38.0078 -8.5803
# 2 36.4700 116.2474 40.0132 4.9533 20.7099 0.8958
# 3 44.9675 40.0132 81.0455 -3.8486 35.2798 1.5902
# 4 1.5065 4.9533 -3.8486 34.3968 8.0547 7.2099
# 5 38.0078 20.7099 35.2798 8.0547 46.7278 -1.0056
# 6 -8.5803 0.8958 1.5902 7.2099 -1.0056 29.1013
#
#
#
# Elastic Compliance Matrix: (Units=1/GPa)
#
#
# Indices 1 2 3 4 5 6 
#
# 1 0.036698 -0.004781 -0.009164 0.000685 -0.020701 0.010583
# 2 -0.004781 0.011149 -0.003922 -0.002171 0.002263 -0.000922
# 3 -0.009164 -0.003922 0.024514 0.007515 -0.010744 -0.006154
# 4 0.000685 -0.002171 0.007515 0.034801 -0.011465 -0.009160
# 5 -0.020701 0.002263 -0.010744 -0.011465 0.047300 -0.001111
# 6 0.010583 -0.000922 -0.006154 -0.009160 -0.001111 0.040079
#
#
# Mechanical properties :
#
#
# Convention : Reuss Voigt Hill
#
# Bulk Modulus (GPa) = 27.30308 56.36802 41.83555
# Shear Modulus (GPa) = 20.62003 31.57583 26.09793
#
# Velocity S-wave (km/s) = 2.95898 3.66163 3.32889
# Velocity P-wave (km/s) = 4.82362 6.46617 5.70433
#
# Compressibility (1/GPa) = 0.03662591
#
# Stress axis : x y z
#
# Youngs Moduli (GPa) = 27.24980 89.69702 40.79276
#
# Poissons Ratio (x) = 0.42887 0.37384
# Poissons Ratio (y) = 0.13029 0.15997
# Poissons Ratio (z) = 0.24973 0.35175
#
# Static dielectric constant tensor:
#      x y z
#    x 1.924940 0.007550 -0.002920 
#    y 0.007550 1.871620 0.014940 
#    z -0.002920 0.014940 2.021550 
# 
# From -- ./inp_files/272166.got.cif
#   From: 2010.05.17/outbox.cif.g08.bks.cpg/sg2_137_cif.got.tgz:272166.got - 2010.06.03 11:33:40.
