data_PCOD9027752
_publ_section_title
;
Structure prediction by ZEFSAII (Michael W. Deem and Ramdas Pophale) SiO2 
 PCOD9027752
Probable space group: P -1
;
_chemical_formula_sum "Si O2"
_cell_formula_units_Z 14
_cell_length_a 16.068351
_cell_length_b 6.779656
_cell_length_c 8.000762
_cell_angle_alpha 128.269752
_cell_angle_beta 123.800913
_cell_angle_gamma 80.829242
_cell_volume 545.237054
_symmetry_space_group_name_H-M "P -1"
_symmetry_group_IT_number 2
_symmetry_cell_setting 'triclinic'
loop_
_space_group_symop_operation_xyz
x,y,z
-x,-y,-z
loop_
_atom_site_type_symbol
_atom_site_label
_atom_site_fract_x
_atom_site_fract_y
_atom_site_fract_z
Si Si1 0.019763 0.267302 0.512364
Si Si2 0.360326 0.929444 0.884258
Si Si3 0.135490 0.067224 0.083373
Si Si4 0.640046 0.978619 0.696558
Si Si5 0.861157 0.394999 0.613454
Si Si6 0.492146 0.560049 0.717931
Si Si7 0.809128 0.393583 0.936779
O O1 0.957713 0.286169 0.625278
O O2 0.000000 0.500000 0.500000
O O3 0.140155 0.360972 0.755880
O O4 0.950971 0.018903 0.202518
O O5 0.237437 0.812416 0.683298
O O6 0.410018 0.727118 0.741054
O O7 0.395174 0.940747 0.122371
O O8 0.400319 0.220123 0.003007
O O9 0.257477 0.120560 0.196077
O O10 0.123571 0.318704 0.298244
O O11 0.127721 0.819608 0.063712
O O12 0.552729 0.725055 0.397570
O O13 0.690635 0.228759 0.766602
O O14 0.830017 0.443499 0.792542
O O15 0.500000 0.500000 0.500000
#
# Coordination Sequence:
#
# PCOD9027752 Si02
#       7
#     2   2   2   2   2   2   2
#     4  10  20  38  55  80 115 147 185 228 266 323
#     4  10  17  31  59  81 104 150 177 222 281 322
#     4   9  20  36  55  75 110 145 182 222 270 320
#     4   9  17  37  52  77 111 140 181 224 267 324
#     4  12  20  35  60  81 111 148 183 223 281 319
#     4   9  18  31  57  84 106 138 188 222 269 333
#     4   9  21  36  54  83 113 143 185 232 263 324
#
# _framework density 25.676905000000001
#
# number of rings (size 3 to 8) (size 9 to 14) (size 15 to 20)
#    0.857    1.429    2.857    0.429    0.000    2.857 
#    0.000    6.429    0.000    7.714    0.000    0.000 
#    0.000    0.000    0.000    0.000    0.000    0.000 
#
# Total GULP energy -78142.787536 kJ/mol
# GULP energy per Si atom -5581.627681 kJ/mol
# Density = 2.561846 g / cm^3
# Si number density = 25.676905 Si / 1000 Ang^3
#
#
#
# Elastic Constant Matrix: (Units=GPa)
#
#
# Indices 1 2 3 4 5 6 
#
# 1 87.0738 10.2910 23.7629 14.6948 -5.0220 5.1132
# 2 10.2910 60.5724 24.1591 1.3821 13.0087 3.9678
# 3 23.7629 24.1591 127.4827 32.1268 25.0269 6.2540
# 4 14.6948 1.3821 32.1268 26.6166 16.7003 6.8836
# 5 -5.0220 13.0087 25.0269 16.7003 42.7742 3.9850
# 6 5.1132 3.9678 6.2540 6.8836 3.9850 28.8702
#
#
#
# Elastic Compliance Matrix: (Units=1/GPa)
#
#
# Indices 1 2 3 4 5 6 
#
# 1 0.014571 -0.003685 -0.000492 -0.012166 0.007884 -0.000155
# 2 -0.003685 0.020761 -0.004603 0.012801 -0.008768 -0.003046
# 3 -0.000492 -0.004603 0.012530 -0.014798 -0.000359 0.001583
# 4 -0.012166 0.012801 -0.014798 0.081874 -0.027500 -0.012124
# 5 0.007884 -0.008768 -0.000359 -0.027500 0.037803 0.001225
# 6 -0.000155 -0.003046 0.001583 -0.012124 0.001225 0.037463
#
#
# Mechanical properties :
#
#
# Convention : Reuss Voigt Hill
#
# Bulk Modulus (GPa) = 32.99938 43.50609 38.25274
# Shear Modulus (GPa) = 21.49031 34.11326 27.80178
#
# Velocity S-wave (km/s) = 2.89615 3.64889 3.29409
# Velocity P-wave (km/s) = 4.90543 5.89347 5.42200
#
# Compressibility (1/GPa) = 0.03030360
#
# Stress axis : x y z
#
# Youngs Moduli (GPa) = 68.62859 48.16622 79.80707
#
# Poissons Ratio (x) = 0.17748 0.03926
# Poissons Ratio (y) = 0.25288 0.36735
# Poissons Ratio (z) = 0.03376 0.22171
#
# Static dielectric constant tensor:
#      x y z
#    x 2.032000 0.058570 0.040850 
#    y 0.058570 2.040790 0.038050 
#    z 0.040850 0.038050 2.031650 
# 
# From -- ./inp_files/326875.got.cif
#   From: 2010.05.17/outbox.cif.g08.bks.cpg/sg2_164_cif.got.tgz:326875.got - 2010.06.03 11:33:40.
