data_PCOD9027152
_publ_section_title
;
Structure prediction by ZEFSAII (Michael W. Deem and Ramdas Pophale) SiO2 
 PCOD9027152
Probable space group: P -1
;
_chemical_formula_sum "Si O2"
_cell_formula_units_Z 14
_cell_length_a 22.685096
_cell_length_b 23.074184
_cell_length_c 13.672438
_cell_angle_alpha 21.808528
_cell_angle_beta 157.799289
_cell_angle_gamma 167.772623
_cell_volume 547.321997
_symmetry_space_group_name_H-M "P -1"
_symmetry_group_IT_number 2
_symmetry_cell_setting 'triclinic'
loop_
_space_group_symop_operation_xyz
x,y,z
-x,-y,-z
loop_
_atom_site_type_symbol
_atom_site_label
_atom_site_fract_x
_atom_site_fract_y
_atom_site_fract_z
Si Si1 0.885827 0.619895 0.676922
Si Si2 0.423766 0.001693 0.004901
Si Si3 0.852918 0.834280 0.135368
Si Si4 0.429218 0.772531 0.796837
Si Si5 0.060119 0.571223 0.726871
Si Si6 0.764482 0.781865 0.397890
Si Si7 0.218774 0.403502 0.868740
O O1 0.580211 0.284757 0.756816
O O2 0.877252 0.751152 0.539548
O O3 0.883900 0.691442 0.454433
O O4 0.186144 0.775046 0.906800
O O5 0.706944 0.186029 0.213160
O O6 0.180855 0.754106 0.100178
O O7 0.520563 0.591927 0.001756
O O8 0.002365 0.080466 0.053312
O O9 0.000000 0.000000 0.000000
O O10 0.231323 0.640998 0.791197
O O11 0.270430 0.541734 0.830265
O O12 0.500000 0.000000 0.500000
O O13 0.672565 0.863529 0.073163
O O14 0.902406 0.587196 0.415766
O O15 0.500000 0.500000 0.500000
O O16 0.000000 0.000000 0.500000
#
# Coordination Sequence:
#
# PCOD9027152 Si02
#       7
#     2   2   2   2   2   2   2
#     4  11  22  43  68  96 139 182 237 296 352 412
#     4  10  22  41  66  99 136 189 222 282 345 434
#     4  12  27  49  76 101 134 184 249 317 364 398
#     4  12  26  44  68 108 155 200 238 287 359 447
#     4  11  23  42  68 102 148 188 227 266 361 441
#     4  12  26  40  64  99 145 191 235 276 347 434
#     4  12  26  45  71 104 142 185 240 303 353 429
#
# _framework density 25.579091999999999
#
# number of rings (size 3 to 8) (size 9 to 14) (size 15 to 20)
#    0.000    0.571    1.429    7.714    2.000    3.429 
#    0.000    0.000    0.000   17.143    0.000    0.000 
#    0.000    0.000    0.000    0.000    0.000    0.000 
#
# Total GULP energy -78233.914890 kJ/mol
# GULP energy per Si atom -5588.136778 kJ/mol
# Density = 2.552087 g / cm^3
# Si number density = 25.579092 Si / 1000 Ang^3
#
#
#
# Elastic Constant Matrix: (Units=GPa)
#
#
# Indices 1 2 3 4 5 6 
#
# 1 136.6311 49.8921 57.7151 11.3949 -18.1217 2.2770
# 2 49.8921 217.9712 74.2352 18.4706 -11.4433 13.6148
# 3 57.7151 74.2352 159.6658 -4.2534 -45.2643 23.6033
# 4 11.3949 18.4706 -4.2534 46.1284 4.2881 1.4228
# 5 -18.1217 -11.4433 -45.2643 4.2881 54.9605 9.2531
# 6 2.2770 13.6148 23.6033 1.4228 9.2531 34.5559
#
#
#
# Elastic Compliance Matrix: (Units=1/GPa)
#
#
# Indices 1 2 3 4 5 6 
#
# 1 0.009189 -0.000932 -0.003267 -0.002260 -0.000031 0.002094
# 2 -0.000932 0.005886 -0.002832 -0.002274 -0.001254 0.000106
# 3 -0.003267 -0.002832 0.013665 0.002497 0.011265 -0.011122
# 4 -0.002260 -0.002274 0.002497 0.023492 -0.000755 -0.001425
# 5 -0.000031 -0.001254 0.011265 -0.000755 0.029811 -0.015150
# 6 0.002094 0.000106 -0.011122 -0.001425 -0.015150 0.040471
#
#
# Mechanical properties :
#
#
# Convention : Reuss Voigt Hill
#
# Bulk Modulus (GPa) = 68.12555 97.55031 82.83793
# Shear Modulus (GPa) = 35.34435 49.29067 42.31751
#
# Velocity S-wave (km/s) = 3.72125 4.39451 4.07182
# Velocity P-wave (km/s) = 6.71972 7.99803 7.38658
#
# Compressibility (1/GPa) = 0.01467878
#
# Stress axis : x y z
#
# Youngs Moduli (GPa) = 108.83074 169.90662 73.18114
#
# Poissons Ratio (x) = 0.15827 0.23908
# Poissons Ratio (y) = 0.10138 0.20721
# Poissons Ratio (z) = 0.35555 0.48109
#
# Static dielectric constant tensor:
#      x y z
#    x 2.148230 -0.013290 0.082960 
#    y -0.013290 1.928890 0.019390 
#    z 0.082960 0.019390 2.071270 
# 
# From -- ./inp_files/544574.got.cif
#   From: 2010.05.17/outbox.cif.g08.bks.cpg/sg2_273_cif.got.tgz:544574.got - 2010.06.03 11:33:40.
