data_PCOD9027025
_publ_section_title
;
Structure prediction by ZEFSAII (Michael W. Deem and Ramdas Pophale) SiO2 
 PCOD9027025
Probable space group: P -1
;
_chemical_formula_sum "Si O2"
_cell_formula_units_Z 16
_cell_length_a 19.140768
_cell_length_b 8.267851
_cell_length_c 8.461828
_cell_angle_alpha 91.597087
_cell_angle_beta 85.523848
_cell_angle_gamma 29.177288
_cell_volume 638.017342
_symmetry_space_group_name_H-M "P -1"
_symmetry_group_IT_number 2
_symmetry_cell_setting 'triclinic'
loop_
_space_group_symop_operation_xyz
x,y,z
-x,-y,-z
loop_
_atom_site_type_symbol
_atom_site_label
_atom_site_fract_x
_atom_site_fract_y
_atom_site_fract_z
Si Si1 0.495107 0.362029 0.625650
Si Si2 0.617804 0.306802 0.840770
Si Si3 0.075618 0.823299 0.248799
Si Si4 0.207414 0.944417 0.919776
Si Si5 0.083533 0.087269 0.476582
Si Si6 0.806778 0.403197 0.099266
Si Si7 0.153704 0.240476 0.663443
Si Si8 0.575496 0.064745 0.315642
O O1 0.500000 0.500000 0.500000
O O2 0.628714 0.135366 0.712954
O O3 0.356155 0.644002 0.773945
O O4 0.510859 0.176620 0.505558
O O5 0.542481 0.607596 0.767167
O O6 0.500000 0.500000 0.000000
O O7 0.758140 0.065138 0.911317
O O8 0.008693 0.818993 0.369557
O O9 0.148276 0.811234 0.349426
O O10 0.174183 0.563050 0.078487
O O11 0.934759 0.188546 0.193978
O O12 0.168600 0.837152 0.932477
O O13 0.105525 0.262752 0.839833
O O14 0.184438 0.018018 0.541088
O O15 0.971272 0.412394 0.396798
O O16 0.649747 0.764214 0.208077
O O17 0.283558 0.101889 0.681829
#
# Coordination Sequence:
#
# PCOD9027025 Si02
#       8
#     2   2   2   2   2   2   2   2
#     4   9  18  36  63  89 123 158 205 251 299 356
#     4   9  18  36  61  88 122 155 203 250 301 358
#     4  10  22  45  62  88 126 165 204 252 315 373
#     4  11  21  40  63  93 128 165 199 257 306 368
#     4  10  22  41  66  95 117 158 218 257 293 390
#     4  11  24  41  63  86 130 168 197 252 321 362
#     4  11  20  37  69  93 121 155 210 260 308 356
#     4  11  21  40  60  91 128 165 201 254 302 368
#
# _framework density 25.077691000000002
#
# number of rings (size 3 to 8) (size 9 to 14) (size 15 to 20)
#    0.000    1.750    6.250    0.000    0.000    2.000 
#    4.500    3.750    0.000    0.000    0.000    0.000 
#    0.000    0.000    0.000    0.000    0.000    0.000 
#
# Total GULP energy -89344.368178 kJ/mol
# GULP energy per Si atom -5584.023011 kJ/mol
# Density = 2.502061 g / cm^3
# Si number density = 25.077691 Si / 1000 Ang^3
#
#
#
# Elastic Constant Matrix: (Units=GPa)
#
#
# Indices 1 2 3 4 5 6 
#
# 1 81.8338 1.7614 30.1789 -17.9435 -3.1197 -4.6277
# 2 1.7614 63.0494 46.3047 -11.7525 -5.2188 -0.4138
# 3 30.1789 46.3047 171.4115 -17.6547 4.7507 -0.8640
# 4 -17.9435 -11.7525 -17.6547 39.3045 -15.2226 2.2250
# 5 -3.1197 -5.2188 4.7507 -15.2226 41.3222 -0.6310
# 6 -4.6277 -0.4138 -0.8640 2.2250 -0.6310 20.4576
#
#
#
# Elastic Compliance Matrix: (Units=1/GPa)
#
#
# Indices 1 2 3 4 5 6 
#
# 1 0.015525 0.003867 -0.003006 0.008789 0.005285 0.002670
# 2 0.003867 0.022321 -0.006037 0.008378 0.006897 0.000373
# 3 -0.003006 -0.006037 0.008013 -0.000342 -0.002044 -0.000489
# 4 0.008789 0.008378 -0.000342 0.037984 0.015731 -0.001503
# 5 0.005285 0.006897 -0.002044 0.015731 0.031508 0.000510
# 6 0.002670 0.000373 -0.000489 -0.001503 0.000510 0.049652
#
#
# Mechanical properties :
#
#
# Convention : Reuss Voigt Hill
#
# Bulk Modulus (GPa) = 28.16306 52.53164 40.34735
# Shear Modulus (GPa) = 26.71088 36.08685 31.39887
#
# Velocity S-wave (km/s) = 3.26717 3.79753 3.54229
# Velocity P-wave (km/s) = 5.04849 6.34203 5.73187
#
# Compressibility (1/GPa) = 0.03550751
#
# Stress axis : x y z
#
# Youngs Moduli (GPa) = 64.41337 44.80021 124.79911
#
# Poissons Ratio (x) = -0.17324 0.37511
# Poissons Ratio (y) = -0.24909 0.75341
# Poissons Ratio (z) = 0.19361 0.27046
#
# Static dielectric constant tensor:
#      x y z
#    x 2.037560 0.003560 0.027490 
#    y 0.003560 2.061400 0.078260 
#    z 0.027490 0.078260 2.041210 
# 
# From -- ./inp_files/343602.got.cif
#   From: 2010.05.17/outbox.cif.g08.bks.cpg/sg2_172_cif.got.tgz:343602.got - 2010.06.03 11:33:40.
