data_PCOD9027595
_publ_section_title
;
Structure prediction by ZEFSAII (Michael W. Deem and Ramdas Pophale) SiO2 
 PCOD9027595
Probable space group: P -1
;
_chemical_formula_sum "Si O2"
_cell_formula_units_Z 16
_cell_length_a 5.490944
_cell_length_b 13.725515
_cell_length_c 13.582416
_cell_angle_alpha 40.866988
_cell_angle_beta 95.927554
_cell_angle_gamma 108.913898
_cell_volume 616.752961
_symmetry_space_group_name_H-M "P -1"
_symmetry_group_IT_number 2
_symmetry_cell_setting 'triclinic'
loop_
_space_group_symop_operation_xyz
x,y,z
-x,-y,-z
loop_
_atom_site_type_symbol
_atom_site_label
_atom_site_fract_x
_atom_site_fract_y
_atom_site_fract_z
Si Si1 0.544458 0.287978 0.936300
Si Si2 0.687016 0.396996 0.075257
Si Si3 0.287556 0.941022 0.388872
Si Si4 0.285795 0.942775 0.173876
Si Si5 0.447721 0.656296 0.437518
Si Si6 0.806583 0.668140 0.262103
Si Si7 0.152802 0.367653 0.363931
Si Si8 0.356230 0.159927 0.395602
O O1 0.289493 0.322317 0.859737
O O2 0.788295 0.445914 0.790491
O O3 0.590843 0.293722 0.050141
O O4 0.489538 0.115792 0.014770
O O5 0.615157 0.276853 0.256382
O O6 0.500000 0.500000 0.000000
O O7 0.000000 0.500000 0.000000
O O8 0.204144 0.987382 0.243815
O O9 0.570988 0.945175 0.437103
O O10 0.135776 0.749406 0.532729
O O11 0.200999 0.037031 0.396633
O O12 0.427400 0.827101 0.303605
O O13 0.048379 0.828658 0.183072
O O14 0.559000 0.650736 0.337140
O O15 0.186845 0.504905 0.577314
O O16 0.666855 0.653661 0.524875
O O17 0.236459 0.284157 0.338634
#
# Coordination Sequence:
#
# PCOD9027595 Si02
#       8
#     2   2   2   2   2   2   2   2
#     4  11  25  45  66 103 140 182 235 289 365 432
#     4  12  26  50  72 106 152 195 237 297 367 438
#     4  11  23  39  68  98 135 178 240 294 352 421
#     4  12  22  43  66 101 136 177 233 296 360 423
#     4  10  22  41  68  96 128 173 235 288 354 429
#     4  10  23  45  67  94 135 179 232 293 358 425
#     4  11  21  43  67  96 136 184 227 290 355 429
#     4  11  23  41  67 100 133 184 243 290 347 427
#
# _framework density 25.942316000000002
#
# number of rings (size 3 to 8) (size 9 to 14) (size 15 to 20)
#    0.000    1.000    5.000    1.875    0.000    0.500 
#    6.750    0.000    0.000    0.000    0.000    0.000 
#    0.000    0.000    0.000    0.000    0.000    0.000 
#
# Total GULP energy -89336.670605 kJ/mol
# GULP energy per Si atom -5583.541913 kJ/mol
# Density = 2.588327 g / cm^3
# Si number density = 25.942316 Si / 1000 Ang^3
#
#
#
# Elastic Constant Matrix: (Units=GPa)
#
#
# Indices 1 2 3 4 5 6 
#
# 1 57.4975 25.0040 13.4493 -8.9221 -1.9953 4.1024
# 2 25.0040 135.2192 27.3449 -22.5656 -5.6242 23.6776
# 3 13.4493 27.3449 97.7560 -26.6595 1.4620 7.4513
# 4 -8.9221 -22.5656 -26.6595 74.4927 5.4780 2.0309
# 5 -1.9953 -5.6242 1.4620 5.4780 30.8087 -0.9458
# 6 4.1024 23.6776 7.4513 2.0309 -0.9458 35.5410
#
#
#
# Elastic Compliance Matrix: (Units=1/GPa)
#
#
# Indices 1 2 3 4 5 6 
#
# 1 0.019245 -0.003115 -0.001597 0.000740 0.000627 0.000163
# 2 -0.003115 0.009669 -0.001242 0.002196 0.001050 -0.005919
# 3 -0.001597 -0.001242 0.012021 0.003905 -0.001649 -0.001776
# 4 0.000740 0.002196 0.003905 0.015862 -0.002660 -0.003344
# 5 0.000627 0.001050 -0.001649 -0.002660 0.033261 0.000611
# 6 0.000163 -0.005919 -0.001776 -0.003344 0.000611 0.032641
#
#
# Mechanical properties :
#
#
# Convention : Reuss Voigt Hill
#
# Bulk Modulus (GPa) = 34.44839 46.89656 40.67247
# Shear Modulus (GPa) = 34.65446 43.14678 38.90062
#
# Velocity S-wave (km/s) = 3.65886 4.08264 3.87654
# Velocity P-wave (km/s) = 5.58188 6.35141 5.97904
#
# Compressibility (1/GPa) = 0.02902893
#
# Stress axis : x y z
#
# Youngs Moduli (GPa) = 51.96164 103.42229 83.18475
#
# Poissons Ratio (x) = 0.32214 0.13281
# Poissons Ratio (y) = 0.16185 0.10331
# Poissons Ratio (z) = 0.08296 0.12844
#
# Static dielectric constant tensor:
#      x y z
#    x 2.047390 -0.058790 -0.047420 
#    y -0.058790 2.157720 -0.013670 
#    z -0.047420 -0.013670 2.146890 
# 
# From -- ./inp_files/484281.got.cif
#   From: 2010.05.17/outbox.cif.g08.bks.cpg/sg2_243_cif.got.tgz:484281.got - 2010.06.03 11:33:40.
