data_PCOD9027624
_publ_section_title
;
Structure prediction by ZEFSAII (Michael W. Deem and Ramdas Pophale) SiO2 
 PCOD9027624
Probable space group: P -1
;
_chemical_formula_sum "Si O2"
_cell_formula_units_Z 14
_cell_length_a 10.777129
_cell_length_b 8.824858
_cell_length_c 13.675611
_cell_angle_alpha 49.800453
_cell_angle_beta 33.991815
_cell_angle_gamma 58.316983
_cell_volume 555.251716
_symmetry_space_group_name_H-M "P -1"
_symmetry_group_IT_number 2
_symmetry_cell_setting 'triclinic'
loop_
_space_group_symop_operation_xyz
x,y,z
-x,-y,-z
loop_
_atom_site_type_symbol
_atom_site_label
_atom_site_fract_x
_atom_site_fract_y
_atom_site_fract_z
Si Si1 0.934292 0.899631 0.885187
Si Si2 0.515161 0.529623 0.682952
Si Si3 0.579071 0.132923 0.744145
Si Si4 0.196875 0.631294 0.674849
Si Si5 0.844067 0.299626 0.009099
Si Si6 0.460255 0.265855 0.137757
Si Si7 0.887503 0.709214 0.473066
O O1 0.033328 0.740248 0.811362
O O2 0.952906 0.109267 0.733131
O O3 0.080861 0.874971 0.896420
O O4 0.684970 0.847424 0.097560
O O5 0.622888 0.313264 0.715314
O O6 0.398783 0.560860 0.641333
O O7 0.711128 0.687472 0.508952
O O8 0.332649 0.572443 0.866576
O O9 0.710364 0.211789 0.530155
O O10 0.606696 0.895943 0.834237
O O11 0.054154 0.450615 0.793902
O O12 0.699440 0.214301 0.049822
O O13 0.261320 0.246452 0.353603
O O14 0.500000 0.500000 0.000000
O O15 0.000000 0.500000 0.500000
#
# Coordination Sequence:
#
# PCOD9027624 Si02
#       7
#     2   2   2   2   2   2   2
#     4  11  22  42  69 101 133 177 217 271 340 387
#     4  10  22  41  68  97 132 174 219 271 329 397
#     4  12  23  40  70 102 132 172 224 271 331 399
#     4  11  21  42  67 104 139 165 220 278 331 389
#     4  10  22  43  71  94 141 172 216 277 332 393
#     4  11  26  46  64 101 134 176 228 272 323 403
#     4  11  25  47  67  92 139 183 218 273 334 390
#
# _framework density 25.213791000000001
#
# number of rings (size 3 to 8) (size 9 to 14) (size 15 to 20)
#    0.000    1.143    4.286    2.143    2.000    4.571 
#    2.571    3.571    0.000    0.000    0.000    0.000 
#    0.000    0.000    0.000    0.000    0.000    0.000 
#
# Total GULP energy -78285.677814 kJ/mol
# GULP energy per Si atom -5591.834130 kJ/mol
# Density = 2.515640 g / cm^3
# Si number density = 25.213791 Si / 1000 Ang^3
#
#
#
# Elastic Constant Matrix: (Units=GPa)
#
#
# Indices 1 2 3 4 5 6 
#
# 1 24.3219 -1.8575 16.1723 5.5797 -6.3447 -11.2476
# 2 -1.8575 106.2188 12.0285 -11.5708 9.0920 -2.5494
# 3 16.1723 12.0285 110.5600 -14.2031 3.0176 -5.0664
# 4 5.5797 -11.5708 -14.2031 46.9930 -4.6865 8.7153
# 5 -6.3447 9.0920 3.0176 -4.6865 25.9132 -3.3624
# 6 -11.2476 -2.5494 -5.0664 8.7153 -3.3624 30.4659
#
#
#
# Elastic Compliance Matrix: (Units=1/GPa)
#
#
# Indices 1 2 3 4 5 6 
#
# 1 0.072576 -0.000132 -0.011769 -0.016046 0.020393 0.031667
# 2 -0.000132 0.009973 -0.000737 0.001983 -0.003119 -0.000248
# 3 -0.011769 -0.000737 0.011401 0.005114 -0.003593 -0.004370
# 4 -0.016046 0.001983 0.005114 0.027430 -0.001942 -0.012969
# 5 0.020393 -0.003119 -0.003593 -0.001942 0.046346 0.012341
# 6 0.031667 -0.000248 -0.004370 -0.012969 0.012341 0.048839
#
#
# Mechanical properties :
#
#
# Convention : Reuss Voigt Hill
#
# Bulk Modulus (GPa) = 14.56132 32.64302 23.60217
# Shear Modulus (GPa) = 18.88699 34.99158 26.93929
#
# Velocity S-wave (km/s) = 2.73989 3.72935 3.27224
# Velocity P-wave (km/s) = 3.97455 5.61415 4.86393
#
# Compressibility (1/GPa) = 0.06867510
#
# Stress axis : x y z
#
# Youngs Moduli (GPa) = 13.77869 100.27296 87.70942
#
# Poissons Ratio (x) = 0.01320 1.03221
# Poissons Ratio (y) = 0.00181 0.06466
# Poissons Ratio (z) = 0.16216 0.07392
#
# Static dielectric constant tensor:
#      x y z
#    x 2.001610 0.011610 0.000530 
#    y 0.011610 2.056520 0.000580 
#    z 0.000530 0.000580 1.934760 
# 
# From -- ./inp_files/206033.got.cif
#   From: 2010.05.17/outbox.cif.g08.bks.cpg/sg2_104_cif.got.tgz:206033.got - 2010.06.03 11:33:40.
