data_PCOD9027541
_publ_section_title
;
Structure prediction by ZEFSAII (Michael W. Deem and Ramdas Pophale) SiO2 
 PCOD9027541
Probable space group: P -1
;
_chemical_formula_sum "Si O2"
_cell_formula_units_Z 14
_cell_length_a 7.485475
_cell_length_b 14.625996
_cell_length_c 8.815339
_cell_angle_alpha 69.932648
_cell_angle_beta 71.311497
_cell_angle_gamma 126.788762
_cell_volume 519.080465
_symmetry_space_group_name_H-M "P -1"
_symmetry_group_IT_number 2
_symmetry_cell_setting 'triclinic'
loop_
_space_group_symop_operation_xyz
x,y,z
-x,-y,-z
loop_
_atom_site_type_symbol
_atom_site_label
_atom_site_fract_x
_atom_site_fract_y
_atom_site_fract_z
Si Si1 0.196467 0.418659 0.950715
Si Si2 0.884210 0.225143 0.859297
Si Si3 0.651600 0.330064 0.826263
Si Si4 0.791403 0.319318 0.375514
Si Si5 0.778701 0.827586 0.237299
Si Si6 0.733918 0.749713 0.774051
Si Si7 0.646539 0.046716 0.600899
O O1 0.493024 0.605700 0.802014
O O2 0.227077 0.326247 0.075692
O O3 0.141640 0.379292 0.812276
O O4 0.909096 0.354605 0.150221
O O5 0.615692 0.080863 0.132043
O O6 0.742008 0.258649 0.793417
O O7 0.022666 0.186095 0.766366
O O8 0.467562 0.302780 0.753702
O O9 0.950757 0.511535 0.702214
O O10 0.421208 0.233043 0.088485
O O11 0.442374 0.214864 0.552573
O O12 0.800596 0.214117 0.496714
O O13 0.000000 0.000000 0.000000
O O14 0.067154 0.908823 0.522276
O O15 0.500000 0.000000 0.500000
#
# Coordination Sequence:
#
# PCOD9027541 Si02
#       7
#     2   2   2   2   2   2   2
#     4   9  18  38  66  96 120 169 212 258 318 381
#     4  12  24  41  70  97 131 163 221 269 318 387
#     4  11  25  43  66  99 127 169 222 265 320 384
#     4  10  22  41  68  93 130 174 216 259 321 386
#     4  12  25  45  69  89 132 179 208 270 327 380
#     4   9  18  35  64  91 129 162 210 256 318 380
#     4  11  19  38  66  99 130 172 211 259 327 386
#
# _framework density 26.970769000000001
#
# number of rings (size 3 to 8) (size 9 to 14) (size 15 to 20)
#    0.000    1.429    5.714    1.286    0.000    4.000 
#    0.000    1.429    3.143    0.000    0.000    0.000 
#    0.000    0.000    0.000    0.000    0.000    0.000 
#
# Total GULP energy -78517.413133 kJ/mol
# GULP energy per Si atom -5608.386652 kJ/mol
# Density = 2.690938 g / cm^3
# Si number density = 26.970769 Si / 1000 Ang^3
#
#
#
# Elastic Constant Matrix: (Units=GPa)
#
#
# Indices 1 2 3 4 5 6 
#
# 1 105.0375 24.1706 39.0815 3.8545 -15.2449 -34.1673
# 2 24.1706 78.9461 27.7673 15.8064 -13.3835 -16.4839
# 3 39.0815 27.7673 135.7491 16.1774 -40.4196 -14.0811
# 4 3.8545 15.8064 16.1774 32.6947 -10.9896 -6.7629
# 5 -15.2449 -13.3835 -40.4196 -10.9896 46.9072 4.9421
# 6 -34.1673 -16.4839 -14.0811 -6.7629 4.9421 41.4834
#
#
#
# Elastic Compliance Matrix: (Units=1/GPa)
#
#
# Indices 1 2 3 4 5 6 
#
# 1 0.014466 -0.001630 -0.002623 0.003125 0.001581 0.010698
# 2 -0.001630 0.015669 -0.001399 -0.005639 0.001060 0.003363
# 3 -0.002623 -0.001399 0.010909 -0.001861 0.007737 -0.000239
# 4 0.003125 -0.005639 -0.001861 0.036890 0.005918 0.005011
# 5 0.001581 0.001060 0.007737 0.005918 0.030005 0.001740
# 6 0.010698 0.003363 -0.000239 0.005011 0.001740 0.034782
#
#
# Mechanical properties :
#
#
# Convention : Reuss Voigt Hill
#
# Bulk Modulus (GPa) = 33.62704 55.75240 44.68972
# Shear Modulus (GPa) = 30.49889 39.46460 34.98175
#
# Velocity S-wave (km/s) = 3.36640 3.82938 3.60533
# Velocity P-wave (km/s) = 5.25407 6.34574 5.82554
#
# Compressibility (1/GPa) = 0.02973797
#
# Stress axis : x y z
#
# Youngs Moduli (GPa) = 69.12643 63.82012 91.66909
#
# Poissons Ratio (x) = 0.10405 0.24047
# Poissons Ratio (y) = 0.11270 0.12828
# Poissons Ratio (z) = 0.18134 0.08931
#
# Static dielectric constant tensor:
#      x y z
#    x 2.119490 0.019310 0.000850 
#    y 0.019310 2.080370 -0.004540 
#    z 0.000850 -0.004540 2.103950 
# 
# From -- ./inp_files/397347.got.cif
#   From: 2010.05.17/outbox.cif.g08.bks.cpg/sg2_199_cif.got.tgz:397347.got - 2010.06.03 11:33:40.
