data_PCOD9027305
_publ_section_title
;
Structure prediction by ZEFSAII (Michael W. Deem and Ramdas Pophale) SiO2 
 PCOD9027305
Probable space group: P -1
;
_chemical_formula_sum "Si O2"
_cell_formula_units_Z 14
_cell_length_a 6.854818
_cell_length_b 11.312510
_cell_length_c 13.693296
_cell_angle_alpha 149.046383
_cell_angle_beta 100.349237
_cell_angle_gamma 93.884191
_cell_volume 482.896710
_symmetry_space_group_name_H-M "P -1"
_symmetry_group_IT_number 2
_symmetry_cell_setting 'triclinic'
loop_
_space_group_symop_operation_xyz
x,y,z
-x,-y,-z
loop_
_atom_site_type_symbol
_atom_site_label
_atom_site_fract_x
_atom_site_fract_y
_atom_site_fract_z
Si Si1 0.805593 0.266092 0.188687
Si Si2 0.856817 0.589793 0.832938
Si Si3 0.839620 0.753094 0.429742
Si Si4 0.818857 0.457875 0.035827
Si Si5 0.116075 0.928738 0.755070
Si Si6 0.497770 0.948743 0.603798
Si Si7 0.630497 0.798366 0.705013
O O1 0.742591 0.481603 0.289591
O O2 0.806460 0.235819 0.283597
O O3 0.055727 0.354632 0.230429
O O4 0.671459 0.984222 0.932590
O O5 0.710210 0.292144 0.629808
O O6 0.089014 0.673202 0.967915
O O7 0.755372 0.771672 0.993840
O O8 0.698957 0.908609 0.544074
O O9 0.071343 0.896140 0.611784
O O10 0.834426 0.691139 0.270279
O O11 0.581688 0.254075 0.830763
O O12 0.000000 0.500000 0.000000
O O13 0.869593 0.850372 0.719866
O O14 0.500396 0.872997 0.663006
O O15 0.500000 0.500000 0.500000
#
# Coordination Sequence:
#
# PCOD9027305 Si02
#       7
#     2   2   2   2   2   2   2
#     4  10  18  34  58  90 128 168 205 235 296 366
#     4  10  20  40  63  89 125 166 196 251 308 359
#     4  10  21  40  60  91 125 156 205 257 298 361
#     4  11  24  46  68  87 118 160 206 260 315 361
#     4  10  18  34  57  89 128 164 202 243 297 362
#     4  11  21  41  63  89 130 156 202 259 299 359
#     4  10  17  31  57  87 126 169 199 240 297 353
#
# _framework density 28.991710000000001
#
# number of rings (size 3 to 8) (size 9 to 14) (size 15 to 20)
#    0.000    1.714    5.714    3.857    0.000    1.143 
#    5.143    7.143    0.000    0.000    0.000    0.000 
#    0.000    0.000    0.000    0.000    0.000    0.000 
#
# Total GULP energy -78312.593536 kJ/mol
# GULP energy per Si atom -5593.756681 kJ/mol
# Density = 2.892572 g / cm^3
# Si number density = 28.991710 Si / 1000 Ang^3
#
#
#
# Elastic Constant Matrix: (Units=GPa)
#
#
# Indices 1 2 3 4 5 6 
#
# 1 48.2118 10.0756 44.7020 -5.9306 6.4932 2.0446
# 2 10.0756 101.0043 51.8320 -28.1746 -7.6350 20.2306
# 3 44.7020 51.8320 231.1340 1.7888 -5.8422 22.6889
# 4 -5.9306 -28.1746 1.7888 51.5933 11.9610 -6.9083
# 5 6.4932 -7.6350 -5.8422 11.9610 59.0812 -6.6685
# 6 2.0446 20.2306 22.6889 -6.9083 -6.6685 33.7719
#
#
#
# Elastic Compliance Matrix: (Units=1/GPa)
#
#
# Indices 1 2 3 4 5 6 
#
# 1 0.027002 0.000994 -0.005773 0.005075 -0.004229 0.001851
# 2 0.000994 0.014453 -0.002989 0.007556 -0.000664 -0.005296
# 3 -0.005773 -0.002989 0.006422 -0.003148 0.001230 -0.002575
# 4 0.005075 0.007556 -0.003148 0.025541 -0.004890 0.001541
# 5 -0.004229 -0.000664 0.001230 -0.004890 0.018701 0.002520
# 6 0.001851 -0.005296 -0.002575 0.001541 0.002520 0.035214
#
#
# Mechanical properties :
#
#
# Convention : Reuss Voigt Hill
#
# Bulk Modulus (GPa) = 30.92008 65.95217 48.43612
# Shear Modulus (GPa) = 32.54183 47.13865 39.84024
#
# Velocity S-wave (km/s) = 3.35394 4.03666 3.71103
# Velocity P-wave (km/s) = 5.06822 6.67265 5.92499
#
# Compressibility (1/GPa) = 0.03234144
#
# Stress axis : x y z
#
# Youngs Moduli (GPa) = 37.03399 69.18849 155.72525
#
# Poissons Ratio (x) = -0.06879 0.89903
# Poissons Ratio (y) = -0.03682 0.46544
# Poissons Ratio (z) = 0.21380 0.20679
#
# Static dielectric constant tensor:
#      x y z
#    x 2.333070 0.084530 -0.053150 
#    y 0.084530 2.372150 -0.066690 
#    z -0.053150 -0.066690 2.348800 
# 
# From -- ./inp_files/315188.got.cif
#   From: 2010.05.17/outbox.cif.g08.bks.cpg/sg2_158_cif.got.tgz:315188.got - 2010.06.03 11:33:40.
