data_PCOD9027783
_publ_section_title
;
Structure prediction by ZEFSAII (Michael W. Deem and Ramdas Pophale) SiO2 
 PCOD9027783
Probable space group: P -1
;
_chemical_formula_sum "Si O2"
_cell_formula_units_Z 16
_cell_length_a 21.061086
_cell_length_b 5.940186
_cell_length_c 7.993300
_cell_angle_alpha 57.239289
_cell_angle_beta 50.944294
_cell_angle_gamma 77.392040
_cell_volume 641.400529
_symmetry_space_group_name_H-M "P -1"
_symmetry_group_IT_number 2
_symmetry_cell_setting 'triclinic'
loop_
_space_group_symop_operation_xyz
x,y,z
-x,-y,-z
loop_
_atom_site_type_symbol
_atom_site_label
_atom_site_fract_x
_atom_site_fract_y
_atom_site_fract_z
Si Si1 0.733088 0.619606 0.432202
Si Si2 0.372067 0.651948 0.571718
Si Si3 0.569756 0.239016 0.221677
Si Si4 0.826674 0.163405 0.585637
Si Si5 0.339896 0.113840 0.977039
Si Si6 0.406943 0.225003 0.174854
Si Si7 0.979916 0.555693 0.203942
Si Si8 0.128439 0.969426 0.816840
O O1 0.706520 0.443393 0.379175
O O2 0.777972 0.416290 0.547370
O O3 0.648030 0.691981 0.617317
O O4 0.797861 0.905834 0.228871
O O5 0.362774 0.714617 0.758451
O O6 0.396803 0.358645 0.681165
O O7 0.428767 0.929241 0.296543
O O8 0.500000 0.000000 0.500000
O O9 0.616778 0.138384 0.029820
O O10 0.535603 0.503282 0.105427
O O11 0.915686 0.282713 0.474436
O O12 0.842218 0.071725 0.406235
O O13 0.757741 0.940061 0.881877
O O14 0.344951 0.164731 0.144277
O O15 0.928281 0.799514 0.193906
O O16 0.000000 0.500000 0.000000
O O17 0.068852 0.684989 0.084882
#
# Coordination Sequence:
#
# PCOD9027783 Si02
#       8
#     2   2   2   2   2   2   2   2
#     4  11  18  35  60  87 120 157 201 248 302 355
#     4  11  24  37  63  93 119 156 203 246 306 364
#     4  11  26  45  64  87 121 159 199 251 306 366
#     4  10  17  31  59  84 118 161 201 252 295 348
#     4  11  22  40  63  91 121 157 206 251 298 360
#     4  11  21  41  64  89 121 154 201 251 302 364
#     4   8  16  26  45  85 122 157 201 241 295 356
#     4   9  16  28  51  85 122 156 199 249 297 348
#
# _framework density 24.945412000000001
#
# number of rings (size 3 to 8) (size 9 to 14) (size 15 to 20)
#    0.000    1.750    3.750    0.750    0.000    2.500 
#    0.000    3.125    0.000    0.750    0.000   36.750 
#    0.000    0.000    0.000    0.000    0.000    0.000 
#
# Total GULP energy -89088.563649 kJ/mol
# GULP energy per Si atom -5568.035228 kJ/mol
# Density = 2.488864 g / cm^3
# Si number density = 24.945412 Si / 1000 Ang^3
#
#
#
# Elastic Constant Matrix: (Units=GPa)
#
#
# Indices 1 2 3 4 5 6 
#
# 1 82.7393 21.0791 52.9427 -14.2189 -13.8804 28.3857
# 2 21.0791 109.4765 56.7248 -14.8131 -12.1985 0.2985
# 3 52.9427 56.7248 120.5514 -27.6245 -19.9703 7.3227
# 4 -14.2189 -14.8131 -27.6245 35.0078 -8.4180 -3.1475
# 5 -13.8804 -12.1985 -19.9703 -8.4180 38.1104 -11.4546
# 6 28.3857 0.2985 7.3227 -3.1475 -11.4546 23.6943
#
#
#
# Elastic Compliance Matrix: (Units=1/GPa)
#
#
# Indices 1 2 3 4 5 6 
#
# 1 0.032428 -0.000313 -0.013783 -0.003227 -0.007896 -0.038830
# 2 -0.000313 0.012333 -0.004917 0.002174 0.002746 0.003355
# 3 -0.013783 -0.004917 0.020710 0.013322 0.012625 0.018046
# 4 -0.003227 0.002174 0.013322 0.045254 0.021318 0.016039
# 5 -0.007896 0.002746 0.012625 0.021318 0.044552 0.029892
# 6 -0.038830 0.003355 0.018046 0.016039 0.029892 0.099684
#
#
# Mechanical properties :
#
#
# Convention : Reuss Voigt Hill
#
# Bulk Modulus (GPa) = 36.43562 63.80671 50.12117
# Shear Modulus (GPa) = 16.54892 31.49721 24.02307
#
# Velocity S-wave (km/s) = 2.57846 3.55723 3.10663
# Velocity P-wave (km/s) = 4.84793 6.51965 5.74493
#
# Compressibility (1/GPa) = 0.02744567
#
# Stress axis : x y z
#
# Youngs Moduli (GPa) = 30.83788 81.08245 48.28637
#
# Poissons Ratio (x) = 0.02536 0.66553
# Poissons Ratio (y) = 0.00965 0.23741
# Poissons Ratio (z) = 0.42504 0.39866
#
# Static dielectric constant tensor:
#      x y z
#    x 1.992680 0.077470 -0.069020 
#    y 0.077470 2.012820 -0.110330 
#    z -0.069020 -0.110330 2.056360 
# 
# From -- ./inp_files/350641.got.cif
#   From: 2010.05.17/outbox.cif.g08.bks.cpg/sg2_176_cif.got.tgz:350641.got - 2010.06.03 11:33:40.
