data_PCOD9027469
_publ_section_title
;
Structure prediction by ZEFSAII (Michael W. Deem and Ramdas Pophale) SiO2 
 PCOD9027469
Probable space group: P -1
;
_chemical_formula_sum "Si O2"
_cell_formula_units_Z 10
_cell_length_a 4.726776
_cell_length_b 15.777610
_cell_length_c 5.605440
_cell_angle_alpha 72.993860
_cell_angle_beta 82.563585
_cell_angle_gamma 88.765482
_cell_volume 396.337834
_symmetry_space_group_name_H-M "P -1"
_symmetry_group_IT_number 2
_symmetry_cell_setting 'triclinic'
loop_
_space_group_symop_operation_xyz
x,y,z
-x,-y,-z
loop_
_atom_site_type_symbol
_atom_site_label
_atom_site_fract_x
_atom_site_fract_y
_atom_site_fract_z
Si Si1 0.599822 0.146005 0.961894
Si Si2 0.208437 0.585377 0.893509
Si Si3 0.081844 0.265914 0.951567
Si Si4 0.171461 0.990336 0.245192
Si Si5 0.790414 0.414513 0.607741
O O1 0.878110 0.179312 0.042791
O O2 0.693045 0.106873 0.727933
O O3 0.395047 0.229951 0.915731
O O4 0.421798 0.064547 0.161223
O O5 0.367427 0.590044 0.622052
O O6 0.008303 0.671341 0.872393
O O7 0.380911 0.583020 0.125928
O O8 0.000000 0.500000 0.000000
O O9 0.985126 0.328730 0.693230
O O10 0.000000 0.000000 0.500000
O O11 0.000000 0.000000 0.000000
O O12 0.000000 0.500000 0.500000
#
# Coordination Sequence:
#
# PCOD9027469 Si02
#       5
#     2   2   2   2   2
#     4  11  24  48  70 112 134 184 230 292 348 419
#     4   8  16  35  62  88 134 181 228 274 336 392
#     4  10  22  41  68 102 144 176 238 287 334 410
#     4  11  26  52  75 101 143 182 224 288 361 429
#     4   8  16  35  62  88 134 181 228 274 336 392
#
# _framework density 25.230998
#
# number of rings (size 3 to 8) (size 9 to 14) (size 15 to 20)
#    1.200    1.200    2.000    0.000    0.000    4.800 
#    7.200    2.000    0.000    0.000    0.000    0.000 
#    0.000    0.000    0.000    0.000    0.000    0.000 
#
# Total GULP energy -55812.936459 kJ/mol
# GULP energy per Si atom -5581.293646 kJ/mol
# Density = 2.517357 g / cm^3
# Si number density = 25.230998 Si / 1000 Ang^3
#
#
#
# Elastic Constant Matrix: (Units=GPa)
#
#
# Indices 1 2 3 4 5 6 
#
# 1 78.5686 29.6637 34.0964 13.1851 -15.8691 -8.1589
# 2 29.6637 143.9283 23.0727 11.7613 -5.5878 14.3046
# 3 34.0964 23.0727 185.3655 49.0630 19.3785 16.4848
# 4 13.1851 11.7613 49.0630 38.0871 6.7094 -1.5494
# 5 -15.8691 -5.5878 19.3785 6.7094 35.4889 -11.9022
# 6 -8.1589 14.3046 16.4848 -1.5494 -11.9022 45.3089
#
#
#
# Elastic Compliance Matrix: (Units=1/GPa)
#
#
# Indices 1 2 3 4 5 6 
#
# 1 0.021380 -0.003889 -0.005897 -0.000992 0.016193 0.011443
# 2 -0.003889 0.008123 0.000810 -0.002038 -0.001901 -0.004128
# 3 -0.005897 0.000810 0.010985 -0.011081 -0.009126 -0.008090
# 4 -0.000992 -0.002038 -0.011081 0.041860 -0.000701 0.005744
# 5 0.016193 -0.001901 -0.009126 -0.000701 0.046628 0.019061
# 6 0.011443 -0.004128 -0.008090 0.005744 0.019061 0.033582
#
#
# Mechanical properties :
#
#
# Convention : Reuss Voigt Hill
#
# Bulk Modulus (GPa) = 44.37301 64.61422 54.49362
# Shear Modulus (GPa) = 26.59269 45.17894 35.88581
#
# Velocity S-wave (km/s) = 3.25001 4.23615 3.77542
# Velocity P-wave (km/s) = 5.63101 7.04211 6.37572
#
# Compressibility (1/GPa) = 0.02253622
#
# Stress axis : x y z
#
# Youngs Moduli (GPa) = 46.77192 123.11288 91.03220
#
# Poissons Ratio (x) = 0.47876 0.53679
# Poissons Ratio (y) = 0.18189 -0.07370
# Poissons Ratio (z) = 0.27580 -0.09967
#
# Static dielectric constant tensor:
#      x y z
#    x 1.970320 -0.036340 0.062230 
#    y -0.036340 2.053050 0.016820 
#    z 0.062230 0.016820 2.005050 
# 
# From -- ./inp_files/2404.got.cif
#   From: 2010.05.17/outbox.cif.g08.bks.cpg/sg2_2_cif.got.tgz:2404.got - 2010.06.03 11:33:40.
