data_PCOD9027698
_publ_section_title
;
Structure prediction by ZEFSAII (Michael W. Deem and Ramdas Pophale) SiO2 
 PCOD9027698
Probable space group: P -1
;
_chemical_formula_sum "Si O2"
_cell_formula_units_Z 12
_cell_length_a 7.169385
_cell_length_b 11.646950
_cell_length_c 16.693521
_cell_angle_alpha 157.618459
_cell_angle_beta 58.403735
_cell_angle_gamma 124.157049
_cell_volume 439.164174
_symmetry_space_group_name_H-M "P -1"
_symmetry_group_IT_number 2
_symmetry_cell_setting 'triclinic'
loop_
_space_group_symop_operation_xyz
x,y,z
-x,-y,-z
loop_
_atom_site_type_symbol
_atom_site_label
_atom_site_fract_x
_atom_site_fract_y
_atom_site_fract_z
Si Si1 0.616687 0.627177 0.804323
Si Si2 0.762599 0.513377 0.461514
Si Si3 0.832575 0.278707 0.123925
Si Si4 0.035421 0.746245 0.263645
Si Si5 0.209721 0.899491 0.659506
Si Si6 0.642413 0.475081 0.049242
O O1 0.395195 0.666555 0.831107
O O2 0.682873 0.315218 0.563121
O O3 0.564269 0.639379 0.918000
O O4 0.802573 0.922240 0.922282
O O5 0.500000 0.500000 0.500000
O O6 0.854476 0.450784 0.314180
O O7 0.771472 0.252172 0.356605
O O8 0.940142 0.823375 0.652223
O O9 0.022041 0.442868 0.125988
O O10 0.833297 0.656566 0.187585
O O11 0.000000 0.000000 0.500000
O O12 0.257859 0.789212 0.187144
O O13 0.350849 0.244876 0.833121
#
# Coordination Sequence:
#
# PCOD9027698 Si02
#       6
#     2   2   2   2   2   2
#     4  10  22  43  70 104 145 191 237 298 364 424
#     4  11  24  42  70 107 144 186 245 299 358 430
#     4  10  22  41  69 100 140 188 242 298 354 432
#     4  10  22  42  69 103 139 190 244 297 363 431
#     4  11  24  43  73 105 146 191 237 299 363 429
#     4  10  23  44  70 101 148 190 235 302 363 427
#
# _framework density 27.324632999999999
#
# number of rings (size 3 to 8) (size 9 to 14) (size 15 to 20)
#    0.000    1.667    1.667    1.500    4.667    4.667 
#    3.000    0.833    0.000    0.000    0.000    0.000 
#    0.000    0.000    0.000    0.000    0.000    0.000 
#
# Total GULP energy -67290.672357 kJ/mol
# GULP energy per Si atom -5607.556030 kJ/mol
# Density = 2.726244 g / cm^3
# Si number density = 27.324633 Si / 1000 Ang^3
#
#
#
# Elastic Constant Matrix: (Units=GPa)
#
#
# Indices 1 2 3 4 5 6 
#
# 1 131.9842 19.8138 31.0222 -4.1382 -10.0201 -4.3839
# 2 19.8138 177.9041 41.1872 12.9805 -10.7107 1.6688
# 3 31.0222 41.1872 133.9091 3.8619 6.8521 20.3057
# 4 -4.1382 12.9805 3.8619 53.9001 1.9141 -5.7679
# 5 -10.0201 -10.7107 6.8521 1.9141 32.7245 0.4129
# 6 -4.3839 1.6688 20.3057 -5.7679 0.4129 30.8841
#
#
#
# Elastic Compliance Matrix: (Units=1/GPa)
#
#
# Indices 1 2 3 4 5 6 
#
# 1 0.008583 -0.000300 -0.002548 0.001139 0.002958 0.003083
# 2 -0.000300 0.006386 -0.002086 -0.001428 0.002510 0.000683
# 3 -0.002548 -0.002086 0.009956 -0.001029 -0.003400 -0.006941
# 4 0.001139 -0.001428 -0.001029 0.019588 -0.001107 0.004588
# 5 0.002958 0.002510 -0.003400 -0.001107 0.033038 0.001871
# 6 0.003083 0.000683 -0.006941 0.004588 0.001871 0.038175
#
#
# Mechanical properties :
#
#
# Convention : Reuss Voigt Hill
#
# Bulk Modulus (GPa) = 66.40937 69.76041 68.08489
# Shear Modulus (GPa) = 38.28104 46.95337 42.61720
#
# Velocity S-wave (km/s) = 3.74702 4.14980 3.95354
# Velocity P-wave (km/s) = 6.56329 6.96755 6.76844
#
# Compressibility (1/GPa) = 0.01505812
#
# Stress axis : x y z
#
# Youngs Moduli (GPa) = 116.50637 156.58964 100.44520
#
# Poissons Ratio (x) = 0.04698 0.25592
# Poissons Ratio (y) = 0.03495 0.20949
# Poissons Ratio (z) = 0.29684 0.32658
#
# Static dielectric constant tensor:
#      x y z
#    x 2.224680 0.001700 0.032860 
#    y 0.001700 2.069200 -0.009790 
#    z 0.032860 -0.009790 2.173660 
# 
# From -- ./inp_files/559461.got.cif
#   From: 2010.05.17/outbox.cif.g08.bks.cpg/sg2_280_cif.got.tgz:559461.got - 2010.06.03 11:33:40.
