data_PCOD9027917
_publ_section_title
;
Structure prediction by ZEFSAII (Michael W. Deem and Ramdas Pophale) SiO2 
 PCOD9027917
Probable space group: P -1
;
_chemical_formula_sum "Si O2"
_cell_formula_units_Z 14
_cell_length_a 10.249318
_cell_length_b 13.705394
_cell_length_c 20.973153
_cell_angle_alpha 157.861311
_cell_angle_beta 38.979225
_cell_angle_gamma 148.285417
_cell_volume 582.808323
_symmetry_space_group_name_H-M "P -1"
_symmetry_group_IT_number 2
_symmetry_cell_setting 'triclinic'
loop_
_space_group_symop_operation_xyz
x,y,z
-x,-y,-z
loop_
_atom_site_type_symbol
_atom_site_label
_atom_site_fract_x
_atom_site_fract_y
_atom_site_fract_z
Si Si1 0.318523 0.664624 0.447194
Si Si2 0.824762 0.214850 0.176608
Si Si3 0.633311 0.954024 0.222004
Si Si4 0.854143 0.597427 0.958737
Si Si5 0.698483 0.910137 0.857919
Si Si6 0.635523 0.794146 0.673680
Si Si7 0.874181 0.126396 0.470268
O O1 0.251186 0.313878 0.254190
O O2 0.185249 0.769107 0.511016
O O3 0.288777 0.763790 0.589362
O O4 0.609928 0.875791 0.447784
O O5 0.534105 0.069986 0.185414
O O6 0.960047 0.253499 0.082167
O O7 0.982178 0.565958 0.355157
O O8 0.793485 0.033284 0.144246
O O9 0.341693 0.766642 0.199893
O O10 0.677549 0.726413 0.108224
O O11 0.041794 0.753765 0.040710
O O12 0.605828 0.707391 0.706365
O O13 0.500000 0.000000 0.000000
O O14 0.500000 0.500000 0.500000
O O15 0.931799 0.978846 0.665622
#
# Coordination Sequence:
#
# PCOD9027917 Si02
#       7
#     2   2   2   2   2   2   2
#     4  11  23  43  69 101 137 186 231 286 347 413
#     4  11  21  43  66  98 141 179 225 289 341 409
#     4  11  24  42  72 100 133 192 229 281 358 407
#     4  11  24  44  65 103 141 175 237 288 341 421
#     4  12  25  45  68  99 143 182 230 288 347 409
#     4  10  22  42  67  96 133 178 229 278 337 415
#     4  10  22  41  70 101 134 176 238 285 336 420
#
# _framework density 24.021619999999999
#
# number of rings (size 3 to 8) (size 9 to 14) (size 15 to 20)
#    0.000    1.143    2.857    3.857    0.000    2.857 
#    5.143    4.286    0.000    0.000    0.000    0.000 
#    0.000    0.000    0.000    0.000    0.000    0.000 
#
# Total GULP energy -77978.943690 kJ/mol
# GULP energy per Si atom -5569.924549 kJ/mol
# Density = 2.396695 g / cm^3
# Si number density = 24.021620 Si / 1000 Ang^3
#
#
#
# Elastic Constant Matrix: (Units=GPa)
#
#
# Indices 1 2 3 4 5 6 
#
# 1 74.8906 11.2550 9.7069 -9.5261 17.3737 21.6924
# 2 11.2550 99.5267 3.8848 -5.9211 10.5379 21.0648
# 3 9.7069 3.8848 64.7447 -2.8087 25.9210 -0.6050
# 4 -9.5261 -5.9211 -2.8087 21.7756 0.8168 5.2286
# 5 17.3737 10.5379 25.9210 0.8168 36.9930 -5.4862
# 6 21.6924 21.0648 -0.6050 5.2286 -5.4862 46.1576
#
#
#
# Elastic Compliance Matrix: (Units=1/GPa)
#
#
# Indices 1 2 3 4 5 6 
#
# 1 0.023101 0.003466 0.003782 0.016088 -0.017254 -0.016262
# 2 0.003466 0.012932 0.002384 0.007921 -0.008553 -0.009413
# 3 0.003782 0.002384 0.022777 0.007340 -0.019424 -0.005707
# 4 0.016088 0.007921 0.007340 0.061677 -0.019337 -0.020365
# 5 -0.017254 -0.008553 -0.019424 -0.019337 0.054641 0.020442
# 6 -0.016262 -0.009413 -0.005707 -0.020365 0.020442 0.038265
#
#
# Mechanical properties :
#
#
# Convention : Reuss Voigt Hill
#
# Bulk Modulus (GPa) = 12.80829 32.09503 22.45166
# Shear Modulus (GPa) = 22.71161 35.27294 28.99228
#
# Velocity S-wave (km/s) = 3.07818 3.83611 3.47785
# Velocity P-wave (km/s) = 4.23994 5.74551 5.04916
#
# Compressibility (1/GPa) = 0.07807446
#
# Stress axis : x y z
#
# Youngs Moduli (GPa) = 43.28777 77.32966 43.90468
#
# Poissons Ratio (x) = -0.26801 -0.16606
# Poissons Ratio (y) = -0.15003 -0.10469
# Poissons Ratio (z) = -0.16373 -0.18439
#
# Static dielectric constant tensor:
#      x y z
#    x 2.173650 -0.082600 0.049890 
#    y -0.082600 1.977220 -0.031260 
#    z 0.049890 -0.031260 1.936610 
# 
# From -- ./inp_files/560138.got.cif
#   From: 2010.05.17/outbox.cif.g08.bks.cpg/sg2_281_cif.got.tgz:560138.got - 2010.06.03 11:33:40.
