data_PCOD9027505
_publ_section_title
;
Structure prediction by ZEFSAII (Michael W. Deem and Ramdas Pophale) SiO2 
 PCOD9027505
Probable space group: P -1
;
_chemical_formula_sum "Si O2"
_cell_formula_units_Z 16
_cell_length_a 15.857096
_cell_length_b 8.956657
_cell_length_c 11.854355
_cell_angle_alpha 49.402327
_cell_angle_beta 131.082860
_cell_angle_gamma 90.011380
_cell_volume 640.792374
_symmetry_space_group_name_H-M "P -1"
_symmetry_group_IT_number 2
_symmetry_cell_setting 'triclinic'
loop_
_space_group_symop_operation_xyz
x,y,z
-x,-y,-z
loop_
_atom_site_type_symbol
_atom_site_label
_atom_site_fract_x
_atom_site_fract_y
_atom_site_fract_z
Si Si1 0.899624 0.922399 0.465262
Si Si2 0.449164 0.023601 0.571314
Si Si3 0.545880 0.213662 0.667958
Si Si4 0.782503 0.069603 0.778660
Si Si5 0.952537 0.455765 0.596019
Si Si6 0.203839 0.983507 0.424255
Si Si7 0.440424 0.752017 0.088337
Si Si8 0.637903 0.646610 0.132560
O O1 0.899131 0.869249 0.623806
O O2 0.952818 0.645287 0.587413
O O3 0.708237 0.196330 0.110825
O O4 0.000000 0.000000 0.500000
O O5 0.327614 0.002803 0.497505
O O6 0.500000 0.000000 0.500000
O O7 0.384357 0.307825 0.434613
O O8 0.603204 0.784976 0.911916
O O9 0.500000 0.500000 0.500000
O O10 0.674351 0.040963 0.760598
O O11 0.604746 0.097017 0.904583
O O12 0.880616 0.920367 0.820208
O O13 0.627694 0.417837 0.440173
O O14 0.784181 0.554685 0.377205
O O15 0.000000 0.500000 0.500000
O O16 0.075110 0.117192 0.909835
O O17 0.312239 0.643977 0.705728
O O18 0.470063 0.858955 0.957165
#
# Coordination Sequence:
#
# PCOD9027505 Si02
#       8
#     2   2   2   2   2   2   2   2
#     4  12  27  48  74 109 155 198 248 321 383 442
#     4  12  23  40  73 113 152 191 248 314 375 451
#     4  10  22  41  68 108 145 190 250 307 360 436
#     4  10  23  47  71 108 144 196 249 299 370 450
#     4  12  27  49  73 106 156 198 252 306 387 447
#     4  11  25  45  73 110 150 191 254 305 382 447
#     4  10  23  44  77 109 145 193 262 302 372 446
#     4  11  25  45  78 108 151 199 252 313 374 454
#
# _framework density 24.969083999999999
#
# number of rings (size 3 to 8) (size 9 to 14) (size 15 to 20)
#    0.000    1.000    2.500    3.375    3.500    3.500 
#    4.500    2.500    0.000    0.000    0.000    0.000 
#    0.000    0.000    0.000    0.000    0.000    0.000 
#
# Total GULP energy -89075.524571 kJ/mol
# GULP energy per Si atom -5567.220286 kJ/mol
# Density = 2.491225 g / cm^3
# Si number density = 24.969084 Si / 1000 Ang^3
#
#
#
# Elastic Constant Matrix: (Units=GPa)
#
#
# Indices 1 2 3 4 5 6 
#
# 1 204.4666 64.8951 33.0043 30.1856 -20.3278 -13.2454
# 2 64.8951 111.2994 9.6829 20.6604 5.7803 1.4677
# 3 33.0043 9.6829 111.8226 7.7429 -6.8780 9.6346
# 4 30.1856 20.6604 7.7429 30.4824 1.9264 -4.3534
# 5 -20.3278 5.7803 -6.8780 1.9264 44.7368 20.1427
# 6 -13.2454 1.4677 9.6346 -4.3534 20.1427 54.4818
#
#
#
# Elastic Compliance Matrix: (Units=1/GPa)
#
#
# Indices 1 2 3 4 5 6 
#
# 1 0.007274 -0.003443 -0.001339 -0.004696 0.003564 0.000405
# 2 -0.003443 0.011989 0.000194 -0.004687 -0.002610 -0.000604
# 3 -0.001339 0.000194 0.009865 -0.001903 0.002361 -0.003100
# 4 -0.004696 -0.004687 -0.001903 0.042176 -0.005817 0.004842
# 5 0.003564 -0.002610 0.002361 -0.005817 0.029871 -0.010989
# 6 0.000405 -0.000604 -0.003100 0.004842 -0.010989 0.023468
#
#
# Mechanical properties :
#
#
# Convention : Reuss Voigt Hill
#
# Bulk Modulus (GPa) = 50.12129 71.41702 60.76915
# Shear Modulus (GPa) = 35.59496 47.27395 41.43445
#
# Velocity S-wave (km/s) = 3.77976 4.35593 4.07803
# Velocity P-wave (km/s) = 6.25825 7.34596 6.82381
#
# Compressibility (1/GPa) = 0.01995160
#
# Stress axis : x y z
#
# Youngs Moduli (GPa) = 137.48287 83.40956 101.36509
#
# Poissons Ratio (x) = 0.28719 0.13574
# Poissons Ratio (y) = 0.47338 -0.01968
# Poissons Ratio (z) = 0.18411 -0.01619
#
# Static dielectric constant tensor:
#      x y z
#    x 2.127250 0.090140 0.009350 
#    y 0.090140 2.353410 -0.097400 
#    z 0.009350 -0.097400 2.150990 
# 
# From -- ./inp_files/445682.got.cif
#   From: 2010.05.17/outbox.cif.g08.bks.cpg/sg2_223_cif.got.tgz:445682.got - 2010.06.03 11:33:40.
