data_PCOD9027622
_publ_section_title
;
Structure prediction by ZEFSAII (Michael W. Deem and Ramdas Pophale) SiO2 
 PCOD9027622
Probable space group: P -1
;
_chemical_formula_sum "Si O2"
_cell_formula_units_Z 12
_cell_length_a 20.409527
_cell_length_b 15.519117
_cell_length_c 5.577319
_cell_angle_alpha 124.775412
_cell_angle_beta 111.508553
_cell_angle_gamma 21.838556
_cell_volume 456.788135
_symmetry_space_group_name_H-M "P -1"
_symmetry_group_IT_number 2
_symmetry_cell_setting 'triclinic'
loop_
_space_group_symop_operation_xyz
x,y,z
-x,-y,-z
loop_
_atom_site_type_symbol
_atom_site_label
_atom_site_fract_x
_atom_site_fract_y
_atom_site_fract_z
Si Si1 0.081370 0.434599 0.254504
Si Si2 0.173754 0.535102 0.504810
Si Si3 0.751041 0.237054 0.024425
Si Si4 0.745972 0.528172 0.994755
Si Si5 0.758523 0.122790 0.353793
Si Si6 0.521938 0.240796 0.257802
O O1 0.038754 0.618297 0.484063
O O2 0.000000 0.500000 0.500000
O O3 0.000000 0.500000 0.000000
O O4 0.327287 0.069045 0.001710
O O5 0.287486 0.367704 0.137938
O O6 0.318266 0.341335 0.624423
O O7 0.002782 0.870025 0.786926
O O8 0.683399 0.278821 0.252699
O O9 0.623971 0.522998 0.339536
O O10 0.689328 0.268768 0.745571
O O11 0.642817 0.559556 0.854230
O O12 0.995753 0.193108 0.819795
O O13 0.690514 0.097179 0.218105
#
# Coordination Sequence:
#
# PCOD9027622 Si02
#       6
#     2   2   2   2   2   2
#     4  12  26  45  70  99 133 174 219 271 330 389
#     4  10  22  44  64  94 142 172 208 276 330 374
#     4  10  22  41  68  97 131 174 217 269 326 385
#     4  10  24  42  67  98 133 174 217 268 325 388
#     4  10  22  42  63  96 141 168 209 278 329 374
#     4  12  26  42  72 100 126 176 228 262 324 400
#
# _framework density 26.270385999999998
#
# number of rings (size 3 to 8) (size 9 to 14) (size 15 to 20)
#    0.000    1.333    0.000    6.000    0.000   12.000 
#    0.000    0.000    0.000    0.000    0.000    0.000 
#    0.000    0.000    0.000    0.000    0.000    0.000 
#
# Total GULP energy -67002.855054 kJ/mol
# GULP energy per Si atom -5583.571254 kJ/mol
# Density = 2.621059 g / cm^3
# Si number density = 26.270386 Si / 1000 Ang^3
#
#
#
# Elastic Constant Matrix: (Units=GPa)
#
#
# Indices 1 2 3 4 5 6 
#
# 1 94.3804 60.1911 49.8040 -24.5124 -22.5631 -0.0854
# 2 60.1911 138.1999 81.2082 -27.6343 -17.6273 -31.6759
# 3 49.8040 81.2082 162.7079 -36.7310 -6.2300 8.1486
# 4 -24.5124 -27.6343 -36.7310 86.5520 13.6759 -3.7383
# 5 -22.5631 -17.6273 -6.2300 13.6759 37.5596 -18.7729
# 6 -0.0854 -31.6759 8.1486 -3.7383 -18.7729 46.8623
#
#
#
# Elastic Compliance Matrix: (Units=1/GPa)
#
#
# Indices 1 2 3 4 5 6 
#
# 1 0.016878 -0.004985 -0.002142 0.001173 0.006978 -0.000078
# 2 -0.004985 0.024917 -0.011578 -0.000432 0.020429 0.026996
# 3 -0.002142 -0.011578 0.013479 0.002832 -0.013113 -0.015201
# 4 0.001173 -0.000432 0.002832 0.013639 -0.004803 -0.001618
# 5 0.006978 0.020429 -0.013113 -0.004803 0.059809 0.039678
# 6 -0.000078 0.026996 -0.015201 -0.001618 0.039678 0.057995
#
#
# Mechanical properties :
#
#
# Convention : Reuss Voigt Hill
#
# Bulk Modulus (GPa) = 55.97864 86.41053 71.19459
# Shear Modulus (GPa) = 21.73129 47.80044 34.76587
#
# Velocity S-wave (km/s) = 2.87926 4.27025 3.64178
# Velocity P-wave (km/s) = 5.69284 7.56820 6.69649
#
# Compressibility (1/GPa) = 0.01786396
#
# Stress axis : x y z
#
# Youngs Moduli (GPa) = 59.24826 40.13267 74.19154
#
# Poissons Ratio (x) = 0.20008 0.15893
# Poissons Ratio (y) = 0.29538 0.85895
# Poissons Ratio (z) = 0.12692 0.46464
#
# Static dielectric constant tensor:
#      x y z
#    x 2.228980 0.009700 0.001760 
#    y 0.009700 2.110820 0.026320 
#    z 0.001760 0.026320 2.090890 
# 
# From -- ./inp_files/91669.got.cif
#   From: 2010.05.17/outbox.cif.g08.bks.cpg/sg2_46_cif.got.tgz:91669.got - 2010.06.03 11:33:40.
