data_PCOD9027816
_publ_section_title
;
Structure prediction by ZEFSAII (Michael W. Deem and Ramdas Pophale) SiO2 
 PCOD9027816
Probable space group: P -1
;
_chemical_formula_sum "Si O2"
_cell_formula_units_Z 16
_cell_length_a 11.970298
_cell_length_b 9.245392
_cell_length_c 17.419448
_cell_angle_alpha 30.451854
_cell_angle_beta 122.893840
_cell_angle_gamma 131.714549
_cell_volume 726.951135
_symmetry_space_group_name_H-M "P -1"
_symmetry_group_IT_number 2
_symmetry_cell_setting 'triclinic'
loop_
_space_group_symop_operation_xyz
x,y,z
-x,-y,-z
loop_
_atom_site_type_symbol
_atom_site_label
_atom_site_fract_x
_atom_site_fract_y
_atom_site_fract_z
Si Si1 0.072338 0.778765 0.096506
Si Si2 0.448612 0.274277 0.354384
Si Si3 0.611347 0.693537 0.073584
Si Si4 0.107967 0.882217 0.358178
Si Si5 0.453427 0.851963 0.809554
Si Si6 0.780103 0.266691 0.678118
Si Si7 0.930363 0.265393 0.152014
Si Si8 0.348133 0.285802 0.645005
O O1 0.122726 0.637668 0.252542
O O2 0.959504 0.487376 0.135550
O O3 0.225797 0.992746 0.006774
O O4 0.000000 0.000000 0.000000
O O5 0.533378 0.516325 0.204337
O O6 0.507184 0.471306 0.364710
O O7 0.500000 0.000000 0.500000
O O8 0.270426 0.068921 0.372804
O O9 0.642850 0.453735 0.138955
O O10 0.492186 0.766101 0.947620
O O11 0.149630 0.899469 0.276011
O O12 0.000000 0.500000 0.500000
O O13 0.019077 0.058310 0.277401
O O14 0.614385 0.004916 0.758871
O O15 0.394195 0.112753 0.674863
O O16 0.747504 0.538042 0.501132
O O17 0.757638 0.003230 0.205738
O O18 0.000000 0.500000 0.000000
#
# Coordination Sequence:
#
# PCOD9027816 Si02
#       8
#     2   2   2   2   2   2   2   2
#     4  11  25  45  72 103 145 187 235 294 364 426
#     4  12  24  42  71 101 136 185 239 281 354 421
#     4  10  22  42  65 101 131 184 234 285 353 418
#     4  12  25  48  71 102 147 186 231 299 353 427
#     4  10  22  41  69  95 139 176 232 293 351 408
#     4  11  23  46  68 102 139 182 236 293 359 421
#     4  12  27  46  71 106 144 188 237 293 361 424
#     4  12  25  44  68 104 139 184 238 292 352 425
#
# _framework density 22.009734000000002
#
# number of rings (size 3 to 8) (size 9 to 14) (size 15 to 20)
#    0.000    0.750    3.750    2.625    5.250    2.000 
#    0.000    0.000    0.000    0.000    0.000    0.000 
#    0.000    0.000    0.000    0.000    0.000    0.000 
#
# Total GULP energy -89396.543284 kJ/mol
# GULP energy per Si atom -5587.283955 kJ/mol
# Density = 2.195964 g / cm^3
# Si number density = 22.009734 Si / 1000 Ang^3
#
#
#
# Elastic Constant Matrix: (Units=GPa)
#
#
# Indices 1 2 3 4 5 6 
#
# 1 86.6380 19.1250 17.9563 -6.3822 5.0872 0.2717
# 2 19.1250 110.9163 36.4078 -20.2480 1.4174 4.0758
# 3 17.9563 36.4078 92.3949 -5.3192 -7.2084 -0.6063
# 4 -6.3822 -20.2480 -5.3192 29.0632 -10.3116 -3.5417
# 5 5.0872 1.4174 -7.2084 -10.3116 37.5468 -14.4953
# 6 0.2717 4.0758 -0.6063 -3.5417 -14.4953 30.9342
#
#
#
# Elastic Compliance Matrix: (Units=1/GPa)
#
#
# Indices 1 2 3 4 5 6 
#
# 1 0.012431 -0.001310 -0.002053 0.000519 -0.002264 -0.000978
# 2 -0.001310 0.011918 -0.003935 0.007583 0.000926 -0.000334
# 3 -0.002053 -0.003935 0.013207 0.001170 0.004446 0.003013
# 4 0.000519 0.007583 0.001170 0.048010 0.018064 0.012981
# 5 -0.002264 0.000926 0.004446 0.018064 0.040914 0.021225
# 6 -0.000978 -0.000334 0.003013 0.012981 0.021225 0.043870
#
#
# Mechanical properties :
#
#
# Convention : Reuss Voigt Hill
#
# Bulk Modulus (GPa) = 43.55403 48.54748 46.05076
# Shear Modulus (GPa) = 25.96060 33.93951 29.95006
#
# Velocity S-wave (km/s) = 3.43812 3.93112 3.69286
# Velocity P-wave (km/s) = 5.96593 6.53530 6.25709
#
# Compressibility (1/GPa) = 0.02295999
#
# Stress axis : x y z
#
# Youngs Moduli (GPa) = 80.44293 83.90591 75.71921
#
# Poissons Ratio (x) = 0.10992 0.15544
# Poissons Ratio (y) = 0.10538 0.29796
# Poissons Ratio (z) = 0.16514 0.33018
#
# Static dielectric constant tensor:
#      x y z
#    x 1.931500 0.040880 -0.130420 
#    y 0.040880 1.807070 -0.018690 
#    z -0.130420 -0.018690 1.902910 
# 
# From -- ./inp_files/279131.got.cif
#   From: 2010.05.17/outbox.cif.g08.bks.cpg/sg2_140_cif.got.tgz:279131.got - 2010.06.03 11:33:40.
