data_PCOD9027651
_publ_section_title
;
Structure prediction by ZEFSAII (Michael W. Deem and Ramdas Pophale) SiO2 
 PCOD9027651
Probable space group: P -1
;
_chemical_formula_sum "Si O2"
_cell_formula_units_Z 16
_cell_length_a 20.513395
_cell_length_b 9.863090
_cell_length_c 9.215230
_cell_angle_alpha 76.909056
_cell_angle_beta 149.453017
_cell_angle_gamma 112.914085
_cell_volume 848.926648
_symmetry_space_group_name_H-M "P -1"
_symmetry_group_IT_number 2
_symmetry_cell_setting 'triclinic'
loop_
_space_group_symop_operation_xyz
x,y,z
-x,-y,-z
loop_
_atom_site_type_symbol
_atom_site_label
_atom_site_fract_x
_atom_site_fract_y
_atom_site_fract_z
Si Si1 0.222245 0.231122 0.700278
Si Si2 0.752077 0.836083 0.915985
Si Si3 0.555428 0.365112 0.614222
Si Si4 0.749297 0.595767 0.751818
Si Si5 0.040990 0.628253 0.170092
Si Si6 0.706391 0.413014 0.187417
Si Si7 0.049138 0.920073 0.981091
Si Si8 0.562363 0.669610 0.140119
O O1 0.262727 0.408929 0.771339
O O2 0.348701 0.226172 0.844644
O O3 0.085927 0.167792 0.355442
O O4 0.199152 0.143548 0.829096
O O5 0.584609 0.784600 0.616419
O O6 0.775384 0.692800 0.925581
O O7 0.834536 0.967364 0.929996
O O8 0.500000 0.500000 0.500000
O O9 0.645561 0.423008 0.627793
O O10 0.655932 0.369606 0.937431
O O11 0.670179 0.667411 0.473460
O O12 0.895673 0.607884 0.970730
O O13 0.156159 0.610643 0.499052
O O14 0.098255 0.795301 0.171753
O O15 0.000000 0.500000 0.000000
O O16 0.572038 0.314533 0.052163
O O17 0.000000 0.000000 0.000000
O O18 0.500000 0.500000 0.000000
#
# Coordination Sequence:
#
# PCOD9027651 Si02
#       8
#     2   2   2   2   2   2   2   2
#     4  11  20  37  64  95 121 165 217 262 307 372
#     4  11  21  38  65  92 125 162 220 259 310 369
#     4  10  18  35  64  93 123 164 211 266 306 371
#     4  11  19  38  63  89 125 165 210 257 306 374
#     4  12  24  40  62  95 132 167 208 263 319 371
#     4  11  20  35  62  99 125 157 213 268 316 360
#     4  12  24  42  64  91 131 173 211 255 313 390
#     4  10  17  31  58  89 120 157 212 255 296 369
#
# _framework density 18.847328000000001
#
# number of rings (size 3 to 8) (size 9 to 14) (size 15 to 20)
#    0.000    1.000    8.750    1.875    0.000    0.500 
#    0.000    0.625    0.000    1.500    0.000    0.000 
#    0.000    0.000    0.000    0.000    0.000    0.000 
#
# Total GULP energy -89232.281612 kJ/mol
# GULP energy per Si atom -5577.017601 kJ/mol
# Density = 1.880443 g / cm^3
# Si number density = 18.847328 Si / 1000 Ang^3
#
#
#
# Elastic Constant Matrix: (Units=GPa)
#
#
# Indices 1 2 3 4 5 6 
#
# 1 84.0763 25.3629 20.0457 -1.6731 4.8500 30.2640
# 2 25.3629 65.7431 4.7373 -2.2682 8.4064 27.8252
# 3 20.0457 4.7373 103.9524 -6.4583 -0.0735 3.8863
# 4 -1.6731 -2.2682 -6.4583 19.5580 6.8103 4.9077
# 5 4.8500 8.4064 -0.0735 6.8103 39.7437 9.1663
# 6 30.2640 27.8252 3.8863 4.9077 9.1663 36.0047
#
#
#
# Elastic Compliance Matrix: (Units=1/GPa)
#
#
# Indices 1 2 3 4 5 6 
#
# 1 0.018286 -0.000130 -0.002658 0.004390 0.000672 -0.015752
# 2 -0.000130 0.023798 0.000159 0.008266 -0.002075 -0.018898
# 3 -0.002658 0.000159 0.010296 0.003158 -0.000385 0.000668
# 4 0.004390 0.008266 0.003158 0.060727 -0.008894 -0.016432
# 5 0.000672 -0.002075 -0.000385 -0.008894 0.028167 -0.004878
# 6 -0.015752 -0.018898 0.000668 -0.016432 -0.004878 0.059029
#
#
# Mechanical properties :
#
#
# Convention : Reuss Voigt Hill
#
# Bulk Modulus (GPa) = 21.22173 39.34038 30.28105
# Shear Modulus (GPa) = 22.59696 32.63635 27.61665
#
# Velocity S-wave (km/s) = 3.46634 4.16578 3.83205
# Velocity P-wave (km/s) = 5.22541 6.63753 5.97335
#
# Compressibility (1/GPa) = 0.04712152
#
# Stress axis : x y z
#
# Youngs Moduli (GPa) = 54.68755 42.01955 97.12469
#
# Poissons Ratio (x) = 0.00548 0.25816
# Poissons Ratio (y) = 0.00714 -0.01546
# Poissons Ratio (z) = 0.14536 -0.00669
#
# Static dielectric constant tensor:
#      x y z
#    x 1.700960 0.039630 -0.005680 
#    y 0.039630 1.689130 0.035710 
#    z -0.005680 0.035710 1.673470 
# 
# From -- ./inp_files/344585.got.cif
#   From: 2010.05.17/outbox.cif.g08.bks.cpg/sg2_173_cif.got.tgz:344585.got - 2010.06.03 11:33:40.
