data_PCOD9027222
_publ_section_title
;
Structure prediction by ZEFSAII (Michael W. Deem and Ramdas Pophale) SiO2 
 PCOD9027222
Probable space group: P -1
;
_chemical_formula_sum "Si O2"
_cell_formula_units_Z 16
_cell_length_a 15.824029
_cell_length_b 8.763542
_cell_length_c 12.183307
_cell_angle_alpha 55.860171
_cell_angle_beta 134.735798
_cell_angle_gamma 97.144437
_cell_volume 881.848125
_symmetry_space_group_name_H-M "P -1"
_symmetry_group_IT_number 2
_symmetry_cell_setting 'triclinic'
loop_
_space_group_symop_operation_xyz
x,y,z
-x,-y,-z
loop_
_atom_site_type_symbol
_atom_site_label
_atom_site_fract_x
_atom_site_fract_y
_atom_site_fract_z
Si Si1 0.679626 0.486362 0.115088
Si Si2 0.458390 0.770795 0.961845
Si Si3 0.906867 0.339220 0.766152
Si Si4 0.890866 0.488152 0.155827
Si Si5 0.924783 0.726127 0.398750
Si Si6 0.102073 0.861109 0.384525
Si Si7 0.691253 0.772125 0.307158
Si Si8 0.963083 0.314332 0.066483
O O1 0.625460 0.354494 0.047483
O O2 0.761180 0.568385 0.080757
O O3 0.779362 0.323675 0.363710
O O4 0.553277 0.667283 0.986014
O O5 0.358694 0.012883 0.762097
O O6 0.561515 0.750283 0.160444
O O7 0.888722 0.203496 0.708308
O O8 0.791832 0.572495 0.546266
O O9 0.045866 0.353920 0.867768
O O10 0.901458 0.281071 0.910466
O O11 0.876475 0.395241 0.064725
O O12 0.002530 0.302156 0.405921
O O13 0.774097 0.779821 0.270964
O O14 0.000000 0.500000 0.500000
O O15 0.964198 0.871305 0.302766
O O16 0.088048 0.089403 0.294388
O O17 0.000000 0.500000 0.000000
#
# Coordination Sequence:
#
# PCOD9027222 Si02
#       8
#     2   2   2   2   2   2   2   2
#     4  10  21  34  53  85 113 135 179 225 280 323
#     4  10  21  33  51  82 110 149 175 219 271 324
#     4  10  19  37  56  79 111 144 179 218 269 333
#     4   9  19  34  54  81 112 135 171 229 280 322
#     4  10  17  31  57  86 111 133 170 228 288 327
#     4  11  20  33  59  83 110 142 172 228 283 326
#     4  10  19  34  55  80 111 144 178 220 272 323
#     4  10  23  35  51  85 110 145 180 218 280 324
#
# _framework density 18.143713999999999
#
# number of rings (size 3 to 8) (size 9 to 14) (size 15 to 20)
#    0.000    2.000    3.750    1.125    7.000    1.000 
#    0.000    0.000    0.000    1.500    0.000    0.000 
#    0.000    0.000    0.000    0.000    0.000    0.000 
#
# Total GULP energy -89132.380566 kJ/mol
# GULP energy per Si atom -5570.773785 kJ/mol
# Density = 1.810242 g / cm^3
# Si number density = 18.143714 Si / 1000 Ang^3
#
#
#
# Elastic Constant Matrix: (Units=GPa)
#
#
# Indices 1 2 3 4 5 6 
#
# 1 50.2813 25.1896 25.1911 4.0848 -2.3213 -12.8246
# 2 25.1896 76.1046 20.5136 -12.1114 3.8949 -6.3939
# 3 25.1911 20.5136 42.7428 -7.6732 0.9555 -8.6904
# 4 4.0848 -12.1114 -7.6732 34.5900 -7.4752 5.0337
# 5 -2.3213 3.8949 0.9555 -7.4752 26.0406 7.2046
# 6 -12.8246 -6.3939 -8.6904 5.0337 7.2046 26.0913
#
#
#
# Elastic Compliance Matrix: (Units=1/GPa)
#
#
# Indices 1 2 3 4 5 6 
#
# 1 0.037602 -0.008609 -0.017652 -0.013945 -0.002559 0.013890
# 2 -0.008609 0.017632 -0.002532 0.006698 -0.000891 -0.001800
# 3 -0.017652 -0.002532 0.036929 0.009134 -0.000294 0.001322
# 4 -0.013945 0.006698 0.009134 0.039541 0.012431 -0.013232
# 5 -0.002559 -0.000891 -0.000294 0.012431 0.046540 -0.016823
# 6 0.013890 -0.001800 0.001322 -0.013232 -0.016823 0.052352
#
#
# Mechanical properties :
#
#
# Convention : Reuss Voigt Hill
#
# Bulk Modulus (GPa) = 28.91994 34.54637 31.73316
# Shear Modulus (GPa) = 16.68290 23.89334 20.28812
#
# Velocity S-wave (km/s) = 3.03559 3.63284 3.34756
# Velocity P-wave (km/s) = 5.31605 6.05627 5.69819
#
# Compressibility (1/GPa) = 0.03457821
#
# Stress axis : x y z
#
# Youngs Moduli (GPa) = 26.59421 56.71465 27.07875
#
# Poissons Ratio (x) = 0.48827 0.47798
# Poissons Ratio (y) = 0.22896 0.06856
# Poissons Ratio (z) = 0.46943 0.14360
#
# Static dielectric constant tensor:
#      x y z
#    x 1.639170 0.004110 -0.007190 
#    y 0.004110 1.686520 0.017110 
#    z -0.007190 0.017110 1.635210 
# 
# From -- ./inp_files/252262.got.cif
#   From: 2010.05.17/outbox.cif.g08.bks.cpg/sg2_127_cif.got.tgz:252262.got - 2010.06.03 11:33:40.
