data_PCOD9027985
_publ_section_title
;
Structure prediction by ZEFSAII (Michael W. Deem and Ramdas Pophale) SiO2 
 PCOD9027985
Probable space group: P -1
;
_chemical_formula_sum "Si O2"
_cell_formula_units_Z 16
_cell_length_a 14.518156
_cell_length_b 9.023938
_cell_length_c 8.600750
_cell_angle_alpha 74.365470
_cell_angle_beta 101.518038
_cell_angle_gamma 51.640183
_cell_volume 743.652879
_symmetry_space_group_name_H-M "P -1"
_symmetry_group_IT_number 2
_symmetry_cell_setting 'triclinic'
loop_
_space_group_symop_operation_xyz
x,y,z
-x,-y,-z
loop_
_atom_site_type_symbol
_atom_site_label
_atom_site_fract_x
_atom_site_fract_y
_atom_site_fract_z
Si Si1 0.468328 0.836561 0.806974
Si Si2 0.871649 0.510172 0.778645
Si Si3 0.108642 0.822009 0.956973
Si Si4 0.764712 0.509390 0.149295
Si Si5 0.466322 0.398806 0.400752
Si Si6 0.683358 0.667667 0.408406
Si Si7 0.178308 0.230991 0.028882
Si Si8 0.319859 0.814743 0.023283
O O1 0.444612 0.809235 0.628764
O O2 0.411577 0.076462 0.737857
O O3 0.624614 0.651877 0.966791
O O4 0.391993 0.810763 0.905739
O O5 0.813346 0.582528 0.566795
O O6 0.030885 0.336287 0.912764
O O7 0.827026 0.397244 0.864543
O O8 0.813659 0.713262 0.810198
O O9 0.111869 0.731421 0.815855
O O10 0.179531 0.897995 0.912856
O O11 0.000000 0.000000 0.000000
O O12 0.729496 0.522116 0.312365
O O13 0.802894 0.643131 0.108711
O O14 0.500000 0.500000 0.500000
O O15 0.392539 0.360473 0.494833
O O16 0.393286 0.585570 0.190126
O O17 0.290341 0.976482 0.098105
#
# Coordination Sequence:
#
# PCOD9027985 Si02
#       8
#     2   2   2   2   2   2   2   2
#     4  12  26  46  67  99 142 185 224 270 346 417
#     4  10  22  43  66  97 136 173 236 275 334 401
#     4  11  22  43  71  94 132 180 228 272 340 405
#     4  11  24  45  67  99 136 185 226 274 338 417
#     4  12  27  40  66 101 140 172 227 285 338 398
#     4  12  25  44  67 102 140 179 222 289 337 395
#     4  10  22  41  70  94 128 189 223 273 335 417
#     4  12  23  43  69  98 129 184 227 271 342 406
#
# _framework density 21.515415000000001
#
# number of rings (size 3 to 8) (size 9 to 14) (size 15 to 20)
#    0.000    0.750    5.000    2.625    5.250    0.500 
#    0.000    0.625    0.000    0.000    0.000    0.000 
#    0.000    0.000    0.000    0.000    0.000    0.000 
#
# Total GULP energy -89092.954530 kJ/mol
# GULP energy per Si atom -5568.309658 kJ/mol
# Density = 2.146644 g / cm^3
# Si number density = 21.515415 Si / 1000 Ang^3
#
#
#
# Elastic Constant Matrix: (Units=GPa)
#
#
# Indices 1 2 3 4 5 6 
#
# 1 131.7465 23.5551 31.6571 1.7696 -29.4925 -4.7304
# 2 23.5551 134.2436 35.0833 16.2351 -7.7569 -2.6082
# 3 31.6571 35.0833 73.4287 22.7687 -6.1790 -6.3689
# 4 1.7696 16.2351 22.7687 22.6551 5.3901 -8.2919
# 5 -29.4925 -7.7569 -6.1790 5.3901 33.7727 5.5679
# 6 -4.7304 -2.6082 -6.3689 -8.2919 5.5679 36.6222
#
#
#
# Elastic Compliance Matrix: (Units=1/GPa)
#
#
# Indices 1 2 3 4 5 6 
#
# 1 0.010434 -0.000498 -0.004137 0.001707 0.008008 -0.000238
# 2 -0.000498 0.008859 -0.002457 -0.004813 0.002128 -0.001274
# 3 -0.004137 -0.002457 0.024307 -0.024438 0.004619 -0.002718
# 4 0.001707 -0.004813 -0.024438 0.083268 -0.020271 0.017563
# 5 0.008008 0.002128 0.004619 -0.020271 0.042670 -0.009088
# 6 -0.000238 -0.001274 -0.002718 0.017563 -0.009088 0.032070
#
#
# Mechanical properties :
#
#
# Convention : Reuss Voigt Hill
#
# Bulk Modulus (GPa) = 33.99442 57.77889 45.88665
# Shear Modulus (GPa) = 22.16341 35.21821 28.69081
#
# Velocity S-wave (km/s) = 3.21303 4.05023 3.65567
# Velocity P-wave (km/s) = 5.44050 6.98466 6.26037
#
# Compressibility (1/GPa) = 0.02941659
#
# Stress axis : x y z
#
# Youngs Moduli (GPa) = 95.83596 112.88015 41.14084
#
# Poissons Ratio (x) = 0.05624 0.17019
# Poissons Ratio (y) = 0.04774 0.10108
# Poissons Ratio (z) = 0.39645 0.27733
#
# Static dielectric constant tensor:
#      x y z
#    x 1.828270 -0.039710 0.091060 
#    y -0.039710 1.875210 -0.002040 
#    z 0.091060 -0.002040 1.884030 
# 
# From -- ./inp_files/297917.got.cif
#   From: 2010.05.17/outbox.cif.g08.bks.cpg/sg2_149_cif.got.tgz:297917.got - 2010.06.03 11:33:40.
