data_PCOD9027172
_publ_section_title
;
Structure prediction by ZEFSAII (Michael W. Deem and Ramdas Pophale) SiO2 
 PCOD9027172
Probable space group: P -1
;
_chemical_formula_sum "Si O2"
_cell_formula_units_Z 14
_cell_length_a 5.552176
_cell_length_b 9.546669
_cell_length_c 11.671843
_cell_angle_alpha 56.694743
_cell_angle_beta 90.893935
_cell_angle_gamma 87.894184
_cell_volume 516.228874
_symmetry_space_group_name_H-M "P -1"
_symmetry_group_IT_number 2
_symmetry_cell_setting 'triclinic'
loop_
_space_group_symop_operation_xyz
x,y,z
-x,-y,-z
loop_
_atom_site_type_symbol
_atom_site_label
_atom_site_fract_x
_atom_site_fract_y
_atom_site_fract_z
Si Si1 0.243655 0.738361 0.534058
Si Si2 0.251749 0.296686 0.136159
Si Si3 0.794414 0.149846 0.927639
Si Si4 0.749508 0.442610 0.169336
Si Si5 0.179444 0.578513 0.374955
Si Si6 0.455911 0.993359 0.816422
Si Si7 0.284962 0.196982 0.515423
O O1 0.240945 0.571776 0.687459
O O2 0.282714 0.705333 0.413301
O O3 0.463317 0.845586 0.526119
O O4 0.983241 0.826481 0.516791
O O5 0.487539 0.376002 0.160516
O O6 0.327465 0.102666 0.207522
O O7 0.993925 0.338619 0.174680
O O8 0.231953 0.380370 0.972242
O O9 0.876053 0.314255 0.788066
O O10 0.570424 0.100879 0.868542
O O11 0.693735 0.149821 0.056408
O O12 0.000000 0.000000 0.000000
O O13 0.307797 0.400968 0.422332
O O14 0.000000 0.500000 0.500000
O O15 0.293858 0.107050 0.679246
#
# Coordination Sequence:
#
# PCOD9027172 Si02
#       7
#     2   2   2   2   2   2   2
#     4  11  22  40  70  93 135 174 230 274 333 395
#     4  10  24  45  69  96 137 174 230 292 334 402
#     4  11  24  43  68 103 139 180 228 272 347 417
#     4  10  23  45  69  99 127 180 239 278 342 401
#     4  10  22  41  67 100 141 178 225 274 337 417
#     4  11  26  41  68 100 141 178 223 284 349 397
#     4  11  24  41  65 102 140 179 219 276 338 420
#
# _framework density 27.119754
#
# number of rings (size 3 to 8) (size 9 to 14) (size 15 to 20)
#    0.000    1.429    1.429    3.000    4.000    3.429 
#    2.571    4.286    0.000    0.000    0.000    0.000 
#    0.000    0.000    0.000    0.000    0.000    0.000 
#
# Total GULP energy -78165.332800 kJ/mol
# GULP energy per Si atom -5583.238057 kJ/mol
# Density = 2.705803 g / cm^3
# Si number density = 27.119754 Si / 1000 Ang^3
#
#
#
# Elastic Constant Matrix: (Units=GPa)
#
#
# Indices 1 2 3 4 5 6 
#
# 1 175.3887 21.7913 45.1031 -7.1483 -10.1098 -26.5927
# 2 21.7913 61.9363 34.3917 -30.6045 4.1130 5.3316
# 3 45.1031 34.3917 273.5370 -15.9524 -3.0887 -5.4714
# 4 -7.1483 -30.6045 -15.9524 29.3084 -3.3957 4.4285
# 5 -10.1098 4.1130 -3.0887 -3.3957 43.1937 -7.1949
# 6 -26.5927 5.3316 -5.4714 4.4285 -7.1949 27.0403
#
#
#
# Elastic Compliance Matrix: (Units=1/GPa)
#
#
# Indices 1 2 3 4 5 6 
#
# 1 0.008631 -0.007953 -0.000590 -0.007902 0.004169 0.012340
# 2 -0.007953 0.048024 -0.002438 0.050259 -0.007315 -0.027961
# 3 -0.000590 -0.002438 0.004051 -0.000570 0.000496 0.000945
# 4 -0.007902 0.050259 -0.000570 0.088850 -0.005315 -0.033762
# 5 0.004169 -0.007315 0.000496 -0.005315 0.026710 0.013621
# 6 0.012340 -0.027961 0.000945 -0.033762 0.013621 0.063976
#
#
# Mechanical properties :
#
#
# Convention : Reuss Voigt Hill
#
# Bulk Modulus (GPa) = 25.80966 79.27046 52.54006
# Shear Modulus (GPa) = 18.17402 47.21353 32.69378
#
# Velocity S-wave (km/s) = 2.59151 4.17697 3.47585
# Velocity P-wave (km/s) = 4.30025 7.24955 5.96021
#
# Compressibility (1/GPa) = 0.03874518
#
# Stress axis : x y z
#
# Youngs Moduli (GPa) = 115.86454 20.82276 246.85969
#
# Poissons Ratio (x) = 0.16560 0.14569
# Poissons Ratio (y) = 0.92143 0.60175
# Poissons Ratio (z) = 0.06838 0.05076
#
# Static dielectric constant tensor:
#      x y z
#    x 2.292880 0.051260 -0.016480 
#    y 0.051260 2.399120 -0.032730 
#    z -0.016480 -0.032730 2.083800 
# 
# From -- ./inp_files/363674.got.cif
#   From: 2010.05.17/outbox.cif.g08.bks.cpg/sg2_182_cif.got.tgz:363674.got - 2010.06.03 11:33:40.
