data_PCOD9027243
_publ_section_title
;
Structure prediction by ZEFSAII (Michael W. Deem and Ramdas Pophale) SiO2 
 PCOD9027243
Probable space group: P -1
;
_chemical_formula_sum "Si O2"
_cell_formula_units_Z 16
_cell_length_a 11.525787
_cell_length_b 8.823682
_cell_length_c 14.888078
_cell_angle_alpha 69.739562
_cell_angle_beta 66.617356
_cell_angle_gamma 125.175820
_cell_volume 729.856253
_symmetry_space_group_name_H-M "P -1"
_symmetry_group_IT_number 2
_symmetry_cell_setting 'triclinic'
loop_
_space_group_symop_operation_xyz
x,y,z
-x,-y,-z
loop_
_atom_site_type_symbol
_atom_site_label
_atom_site_fract_x
_atom_site_fract_y
_atom_site_fract_z
Si Si1 0.340910 0.444043 0.833896
Si Si2 0.982639 0.645199 0.330879
Si Si3 0.206475 0.810912 0.640180
Si Si4 0.861720 0.683140 0.713806
Si Si5 0.389853 0.516216 0.596556
Si Si6 0.977065 0.598325 0.066926
Si Si7 0.154811 0.967019 0.384939
Si Si8 0.655200 0.903117 0.019924
O O1 0.341376 0.401054 0.735961
O O2 0.142914 0.361382 0.928771
O O3 0.312859 0.254126 0.940386
O O4 0.587075 0.777894 0.714221
O O5 0.845027 0.340786 0.404722
O O6 0.827189 0.632404 0.352138
O O7 0.058414 0.738970 0.390407
O O8 0.207741 0.893019 0.150406
O O9 0.179773 0.649039 0.758072
O O10 0.008802 0.734818 0.726464
O O11 0.434453 0.151209 0.508918
O O12 0.609929 0.348844 0.853208
O O13 0.991613 0.805756 0.553833
O O14 0.851076 0.863178 0.697251
O O15 0.500000 0.500000 0.500000
O O16 0.000000 0.500000 0.000000
O O17 0.220187 0.883187 0.978431
#
# Coordination Sequence:
#
# PCOD9027243 Si02
#       8
#     2   2   2   2   2   2   2   2
#     4  11  23  45  69  96 136 170 230 274 316 400
#     4  11  25  41  66 100 137 175 215 272 343 393
#     4  11  24  44  64  97 138 169 219 278 327 399
#     4  10  22  41  67  92 135 169 228 271 321 397
#     4  12  25  41  71  98 127 178 223 278 329 384
#     4  11  26  41  65  97 135 178 216 270 339 397
#     4  10  23  42  67 101 126 174 229 274 325 382
#     4  10  24  43  65  95 135 177 220 273 322 397
#
# _framework density 21.922125000000001
#
# number of rings (size 3 to 8) (size 9 to 14) (size 15 to 20)
#    0.000    1.250    3.750    1.500    5.250    7.500 
#    0.000    0.000    0.000    0.000    0.000    0.000 
#    0.000    0.000    0.000    0.000    0.000    0.000 
#
# Total GULP energy -89508.653305 kJ/mol
# GULP energy per Si atom -5594.290832 kJ/mol
# Density = 2.187223 g / cm^3
# Si number density = 21.922125 Si / 1000 Ang^3
#
#
#
# Elastic Constant Matrix: (Units=GPa)
#
#
# Indices 1 2 3 4 5 6 
#
# 1 58.9491 -7.6785 0.1813 -1.6619 -8.5300 10.1572
# 2 -7.6785 125.0961 30.3527 -1.0721 -6.2469 2.1063
# 3 0.1813 30.3527 66.1087 -30.6972 -14.6933 1.5604
# 4 -1.6619 -1.0721 -30.6972 27.2127 0.1631 -6.5641
# 5 -8.5300 -6.2469 -14.6933 0.1631 35.2983 -7.4313
# 6 10.1572 2.1063 1.5604 -6.5641 -7.4313 26.0209
#
#
#
# Elastic Compliance Matrix: (Units=1/GPa)
#
#
# Indices 1 2 3 4 5 6 
#
# 1 0.018763 0.001414 0.000071 -0.000316 0.003439 -0.006541
# 2 0.001414 0.011045 -0.013271 -0.015847 -0.004398 -0.005904
# 3 0.000071 -0.013271 0.061427 0.074426 0.027974 0.024127
# 4 -0.000316 -0.015847 0.074426 0.129457 0.035891 0.039851
# 5 0.003439 -0.004398 0.027974 0.035891 0.043842 0.018911
# 6 -0.006541 -0.005904 0.024127 0.039851 0.018911 0.055469
#
#
# Mechanical properties :
#
#
# Convention : Reuss Voigt Hill
#
# Bulk Modulus (GPa) = 14.77940 32.87386 23.82663
# Shear Modulus (GPa) = 13.65632 32.85962 23.25797
#
# Velocity S-wave (km/s) = 2.49860 3.87580 3.26073
# Velocity P-wave (km/s) = 3.88335 5.92093 5.00688
#
# Compressibility (1/GPa) = 0.06766175
#
# Stress axis : x y z
#
# Youngs Moduli (GPa) = 53.29540 90.54099 16.27947
#
# Poissons Ratio (x) = -0.12799 -0.00116
# Poissons Ratio (y) = -0.07534 0.21605
# Poissons Ratio (z) = -0.00379 1.20161
#
# Static dielectric constant tensor:
#      x y z
#    x 1.821180 -0.014890 0.021340 
#    y -0.014890 1.790940 -0.001450 
#    z 0.021340 -0.001450 1.801470 
# 
# From -- ./inp_files/205419.got.cif
#   From: 2010.05.17/outbox.cif.g08.bks.cpg/sg2_103_cif.got.tgz:205419.got - 2010.06.03 11:33:40.
