data_PCOD9027487
_publ_section_title
;
Structure prediction by ZEFSAII (Michael W. Deem and Ramdas Pophale) SiO2 
 PCOD9027487
Probable space group: P -1
;
_chemical_formula_sum "Si O2"
_cell_formula_units_Z 13
_cell_length_a 12.138254
_cell_length_b 9.348112
_cell_length_c 9.970742
_cell_angle_alpha 42.708116
_cell_angle_beta 121.717936
_cell_angle_gamma 137.863735
_cell_volume 514.370280
_symmetry_space_group_name_H-M "P -1"
_symmetry_group_IT_number 2
_symmetry_cell_setting 'triclinic'
loop_
_space_group_symop_operation_xyz
x,y,z
-x,-y,-z
loop_
_atom_site_type_symbol
_atom_site_label
_atom_site_fract_x
_atom_site_fract_y
_atom_site_fract_z
Si Si1 0.591901 0.788678 0.426062
Si Si2 0.000000 0.500000 0.500000
Si Si3 0.962342 0.288142 0.921293
Si Si4 0.247211 0.718687 0.994047
Si Si5 0.717856 0.758891 0.031008
Si Si6 0.636496 0.144919 0.602166
Si Si7 0.612286 0.531867 0.842949
O O1 0.500000 0.500000 0.500000
O O2 0.452662 0.808257 0.374267
O O3 0.686415 0.783792 0.619066
O O4 0.712325 0.033478 0.236435
O O5 0.984868 0.559654 0.290462
O O6 0.189637 0.604357 0.517278
O O7 0.099726 0.444490 0.015075
O O8 0.890489 0.981902 0.057773
O O9 0.814318 0.273790 0.905594
O O10 0.391497 0.693348 0.082835
O O11 0.700711 0.599089 0.997970
O O12 0.671087 0.940649 0.812029
O O13 0.571853 0.573645 0.168961
O O14 0.500000 0.000000 0.500000
#
# Coordination Sequence:
#
# PCOD9027487 Si02
#       7
#     2   1   2   2   2   2   2
#     4  12  26  42  74 109 140 190 244 298 372 438
#     4  10  24  38  74 110 132 200 246 282 372 436
#     4  10  24  45  71 100 150 191 236 307 367 427
#     4  11  25  48  71 104 148 188 237 310 369 432
#     4  10  22  41  68 105 136 187 237 291 363 436
#     4  11  21  44  70 103 147 184 242 307 351 437
#     4  11  24  41  73 107 139 185 247 290 364 446
#
# _framework density 25.273620999999999
#
# number of rings (size 3 to 8) (size 9 to 14) (size 15 to 20)
#    0.000    1.231    3.077    1.846    6.462    1.846 
#    0.000   10.769    0.000    0.000    0.000    0.000 
#    0.000    0.000    0.000    0.000    0.000    0.000 
#
# Total GULP energy -72518.139502 kJ/mol
# GULP energy per Si atom -5578.318423 kJ/mol
# Density = 2.521610 g / cm^3
# Si number density = 25.273621 Si / 1000 Ang^3
#
#
#
# Elastic Constant Matrix: (Units=GPa)
#
#
# Indices 1 2 3 4 5 6 
#
# 1 123.6304 4.7345 10.0625 -2.4139 -32.0954 -30.6143
# 2 4.7345 98.8161 -13.5853 4.6690 -7.7432 2.1385
# 3 10.0625 -13.5853 111.1310 -2.7291 -27.1384 -8.3007
# 4 -2.4139 4.6690 -2.7291 34.9131 0.1867 6.4757
# 5 -32.0954 -7.7432 -27.1384 0.1867 42.7166 7.6534
# 6 -30.6143 2.1385 -8.3007 6.4757 7.6534 46.5077
#
#
#
# Elastic Compliance Matrix: (Units=1/GPa)
#
#
# Indices 1 2 3 4 5 6 
#
# 1 0.011881 0.000208 0.001583 -0.000373 0.008771 0.006703
# 2 0.000208 0.010738 0.002091 -0.001204 0.003507 -0.000393
# 3 0.001583 0.002091 0.011303 0.000387 0.008477 0.001515
# 4 -0.000373 -0.001204 0.000387 0.029605 0.000390 -0.004307
# 5 0.008771 0.003507 0.008477 0.000390 0.035809 0.001179
# 6 0.006703 -0.000393 0.001515 -0.004307 0.001179 0.026608
#
#
# Mechanical properties :
#
#
# Convention : Reuss Voigt Hill
#
# Bulk Modulus (GPa) = 23.98788 37.33344 30.66066
# Shear Modulus (GPa) = 37.85746 46.98522 42.42134
#
# Velocity S-wave (km/s) = 3.87448 4.31636 4.10137
# Velocity P-wave (km/s) = 5.43390 6.29643 5.88100
#
# Compressibility (1/GPa) = 0.04168772
#
# Stress axis : x y z
#
# Youngs Moduli (GPa) = 84.16532 93.13111 88.46932
#
# Poissons Ratio (x) = -0.01940 -0.14006
# Poissons Ratio (y) = -0.01753 -0.18502
# Poissons Ratio (z) = -0.13324 -0.19477
#
# Static dielectric constant tensor:
#      x y z
#    x 1.974710 0.074530 0.079230 
#    y 0.074530 2.060820 -0.011730 
#    z 0.079230 -0.011730 1.993110 
# 
# From -- ./inp_files/236915.got.cif
#   From: 2010.05.17/outbox.cif.g08.bks.cpg/sg2_119_cif.got.tgz:236915.got - 2010.06.03 11:33:40.
