data_PCOD9027804
_publ_section_title
;
Structure prediction by ZEFSAII (Michael W. Deem and Ramdas Pophale) SiO2 
 PCOD9027804
Probable space group: P -1
;
_chemical_formula_sum "Si O2"
_cell_formula_units_Z 10
_cell_length_a 10.226535
_cell_length_b 18.099188
_cell_length_c 8.380777
_cell_angle_alpha 138.618252
_cell_angle_beta 133.385340
_cell_angle_gamma 28.446714
_cell_volume 486.649603
_symmetry_space_group_name_H-M "P -1"
_symmetry_group_IT_number 2
_symmetry_cell_setting 'triclinic'
loop_
_space_group_symop_operation_xyz
x,y,z
-x,-y,-z
loop_
_atom_site_type_symbol
_atom_site_label
_atom_site_fract_x
_atom_site_fract_y
_atom_site_fract_z
Si Si1 0.555805 0.673681 0.720478
Si Si2 0.256853 0.595015 0.815420
Si Si3 0.050415 0.059802 0.491448
Si Si4 0.236275 0.190806 0.021281
Si Si5 0.268143 0.826418 0.037056
O O1 0.237751 0.812888 0.631957
O O2 0.685395 0.516009 0.463388
O O3 0.673797 0.737465 0.870007
O O4 0.528102 0.685097 0.908657
O O5 0.199486 0.741940 0.926461
O O6 0.987624 0.680665 0.821966
O O7 0.500000 0.500000 0.000000
O O8 0.098184 0.164351 0.748246
O O9 0.000000 0.000000 0.500000
O O10 0.297234 0.899050 0.326172
O O11 0.500000 0.000000 0.000000
O O12 0.000000 0.000000 0.000000
#
# Coordination Sequence:
#
# PCOD9027804 Si02
#       5
#     2   2   2   2   2
#     4  11  23  40  63  98 132 167 217 272 327 373
#     4  12  23  43  70  94 134 175 213 270 326 381
#     4  11  19  41  66  94 130 171 222 262 317 394
#     4  12  23  39  70  97 126 176 224 262 315 396
#     4  10  22  41  69  94 132 177 209 266 332 384
#
# _framework density 20.548665
#
# number of rings (size 3 to 8) (size 9 to 14) (size 15 to 20)
#    0.000    0.800    6.000    2.400    0.000    0.800 
#    0.000    1.000    0.000    0.000    0.000    0.000 
#    0.000    0.000    0.000    0.000    0.000    0.000 
#
# Total GULP energy -55760.029438 kJ/mol
# GULP energy per Si atom -5576.002944 kJ/mol
# Density = 2.050190 g / cm^3
# Si number density = 20.548665 Si / 1000 Ang^3
#
#
#
# Elastic Constant Matrix: (Units=GPa)
#
#
# Indices 1 2 3 4 5 6 
#
# 1 107.6485 11.8607 55.9544 6.3551 -8.5590 -17.3979
# 2 11.8607 44.6155 17.9066 7.3469 -1.2032 1.7355
# 3 55.9544 17.9066 106.5620 41.8404 -13.3491 -7.6295
# 4 6.3551 7.3469 41.8404 32.6644 -9.6619 -3.7278
# 5 -8.5590 -1.2032 -13.3491 -9.6619 49.4700 18.0293
# 6 -17.3979 1.7355 -7.6295 -3.7278 18.0293 40.6788
#
#
#
# Elastic Compliance Matrix: (Units=1/GPa)
#
#
# Indices 1 2 3 4 5 6 
#
# 1 0.017259 -0.001597 -0.014990 0.016893 -0.000063 0.006214
# 2 -0.001597 0.024320 -0.002589 -0.002093 0.000098 -0.002441
# 3 -0.014990 -0.002589 0.032625 -0.038735 -0.000069 -0.003700
# 4 0.016893 -0.002093 -0.038735 0.079812 0.006350 0.004549
# 5 -0.000063 0.000098 -0.000069 0.006350 0.025321 -0.010685
# 6 0.006214 -0.002441 -0.003700 0.004549 -0.010685 0.031803
#
#
# Mechanical properties :
#
#
# Convention : Reuss Voigt Hill
#
# Bulk Modulus (GPa) = 27.89218 47.80774 37.84996
# Shear Modulus (GPa) = 19.12464 36.10290 27.61377
#
# Velocity S-wave (km/s) = 3.05405 4.19614 3.66980
# Velocity P-wave (km/s) = 5.10289 6.84054 6.03458
#
# Compressibility (1/GPa) = 0.03585235
#
# Stress axis : x y z
#
# Youngs Moduli (GPa) = 57.94054 41.11914 30.65102
#
# Poissons Ratio (x) = 0.06567 0.45946
# Poissons Ratio (y) = 0.09254 0.07935
# Poissons Ratio (z) = 0.86852 0.10645
#
# Static dielectric constant tensor:
#      x y z
#    x 1.676670 -0.069940 0.022260 
#    y -0.069940 1.718240 0.073920 
#    z 0.022260 0.073920 1.595800 
# 
# From -- ./inp_files/145503.got.cif
#   From: 2010.05.17/outbox.cif.g08.bks.cpg/sg2_73_cif.got.tgz:145503.got - 2010.06.03 11:33:40.
