data_PCOD9027032
_publ_section_title
;
Structure prediction by ZEFSAII (Michael W. Deem and Ramdas Pophale) SiO2 
 PCOD9027032
Probable space group: P -1
;
_chemical_formula_sum "Si O2"
_cell_formula_units_Z 14
_cell_length_a 9.234191
_cell_length_b 13.970145
_cell_length_c 16.420054
_cell_angle_alpha 140.731718
_cell_angle_beta 51.819098
_cell_angle_gamma 150.054436
_cell_volume 659.895973
_symmetry_space_group_name_H-M "P -1"
_symmetry_group_IT_number 2
_symmetry_cell_setting 'triclinic'
loop_
_space_group_symop_operation_xyz
x,y,z
-x,-y,-z
loop_
_atom_site_type_symbol
_atom_site_label
_atom_site_fract_x
_atom_site_fract_y
_atom_site_fract_z
Si Si1 0.158495 0.016597 0.727244
Si Si2 0.303873 0.171395 0.959737
Si Si3 0.761269 0.688804 0.228243
Si Si4 0.128374 0.485285 0.521339
Si Si5 0.838497 0.316737 0.860368
Si Si6 0.791618 0.280025 0.671053
Si Si7 0.305565 0.122737 0.499208
O O1 0.212382 0.125448 0.867579
O O2 0.069874 0.087946 0.742118
O O3 0.476305 0.152924 0.681544
O O4 0.943647 0.736406 0.617256
O O5 0.491028 0.132230 0.872604
O O6 0.538491 0.443355 0.091306
O O7 0.000000 0.000000 0.000000
O O8 0.576488 0.676829 0.345477
O O9 0.001954 0.742490 0.226884
O O10 0.471413 0.739178 0.562105
O O11 0.000000 0.500000 0.500000
O O12 0.992075 0.431219 0.621870
O O13 0.900965 0.411083 0.807829
O O14 0.000000 0.500000 0.000000
O O15 0.734667 0.065514 0.568380
O O16 0.000000 0.000000 0.500000
#
# Coordination Sequence:
#
# PCOD9027032 Si02
#       7
#     2   2   2   2   2   2   2
#     4  11  22  41  67  96 133 174 230 275 333 393
#     4  10  22  41  66  95 128 174 224 271 334 398
#     4  11  21  41  66  93 132 177 216 277 332 386
#     4  12  24  40  68  98 133 182 227 269 331 398
#     4   9  21  42  68  90 130 175 217 276 332 391
#     4  11  22  43  67  98 134 177 223 275 336 391
#     4  12  24  41  65  97 139 171 220 280 332 396
#
# _framework density 21.215467
#
# number of rings (size 3 to 8) (size 9 to 14) (size 15 to 20)
#    0.000    1.143    4.286    2.571    0.000    0.571 
#    0.000    0.714    0.000    0.000    0.000    0.000 
#    0.000    0.000    0.000    0.000    0.000    0.000 
#
# Total GULP energy -78105.506410 kJ/mol
# GULP energy per Si atom -5578.964744 kJ/mol
# Density = 2.116718 g / cm^3
# Si number density = 21.215467 Si / 1000 Ang^3
#
#
#
# Elastic Constant Matrix: (Units=GPa)
#
#
# Indices 1 2 3 4 5 6 
#
# 1 87.6551 48.1677 -0.5570 -17.7197 6.5300 -12.1835
# 2 48.1677 157.0277 32.8653 -32.8229 3.9682 -2.5149
# 3 -0.5570 32.8653 95.5549 -21.1012 9.0986 -7.1271
# 4 -17.7197 -32.8229 -21.1012 38.1340 0.1436 -1.3807
# 5 6.5300 3.9682 9.0986 0.1436 37.0893 -2.3626
# 6 -12.1835 -2.5149 -7.1271 -1.3807 -2.3626 28.5464
#
#
#
# Elastic Compliance Matrix: (Units=1/GPa)
#
#
# Indices 1 2 3 4 5 6 
#
# 1 0.016338 -0.004300 0.003804 0.006282 -0.002889 0.007609
# 2 -0.004300 0.009078 -0.002277 0.004505 0.000240 -0.001366
# 3 0.003804 -0.002277 0.013634 0.007542 -0.003488 0.004903
# 4 0.006282 0.004505 0.007542 0.037441 -0.003169 0.006510
# 5 -0.002889 0.000240 -0.003488 -0.003169 0.028320 0.000108
# 6 0.007609 -0.001366 0.004903 0.006510 0.000108 0.039706
#
#
# Mechanical properties :
#
#
# Convention : Reuss Voigt Hill
#
# Bulk Modulus (GPa) = 29.84749 55.68773 42.76761
# Shear Modulus (GPa) = 31.01166 38.07141 34.54153
#
# Velocity S-wave (km/s) = 3.82743 4.24076 4.03939
# Velocity P-wave (km/s) = 5.79927 7.09115 6.47750
#
# Compressibility (1/GPa) = 0.03350366
#
# Stress axis : x y z
#
# Youngs Moduli (GPa) = 61.20666 110.16200 73.34631
#
# Poissons Ratio (x) = 0.47368 -0.27901
# Poissons Ratio (y) = 0.26318 0.16702
# Poissons Ratio (z) = -0.23283 0.25086
#
# Static dielectric constant tensor:
#      x y z
#    x 1.794780 -0.020220 -0.008300 
#    y -0.020220 1.764120 -0.014010 
#    z -0.008300 -0.014010 1.890290 
# 
# From -- ./inp_files/131534.got.cif
#   From: 2010.05.17/outbox.cif.g08.bks.cpg/sg2_66_cif.got.tgz:131534.got - 2010.06.03 11:33:40.
