data_PCOD9027948
_publ_section_title
;
Structure prediction by ZEFSAII (Michael W. Deem and Ramdas Pophale) SiO2 
 PCOD9027948
Probable space group: P -1
;
_chemical_formula_sum "Si O2"
_cell_formula_units_Z 14
_cell_length_a 8.499945
_cell_length_b 6.706003
_cell_length_c 18.314780
_cell_angle_alpha 56.045856
_cell_angle_beta 39.956747
_cell_angle_gamma 54.645416
_cell_volume 533.459957
_symmetry_space_group_name_H-M "P -1"
_symmetry_group_IT_number 2
_symmetry_cell_setting 'triclinic'
loop_
_space_group_symop_operation_xyz
x,y,z
-x,-y,-z
loop_
_atom_site_type_symbol
_atom_site_label
_atom_site_fract_x
_atom_site_fract_y
_atom_site_fract_z
Si Si1 0.237258 0.574615 0.835063
Si Si2 0.088388 0.163930 0.873901
Si Si3 0.094227 0.026951 0.302613
Si Si4 0.551487 0.268012 0.416649
Si Si5 0.779466 0.033286 0.896440
Si Si6 0.424446 0.253082 0.237882
Si Si7 0.062051 0.713769 0.508696
O O1 0.169850 0.367549 0.851457
O O2 0.390427 0.692597 0.696652
O O3 0.418013 0.542187 0.849108
O O4 0.969566 0.769540 0.910915
O O5 0.347680 0.002883 0.774414
O O6 0.860550 0.229367 0.881448
O O7 0.000000 0.000000 0.000000
O O8 0.133726 0.951296 0.220349
O O9 0.307876 0.157639 0.226696
O O10 0.822279 0.235042 0.366301
O O11 0.083085 0.782201 0.402205
O O12 0.320425 0.499505 0.477503
O O13 0.500000 0.000000 0.500000
O O14 0.500000 0.000000 0.000000
O O15 0.181960 0.342997 0.358048
O O16 0.000000 0.000000 0.500000
#
# Coordination Sequence:
#
# PCOD9027948 Si02
#       7
#     2   2   2   2   2   2   2
#     4  10  23  44  69 101 144 191 243 302 374 447
#     4  11  24  46  74 104 143 190 248 312 372 442
#     4  10  22  44  72 105 149 197 245 307 373 443
#     4  11  24  43  69 107 153 196 248 310 371 445
#     4  10  23  44  69 104 143 186 247 308 371 445
#     4  10  22  41  70 105 138 185 244 299 362 439
#     4  10  22  42  71 106 149 201 251 303 372 448
#
# _framework density 26.243770999999999
#
# number of rings (size 3 to 8) (size 9 to 14) (size 15 to 20)
#    0.000    1.714    0.000    3.429    0.000    8.571 
#    0.000   30.000    0.000    6.000    0.000    0.000 
#    0.000    0.000    0.000    0.000    0.000    0.000 
#
# Total GULP energy -78209.976234 kJ/mol
# GULP energy per Si atom -5586.426874 kJ/mol
# Density = 2.618404 g / cm^3
# Si number density = 26.243771 Si / 1000 Ang^3
#
#
#
# Elastic Constant Matrix: (Units=GPa)
#
#
# Indices 1 2 3 4 5 6 
#
# 1 150.9049 29.5082 32.8178 3.8375 -30.2459 28.3547
# 2 29.5082 106.3511 20.9883 16.6882 -13.3463 11.4062
# 3 32.8178 20.9883 99.5777 12.2386 -7.0966 -2.8580
# 4 3.8375 16.6882 12.2386 39.6244 -3.6076 -13.6025
# 5 -30.2459 -13.3463 -7.0966 -3.6076 66.1037 10.2871
# 6 28.3547 11.4062 -2.8580 -13.6025 10.2871 66.0283
#
#
#
# Elastic Compliance Matrix: (Units=1/GPa)
#
#
# Indices 1 2 3 4 5 6 
#
# 1 0.009157 -0.000808 -0.002545 -0.001004 0.004446 -0.004803
# 2 -0.000808 0.011275 -0.001433 -0.005085 0.001944 -0.003013
# 3 -0.002545 -0.001433 0.011460 -0.002239 -0.000574 0.001465
# 4 -0.001004 -0.005085 -0.002239 0.030708 -0.001254 0.007734
# 5 0.004446 0.001944 -0.000574 -0.001254 0.018261 -0.005373
# 6 -0.004803 -0.003013 0.001465 0.007734 -0.005373 0.020222
#
#
# Mechanical properties :
#
#
# Convention : Reuss Voigt Hill
#
# Bulk Modulus (GPa) = 44.80413 58.16249 51.48331
# Shear Modulus (GPa) = 42.33879 52.58590 47.46234
#
# Velocity S-wave (km/s) = 4.02093 4.48118 4.25728
# Velocity P-wave (km/s) = 6.21825 6.99894 6.62011
#
# Compressibility (1/GPa) = 0.02231937
#
# Stress axis : x y z
#
# Youngs Moduli (GPa) = 109.20283 88.69266 87.26300
#
# Poissons Ratio (x) = 0.07165 0.22210
# Poissons Ratio (y) = 0.08822 0.12506
# Poissons Ratio (z) = 0.27795 0.12711
#
# Static dielectric constant tensor:
#      x y z
#    x 2.201620 0.027280 0.035590 
#    y 0.027280 2.244590 -0.094280 
#    z 0.035590 -0.094280 2.104620 
# 
# From -- ./inp_files/138198.got.cif
#   From: 2010.05.17/outbox.cif.g08.bks.cpg/sg2_70_cif.got.tgz:138198.got - 2010.06.03 11:33:40.
