data_PCOD9027385
_publ_section_title
;
Structure prediction by ZEFSAII (Michael W. Deem and Ramdas Pophale) SiO2 
 PCOD9027385
Probable space group: P -1
;
_chemical_formula_sum "Si O2"
_cell_formula_units_Z 12
_cell_length_a 8.457187
_cell_length_b 5.205439
_cell_length_c 14.217716
_cell_angle_alpha 93.123904
_cell_angle_beta 108.819155
_cell_angle_gamma 120.056470
_cell_volume 494.631805
_symmetry_space_group_name_H-M "P -1"
_symmetry_group_IT_number 2
_symmetry_cell_setting 'triclinic'
loop_
_space_group_symop_operation_xyz
x,y,z
-x,-y,-z
loop_
_atom_site_type_symbol
_atom_site_label
_atom_site_fract_x
_atom_site_fract_y
_atom_site_fract_z
Si Si1 0.549518 0.277091 0.250133
Si Si2 0.662042 0.233043 0.934405
Si Si3 0.341872 0.872722 0.384660
Si Si4 0.206637 0.378626 0.204502
Si Si5 0.836734 0.884529 0.049891
Si Si6 0.023776 0.275783 0.571687
O O1 0.391346 0.369335 0.196486
O O2 0.769137 0.544742 0.327359
O O3 0.532945 0.037889 0.164070
O O4 0.451159 0.095458 0.323467
O O5 0.807859 0.405137 0.873525
O O6 0.696881 0.517784 0.008766
O O7 0.721304 0.047229 0.008409
O O8 0.273076 0.544708 0.320355
O O9 0.151179 0.852354 0.388661
O O10 0.500000 0.000000 0.500000
O O11 0.994859 0.056894 0.167434
O O12 0.000000 0.000000 0.000000
O O13 0.000000 0.500000 0.500000
O O14 0.000000 0.000000 0.500000
#
# Coordination Sequence:
#
# PCOD9027385 Si02
#       6
#     2   2   2   2   2   2
#     4  11  23  40  69  97 131 170 219 260 328 378
#     4  10  19  33  59  97 128 164 212 261 309 384
#     4  11  24  43  66  95 130 171 218 268 321 385
#     4  10  21  34  63  98 126 170 216 262 317 381
#     4  10  17  31  57  95 129 162 214 259 309 378
#     4  12  28  46  66  93 130 172 216 270 324 382
#
# _framework density 24.260472
#
# number of rings (size 3 to 8) (size 9 to 14) (size 15 to 20)
#    0.000    1.333    5.000    3.000    7.000    1.333 
#    0.000    0.000    0.000    2.000    0.000    4.667 
#    0.000    0.000    0.000    0.000    0.000    0.000 
#
# Total GULP energy -67034.419825 kJ/mol
# GULP energy per Si atom -5586.201652 kJ/mol
# Density = 2.420525 g / cm^3
# Si number density = 24.260472 Si / 1000 Ang^3
#
#
#
# Elastic Constant Matrix: (Units=GPa)
#
#
# Indices 1 2 3 4 5 6 
#
# 1 108.1605 63.5420 62.6269 27.3702 14.0843 6.2148
# 2 63.5420 129.3770 87.2777 39.2801 8.3900 -22.7483
# 3 62.6269 87.2777 174.7340 63.4134 19.9004 0.9019
# 4 27.3702 39.2801 63.4134 64.5177 4.7778 -3.8920
# 5 14.0843 8.3900 19.9004 4.7778 40.0448 3.0331
# 6 6.2148 -22.7483 0.9019 -3.8920 3.0331 44.7298
#
#
#
# Elastic Compliance Matrix: (Units=1/GPa)
#
#
# Indices 1 2 3 4 5 6 
#
# 1 0.015003 -0.007104 -0.001093 -0.001103 -0.002690 -0.005589
# 2 -0.007104 0.017057 -0.005690 -0.001287 0.001180 0.009584
# 3 -0.001093 -0.005690 0.012300 -0.008127 -0.003303 -0.003473
# 4 -0.001103 -0.001287 -0.008127 0.024722 0.001617 0.001704
# 5 -0.002690 0.001180 -0.003303 0.001617 0.027170 -0.000661
# 6 -0.005589 0.009584 -0.003473 0.001704 -0.000661 0.028270
#
#
# Mechanical properties :
#
#
# Convention : Reuss Voigt Hill
#
# Bulk Modulus (GPa) = 60.29788 93.24053 76.76921
# Shear Modulus (GPa) = 31.68078 43.11344 37.39711
#
# Velocity S-wave (km/s) = 3.61759 4.22015 3.93043
# Velocity P-wave (km/s) = 6.50827 7.89067 7.23258
#
# Compressibility (1/GPa) = 0.01658433
#
# Stress axis : x y z
#
# Youngs Moduli (GPa) = 66.65489 58.62857 81.29865
#
# Poissons Ratio (x) = 0.41652 0.08887
# Poissons Ratio (y) = 0.47354 0.46259
# Poissons Ratio (z) = 0.07287 0.33360
#
# Static dielectric constant tensor:
#      x y z
#    x 1.957930 -0.035160 -0.000880 
#    y -0.035160 2.046470 0.042730 
#    z -0.000880 0.042730 2.015050 
# 
# From -- ./inp_files/118969.got.cif
#   From: 2010.05.17/outbox.cif.g08.bks.cpg/sg2_60_cif.got.tgz:118969.got - 2010.06.03 11:33:40.
