data_PCOD9027616
_publ_section_title
;
Structure prediction by ZEFSAII (Michael W. Deem and Ramdas Pophale) SiO2 
 PCOD9027616
Probable space group: P -1
;
_chemical_formula_sum "Si O2"
_cell_formula_units_Z 16
_cell_length_a 7.480940
_cell_length_b 25.470384
_cell_length_c 8.963720
_cell_angle_alpha 144.488130
_cell_angle_beta 103.953296
_cell_angle_gamma 53.699659
_cell_volume 685.711272
_symmetry_space_group_name_H-M "P -1"
_symmetry_group_IT_number 2
_symmetry_cell_setting 'triclinic'
loop_
_space_group_symop_operation_xyz
x,y,z
-x,-y,-z
loop_
_atom_site_type_symbol
_atom_site_label
_atom_site_fract_x
_atom_site_fract_y
_atom_site_fract_z
Si Si1 0.843762 0.646896 0.806741
Si Si2 0.422634 0.002387 0.263695
Si Si3 0.707380 0.129011 0.231031
Si Si4 0.636563 0.405336 0.447673
Si Si5 0.223297 0.553110 0.131143
Si Si6 0.410545 0.350586 0.498624
Si Si7 0.674803 0.769350 0.364160
Si Si8 0.074071 0.179877 0.848727
O O1 0.690709 0.694024 0.729292
O O2 0.000000 0.500000 0.500000
O O3 0.698398 0.703525 0.064953
O O4 0.966389 0.704252 0.954299
O O5 0.407915 0.100820 0.398158
O O6 0.161816 0.090092 0.517515
O O7 0.676177 0.915136 0.215568
O O8 0.433722 0.910847 0.954077
O O9 0.672209 0.226037 0.338892
O O10 0.549137 0.199877 0.513085
O O11 0.000000 0.000000 0.000000
O O12 0.500000 0.500000 0.500000
O O13 0.773097 0.426689 0.643800
O O14 0.437227 0.422380 0.553241
O O15 0.822690 0.261415 0.089844
O O16 0.954712 0.679596 0.295787
O O17 0.500000 0.500000 0.000000
O O18 0.240999 0.444777 0.820072
#
# Coordination Sequence:
#
# PCOD9027616 Si02
#       8
#     2   2   2   2   2   2   2   2
#     4  11  21  42  70 101 135 171 224 284 347 405
#     4  10  23  43  69  92 131 182 232 275 328 407
#     4  12  28  44  65 101 141 182 226 286 334 394
#     4  11  25  42  70  98 133 181 221 276 342 411
#     4  10  24  43  70 103 136 171 227 282 343 409
#     4  11  25  44  66 101 141 170 223 287 339 401
#     4  11  25  44  74  98 133 189 227 273 346 410
#     4  10  22  41  68  97 127 177 232 276 332 406
#
# _framework density 23.333435000000001
#
# number of rings (size 3 to 8) (size 9 to 14) (size 15 to 20)
#    0.000    1.250    2.500    1.875   10.500    3.500 
#    0.000    1.250    0.000    0.000    0.000    0.000 
#    0.000    0.000    0.000    0.000    0.000    0.000 
#
# Total GULP energy -89247.164886 kJ/mol
# GULP energy per Si atom -5577.947805 kJ/mol
# Density = 2.328033 g / cm^3
# Si number density = 23.333435 Si / 1000 Ang^3
#
#
#
# Elastic Constant Matrix: (Units=GPa)
#
#
# Indices 1 2 3 4 5 6 
#
# 1 33.0139 25.8689 13.2348 -2.5600 -14.0027 4.0365
# 2 25.8689 137.6737 65.3383 20.2882 -12.8835 16.0703
# 3 13.2348 65.3383 90.1523 -2.9466 -7.8431 1.1350
# 4 -2.5600 20.2882 -2.9466 57.4733 -1.0416 5.3514
# 5 -14.0027 -12.8835 -7.8431 -1.0416 36.0259 7.3531
# 6 4.0365 16.0703 1.1350 5.3514 7.3531 26.3133
#
#
#
# Elastic Compliance Matrix: (Units=1/GPa)
#
#
# Indices 1 2 3 4 5 6 
#
# 1 0.043874 -0.006468 -0.000025 0.005330 0.016625 -0.008509
# 2 -0.006468 0.014940 -0.009789 -0.005359 0.002009 -0.007182
# 3 -0.000025 -0.009789 0.018234 0.003965 -0.000341 0.004485
# 4 0.005330 -0.005359 0.003965 0.019989 0.002078 -0.002362
# 5 0.016625 0.002009 -0.000341 0.002078 0.037942 -0.014788
# 6 -0.008509 -0.007182 0.004485 -0.002362 -0.014788 0.048114
#
#
# Mechanical properties :
#
#
# Convention : Reuss Voigt Hill
#
# Bulk Modulus (GPa) = 22.48010 52.19154 37.33582
# Shear Modulus (GPa) = 21.69329 34.38904 28.04116
#
# Velocity S-wave (km/s) = 3.05242 3.84319 3.47040
# Velocity P-wave (km/s) = 4.69875 6.48920 5.66515
#
# Compressibility (1/GPa) = 0.04448378
#
# Stress axis : x y z
#
# Youngs Moduli (GPa) = 22.79256 66.93245 54.84328
#
# Poissons Ratio (x) = 0.43294 0.00139
# Poissons Ratio (y) = 0.14743 0.53684
# Poissons Ratio (z) = 0.00058 0.65517
#
# Static dielectric constant tensor:
#      x y z
#    x 2.380210 0.277050 -0.382280 
#    y 0.277050 2.136040 -0.335340 
#    z -0.382280 -0.335340 2.220200 
# 
# From -- ./inp_files/227578.got.cif
#   From: 2010.05.17/outbox.cif.g08.bks.cpg/sg2_114_cif.got.tgz:227578.got - 2010.06.03 11:33:40.
