data_PCOD9027289
_publ_section_title
;
Structure prediction by ZEFSAII (Michael W. Deem and Ramdas Pophale) SiO2 
 PCOD9027289
Probable space group: P -1
;
_chemical_formula_sum "Si O2"
_cell_formula_units_Z 15
_cell_length_a 22.172684
_cell_length_b 14.158246
_cell_length_c 11.447881
_cell_angle_alpha 38.995330
_cell_angle_beta 146.884975
_cell_angle_gamma 161.421961
_cell_volume 622.623359
_symmetry_space_group_name_H-M "P -1"
_symmetry_group_IT_number 2
_symmetry_cell_setting 'triclinic'
loop_
_space_group_symop_operation_xyz
x,y,z
-x,-y,-z
loop_
_atom_site_type_symbol
_atom_site_label
_atom_site_fract_x
_atom_site_fract_y
_atom_site_fract_z
Si Si1 0.874557 0.797670 0.875280
Si Si2 0.775465 0.006379 0.761074
Si Si3 0.000000 0.500000 0.500000
Si Si4 0.426638 0.828236 0.930678
Si Si5 0.646701 0.892043 0.056281
Si Si6 0.925739 0.742446 0.653799
Si Si7 0.568185 0.253001 0.371305
Si Si8 0.394344 0.461094 0.522978
O O1 0.729473 0.723680 0.620950
O O2 0.695867 0.468491 0.946143
O O3 0.080001 0.960401 0.987147
O O4 0.000000 0.000000 0.000000
O O5 0.951981 0.336273 0.692027
O O6 0.596176 0.851384 0.709304
O O7 0.644300 0.806808 0.620101
O O8 0.249912 0.721078 0.679583
O O9 0.628133 0.008593 0.003702
O O10 0.500000 0.000000 0.000000
O O11 0.620420 0.704317 0.261844
O O12 0.455656 0.699249 0.839110
O O13 0.872823 0.133181 0.121168
O O14 0.804867 0.544297 0.531897
O O15 0.746246 0.560668 0.637372
O O16 0.000000 0.000000 0.500000
O O17 0.500000 0.000000 0.500000
#
# Coordination Sequence:
#
# PCOD9027289 Si02
#       8
#     2   2   1   2   2   2   2   2
#     4  11  24  40  63  94 127 170 222 274 326 387
#     4  10  22  41  67  94 133 175 220 274 333 395
#     4  10  22  42  64  90 126 174 218 264 324 388
#     4  11  25  41  62  91 128 172 218 268 325 389
#     4  11  24  41  68  99 133 175 221 273 335 399
#     4   9  22  41  67  97 131 171 214 267 329 397
#     4  11  24  42  66 100 135 172 221 276 332 395
#     4  10  22  42  66  98 135 171 218 277 337 397
#
# _framework density 24.091612999999999
#
# number of rings (size 3 to 8) (size 9 to 14) (size 15 to 20)
#    0.000    1.600    0.000    3.200    0.000   18.133 
#    0.000    0.000    0.000    0.000    0.000    0.000 
#    0.000    0.000    0.000    0.000    0.000    0.000 
#
# Total GULP energy -83527.996628 kJ/mol
# GULP energy per Si atom -5568.533109 kJ/mol
# Density = 2.403678 g / cm^3
# Si number density = 24.091613 Si / 1000 Ang^3
#
#
#
# Elastic Constant Matrix: (Units=GPa)
#
#
# Indices 1 2 3 4 5 6 
#
# 1 106.5184 2.2212 20.6617 15.4211 16.7104 -19.3280
# 2 2.2212 56.6103 11.3595 9.4161 -10.6351 -25.6914
# 3 20.6617 11.3595 125.0521 12.0789 -3.6295 -13.8117
# 4 15.4211 9.4161 12.0789 33.9993 9.0171 -4.5186
# 5 16.7104 -10.6351 -3.6295 9.0171 54.8718 18.1355
# 6 -19.3280 -25.6914 -13.8117 -4.5186 18.1355 33.9200
#
#
#
# Elastic Compliance Matrix: (Units=1/GPa)
#
#
# Indices 1 2 3 4 5 6 
#
# 1 0.014075 0.005947 -0.001007 -0.003479 -0.007870 0.015859
# 2 0.005947 0.030259 -0.000200 -0.006276 -0.004032 0.027545
# 3 -0.001007 -0.000200 0.008673 -0.002409 0.000505 0.002216
# 4 -0.003479 -0.006276 -0.002409 0.035272 -0.006213 0.000304
# 5 -0.007870 -0.004032 0.000505 -0.006213 0.028655 -0.023481
# 6 0.015859 0.027545 0.002216 0.000304 -0.023481 0.072878
#
#
# Mechanical properties :
#
#
# Convention : Reuss Voigt Hill
#
# Bulk Modulus (GPa) = 16.00286 39.62952 27.81619
# Shear Modulus (GPa) = 24.85577 41.48744 33.17161
#
# Velocity S-wave (km/s) = 3.21552 4.15428 3.71468
# Velocity P-wave (km/s) = 4.52140 6.28458 5.47444
#
# Compressibility (1/GPa) = 0.06248884
#
# Stress axis : x y z
#
# Youngs Moduli (GPa) = 71.04642 33.04834 115.29772
#
# Poissons Ratio (x) = -0.19654 0.11606
# Poissons Ratio (y) = -0.42253 0.02303
# Poissons Ratio (z) = 0.07152 0.00660
#
# Static dielectric constant tensor:
#      x y z
#    x 2.050080 0.001500 0.026740 
#    y 0.001500 1.948860 0.025630 
#    z 0.026740 0.025630 1.898930 
# 
# From -- ./inp_files/475154.got.cif
#   From: 2010.05.17/outbox.cif.g08.bks.cpg/sg2_238_cif.got.tgz:475154.got - 2010.06.03 11:33:40.
