data_PCOD9027481
_publ_section_title
;
Structure prediction by ZEFSAII (Michael W. Deem and Ramdas Pophale) SiO2 
 PCOD9027481
Probable space group: P -1
;
_chemical_formula_sum "Si O2"
_cell_formula_units_Z 16
_cell_length_a 15.847084
_cell_length_b 8.974705
_cell_length_c 9.473196
_cell_angle_alpha 67.609214
_cell_angle_beta 142.566893
_cell_angle_gamma 96.912511
_cell_volume 716.337038
_symmetry_space_group_name_H-M "P -1"
_symmetry_group_IT_number 2
_symmetry_cell_setting 'triclinic'
loop_
_space_group_symop_operation_xyz
x,y,z
-x,-y,-z
loop_
_atom_site_type_symbol
_atom_site_label
_atom_site_fract_x
_atom_site_fract_y
_atom_site_fract_z
Si Si1 0.181811 0.184233 0.552591
Si Si2 0.001703 0.680546 0.492410
Si Si3 0.486181 0.187561 0.976583
Si Si4 0.266200 0.787430 0.879588
Si Si5 0.142875 0.368787 0.165475
Si Si6 0.440696 0.810666 0.605963
Si Si7 0.348381 0.595147 0.340968
Si Si8 0.252311 0.177120 0.099356
O O1 0.039501 0.296239 0.405882
O O2 0.173808 0.204767 0.367077
O O3 0.211364 0.990527 0.708695
O O4 0.311946 0.259254 0.739826
O O5 0.000000 0.500000 0.500000
O O6 0.157333 0.710086 0.678666
O O7 0.866222 0.816698 0.181429
O O8 0.570540 0.270217 0.949761
O O9 0.558659 0.182612 0.226982
O O10 0.500000 0.000000 0.000000
O O11 0.269567 0.736779 0.066357
O O12 0.263326 0.462906 0.301211
O O13 0.158317 0.300535 0.051532
O O14 0.000000 0.500000 0.000000
O O15 0.376711 0.678326 0.493045
O O16 0.610925 0.768824 0.797470
O O17 0.339477 0.993381 0.346474
O O18 0.500000 0.500000 0.500000
#
# Coordination Sequence:
#
# PCOD9027481 Si02
#       8
#     2   2   2   2   2   2   2   2
#     4  11  23  45  68  96 135 188 236 282 345 426
#     4  12  25  43  66 101 144 184 227 290 362 424
#     4  10  22  41  68 104 134 174 236 295 346 400
#     4  11  25  44  72 101 138 186 238 287 352 431
#     4  12  26  46  69 104 149 190 230 298 372 423
#     4  11  24  42  74 104 139 185 246 298 346 424
#     4  12  25  45  71 107 145 189 239 295 363 432
#     4  11  23  43  69 102 140 188 240 290 355 428
#
# _framework density 22.335854999999999
#
# number of rings (size 3 to 8) (size 9 to 14) (size 15 to 20)
#    0.000    0.750    2.500    5.625    5.250    3.000 
#    0.000    3.750    0.000    0.000    0.000    0.000 
#    0.000    0.000    0.000    0.000    0.000    0.000 
#
# Total GULP energy -89427.495721 kJ/mol
# GULP energy per Si atom -5589.218483 kJ/mol
# Density = 2.228502 g / cm^3
# Si number density = 22.335855 Si / 1000 Ang^3
#
#
#
# Elastic Constant Matrix: (Units=GPa)
#
#
# Indices 1 2 3 4 5 6 
#
# 1 113.9687 42.6732 29.2835 8.4832 1.3437 -2.3837
# 2 42.6732 90.1796 24.1254 14.3425 -2.2348 -1.1241
# 3 29.2835 24.1254 87.8730 11.4160 -7.9290 3.0047
# 4 8.4832 14.3425 11.4160 42.8348 0.1066 0.4373
# 5 1.3437 -2.2348 -7.9290 0.1066 56.3464 7.9964
# 6 -2.3837 -1.1241 3.0047 0.4373 7.9964 33.8711
#
#
#
# Elastic Compliance Matrix: (Units=1/GPa)
#
#
# Indices 1 2 3 4 5 6 
#
# 1 0.011204 -0.004620 -0.002591 0.000010 -0.000970 0.001094
# 2 -0.004620 0.014343 -0.001935 -0.003375 0.000374 0.000278
# 3 -0.002591 -0.001935 0.013342 -0.002381 0.002137 -0.001904
# 4 0.000010 -0.003375 -0.002381 0.025110 -0.000502 -0.000106
# 5 -0.000970 0.000374 0.002137 -0.000502 0.018749 -0.004665
# 6 0.001094 0.000278 -0.001904 -0.000106 -0.004665 0.030882
#
#
# Mechanical properties :
#
#
# Convention : Reuss Voigt Hill
#
# Bulk Modulus (GPa) = 48.55678 53.79839 51.17758
# Shear Modulus (GPa) = 36.02597 39.67307 37.84952
#
# Velocity S-wave (km/s) = 4.02048 4.21908 4.12097
# Velocity P-wave (km/s) = 6.58323 6.91900 6.75320
#
# Compressibility (1/GPa) = 0.02059445
#
# Stress axis : x y z
#
# Youngs Moduli (GPa) = 89.25569 69.72209 74.95023
#
# Poissons Ratio (x) = 0.32214 0.19423
# Poissons Ratio (y) = 0.41240 0.14505
# Poissons Ratio (z) = 0.23130 0.13493
#
# Static dielectric constant tensor:
#      x y z
#    x 1.795110 -0.006580 0.011010 
#    y -0.006580 1.798700 -0.064760 
#    z 0.011010 -0.064760 1.898770 
# 
# From -- ./inp_files/298026.got.cif
#   From: 2010.05.17/outbox.cif.g08.bks.cpg/sg2_150_cif.got.tgz:298026.got - 2010.06.03 11:33:40.
