data_PCOD9027975
_publ_section_title
;
Structure prediction by ZEFSAII (Michael W. Deem and Ramdas Pophale) SiO2 
 PCOD9027975
Probable space group: P -1
;
_chemical_formula_sum "Si O2"
_cell_formula_units_Z 14
_cell_length_a 14.389531
_cell_length_b 10.247588
_cell_length_c 15.050351
_cell_angle_alpha 115.195080
_cell_angle_beta 27.715472
_cell_angle_gamma 133.141778
_cell_volume 638.934250
_symmetry_space_group_name_H-M "P -1"
_symmetry_group_IT_number 2
_symmetry_cell_setting 'triclinic'
loop_
_space_group_symop_operation_xyz
x,y,z
-x,-y,-z
loop_
_atom_site_type_symbol
_atom_site_label
_atom_site_fract_x
_atom_site_fract_y
_atom_site_fract_z
Si Si1 0.952977 0.094127 0.255294
Si Si2 0.463466 0.874409 0.908569
Si Si3 0.974249 0.824512 0.586621
Si Si4 0.713036 0.019986 0.070262
Si Si5 0.325775 0.555916 0.049152
Si Si6 0.714931 0.953026 0.236049
Si Si7 0.789978 0.416674 0.555003
O O1 0.875452 0.098658 0.421698
O O2 0.042336 0.974071 0.149225
O O3 0.229032 0.338596 0.062780
O O4 0.723312 0.005296 0.346001
O O5 0.300593 0.644130 0.010227
O O6 0.305672 0.876323 0.962656
O O7 0.781141 0.996282 0.637412
O O8 0.500000 0.000000 0.000000
O O9 0.667683 0.746090 0.839149
O O10 0.868110 0.616294 0.577675
O O11 0.747455 0.081742 0.163226
O O12 0.406474 0.770789 0.261062
O O13 0.088932 0.495554 0.299285
O O14 0.425620 0.710945 0.384662
O O15 0.000000 0.000000 0.000000
#
# Coordination Sequence:
#
# PCOD9027975 Si02
#       7
#     2   2   2   2   2   2   2
#     4  11  22  39  72  95 126 164 227 261 311 374
#     4  12  25  40  62  92 141 169 203 260 342 373
#     4  12  24  41  65  99 128 166 217 270 310 384
#     4   9  21  42  65  93 128 172 206 264 314 379
#     4  12  24  40  63 100 129 170 209 265 321 381
#     4   8  18  42  68  94 124 170 215 262 313 376
#     4  10  22  41  70  91 133 162 220 261 319 367
#
# _framework density 21.911487000000001
#
# number of rings (size 3 to 8) (size 9 to 14) (size 15 to 20)
#    0.857    0.571    2.857    2.571    2.000    1.714 
#    0.000    0.714    0.000    1.714    0.000    0.000 
#    0.000    0.000    0.000    0.000    0.000    0.000 
#
# Total GULP energy -78077.430521 kJ/mol
# GULP energy per Si atom -5576.959323 kJ/mol
# Density = 2.186162 g / cm^3
# Si number density = 21.911487 Si / 1000 Ang^3
#
#
#
# Elastic Constant Matrix: (Units=GPa)
#
#
# Indices 1 2 3 4 5 6 
#
# 1 156.5000 20.0343 17.4319 4.2366 3.2788 13.9452
# 2 20.0343 27.6766 2.7184 6.1059 7.3816 7.8803
# 3 17.4319 2.7184 88.1498 12.8784 -3.4885 12.1726
# 4 4.2366 6.1059 12.8784 26.2588 -5.3154 3.8223
# 5 3.2788 7.3816 -3.4885 -5.3154 41.3246 -1.0349
# 6 13.9452 7.8803 12.1726 3.8223 -1.0349 49.9041
#
#
#
# Elastic Compliance Matrix: (Units=1/GPa)
#
#
# Indices 1 2 3 4 5 6 
#
# 1 0.007240 -0.005112 -0.001250 0.000839 0.000317 -0.000969
# 2 -0.005112 0.046391 0.001719 -0.011894 -0.009406 -0.005600
# 3 -0.001250 0.001719 0.012784 -0.006089 0.000024 -0.002574
# 4 0.000839 -0.011894 -0.006089 0.045214 0.007355 -0.000182
# 5 0.000317 -0.009406 0.000024 0.007355 0.026836 0.001384
# 6 -0.000969 -0.005600 -0.002574 -0.000182 0.001384 0.021864
#
#
# Mechanical properties :
#
#
# Convention : Reuss Voigt Hill
#
# Bulk Modulus (GPa) = 17.50434 39.18841 28.34638
# Shear Modulus (GPa) = 26.50272 38.97360 32.73816
#
# Velocity S-wave (km/s) = 3.48161 4.22202 3.86956
# Velocity P-wave (km/s) = 4.91611 6.45685 5.73843
#
# Compressibility (1/GPa) = 0.05712868
#
# Stress axis : x y z
#
# Youngs Moduli (GPa) = 138.11294 21.55609 78.22015
#
# Poissons Ratio (x) = 0.11020 0.09781
# Poissons Ratio (y) = 0.70605 -0.13447
# Poissons Ratio (z) = 0.17270 -0.03706
#
# Static dielectric constant tensor:
#      x y z
#    x 1.885090 0.005150 -0.036610 
#    y 0.005150 1.815610 0.073150 
#    z -0.036610 0.073150 1.859550 
# 
# From -- ./inp_files/531863.got.cif
#   From: 2010.05.17/outbox.cif.g08.bks.cpg/sg2_266_cif.got.tgz:531863.got - 2010.06.03 11:33:40.
