data_PCOD9027578
_publ_section_title
;
Structure prediction by ZEFSAII (Michael W. Deem and Ramdas Pophale) SiO2 
 PCOD9027578
Probable space group: P -1
;
_chemical_formula_sum "Si O2"
_cell_formula_units_Z 16
_cell_length_a 18.659184
_cell_length_b 5.357814
_cell_length_c 9.783519
_cell_angle_alpha 96.485736
_cell_angle_beta 41.977348
_cell_angle_gamma 104.182433
_cell_volume 630.617946
_symmetry_space_group_name_H-M "P -1"
_symmetry_group_IT_number 2
_symmetry_cell_setting 'triclinic'
loop_
_space_group_symop_operation_xyz
x,y,z
-x,-y,-z
loop_
_atom_site_type_symbol
_atom_site_label
_atom_site_fract_x
_atom_site_fract_y
_atom_site_fract_z
Si Si1 0.579184 0.814920 0.830421
Si Si2 0.668482 0.538351 0.212683
Si Si3 0.734645 0.302024 0.352461
Si Si4 0.061082 0.042569 0.560272
Si Si5 0.533329 0.840824 0.602318
Si Si6 0.709209 0.613879 0.854267
Si Si7 0.213006 0.755485 0.440744
Si Si8 0.957317 0.206982 0.982767
O O1 0.536061 0.703822 0.736992
O O2 0.606912 0.655247 0.910587
O O3 0.701551 0.978851 0.623851
O O4 0.500000 0.000000 0.000000
O O5 0.746723 0.501606 0.223153
O O6 0.593458 0.710031 0.395386
O O7 0.594503 0.247636 0.263147
O O8 0.710447 0.658937 0.015808
O O9 0.773507 0.412101 0.454807
O O10 0.607178 0.133691 0.529297
O O11 0.824354 0.140286 0.179137
O O12 0.179896 0.214284 0.358393
O O13 0.998087 0.174150 0.769231
O O14 0.094559 0.796761 0.570414
O O15 0.000000 0.000000 0.500000
O O16 0.727907 0.331524 0.779242
O O17 0.000000 0.500000 0.000000
O O18 0.000000 0.000000 0.000000
#
# Coordination Sequence:
#
# PCOD9027578 Si02
#       8
#     2   2   2   2   2   2   2   2
#     4  10  22  41  68  95 133 182 234 295 366 448
#     4  11  25  41  67 103 140 189 236 308 377 451
#     4  11  24  43  72  97 143 185 246 306 370 448
#     4  11  27  46  70 107 148 196 249 323 384 452
#     4  10  24  43  66  99 140 182 246 298 377 445
#     4  11  25  43  68 100 144 184 246 302 383 454
#     4  10  22  44  67  97 133 185 238 298 367 449
#     4  12  28  50  82 115 152 205 267 320 386 466
#
# _framework density 25.371939999999999
#
# number of rings (size 3 to 8) (size 9 to 14) (size 15 to 20)
#    0.000    1.250    1.250    2.625    5.250    8.500 
#    0.000    0.000    0.000    0.000    0.000    0.000 
#    0.000    0.000    0.000    0.000    0.000    0.000 
#
# Total GULP energy -89390.414615 kJ/mol
# GULP energy per Si atom -5586.900913 kJ/mol
# Density = 2.531419 g / cm^3
# Si number density = 25.371940 Si / 1000 Ang^3
#
#
#
# Elastic Constant Matrix: (Units=GPa)
#
#
# Indices 1 2 3 4 5 6 
#
# 1 131.3258 26.6515 46.1656 -0.2356 32.9246 -3.4653
# 2 26.6515 64.8468 23.8755 7.8887 10.0043 -5.3463
# 3 46.1656 23.8755 178.7757 10.0653 44.6705 -4.4417
# 4 -0.2356 7.8887 10.0653 36.6559 1.3817 -0.1155
# 5 32.9246 10.0043 44.6705 1.3817 59.8630 -1.9612
# 6 -3.4653 -5.3463 -4.4417 -0.1155 -1.9612 30.7827
#
#
#
# Elastic Compliance Matrix: (Units=1/GPa)
#
#
# Indices 1 2 3 4 5 6 
#
# 1 0.009638 -0.003059 -0.001157 0.001187 -0.003949 0.000140
# 2 -0.003059 0.017812 -0.001287 -0.003485 -0.000170 0.002540
# 3 -0.001157 -0.001287 0.007298 -0.001562 -0.004545 0.000404
# 4 0.001187 -0.003485 -0.001562 0.028450 0.000420 -0.000563
# 5 -0.003949 -0.000170 -0.004545 0.000420 0.022297 0.000292
# 6 0.000140 0.002540 0.000404 -0.000563 0.000292 0.033017
#
#
# Mechanical properties :
#
#
# Convention : Reuss Voigt Hill
#
# Bulk Modulus (GPa) = 42.11945 63.14816 52.63380
# Shear Modulus (GPa) = 36.38194 44.01069 40.19632
#
# Velocity S-wave (km/s) = 3.79085 4.16940 3.98462
# Velocity P-wave (km/s) = 5.98311 6.93697 6.47762
#
# Compressibility (1/GPa) = 0.02374200
#
# Stress axis : x y z
#
# Youngs Moduli (GPa) = 103.75552 56.14325 137.02608
#
# Poissons Ratio (x) = 0.17173 0.15853
# Poissons Ratio (y) = 0.31737 0.17635
# Poissons Ratio (z) = 0.12004 0.07226
#
# Static dielectric constant tensor:
#      x y z
#    x 2.031760 0.002120 -0.003140 
#    y 0.002120 2.298280 -0.066790 
#    z -0.003140 -0.066790 1.995570 
# 
# From -- ./inp_files/323828.got.cif
#   From: 2010.05.17/outbox.cif.g08.bks.cpg/sg2_162_cif.got.tgz:323828.got - 2010.06.03 11:33:40.
