data_PCOD9027513
_publ_section_title
;
Structure prediction by ZEFSAII (Michael W. Deem and Ramdas Pophale) SiO2 
 PCOD9027513
Probable space group: P -1
;
_chemical_formula_sum "Si O2"
_cell_formula_units_Z 13
_cell_length_a 5.109971
_cell_length_b 10.656667
_cell_length_c 9.507462
_cell_angle_alpha 85.015925
_cell_angle_beta 110.672498
_cell_angle_gamma 87.120352
_cell_volume 480.743371
_symmetry_space_group_name_H-M "P -1"
_symmetry_group_IT_number 2
_symmetry_cell_setting 'triclinic'
loop_
_space_group_symop_operation_xyz
x,y,z
-x,-y,-z
loop_
_atom_site_type_symbol
_atom_site_label
_atom_site_fract_x
_atom_site_fract_y
_atom_site_fract_z
Si Si1 0.500000 0.500000 0.500000
Si Si2 0.932597 0.414106 0.829422
Si Si3 0.123691 0.004645 0.322882
Si Si4 0.530485 0.737042 0.132906
Si Si5 0.405961 0.203414 0.546565
Si Si6 0.491779 0.891984 0.841704
Si Si7 0.438751 0.368233 0.280003
O O1 0.769551 0.422511 0.647287
O O2 0.645706 0.466189 0.365217
O O3 0.774989 0.311102 0.897691
O O4 0.830434 0.556304 0.847044
O O5 0.255828 0.371290 0.881655
O O6 0.216990 0.104949 0.445977
O O7 0.257650 0.047115 0.196468
O O8 0.794409 0.024017 0.248091
O O9 0.282191 0.869233 0.401707
O O10 0.641317 0.770417 0.303347
O O11 0.524923 0.853517 0.013035
O O12 0.366122 0.332820 0.435336
O O13 0.464247 0.757338 0.769381
#
# Coordination Sequence:
#
# PCOD9027513 Si02
#       7
#     1   2   2   2   2   2   2
#     4   8  18  40  58  96 118 162 196 258 286 370
#     4  10  23  38  62  95 122 158 204 244 297 374
#     4  10  25  42  64  90 121 157 215 248 305 354
#     4  12  24  40  65  90 127 162 202 243 313 358
#     4  10  22  41  68  90 118 163 205 259 298 359
#     4  11  25  43  60  92 126 164 196 258 302 361
#     4   9  20  40  63  89 126 155 202 248 304 351
#
# _framework density 27.041457000000001
#
# number of rings (size 3 to 8) (size 9 to 14) (size 15 to 20)
#    0.923    0.923    1.538    0.923    2.154   14.154 
#    0.000    0.000    0.000    0.000    0.000    0.000 
#    0.000    0.000    0.000    0.000    0.000    0.000 
#
# Total GULP energy -72606.646303 kJ/mol
# GULP energy per Si atom -5585.126639 kJ/mol
# Density = 2.697991 g / cm^3
# Si number density = 27.041457 Si / 1000 Ang^3
#
#
#
# Elastic Constant Matrix: (Units=GPa)
#
#
# Indices 1 2 3 4 5 6 
#
# 1 78.1087 26.3169 22.6023 -1.8672 -15.5196 -3.7154
# 2 26.3169 125.0553 38.2017 -11.6281 -4.9232 -0.1954
# 3 22.6023 38.2017 140.7458 -4.7837 -36.0024 5.3966
# 4 -1.8672 -11.6281 -4.7837 59.8837 3.7797 -3.3403
# 5 -15.5196 -4.9232 -36.0024 3.7797 36.8352 -7.4710
# 6 -3.7154 -0.1954 5.3966 -3.3403 -7.4710 30.9379
#
#
#
# Elastic Compliance Matrix: (Units=1/GPa)
#
#
# Indices 1 2 3 4 5 6 
#
# 1 0.015309 -0.002958 -0.000084 -0.000336 0.006700 0.003416
# 2 -0.002958 0.009513 -0.002789 0.001699 -0.002944 -0.000336
# 3 -0.000084 -0.002789 0.010368 -0.000310 0.009861 0.000512
# 4 -0.000336 0.001699 -0.000310 0.017182 -0.001682 0.001473
# 5 0.006700 -0.002944 0.009861 -0.001682 0.041178 0.008828
# 6 0.003416 -0.000336 0.000512 0.001473 0.008828 0.034933
#
#
# Mechanical properties :
#
#
# Convention : Reuss Voigt Hill
#
# Bulk Modulus (GPa) = 42.50508 57.57240 50.03874
# Shear Modulus (GPa) = 33.78648 42.65063 38.21855
#
# Velocity S-wave (km/s) = 3.53857 3.97575 3.76351
# Velocity P-wave (km/s) = 5.69630 6.51245 6.11800
#
# Compressibility (1/GPa) = 0.02352660
#
# Stress axis : x y z
#
# Youngs Moduli (GPa) = 65.31934 105.12358 96.45268
#
# Poissons Ratio (x) = 0.31097 0.00812
# Poissons Ratio (y) = 0.19323 0.26903
# Poissons Ratio (z) = 0.00550 0.29321
#
# Static dielectric constant tensor:
#      x y z
#    x 2.623760 0.724080 0.165130 
#    y 0.724080 3.215880 0.352210 
#    z 0.165130 0.352210 2.234090 
# 
# From -- ./inp_files/133149.got.cif
#   From: 2010.05.17/outbox.cif.g08.bks.cpg/sg2_67_cif.got.tgz:133149.got - 2010.06.03 11:33:40.
