data_PCOD9027568
_publ_section_title
;
Structure prediction by ZEFSAII (Michael W. Deem and Ramdas Pophale) SiO2 
 PCOD9027568
Probable space group: P -1
;
_chemical_formula_sum "Si O2"
_cell_formula_units_Z 14
_cell_length_a 20.904528
_cell_length_b 14.647468
_cell_length_c 9.014715
_cell_angle_alpha 140.550705
_cell_angle_beta 28.297020
_cell_angle_gamma 148.419905
_cell_volume 682.530120
_symmetry_space_group_name_H-M "P -1"
_symmetry_group_IT_number 2
_symmetry_cell_setting 'triclinic'
loop_
_space_group_symop_operation_xyz
x,y,z
-x,-y,-z
loop_
_atom_site_type_symbol
_atom_site_label
_atom_site_fract_x
_atom_site_fract_y
_atom_site_fract_z
Si Si1 0.930330 0.974145 0.940591
Si Si2 0.724859 0.629131 0.050761
Si Si3 0.154051 0.796680 0.770118
Si Si4 0.568721 0.717417 0.722091
Si Si5 0.960374 0.384478 0.661758
Si Si6 0.173026 0.915477 0.209304
Si Si7 0.367373 0.816587 0.117054
O O1 0.036522 0.949684 0.576222
O O2 0.759916 0.784533 0.066678
O O3 0.912592 0.123646 0.107571
O O4 0.000000 0.000000 0.000000
O O5 0.690154 0.679428 0.345935
O O6 0.560444 0.442907 0.112025
O O7 0.883861 0.621382 0.710540
O O8 0.031805 0.588130 0.782447
O O9 0.318673 0.837604 0.407939
O O10 0.184926 0.890214 0.981161
O O11 0.665478 0.908863 0.835142
O O12 0.452102 0.714018 0.828920
O O13 0.883055 0.262347 0.812150
O O14 0.807090 0.292417 0.746682
O O15 0.500000 0.000000 0.000000
#
# Coordination Sequence:
#
# PCOD9027568 Si02
#       7
#     2   2   2   2   2   2   2
#     4  11  22  42  68  95 130 178 232 271 322 402
#     4  10  22  41  68  95 126 177 229 275 321 391
#     4  12  25  42  68 101 138 176 220 279 341 397
#     4  11  22  40  66  99 133 173 220 279 333 386
#     4  11  24  44  70 100 132 179 229 275 328 403
#     4  11  24  43  66 100 139 177 218 275 346 399
#     4  12  24  41  65 102 132 171 231 275 331 388
#
# _framework density 20.511914999999998
#
# number of rings (size 3 to 8) (size 9 to 14) (size 15 to 20)
#    0.000    0.857    4.286    3.857    2.000    0.571 
#    0.000    0.714    0.000    0.000    0.000    0.000 
#    0.000    0.000    0.000    0.000    0.000    0.000 
#
# Total GULP energy -78157.657836 kJ/mol
# GULP energy per Si atom -5582.689845 kJ/mol
# Density = 2.046523 g / cm^3
# Si number density = 20.511915 Si / 1000 Ang^3
#
#
#
# Elastic Constant Matrix: (Units=GPa)
#
#
# Indices 1 2 3 4 5 6 
#
# 1 75.0224 45.0322 43.7060 5.7830 1.0444 -6.2196
# 2 45.0322 172.1920 47.3823 -8.3514 0.2936 -18.2248
# 3 43.7060 47.3823 88.5091 -7.8300 5.2354 11.4606
# 4 5.7830 -8.3514 -7.8300 37.2259 -6.0886 -8.3010
# 5 1.0444 0.2936 5.2354 -6.0886 27.4472 7.2232
# 6 -6.2196 -18.2248 11.4606 -8.3010 7.2232 27.8597
#
#
#
# Elastic Compliance Matrix: (Units=1/GPa)
#
#
# Indices 1 2 3 4 5 6 
#
# 1 0.022003 -0.002275 -0.010875 -0.004958 -0.001640 0.006846
# 2 -0.002275 0.008522 -0.004149 0.003042 -0.000601 0.007835
# 3 -0.010875 -0.004149 0.020763 0.002274 0.000456 -0.013124
# 4 -0.004958 0.003042 0.002274 0.031345 0.004541 0.008109
# 5 -0.001640 -0.000601 0.000456 0.004541 0.040048 -0.009977
# 6 0.006846 0.007835 -0.013124 0.008109 -0.009977 0.052950
#
#
# Mechanical properties :
#
#
# Convention : Reuss Voigt Hill
#
# Bulk Modulus (GPa) = 59.91572 67.55161 63.73366
# Shear Modulus (GPa) = 23.17043 31.81343 27.49193
#
# Velocity S-wave (km/s) = 3.36461 3.94251 3.66497
# Velocity P-wave (km/s) = 6.66091 7.33000 7.00345
#
# Compressibility (1/GPa) = 0.01669011
#
# Stress axis : x y z
#
# Youngs Moduli (GPa) = 45.44835 117.34544 48.16243
#
# Poissons Ratio (x) = 0.26694 0.52378
# Poissons Ratio (y) = 0.10339 0.19981
# Poissons Ratio (z) = 0.49427 0.48684
#
# Static dielectric constant tensor:
#      x y z
#    x 1.743440 -0.011420 -0.020420 
#    y -0.011420 1.811100 -0.020360 
#    z -0.020420 -0.020360 1.738870 
# 
# From -- ./inp_files/347362.got.cif
#   From: 2010.05.17/outbox.cif.g08.bks.cpg/sg2_174_cif.got.tgz:347362.got - 2010.06.03 11:33:40.
