data_PCOD9027113
_publ_section_title
;
Structure prediction by ZEFSAII (Michael W. Deem and Ramdas Pophale) SiO2 
 PCOD9027113
Probable space group: P -1
;
_chemical_formula_sum "Si O2"
_cell_formula_units_Z 14
_cell_length_a 5.269478
_cell_length_b 11.801147
_cell_length_c 13.405876
_cell_angle_alpha 52.431670
_cell_angle_beta 111.465903
_cell_angle_gamma 101.008078
_cell_volume 614.358518
_symmetry_space_group_name_H-M "P -1"
_symmetry_group_IT_number 2
_symmetry_cell_setting 'triclinic'
loop_
_space_group_symop_operation_xyz
x,y,z
-x,-y,-z
loop_
_atom_site_type_symbol
_atom_site_label
_atom_site_fract_x
_atom_site_fract_y
_atom_site_fract_z
Si Si1 0.982684 0.858257 0.793750
Si Si2 0.492954 0.703972 0.310201
Si Si3 0.281294 0.586746 0.550679
Si Si4 0.114908 0.156394 0.577902
Si Si5 0.228118 0.293763 0.325547
Si Si6 0.210858 0.580381 0.915023
Si Si7 0.781081 0.088501 0.985895
O O1 0.233024 0.746427 0.860466
O O2 0.747367 0.772984 0.746737
O O3 0.968439 0.013960 0.659224
O O4 0.048114 0.880803 0.905967
O O5 0.340838 0.634828 0.419327
O O6 0.712098 0.584713 0.362924
O O7 0.633152 0.836344 0.313409
O O8 0.305760 0.765228 0.162420
O O9 0.533335 0.619189 0.641491
O O10 0.048532 0.694314 0.502217
O O11 0.193049 0.167582 0.467910
O O12 0.956736 0.398208 0.223235
O O13 0.500000 0.500000 0.000000
O O14 0.000000 0.500000 0.000000
O O15 0.500000 0.000000 0.000000
O O16 0.000000 0.000000 0.000000
#
# Coordination Sequence:
#
# PCOD9027113 Si02
#       7
#     2   2   2   2   2   2   2
#     4  10  24  43  68 102 138 185 227 296 344 421
#     4  10  23  41  64  98 134 182 239 283 348 407
#     4  10  22  41  66  97 136 181 230 294 341 416
#     4  11  20  43  66  99 135 176 238 282 354 408
#     4   9  24  39  66  99 133 178 225 285 349 411
#     4  10  25  46  66 100 142 181 227 278 346 418
#     4  12  26  47  70 101 140 186 234 289 347 415
#
# _framework density 22.787997000000001
#
# number of rings (size 3 to 8) (size 9 to 14) (size 15 to 20)
#    0.857    0.857    1.429    1.714    4.000    1.714 
#    7.714    0.000    0.000    0.000    0.000    0.000 
#    0.000    0.000    0.000    0.000    0.000    0.000 
#
# Total GULP energy -77965.359675 kJ/mol
# GULP energy per Si atom -5568.954263 kJ/mol
# Density = 2.273613 g / cm^3
# Si number density = 22.787997 Si / 1000 Ang^3
#
#
#
# Elastic Constant Matrix: (Units=GPa)
#
#
# Indices 1 2 3 4 5 6 
#
# 1 65.6286 30.1877 14.2576 11.5020 13.3581 -7.0055
# 2 30.1877 117.1577 68.9200 26.0612 -0.2530 -4.5922
# 3 14.2576 68.9200 103.7737 20.8638 1.6882 7.3975
# 4 11.5020 26.0612 20.8638 44.3750 -3.2136 5.8216
# 5 13.3581 -0.2530 1.6882 -3.2136 19.9415 0.5869
# 6 -7.0055 -4.5922 7.3975 5.8216 0.5869 27.4896
#
#
#
# Elastic Compliance Matrix: (Units=1/GPa)
#
#
# Indices 1 2 3 4 5 6 
#
# 1 0.022104 -0.005032 0.001204 -0.005276 -0.015997 0.005927
# 2 -0.005032 0.016954 -0.010126 -0.004301 0.003600 0.005109
# 3 0.001204 -0.010126 0.016995 -0.001812 -0.002503 -0.005521
# 4 -0.005276 -0.004301 -0.001812 0.028933 0.008528 -0.007885
# 5 -0.015997 0.003600 -0.002503 0.008528 0.062669 -0.005946
# 6 0.005927 0.005109 -0.005521 -0.007885 -0.005946 0.042024
#
#
# Mechanical properties :
#
#
# Convention : Reuss Voigt Hill
#
# Bulk Modulus (GPa) = 35.53288 57.03229 46.28258
# Shear Modulus (GPa) = 22.02941 29.90753 25.96847
#
# Velocity S-wave (km/s) = 3.11257 3.62667 3.37941
# Velocity P-wave (km/s) = 5.34267 6.52830 5.96501
#
# Compressibility (1/GPa) = 0.02814295
#
# Stress axis : x y z
#
# Youngs Moduli (GPa) = 45.24102 58.98368 58.84112
#
# Poissons Ratio (x) = 0.29681 -0.07082
# Poissons Ratio (y) = 0.22765 0.59584
# Poissons Ratio (z) = -0.05445 0.59729
#
# Static dielectric constant tensor:
#      x y z
#    x 1.893540 0.026370 -0.000730 
#    y 0.026370 1.893170 0.028820 
#    z -0.000730 0.028820 1.896000 
# 
# From -- ./inp_files/361828.got.cif
#   From: 2010.05.17/outbox.cif.g08.bks.cpg/sg2_181_cif.got.tgz:361828.got - 2010.06.03 11:33:40.
