data_PCOD9027926
_publ_section_title
;
Structure prediction by ZEFSAII (Michael W. Deem and Ramdas Pophale) SiO2 
 PCOD9027926
Probable space group: P -1
;
_chemical_formula_sum "Si O2"
_cell_formula_units_Z 16
_cell_length_a 8.596146
_cell_length_b 9.688084
_cell_length_c 21.183133
_cell_angle_alpha 151.592741
_cell_angle_beta 121.256864
_cell_angle_gamma 58.832251
_cell_volume 709.286594
_symmetry_space_group_name_H-M "P -1"
_symmetry_group_IT_number 2
_symmetry_cell_setting 'triclinic'
loop_
_space_group_symop_operation_xyz
x,y,z
-x,-y,-z
loop_
_atom_site_type_symbol
_atom_site_label
_atom_site_fract_x
_atom_site_fract_y
_atom_site_fract_z
Si Si1 0.485924 0.815311 0.519427
Si Si2 0.834396 0.332315 0.376382
Si Si3 0.906879 0.332442 0.652015
Si Si4 0.473399 0.530094 0.206545
Si Si5 0.210976 0.162592 0.076688
Si Si6 0.579402 0.413184 0.050332
Si Si7 0.108636 0.740565 0.784242
Si Si8 0.244594 0.021939 0.662359
O O1 0.645276 0.561497 0.429700
O O2 0.293819 0.764838 0.427176
O O3 0.555881 0.125129 0.645521
O O4 0.417982 0.838067 0.587895
O O5 0.881637 0.197663 0.263092
O O6 0.000000 0.500000 0.500000
O O7 0.804343 0.104992 0.332898
O O8 0.905252 0.577807 0.805161
O O9 0.959477 0.526162 0.681552
O O10 0.067762 0.070222 0.598893
O O11 0.366651 0.316396 0.137351
O O12 0.434138 0.472061 0.101202
O O13 0.690622 0.433862 0.225533
O O14 0.311340 0.911088 0.044013
O O15 0.096958 0.014836 0.939982
O O16 0.706275 0.657479 0.188787
O O17 0.500000 0.500000 0.000000
#
# Coordination Sequence:
#
# PCOD9027926 Si02
#       8
#     2   2   2   2   2   2   2   2
#     4  11  25  47  74  99 138 193 235 281 357 420
#     4  12  29  46  71 104 146 179 233 297 357 412
#     4  12  24  45  75  99 141 188 239 286 342 428
#     4  10  23  43  70 101 139 183 243 282 341 419
#     4  11  24  43  71 103 138 186 239 282 351 416
#     4  10  22  41  70 101 142 181 233 290 355 410
#     4  11  23  45  68 102 139 184 229 296 340 416
#     4  11  25  46  67 107 141 183 234 292 346 419
#
# _framework density 22.557879
#
# number of rings (size 3 to 8) (size 9 to 14) (size 15 to 20)
#    0.000    1.000    3.750    4.125    8.750    1.000 
#    2.250    0.625    0.000    0.000    0.000    0.000 
#    0.000    0.000    0.000    0.000    0.000    0.000 
#
# Total GULP energy -89434.279247 kJ/mol
# GULP energy per Si atom -5589.642453 kJ/mol
# Density = 2.250654 g / cm^3
# Si number density = 22.557879 Si / 1000 Ang^3
#
#
#
# Elastic Constant Matrix: (Units=GPa)
#
#
# Indices 1 2 3 4 5 6 
#
# 1 96.0464 25.1560 24.5648 4.0599 8.1575 12.0050
# 2 25.1560 69.4697 19.9705 -15.0636 -1.5372 28.5849
# 3 24.5648 19.9705 72.9358 0.4185 7.2168 13.3154
# 4 4.0599 -15.0636 0.4185 36.8481 4.2233 2.0314
# 5 8.1575 -1.5372 7.2168 4.2233 32.3764 -0.0499
# 6 12.0050 28.5849 13.3154 2.0314 -0.0499 45.2992
#
#
#
# Elastic Compliance Matrix: (Units=1/GPa)
#
#
# Indices 1 2 3 4 5 6 
#
# 1 0.012625 -0.004721 -0.002815 -0.003049 -0.002379 0.000595
# 2 -0.004721 0.025446 -0.002956 0.011578 0.001524 -0.014455
# 3 -0.002815 -0.002956 0.016149 -0.000627 -0.002952 -0.002111
# 4 -0.003049 0.011578 -0.000627 0.032972 -0.002855 -0.007796
# 5 -0.002379 0.001524 -0.002952 -0.002855 0.032590 0.000701
# 6 0.000595 -0.014455 -0.002111 -0.007796 0.000701 0.032010
#
#
# Mechanical properties :
#
#
# Convention : Reuss Voigt Hill
#
# Bulk Modulus (GPa) = 30.08731 41.98162 36.03446
# Shear Modulus (GPa) = 27.19555 34.15547 30.67551
#
# Velocity S-wave (km/s) = 3.47593 3.89540 3.69163
# Velocity P-wave (km/s) = 5.42920 6.23564 5.84634
#
# Compressibility (1/GPa) = 0.03323660
#
# Stress axis : x y z
#
# Youngs Moduli (GPa) = 79.21000 39.29895 61.92258
#
# Poissons Ratio (x) = 0.18553 0.17432
# Poissons Ratio (y) = 0.37394 0.18302
# Poissons Ratio (z) = 0.22298 0.11615
#
# Static dielectric constant tensor:
#      x y z
#    x 1.882970 0.077610 -0.056350 
#    y 0.077610 1.892390 -0.054690 
#    z -0.056350 -0.054690 1.923630 
# 
# From -- ./inp_files/588290.got.cif
#   From: 2010.05.17/outbox.cif.g08.bks.cpg/sg2_295_cif.got.tgz:588290.got - 2010.06.03 11:33:40.
