data_PCOD9027230
_publ_section_title
;
Structure prediction by ZEFSAII (Michael W. Deem and Ramdas Pophale) SiO2 
 PCOD9027230
Probable space group: P -1
;
_chemical_formula_sum "Si O2"
_cell_formula_units_Z 14
_cell_length_a 9.030830
_cell_length_b 23.029595
_cell_length_c 22.323532
_cell_angle_alpha 16.825756
_cell_angle_beta 143.572625
_cell_angle_gamma 150.796363
_cell_volume 639.812816
_symmetry_space_group_name_H-M "P -1"
_symmetry_group_IT_number 2
_symmetry_cell_setting 'triclinic'
loop_
_space_group_symop_operation_xyz
x,y,z
-x,-y,-z
loop_
_atom_site_type_symbol
_atom_site_label
_atom_site_fract_x
_atom_site_fract_y
_atom_site_fract_z
Si Si1 0.079041 0.607288 0.354246
Si Si2 0.205937 0.758952 0.846828
Si Si3 0.175567 0.451212 0.422773
Si Si4 0.749648 0.724027 0.049466
Si Si5 0.232351 0.917371 0.921651
Si Si6 0.813159 0.756870 0.827134
Si Si7 0.481762 0.793992 0.580851
O O1 0.024581 0.418055 0.471689
O O2 0.000000 0.500000 0.500000
O O3 0.859057 0.680433 0.189878
O O4 0.432568 0.842092 0.225458
O O5 0.026332 0.737274 0.869050
O O6 0.297372 0.992301 0.605890
O O7 0.524379 0.792667 0.924841
O O8 0.000000 0.500000 0.000000
O O9 0.500000 0.500000 0.500000
O O10 0.852072 0.250594 0.478548
O O11 0.264364 0.702733 0.167994
O O12 0.596394 0.470732 0.208282
O O13 0.053746 0.933315 0.903816
O O14 0.017909 0.864923 0.846799
O O15 0.674309 0.872121 0.628209
O O16 0.500000 0.500000 0.000000
#
# Coordination Sequence:
#
# PCOD9027230 Si02
#       7
#     2   2   2   2   2   2   2
#     4  10  23  40  63  95 131 168 211 264 323 376
#     4  12  25  39  69  95 125 174 217 258 323 389
#     4  10  22  41  67  92 126 168 216 261 323 380
#     4  10  22  45  64  93 131 169 220 260 324 382
#     4  10  22  41  68  89 133 173 202 274 321 371
#     4  12  22  45  65  93 133 164 216 267 324 380
#     4  10  23  42  68  91 133 167 209 270 323 370
#
# _framework density 21.881401
#
# number of rings (size 3 to 8) (size 9 to 14) (size 15 to 20)
#    0.000    1.714    4.286    2.143    8.000    1.143 
#    0.000    4.286    0.000    0.000    0.000    0.000 
#    0.000    0.000    0.000    0.000    0.000    0.000 
#
# Total GULP energy -78015.113270 kJ/mol
# GULP energy per Si atom -5572.508091 kJ/mol
# Density = 2.183160 g / cm^3
# Si number density = 21.881401 Si / 1000 Ang^3
#
#
#
# Elastic Constant Matrix: (Units=GPa)
#
#
# Indices 1 2 3 4 5 6 
#
# 1 69.3409 33.5638 63.8374 24.4849 -26.9825 18.9450
# 2 33.5638 147.5170 61.1092 42.6382 -3.2010 9.6309
# 3 63.8374 61.1092 105.6863 16.8712 -34.9852 10.5754
# 4 24.4849 42.6382 16.8712 57.5829 -0.3463 -0.0402
# 5 -26.9825 -3.2010 -34.9852 -0.3463 38.8449 10.6891
# 6 18.9450 9.6309 10.5754 -0.0402 10.6891 42.7087
#
#
#
# Elastic Compliance Matrix: (Units=1/GPa)
#
#
# Indices 1 2 3 4 5 6 
#
# 1 0.061807 0.004888 -0.023404 -0.022881 0.030406 -0.030355
# 2 0.004888 0.012147 -0.009932 -0.008190 -0.004238 -0.001395
# 3 -0.023404 -0.009932 0.031316 0.008196 0.010590 0.002224
# 4 -0.022881 -0.008190 0.008196 0.030692 -0.012527 0.013131
# 5 0.030406 -0.004238 0.010590 -0.012527 0.064560 -0.031324
# 6 -0.030355 -0.001395 0.002224 0.013131 -0.031324 0.044495
#
#
# Mechanical properties :
#
#
# Convention : Reuss Voigt Hill
#
# Bulk Modulus (GPa) = 20.67243 71.06277 45.86760
# Shear Modulus (GPa) = 15.72131 38.76288 27.24209
#
# Velocity S-wave (km/s) = 2.68335 4.21348 3.53227
# Velocity P-wave (km/s) = 4.36675 7.49787 6.13541
#
# Compressibility (1/GPa) = 0.04837361
#
# Stress axis : x y z
#
# Youngs Moduli (GPa) = 16.17948 82.32183 31.93233
#
# Poissons Ratio (x) = -0.40236 0.74734
# Poissons Ratio (y) = -0.07908 0.31716
# Poissons Ratio (z) = 0.37866 0.81764
#
# Static dielectric constant tensor:
#      x y z
#    x 1.798960 -0.000870 0.082790 
#    y -0.000870 1.916760 0.007870 
#    z 0.082790 0.007870 1.886080 
# 
# From -- ./inp_files/591945.got.cif
#   From: 2010.05.17/outbox.cif.g08.bks.cpg/sg2_296_cif.got.tgz:591945.got - 2010.06.03 11:33:40.
