data_PCOD9027931
_publ_section_title
;
Structure prediction by ZEFSAII (Michael W. Deem and Ramdas Pophale) SiO2 
 PCOD9027931
Probable space group: P -1
;
_chemical_formula_sum "Si O2"
_cell_formula_units_Z 16
_cell_length_a 12.121044
_cell_length_b 6.115400
_cell_length_c 19.993975
_cell_angle_alpha 119.716659
_cell_angle_beta 39.531852
_cell_angle_gamma 128.186900
_cell_volume 740.933262
_symmetry_space_group_name_H-M "P -1"
_symmetry_group_IT_number 2
_symmetry_cell_setting 'triclinic'
loop_
_space_group_symop_operation_xyz
x,y,z
-x,-y,-z
loop_
_atom_site_type_symbol
_atom_site_label
_atom_site_fract_x
_atom_site_fract_y
_atom_site_fract_z
Si Si1 0.015813 0.891853 0.116286
Si Si2 0.413389 0.230647 0.054436
Si Si3 0.544837 0.692646 0.801730
Si Si4 0.217346 0.755331 0.893182
Si Si5 0.517545 0.123158 0.699789
Si Si6 0.573710 0.444730 0.527033
Si Si7 0.286141 0.923709 0.656680
Si Si8 0.213993 0.048555 0.394589
O O1 0.903700 0.555342 0.125894
O O2 0.883645 0.049808 0.218807
O O3 0.201226 0.042258 0.098614
O O4 0.090056 0.897558 0.006371
O O5 0.414312 0.345908 0.146265
O O6 0.500000 0.500000 0.000000
O O7 0.500000 0.000000 0.000000
O O8 0.356203 0.744811 0.886781
O O9 0.495439 0.403566 0.744667
O O10 0.718235 0.907924 0.707962
O O11 0.364997 0.940584 0.797849
O O12 0.453483 0.961441 0.636647
O O13 0.727617 0.183264 0.636372
O O14 0.500000 0.500000 0.500000
O O15 0.385396 0.194625 0.606321
O O16 0.654577 0.685309 0.580890
O O17 0.738595 0.338921 0.416480
O O18 0.000000 0.000000 0.500000
#
# Coordination Sequence:
#
# PCOD9027931 Si02
#       8
#     2   2   2   2   2   2   2   2
#     4  11  23  44  67 107 134 176 239 283 343 440
#     4  12  28  50  71 105 155 197 231 294 369 432
#     4  11  23  46  70  96 144 186 231 290 362 427
#     4  10  22  41  70 102 136 174 228 290 353 416
#     4  11  21  42  71  96 135 178 225 293 358 419
#     4  11  23  44  65  91 134 174 219 297 354 405
#     4  11  23  40  68  97 126 172 231 285 352 406
#     4  11  25  43  67 100 134 184 235 288 357 433
#
# _framework density 21.594387000000001
#
# number of rings (size 3 to 8) (size 9 to 14) (size 15 to 20)
#    0.000    1.000    5.000    1.500    1.750    4.000 
#    0.000    0.000    0.000    0.000    0.000    0.000 
#    0.000    0.000    0.000    0.000    0.000    0.000 
#
# Total GULP energy -89119.984219 kJ/mol
# GULP energy per Si atom -5569.999014 kJ/mol
# Density = 2.154524 g / cm^3
# Si number density = 21.594387 Si / 1000 Ang^3
#
#
#
# Elastic Constant Matrix: (Units=GPa)
#
#
# Indices 1 2 3 4 5 6 
#
# 1 113.6387 27.8839 38.0224 -21.3138 10.2466 -10.1883
# 2 27.8839 33.2530 16.6856 2.2697 -1.3325 0.3171
# 3 38.0224 16.6856 105.2381 8.3703 -6.5410 -9.2376
# 4 -21.3138 2.2697 8.3703 37.6172 5.5393 3.1438
# 5 10.2466 -1.3325 -6.5410 5.5393 34.3363 -2.1757
# 6 -10.1883 0.3171 -9.2376 3.1438 -2.1757 25.4902
#
#
#
# Elastic Compliance Matrix: (Units=1/GPa)
#
#
# Indices 1 2 3 4 5 6 
#
# 1 0.017230 -0.012940 -0.005483 0.012796 -0.008578 0.002750
# 2 -0.012940 0.042542 -0.001219 -0.010248 0.006660 -0.004311
# 3 -0.005483 -0.001219 0.012909 -0.007024 0.005424 0.003831
# 4 0.012796 -0.010248 -0.007024 0.038016 -0.011878 -0.003006
# 5 -0.008578 0.006660 0.005424 -0.011878 0.035076 0.002913
# 6 0.002750 -0.004311 0.003831 -0.003006 0.002913 0.042391
#
#
# Mechanical properties :
#
#
# Convention : Reuss Voigt Hill
#
# Bulk Modulus (GPa) = 29.94346 46.36820 38.15583
# Shear Modulus (GPa) = 20.95734 30.79125 25.87429
#
# Velocity S-wave (km/s) = 3.11866 3.78019 3.46525
# Velocity P-wave (km/s) = 5.18310 6.36962 5.80675
#
# Compressibility (1/GPa) = 0.03339628
#
# Stress axis : x y z
#
# Youngs Moduli (GPa) = 58.03973 23.50599 77.46735
#
# Poissons Ratio (x) = 0.30416 0.42475
# Poissons Ratio (y) = 0.75103 0.09446
# Poissons Ratio (z) = 0.31823 0.02866
#
# Static dielectric constant tensor:
#      x y z
#    x 1.831980 -0.040600 0.011930 
#    y -0.040600 1.848970 0.058770 
#    z 0.011930 0.058770 1.874320 
# 
# From -- ./inp_files/468016.got.cif
#   From: 2010.05.17/outbox.cif.g08.bks.cpg/sg2_235_cif.got.tgz:468016.got - 2010.06.03 11:33:40.
