data_PCOD9027369
_publ_section_title
;
Structure prediction by ZEFSAII (Michael W. Deem and Ramdas Pophale) SiO2 
 PCOD9027369
Probable space group: P -1
;
_chemical_formula_sum "Si O2"
_cell_formula_units_Z 16
_cell_length_a 8.209840
_cell_length_b 20.372976
_cell_length_c 13.761748
_cell_angle_alpha 22.548779
_cell_angle_beta 126.770088
_cell_angle_gamma 127.126957
_cell_volume 697.338044
_symmetry_space_group_name_H-M "P -1"
_symmetry_group_IT_number 2
_symmetry_cell_setting 'triclinic'
loop_
_space_group_symop_operation_xyz
x,y,z
-x,-y,-z
loop_
_atom_site_type_symbol
_atom_site_label
_atom_site_fract_x
_atom_site_fract_y
_atom_site_fract_z
Si Si1 0.325561 0.018940 0.991486
Si Si2 0.847975 0.616213 0.234418
Si Si3 0.436266 0.669205 0.790389
Si Si4 0.327119 0.838801 0.691933
Si Si5 0.670180 0.660211 0.312249
Si Si6 0.144664 0.667159 0.520126
Si Si7 0.943351 0.992340 0.264050
Si Si8 0.761995 0.994351 0.392977
O O1 0.377241 0.165312 0.891980
O O2 0.141621 0.063045 0.796401
O O3 0.500000 0.000000 0.000000
O O4 0.239889 0.836833 0.260718
O O5 0.102044 0.359603 0.539568
O O6 0.000000 0.500000 0.500000
O O7 0.778548 0.497792 0.278522
O O8 0.961501 0.803923 0.985196
O O9 0.384802 0.677070 0.875182
O O10 0.234357 0.693462 0.623650
O O11 0.618319 0.825979 0.614027
O O12 0.500000 0.500000 0.000000
O O13 0.306661 0.845588 0.791631
O O14 0.500000 0.000000 0.500000
O O15 0.114289 0.884393 0.510277
O O16 0.500000 0.500000 0.500000
O O17 0.694202 0.656347 0.209194
O O18 0.763901 0.981612 0.295512
O O19 0.000000 0.000000 0.500000
#
# Coordination Sequence:
#
# PCOD9027369 Si02
#       8
#     2   2   2   2   2   2   2   2
#     4  12  24  40  69  99 134 177 217 273 337 406
#     4  10  22  41  67  97 133 175 219 273 338 395
#     4  11  24  43  70  97 133 175 222 280 335 388
#     4   9  21  41  65  95 123 171 223 261 328 391
#     4  11  24  42  65  99 141 174 224 269 335 405
#     4  11  24  43  65  99 138 174 224 271 340 401
#     4  11  21  41  72  91 136 174 220 277 328 398
#     4   9  21  42  67  94 125 173 225 267 326 397
#
# _framework density 22.944395
#
# number of rings (size 3 to 8) (size 9 to 14) (size 15 to 20)
#    0.000    1.500    2.500    2.625    8.750    0.000 
#    0.000    2.500   11.000    0.000    0.000    0.000 
#    0.000    0.000    0.000    0.000    0.000    0.000 
#
# Total GULP energy -89436.289602 kJ/mol
# GULP energy per Si atom -5589.768100 kJ/mol
# Density = 2.289217 g / cm^3
# Si number density = 22.944395 Si / 1000 Ang^3
#
#
#
# Elastic Constant Matrix: (Units=GPa)
#
#
# Indices 1 2 3 4 5 6 
#
# 1 137.3452 44.3028 44.7071 -29.2609 13.3639 -18.6025
# 2 44.3028 115.0522 18.0361 -24.3238 10.5594 -19.4955
# 3 44.7071 18.0361 65.9067 -28.0980 14.3196 -6.7515
# 4 -29.2609 -24.3238 -28.0980 42.9232 0.5402 10.2548
# 5 13.3639 10.5594 14.3196 0.5402 41.6272 -5.7579
# 6 -18.6025 -19.4955 -6.7515 10.2548 -5.7579 57.5269
#
#
#
# Elastic Compliance Matrix: (Units=1/GPa)
#
#
# Indices 1 2 3 4 5 6 
#
# 1 0.010494 -0.002479 -0.005306 0.001922 -0.000730 0.001515
# 2 -0.002479 0.011038 0.001565 0.005148 -0.002337 0.001971
# 3 -0.005306 0.001565 0.026354 0.015002 -0.008173 -0.001585
# 4 0.001922 0.005148 0.015002 0.038285 -0.008066 -0.003505
# 5 -0.000730 -0.002337 -0.008173 -0.008066 0.028079 0.002261
# 6 0.001515 0.001971 -0.001585 -0.003505 0.002261 0.019206
#
#
# Mechanical properties :
#
#
# Convention : Reuss Voigt Hill
#
# Bulk Modulus (GPa) = 28.21271 59.15513 43.68392
# Shear Modulus (GPa) = 31.70388 42.49932 37.10160
#
# Velocity S-wave (km/s) = 3.72125 4.30848 4.02558
# Velocity P-wave (km/s) = 5.54855 7.11256 6.37867
#
# Compressibility (1/GPa) = 0.03544501
#
# Stress axis : x y z
#
# Youngs Moduli (GPa) = 95.29664 90.59866 37.94557
#
# Poissons Ratio (x) = 0.22457 0.20136
# Poissons Ratio (y) = 0.23622 -0.05940
# Poissons Ratio (z) = 0.50569 -0.14182
#
# Static dielectric constant tensor:
#      x y z
#    x 1.861020 -0.017640 0.051710 
#    y -0.017640 1.885380 0.019820 
#    z 0.051710 0.019820 1.809430 
# 
# From -- ./inp_files/508091.got.cif
#   From: 2010.05.17/outbox.cif.g08.bks.cpg/sg2_255_cif.got.tgz:508091.got - 2010.06.03 11:33:40.
