data_PCOD9027005
_publ_section_title
;
Structure prediction by ZEFSAII (Michael W. Deem and Ramdas Pophale) SiO2 
 PCOD9027005
Probable space group: P -1
;
_chemical_formula_sum "Si O2"
_cell_formula_units_Z 16
_cell_length_a 15.750161
_cell_length_b 11.157189
_cell_length_c 13.604780
_cell_angle_alpha 149.928065
_cell_angle_beta 38.810933
_cell_angle_gamma 130.283950
_cell_volume 747.889705
_symmetry_space_group_name_H-M "P -1"
_symmetry_group_IT_number 2
_symmetry_cell_setting 'triclinic'
loop_
_space_group_symop_operation_xyz
x,y,z
-x,-y,-z
loop_
_atom_site_type_symbol
_atom_site_label
_atom_site_fract_x
_atom_site_fract_y
_atom_site_fract_z
Si Si1 0.829156 0.888379 0.299602
Si Si2 0.420577 0.237585 0.282700
Si Si3 0.413377 0.205433 0.951577
Si Si4 0.800996 0.824274 0.702874
Si Si5 0.944220 0.465010 0.780858
Si Si6 0.299249 0.614592 0.198335
Si Si7 0.550909 0.714429 0.474652
Si Si8 0.982281 0.231265 0.787676
O O1 0.700303 0.731310 0.309214
O O2 0.891266 0.906518 0.366178
O O3 0.771957 0.157079 0.514910
O O4 0.936973 0.733650 0.023948
O O5 0.267247 0.236311 0.382214
O O6 0.487747 0.466174 0.341265
O O7 0.433559 0.247929 0.395257
O O8 0.500000 0.000000 0.000000
O O9 0.314666 0.186581 0.119234
O O10 0.341978 0.388975 0.068285
O O11 0.560457 0.298765 0.910075
O O12 0.451906 0.938732 0.685541
O O13 0.925945 0.623988 0.465296
O O14 0.855977 0.088012 0.835705
O O15 0.807715 0.447960 0.830997
O O16 0.962621 0.275019 0.720402
O O17 0.000000 0.500000 0.000000
#
# Coordination Sequence:
#
# PCOD9027005 Si02
#       8
#     2   2   2   2   2   2   2   2
#     4  10  22  41  66  94 129 177 226 263 333 401
#     4  11  24  39  64 103 138 165 219 275 346 394
#     4  10  24  45  69  94 136 175 230 280 329 386
#     4  12  24  40  69 104 130 179 215 285 336 402
#     4  11  24  40  67  96 133 178 219 266 341 403
#     4  10  23  48  67  93 132 184 225 279 326 395
#     4  10  23  41  64  96 133 178 213 282 329 397
#     4  10  23  39  66  97 137 170 213 273 335 405
#
# _framework density 21.393529000000001
#
# number of rings (size 3 to 8) (size 9 to 14) (size 15 to 20)
#    0.000    1.500    2.500    1.125    8.750    2.500 
#    2.250    2.500    0.000    0.000    0.000    0.000 
#    0.000    0.000    0.000    0.000    0.000    0.000 
#
# Total GULP energy -89363.321270 kJ/mol
# GULP energy per Si atom -5585.207579 kJ/mol
# Density = 2.134484 g / cm^3
# Si number density = 21.393529 Si / 1000 Ang^3
#
#
#
# Elastic Constant Matrix: (Units=GPa)
#
#
# Indices 1 2 3 4 5 6 
#
# 1 93.8637 30.7508 39.0199 12.7986 -19.6313 27.4246
# 2 30.7508 91.4836 39.4275 16.4119 -5.1256 12.2015
# 3 39.0199 39.4275 96.0299 9.6662 -9.9287 7.7439
# 4 12.7986 16.4119 9.6662 38.4288 -0.9384 0.7420
# 5 -19.6313 -5.1256 -9.9287 -0.9384 36.9781 4.4243
# 6 27.4246 12.2015 7.7439 0.7420 4.4243 25.2852
#
#
#
# Elastic Compliance Matrix: (Units=1/GPa)
#
#
# Indices 1 2 3 4 5 6 
#
# 1 0.025249 -0.000414 -0.005695 -0.005895 0.015006 -0.027894
# 2 -0.000414 0.014800 -0.004895 -0.004826 0.001021 -0.005231
# 3 -0.005695 -0.004895 0.014333 0.000293 -0.000349 0.004202
# 4 -0.005895 -0.004826 0.000293 0.029712 -0.003978 0.008457
# 5 0.015006 0.001021 -0.000349 -0.003978 0.037725 -0.023145
# 6 -0.027894 -0.005231 0.004202 0.008457 -0.023145 0.074842
#
#
# Mechanical properties :
#
#
# Convention : Reuss Voigt Hill
#
# Bulk Modulus (GPa) = 30.88972 55.53041 43.21007
# Shear Modulus (GPa) = 21.79005 31.61701 26.70353
#
# Velocity S-wave (km/s) = 3.19491 3.84849 3.53683
# Velocity P-wave (km/s) = 5.29907 6.76467 6.07622
#
# Compressibility (1/GPa) = 0.03237323
#
# Stress axis : x y z
#
# Youngs Moduli (GPa) = 39.60550 67.56561 69.76846
#
# Poissons Ratio (x) = 0.02797 0.39735
# Poissons Ratio (y) = 0.01640 0.34154
# Poissons Ratio (z) = 0.22556 0.33076
#
# Static dielectric constant tensor:
#      x y z
#    x 1.786340 -0.003720 0.001160 
#    y -0.003720 1.768140 -0.003650 
#    z 0.001160 -0.003650 1.846150 
# 
# From -- ./inp_files/532127.got.cif
#   From: 2010.05.17/outbox.cif.g08.bks.cpg/sg2_267_cif.got.tgz:532127.got - 2010.06.03 11:33:40.
