data_PCOD9027158
_publ_section_title
;
Structure prediction by ZEFSAII (Michael W. Deem and Ramdas Pophale) SiO2 
 PCOD9027158
Probable space group: P -1
;
_chemical_formula_sum "Si O2"
_cell_formula_units_Z 14
_cell_length_a 7.332822
_cell_length_b 11.843259
_cell_length_c 9.541095
_cell_angle_alpha 108.837498
_cell_angle_beta 59.137743
_cell_angle_gamma 88.000767
_cell_volume 652.342907
_symmetry_space_group_name_H-M "P -1"
_symmetry_group_IT_number 2
_symmetry_cell_setting 'triclinic'
loop_
_space_group_symop_operation_xyz
x,y,z
-x,-y,-z
loop_
_atom_site_type_symbol
_atom_site_label
_atom_site_fract_x
_atom_site_fract_y
_atom_site_fract_z
Si Si1 0.243094 0.600295 0.197367
Si Si2 0.127678 0.277721 0.424015
Si Si3 0.371022 0.837486 0.754959
Si Si4 0.195079 0.346023 0.117235
Si Si5 0.626479 0.889666 0.210187
Si Si6 0.067609 0.731570 0.037382
Si Si7 0.727697 0.196380 0.536375
O O1 0.320606 0.453721 0.102450
O O2 0.354926 0.674430 0.294479
O O3 0.997723 0.624650 0.373818
O O4 0.197266 0.667117 0.093576
O O5 0.380394 0.226851 0.332007
O O6 0.101090 0.336660 0.304158
O O7 0.989148 0.172975 0.443164
O O8 0.209739 0.803421 0.918843
O O9 0.319451 0.792490 0.604038
O O10 0.347608 0.982674 0.807825
O O11 0.009703 0.362750 0.076186
O O12 0.346208 0.211071 0.965277
O O13 0.401205 0.895783 0.382321
O O14 0.834645 0.827722 0.202675
#
# Coordination Sequence:
#
# PCOD9027158 Si02
#       7
#     2   2   2   2   2   2   2
#     4  10  22  44  67  95 132 165 222 264 323 384
#     4  10  24  40  68  96 129 172 213 260 329 376
#     4  12  23  46  65  97 134 168 218 264 322 387
#     4  10  22  45  64  97 132 167 216 270 317 387
#     4  10  24  41  70  92 135 168 214 268 322 379
#     4  10  22  41  67 100 126 171 213 268 326 369
#     4  10  23  44  63  98 128 171 214 267 317 381
#
# _framework density 21.461106000000001
#
# number of rings (size 3 to 8) (size 9 to 14) (size 15 to 20)
#    1.714    0.000    1.429    2.571    2.000    1.714 
#    2.571    1.429    0.000    0.000    0.000    0.000 
#    0.000    0.000    0.000    0.000    0.000    0.000 
#
# Total GULP energy -78084.941909 kJ/mol
# GULP energy per Si atom -5577.495851 kJ/mol
# Density = 2.141226 g / cm^3
# Si number density = 21.461106 Si / 1000 Ang^3
#
#
#
# Elastic Constant Matrix: (Units=GPa)
#
#
# Indices 1 2 3 4 5 6 
#
# 1 -68.8916 -26.8121 -139.4361 48.0446 -0.0983 59.3087
# 2 -26.8121 83.1509 -12.8802 11.1784 22.8687 36.0048
# 3 -139.4361 -12.8802 -91.8012 30.5126 17.2176 51.4969
# 4 48.0446 11.1784 30.5126 12.9534 6.1225 -19.2346
# 5 -0.0983 22.8687 17.2176 6.1225 34.2574 -5.9512
# 6 59.3087 36.0048 51.4969 -19.2346 -5.9512 18.2726
#
#
#
# Elastic Compliance Matrix: (Units=1/GPa)
#
#
# Indices 1 2 3 4 5 6 
#
# 1 0.009034 -0.002379 -0.010723 -0.003892 0.008434 0.004236
# 2 -0.002379 0.017803 -0.007319 -0.001055 -0.009950 -0.011083
# 3 -0.010723 -0.007319 0.020116 0.022125 -0.006848 0.013594
# 4 -0.003892 -0.001055 0.022125 0.054227 -0.019587 0.003059
# 5 0.008434 -0.009950 -0.006848 -0.019587 0.043692 0.005139
# 6 0.004236 -0.011083 0.013594 0.003059 0.005139 0.029400
#
#
# Mechanical properties :
#
#
# Convention : Reuss Voigt Hill
#
# Bulk Modulus (GPa) = 163.62770 -48.42209 57.60281
# Shear Modulus (GPa) = 23.02572 19.86911 21.44741
#
# Velocity S-wave (km/s) = 3.27908 3.04603 3.16470
# Velocity P-wave (km/s) = 9.52606 3.20010 6.34449
#
# Compressibility (1/GPa) = 0.00611143
#
# Stress axis : x y z
#
# Youngs Moduli (GPa) = 110.69794 56.17032 49.71287
#
# Poissons Ratio (x) = 0.13362 0.53305
# Poissons Ratio (y) = 0.26333 0.36384
# Poissons Ratio (z) = 1.18698 0.41110
#
# Static dielectric constant tensor:
#      x y z
#    x 1.787420 0.029990 -0.030270 
#    y 0.029990 1.768570 0.047910 
#    z -0.030270 0.047910 1.816090 
# 
# From -- ./inp_files/170212.got.cif
#   From: 2010.05.17/outbox.cif.g08.bks.cpg/sg2_86_cif.got.tgz:170212.got - 2010.06.03 11:33:40.
