data_PCOD9027697
_publ_section_title
;
Structure prediction by ZEFSAII (Michael W. Deem and Ramdas Pophale) SiO2 
 PCOD9027697
Probable space group: P -1
;
_chemical_formula_sum "Si O2"
_cell_formula_units_Z 15
_cell_length_a 7.912660
_cell_length_b 12.751051
_cell_length_c 9.616844
_cell_angle_alpha 38.351871
_cell_angle_beta 98.198201
_cell_angle_gamma 106.178945
_cell_volume 573.499236
_symmetry_space_group_name_H-M "P -1"
_symmetry_group_IT_number 2
_symmetry_cell_setting 'triclinic'
loop_
_space_group_symop_operation_xyz
x,y,z
-x,-y,-z
loop_
_atom_site_type_symbol
_atom_site_label
_atom_site_fract_x
_atom_site_fract_y
_atom_site_fract_z
Si Si1 0.473364 0.676945 0.246386
Si Si2 0.408665 0.838194 0.352006
Si Si3 0.083139 0.305555 0.060634
Si Si4 0.676591 0.174830 0.158902
Si Si5 0.017487 0.864333 0.341959
Si Si6 0.000000 0.000000 0.500000
Si Si7 0.374895 0.615874 0.822608
Si Si8 0.873637 0.767795 0.149648
O O1 0.500000 0.500000 0.500000
O O2 0.417103 0.791826 0.240648
O O3 0.670734 0.773338 0.116253
O O4 0.340836 0.670694 0.108831
O O5 0.219517 0.859886 0.353940
O O6 0.421229 0.669540 0.615072
O O7 0.568555 0.999282 0.254174
O O8 0.164891 0.146647 0.278996
O O9 0.883039 0.184525 0.200293
O O10 0.175529 0.489038 0.950183
O O11 0.097520 0.350832 0.851641
O O12 0.603477 0.215642 0.254403
O O13 0.913750 0.727408 0.354510
O O14 0.960593 0.865601 0.492525
O O15 0.000236 0.047242 0.082501
O O16 0.500000 0.500000 0.000000
#
# Coordination Sequence:
#
# PCOD9027697 Si02
#       8
#     2   2   2   2   2   1   2   2
#     4  12  26  45  70 107 143 187 234 294 358 421
#     4  12  26  45  74 105 141 186 243 290 353 425
#     4  11  25  45  71  99 143 184 240 289 359 419
#     4  12  26  46  72 105 140 187 242 294 354 426
#     4  10  22  41  69 100 140 178 235 286 348 416
#     4  10  24  40  72 106 136 182 242 284 354 422
#     4  12  28  47  69 102 147 187 232 302 365 415
#     4  10  22  42  67 101 137 182 226 291 347 416
#
# _framework density 26.155221000000001
#
# number of rings (size 3 to 8) (size 9 to 14) (size 15 to 20)
#    0.000    0.800    1.333    5.200    9.333    2.133 
#    0.000    2.667    0.000    0.000    0.000    0.000 
#    0.000    0.000    0.000    0.000    0.000    0.000 
#
# Total GULP energy -83699.893207 kJ/mol
# GULP energy per Si atom -5579.992880 kJ/mol
# Density = 2.609569 g / cm^3
# Si number density = 26.155221 Si / 1000 Ang^3
#
#
#
# Elastic Constant Matrix: (Units=GPa)
#
#
# Indices 1 2 3 4 5 6 
#
# 1 97.3491 22.0271 -15.5962 14.8437 -8.8477 0.6251
# 2 22.0271 118.5942 22.5205 29.5280 -10.2103 -2.3257
# 3 -15.5962 22.5205 91.4555 8.4866 -2.3464 9.5271
# 4 14.8437 29.5280 8.4866 50.0097 -8.4798 -5.4853
# 5 -8.8477 -10.2103 -2.3464 -8.4798 27.8164 7.3501
# 6 0.6251 -2.3257 9.5271 -5.4853 7.3501 32.8185
#
#
#
# Elastic Compliance Matrix: (Units=1/GPa)
#
#
# Indices 1 2 3 4 5 6 
#
# 1 0.011906 -0.001909 0.003080 -0.002656 0.003174 -0.002411
# 2 -0.001909 0.010637 -0.002478 -0.005006 0.001471 0.000343
# 3 0.003080 -0.002478 0.012770 -0.001819 0.001822 -0.004654
# 4 -0.002656 -0.005006 -0.001819 0.025096 0.003877 0.003550
# 5 0.003174 0.001471 0.001822 0.003877 0.041232 -0.009072
# 6 -0.002411 0.000343 -0.004654 0.003550 -0.009072 0.034517
#
#
# Mechanical properties :
#
#
# Convention : Reuss Voigt Hill
#
# Bulk Modulus (GPa) = 30.58293 40.58907 35.58600
# Shear Modulus (GPa) = 33.40602 40.69208 37.04905
#
# Velocity S-wave (km/s) = 3.57770 3.94863 3.76773
# Velocity P-wave (km/s) = 5.36515 6.02836 5.70640
#
# Compressibility (1/GPa) = 0.03269798
#
# Stress axis : x y z
#
# Youngs Moduli (GPa) = 83.98778 94.00946 78.30807
#
# Poissons Ratio (x) = 0.17947 -0.24115
# Poissons Ratio (y) = 0.16034 0.19408
# Poissons Ratio (z) = -0.25864 0.23299
#
# Static dielectric constant tensor:
#      x y z
#    x 1.724600 0.061610 -0.261340 
#    y 0.061610 2.131160 -0.005950 
#    z -0.261340 -0.005950 1.761810 
# 
# From -- ./inp_files/184443.got.cif
#   From: 2010.05.17/outbox.cif.g08.bks.cpg/sg2_93_cif.got.tgz:184443.got - 2010.06.03 11:33:40.
