data_PCOD9027343
_publ_section_title
;
Structure prediction by ZEFSAII (Michael W. Deem and Ramdas Pophale) SiO2 
 PCOD9027343
Probable space group: P -1
;
_chemical_formula_sum "Si O2"
_cell_formula_units_Z 14
_cell_length_a 12.109852
_cell_length_b 8.133933
_cell_length_c 11.243492
_cell_angle_alpha 95.069635
_cell_angle_beta 113.087142
_cell_angle_gamma 39.771449
_cell_volume 607.549233
_symmetry_space_group_name_H-M "P -1"
_symmetry_group_IT_number 2
_symmetry_cell_setting 'triclinic'
loop_
_space_group_symop_operation_xyz
x,y,z
-x,-y,-z
loop_
_atom_site_type_symbol
_atom_site_label
_atom_site_fract_x
_atom_site_fract_y
_atom_site_fract_z
Si Si1 0.800381 0.503102 0.382468
Si Si2 0.290472 0.663337 0.034518
Si Si3 0.081133 0.382878 0.895257
Si Si4 0.928101 0.191707 0.806600
Si Si5 0.822084 0.792401 0.590950
Si Si6 0.476023 0.809544 0.069153
Si Si7 0.410866 0.429607 0.504986
O O1 0.795440 0.662734 0.484462
O O2 0.652907 0.684853 0.219153
O O3 0.698819 0.464451 0.408205
O O4 0.032092 0.241603 0.421585
O O5 0.450851 0.361800 0.030433
O O6 0.197875 0.700594 0.119881
O O7 0.374656 0.758126 0.089384
O O8 0.107805 0.862435 0.873317
O O9 0.047977 0.227554 0.850174
O O10 0.952030 0.612983 0.753543
O O11 0.000000 0.500000 0.000000
O O12 0.319738 0.126589 0.992960
O O13 0.770976 0.389451 0.650269
O O14 0.601496 0.097166 0.553636
O O15 0.500000 0.500000 0.500000
#
# Coordination Sequence:
#
# PCOD9027343 Si02
#       7
#     2   2   2   2   2   2   2
#     4  11  25  46  70 102 142 181 226 289 342 415
#     4   9  21  42  66 101 135 171 228 290 337 406
#     4  11  24  42  69 100 132 183 230 278 346 410
#     4  10  22  41  67  96 135 178 224 285 341 407
#     4  11  27  47  68 102 145 180 231 284 344 418
#     4  10  22  41  70  99 135 176 228 282 344 403
#     4  12  26  45  73  99 135 189 231 280 352 406
#
# _framework density 23.043399000000001
#
# number of rings (size 3 to 8) (size 9 to 14) (size 15 to 20)
#    0.000    1.429    1.429    2.143    6.000    4.571 
#    2.571    0.000    0.000    0.000    0.000    0.000 
#    0.000    0.000    0.000    0.000    0.000    0.000 
#
# Total GULP energy -78094.779672 kJ/mol
# GULP energy per Si atom -5578.198548 kJ/mol
# Density = 2.299095 g / cm^3
# Si number density = 23.043399 Si / 1000 Ang^3
#
#
#
# Elastic Constant Matrix: (Units=GPa)
#
#
# Indices 1 2 3 4 5 6 
#
# 1 108.2369 8.2745 25.8103 -34.4816 -28.5595 -37.3397
# 2 8.2745 73.8000 47.8047 -50.6855 -34.8984 -31.8574
# 3 25.8103 47.8047 166.5240 -57.9116 -18.9533 -21.5251
# 4 -34.4816 -50.6855 -57.9116 73.0736 35.7620 32.0465
# 5 -28.5595 -34.8984 -18.9533 35.7620 67.8105 20.4523
# 6 -37.3397 -31.8574 -21.5251 32.0465 20.4523 47.7543
#
#
#
# Elastic Compliance Matrix: (Units=1/GPa)
#
#
# Indices 1 2 3 4 5 6 
#
# 1 0.016953 0.012015 -0.001409 0.006482 0.005281 0.014024
# 2 0.012015 0.038399 -0.003593 0.016947 0.009462 0.017967
# 3 -0.001409 -0.003593 0.008773 0.006137 -0.002437 -0.002618
# 4 0.006482 0.016947 0.006137 0.037777 -0.005607 -0.003809
# 5 0.005281 0.009462 -0.002437 -0.005607 0.023155 0.003189
# 6 0.014024 0.017967 -0.002618 -0.003809 0.003189 0.043903
#
#
# Mechanical properties :
#
#
# Convention : Reuss Voigt Hill
#
# Bulk Modulus (GPa) = 12.79543 56.92665 34.86104
# Shear Modulus (GPa) = 27.62681 55.50576 41.56629
#
# Velocity S-wave (km/s) = 3.46627 4.91323 4.25176
# Velocity P-wave (km/s) = 4.64595 7.54613 6.26614
#
# Compressibility (1/GPa) = 0.07815288
#
# Stress axis : x y z
#
# Youngs Moduli (GPa) = 58.98625 26.04206 113.98149
#
# Poissons Ratio (x) = -0.31289 0.16056
# Poissons Ratio (y) = -0.70871 0.40951
# Poissons Ratio (z) = 0.08309 0.09356
#
# Static dielectric constant tensor:
#      x y z
#    x 1.928480 0.089270 -0.168280 
#    y 0.089270 1.745500 0.122580 
#    z -0.168280 0.122580 1.742620 
# 
# From -- ./inp_files/383721.got.cif
#   From: 2010.05.17/outbox.cif.g08.bks.cpg/sg2_192_cif.got.tgz:383721.got - 2010.06.03 11:33:40.
