data_PCOD9027337
_publ_section_title
;
Structure prediction by ZEFSAII (Michael W. Deem and Ramdas Pophale) SiO2 
 PCOD9027337
Probable space group: P -1
;
_chemical_formula_sum "Si O2"
_cell_formula_units_Z 12
_cell_length_a 7.882717
_cell_length_b 9.039184
_cell_length_c 8.046845
_cell_angle_alpha 111.000465
_cell_angle_beta 106.026419
_cell_angle_gamma 69.107693
_cell_volume 492.806985
_symmetry_space_group_name_H-M "P -1"
_symmetry_group_IT_number 2
_symmetry_cell_setting 'triclinic'
loop_
_space_group_symop_operation_xyz
x,y,z
-x,-y,-z
loop_
_atom_site_type_symbol
_atom_site_label
_atom_site_fract_x
_atom_site_fract_y
_atom_site_fract_z
Si Si1 0.544801 0.359404 0.774029
Si Si2 0.253378 0.402841 0.995660
Si Si3 0.789148 0.420509 0.394577
Si Si4 0.148757 0.281464 0.264478
Si Si5 0.769014 0.022163 0.625190
Si Si6 0.015601 0.222864 0.672179
O O1 0.432259 0.339717 0.900142
O O2 0.418948 0.515529 0.699157
O O3 0.596910 0.183058 0.628047
O O4 0.726530 0.415682 0.885944
O O5 0.089008 0.365471 0.830187
O O6 0.233626 0.317018 0.129687
O O7 0.813804 0.595023 0.534353
O O8 0.925773 0.332707 0.247357
O O9 0.857905 0.301432 0.522816
O O10 0.232927 0.093184 0.265812
O O11 0.941263 0.099678 0.715222
O O12 0.815024 0.899712 0.432152
#
# Coordination Sequence:
#
# PCOD9027337 Si02
#       6
#     2   2   2   2   2   2
#     4  11  25  43  66  99 133 168 217 275 325 375
#     4  11  25  42  67  98 133 171 216 271 326 381
#     4  10  22  42  69  95 128 177 221 257 320 402
#     4  10  22  41  67  96 131 174 218 262 322 396
#     4  10  23  43  68  96 130 172 219 265 321 391
#     4  10  23  46  71  93 127 178 221 259 320 398
#
# _framework density 24.350304999999999
#
# number of rings (size 3 to 8) (size 9 to 14) (size 15 to 20)
#    0.000    1.667    0.000    4.000    0.000   15.333 
#    0.000   10.000    0.000    4.000    0.000    0.000 
#    0.000    0.000    0.000    0.000    0.000    0.000 
#
# Total GULP energy -67016.462179 kJ/mol
# GULP energy per Si atom -5584.705182 kJ/mol
# Density = 2.429488 g / cm^3
# Si number density = 24.350305 Si / 1000 Ang^3
#
#
#
# Elastic Constant Matrix: (Units=GPa)
#
#
# Indices 1 2 3 4 5 6 
#
# 1 113.7757 48.1382 43.6954 -19.1894 -9.7177 16.5616
# 2 48.1382 127.5061 38.0292 -4.6377 -2.7577 10.5076
# 3 43.6954 38.0292 88.6269 -12.3407 1.4694 11.2328
# 4 -19.1894 -4.6377 -12.3407 26.5278 11.2833 -13.4023
# 5 -9.7177 -2.7577 1.4694 11.2833 40.3616 -10.3851
# 6 16.5616 10.5076 11.2328 -13.4023 -10.3851 45.1143
#
#
#
# Elastic Compliance Matrix: (Units=1/GPa)
#
#
# Indices 1 2 3 4 5 6 
#
# 1 0.013015 -0.003393 -0.004026 0.005990 0.001130 -0.000946
# 2 -0.003393 0.009977 -0.002867 -0.002793 0.000471 -0.001086
# 3 -0.004026 -0.002867 0.015324 0.004570 -0.003275 -0.001066
# 4 0.005990 -0.002793 0.004570 0.053857 -0.011209 0.010733
# 5 0.001130 0.000471 -0.003275 -0.011209 0.029286 0.003702
# 6 -0.000946 -0.001086 -0.001066 0.010733 0.003702 0.027072
#
#
# Mechanical properties :
#
#
# Convention : Reuss Voigt Hill
#
# Bulk Modulus (GPa) = 56.35562 65.51494 60.93528
# Shear Modulus (GPa) = 28.56842 35.73712 32.15277
#
# Velocity S-wave (km/s) = 3.42895 3.83512 3.63771
# Velocity P-wave (km/s) = 6.23465 6.82454 6.53626
#
# Compressibility (1/GPa) = 0.01774446
#
# Stress axis : x y z
#
# Youngs Moduli (GPa) = 76.83229 100.23124 65.25628
#
# Poissons Ratio (x) = 0.34006 0.26271
# Poissons Ratio (y) = 0.26068 0.18711
# Poissons Ratio (z) = 0.30932 0.28740
#
# Static dielectric constant tensor:
#      x y z
#    x 2.047480 -0.048290 0.005880 
#    y -0.048290 1.880370 -0.013070 
#    z 0.005880 -0.013070 2.032670 
# 
# From -- ./inp_files/148101.got.cif
#   From: 2010.05.17/outbox.cif.g08.bks.cpg/sg2_75_cif.got.tgz:148101.got - 2010.06.03 11:33:40.
