data_PCOD9027458
_publ_section_title
;
Structure prediction by ZEFSAII (Michael W. Deem and Ramdas Pophale) SiO2 
 PCOD9027458
Probable space group: P -1
;
_chemical_formula_sum "Si O2"
_cell_formula_units_Z 16
_cell_length_a 15.869462
_cell_length_b 14.194537
_cell_length_c 15.577776
_cell_angle_alpha 39.341660
_cell_angle_beta 18.927038
_cell_angle_gamma 36.845280
_cell_volume 680.105612
_symmetry_space_group_name_H-M "P -1"
_symmetry_group_IT_number 2
_symmetry_cell_setting 'triclinic'
loop_
_space_group_symop_operation_xyz
x,y,z
-x,-y,-z
loop_
_atom_site_type_symbol
_atom_site_label
_atom_site_fract_x
_atom_site_fract_y
_atom_site_fract_z
Si Si1 0.629285 0.688701 0.675159
Si Si2 0.116622 0.058612 0.265254
Si Si3 0.559283 0.678105 0.566495
Si Si4 0.814816 0.523134 0.932717
Si Si5 0.154130 0.689915 0.257461
Si Si6 0.628925 0.135566 0.554920
Si Si7 0.511521 0.162951 0.050936
Si Si8 0.761546 0.637290 0.086979
O O1 0.612240 0.756843 0.547988
O O2 0.760606 0.497480 0.675318
O O3 0.838115 0.741792 0.496222
O O4 0.340639 0.717163 0.980409
O O5 0.931267 0.079648 0.343631
O O6 0.126412 0.229830 0.151107
O O7 0.000000 0.000000 0.500000
O O8 0.398009 0.922189 0.067759
O O9 0.409798 0.789483 0.554062
O O10 0.858510 0.567681 0.320860
O O11 0.356687 0.585066 0.858245
O O12 0.743177 0.679360 0.833321
O O13 0.690354 0.563763 0.120641
O O14 0.255388 0.774826 0.177415
O O15 0.456868 0.268075 0.697204
O O16 0.533431 0.982559 0.753688
O O17 0.000000 0.500000 0.000000
#
# Coordination Sequence:
#
# PCOD9027458 Si02
#       8
#     2   2   2   2   2   2   2   2
#     4  10  22  41  68 102 133 170 228 291 339 403
#     4  11  25  43  68  98 140 185 231 282 336 406
#     4  12  26  45  69 107 137 180 229 290 349 407
#     4  12  26  41  73 101 137 182 237 281 336 412
#     4  10  22  41  69  99 135 173 227 284 342 404
#     4  11  26  43  68  96 148 183 225 286 349 408
#     4  11  26  43  67 104 135 185 227 284 345 414
#     4  11  23  42  62  99 134 180 231 276 337 397
#
# _framework density 23.525756999999999
#
# number of rings (size 3 to 8) (size 9 to 14) (size 15 to 20)
#    0.000    1.000    2.500    3.000   12.250    3.000 
#    0.000    1.250    0.000    0.000    0.000    0.000 
#    0.000    0.000    0.000    0.000    0.000    0.000 
#
# Total GULP energy -89497.726276 kJ/mol
# GULP energy per Si atom -5593.607892 kJ/mol
# Density = 2.347221 g / cm^3
# Si number density = 23.525757 Si / 1000 Ang^3
#
#
#
# Elastic Constant Matrix: (Units=GPa)
#
#
# Indices 1 2 3 4 5 6 
#
# 1 118.0114 20.2476 5.4121 -3.0910 -0.9748 -19.0777
# 2 20.2476 75.0219 19.9394 7.7787 -1.1827 -12.2182
# 3 5.4121 19.9394 66.4757 1.1658 -8.1085 -11.9426
# 4 -3.0910 7.7787 1.1658 23.5076 3.9111 -0.6350
# 5 -0.9748 -1.1827 -8.1085 3.9111 48.6904 -5.5423
# 6 -19.0777 -12.2182 -11.9426 -0.6350 -5.5423 42.2560
#
#
#
# Elastic Compliance Matrix: (Units=1/GPa)
#
#
# Indices 1 2 3 4 5 6 
#
# 1 0.009530 -0.002306 0.000649 0.002002 0.000528 0.003919
# 2 -0.002306 0.015980 -0.004032 -0.005389 0.000378 0.002409
# 3 0.000649 -0.004032 0.017407 0.000126 0.003314 0.004483
# 4 0.002002 -0.005389 0.000126 0.045192 -0.003749 -0.000431
# 5 0.000528 0.000378 0.003314 -0.003749 0.021877 0.004097
# 6 0.003919 0.002409 0.004483 -0.000431 0.004097 0.027929
#
#
# Mechanical properties :
#
#
# Convention : Reuss Voigt Hill
#
# Bulk Modulus (GPa) = 31.70599 38.96745 35.33672
# Shear Modulus (GPa) = 31.28789 37.15146 34.21968
#
# Velocity S-wave (km/s) = 3.65079 3.97820 3.81801
# Velocity P-wave (km/s) = 5.59263 6.14013 5.87276
#
# Compressibility (1/GPa) = 0.03153978
#
# Stress axis : x y z
#
# Youngs Moduli (GPa) = 104.93350 62.57672 57.44737
#
# Poissons Ratio (x) = 0.14427 -0.03728
# Poissons Ratio (y) = 0.24193 0.23165
# Poissons Ratio (z) = -0.06810 0.25233
#
# Static dielectric constant tensor:
#      x y z
#    x 1.861820 0.035290 0.016100 
#    y 0.035290 1.864340 0.015560 
#    z 0.016100 0.015560 1.895990 
# 
# From -- ./inp_files/288997.got.cif
#   From: 2010.05.17/outbox.cif.g08.bks.cpg/sg2_145_cif.got.tgz:288997.got - 2010.06.03 11:33:40.
