data_PCOD9027115
_publ_section_title
;
Structure prediction by ZEFSAII (Michael W. Deem and Ramdas Pophale) SiO2 
 PCOD9027115
Probable space group: P -1
;
_chemical_formula_sum "Si O2"
_cell_formula_units_Z 15
_cell_length_a 20.504065
_cell_length_b 10.021789
_cell_length_c 8.712667
_cell_angle_alpha 135.105359
_cell_angle_beta 40.057354
_cell_angle_gamma 146.951467
_cell_volume 616.841593
_symmetry_space_group_name_H-M "P -1"
_symmetry_group_IT_number 2
_symmetry_cell_setting 'triclinic'
loop_
_space_group_symop_operation_xyz
x,y,z
-x,-y,-z
loop_
_atom_site_type_symbol
_atom_site_label
_atom_site_fract_x
_atom_site_fract_y
_atom_site_fract_z
Si Si1 0.248794 0.898807 0.052437
Si Si2 0.500000 0.500000 0.500000
Si Si3 0.036766 0.985308 0.189238
Si Si4 0.432266 0.837102 0.833134
Si Si5 0.324474 0.796363 0.516071
Si Si6 0.223484 0.277956 0.380072
Si Si7 0.777061 0.029285 0.365064
Si Si8 0.045596 0.720859 0.489369
O O1 0.091914 0.723348 0.237278
O O2 0.302083 0.181132 0.201735
O O3 0.307232 0.814123 0.994940
O O4 0.281188 0.866118 0.797666
O O5 0.415782 0.595230 0.693265
O O6 0.633169 0.756781 0.385108
O O7 0.127180 0.092382 0.264916
O O8 0.046053 0.208268 0.288135
O O9 0.102510 0.921299 0.902600
O O10 0.881280 0.776005 0.346128
O O11 0.527524 0.990392 0.639479
O O12 0.500000 0.000000 0.000000
O O13 0.305137 0.554782 0.397170
O O14 0.236950 0.774771 0.515245
O O15 0.815818 0.055351 0.492931
O O16 0.000000 0.500000 0.500000
#
# Coordination Sequence:
#
# PCOD9027115 Si02
#       8
#     2   1   2   2   2   2   2   2
#     4  11  24  44  64  98 137 174 229 281 339 418
#     4  10  26  44  70  98 138 176 226 284 338 408
#     4  10  22  41  66  97 137 177 230 279 346 407
#     4  11  26  44  69  99 134 179 232 283 345 406
#     4  11  24  41  70  97 131 182 227 278 349 406
#     4  10  23  42  65  99 135 175 224 287 341 405
#     4  11  23  44  69 101 136 183 234 281 350 403
#     4  11  25  41  66 103 139 181 232 286 344 411
#
# _framework density 24.317426000000001
#
# number of rings (size 3 to 8) (size 9 to 14) (size 15 to 20)
#    0.000    1.333    1.333    3.200    5.600    4.267 
#    0.000    0.000    0.000    0.000    0.000    0.000 
#    0.000    0.000    0.000    0.000    0.000    0.000 
#
# Total GULP energy -83581.247712 kJ/mol
# GULP energy per Si atom -5572.083181 kJ/mol
# Density = 2.426208 g / cm^3
# Si number density = 24.317426 Si / 1000 Ang^3
#
#
#
# Elastic Constant Matrix: (Units=GPa)
#
#
# Indices 1 2 3 4 5 6 
#
# 1 83.8674 13.1685 12.0038 20.2963 -19.1089 -31.2217
# 2 13.1685 135.3197 18.6729 20.3852 -10.6805 -52.8505
# 3 12.0038 18.6729 93.1220 6.6152 -7.6879 -10.3724
# 4 20.2963 20.3852 6.6152 25.1599 -21.6371 -13.3493
# 5 -19.1089 -10.6805 -7.6879 -21.6371 45.7851 11.3545
# 6 -31.2217 -52.8505 -10.3724 -13.3493 11.3545 40.7299
#
#
#
# Elastic Compliance Matrix: (Units=1/GPa)
#
#
# Indices 1 2 3 4 5 6 
#
# 1 0.023680 0.010505 -0.001236 -0.013832 -0.001171 0.027261
# 2 0.010505 0.020203 -0.001455 -0.011644 -0.004415 0.031312
# 3 -0.001236 -0.001455 0.011249 0.000036 0.001118 -0.000271
# 4 -0.013832 -0.011644 0.000036 0.085574 0.033706 -0.007053
# 5 -0.001171 -0.004415 0.001118 0.033706 0.037892 -0.005858
# 6 0.027261 0.031312 -0.000271 -0.007053 -0.005858 0.085331
#
#
# Mechanical properties :
#
#
# Convention : Reuss Voigt Hill
#
# Bulk Modulus (GPa) = 14.13247 44.44437 29.28842
# Shear Modulus (GPa) = 18.38982 40.23258 29.31120
#
# Velocity S-wave (km/s) = 2.75297 4.07194 3.47559
# Velocity P-wave (km/s) = 3.99116 6.35799 5.30817
#
# Compressibility (1/GPa) = 0.07075905
#
# Stress axis : x y z
#
# Youngs Moduli (GPa) = 42.22920 49.49713 88.89456
#
# Poissons Ratio (x) = -0.51995 0.10992
# Poissons Ratio (y) = -0.44360 0.12933
# Poissons Ratio (z) = 0.05222 0.07201
#
# Static dielectric constant tensor:
#      x y z
#    x 2.001670 0.072430 0.013270 
#    y 0.072430 1.982870 0.024220 
#    z 0.013270 0.024220 1.943820 
# 
# From -- ./inp_files/221765.got.cif
#   From: 2010.05.17/outbox.cif.g08.bks.cpg/sg2_111_cif.got.tgz:221765.got - 2010.06.03 11:33:40.
