data_PCOD9027879
_publ_section_title
;
Structure prediction by ZEFSAII (Michael W. Deem and Ramdas Pophale) SiO2 
 PCOD9027879
Probable space group: P -1
;
_chemical_formula_sum "Si O2"
_cell_formula_units_Z 16
_cell_length_a 12.865897
_cell_length_b 8.454449
_cell_length_c 13.989585
_cell_angle_alpha 123.294157
_cell_angle_beta 115.007974
_cell_angle_gamma 109.824002
_cell_volume 757.108609
_symmetry_space_group_name_H-M "P -1"
_symmetry_group_IT_number 2
_symmetry_cell_setting 'triclinic'
loop_
_space_group_symop_operation_xyz
x,y,z
-x,-y,-z
loop_
_atom_site_type_symbol
_atom_site_label
_atom_site_fract_x
_atom_site_fract_y
_atom_site_fract_z
Si Si1 0.400068 0.523302 0.401320
Si Si2 0.828449 0.202901 0.383622
Si Si3 0.863806 0.481400 0.676856
Si Si4 0.144130 0.202324 0.702936
Si Si5 0.753403 0.166739 0.731094
Si Si6 0.527045 0.697881 0.995417
Si Si7 0.079950 0.319482 0.913182
Si Si8 0.220974 0.132061 0.015577
O O1 0.500000 0.500000 0.500000
O O2 0.253441 0.477740 0.374498
O O3 0.308526 0.300411 0.204702
O O4 0.556687 0.855021 0.537792
O O5 0.820264 0.272059 0.510274
O O6 0.000000 0.500000 0.500000
O O7 0.845098 0.997265 0.318002
O O8 0.646962 0.009401 0.192615
O O9 0.818089 0.349582 0.720533
O O10 0.067732 0.788470 0.853770
O O11 0.098018 0.283189 0.798346
O O12 0.327850 0.498853 0.828934
O O13 0.000000 0.000000 0.500000
O O14 0.886032 0.158759 0.799833
O O15 0.784859 0.350262 0.891415
O O16 0.500000 0.500000 0.000000
O O17 0.631258 0.750400 0.962318
O O18 0.127078 0.198524 0.955746
#
# Coordination Sequence:
#
# PCOD9027879 Si02
#       8
#     2   2   2   2   2   2   2   2
#     4  12  29  46  70 102 138 180 235 284 346 407
#     4  11  22  43  68 100 136 178 228 278 344 409
#     4  12  25  44  71 102 143 180 226 287 347 408
#     4  11  24  42  70  99 138 182 227 282 344 410
#     4  11  27  42  71 104 134 179 235 287 336 408
#     4  10  22  41  69  99 131 181 229 274 339 415
#     4  11  23  44  70  97 141 178 233 276 349 401
#     4  12  24  46  72  97 141 184 225 282 354 410
#
# _framework density 21.133030999999999
#
# number of rings (size 3 to 8) (size 9 to 14) (size 15 to 20)
#    0.000    0.750    5.000    2.250   10.500    0.000 
#    0.000    0.625    0.000    0.000    0.000    0.000 
#    0.000    0.000    0.000    0.000    0.000    0.000 
#
# Total GULP energy -89463.682559 kJ/mol
# GULP energy per Si atom -5591.480160 kJ/mol
# Density = 2.108493 g / cm^3
# Si number density = 21.133031 Si / 1000 Ang^3
#
#
#
# Elastic Constant Matrix: (Units=GPa)
#
#
# Indices 1 2 3 4 5 6 
#
# 1 76.6879 22.3233 57.4237 -3.2910 -25.3504 21.7422
# 2 22.3233 55.5943 24.7216 -1.4295 5.1551 11.2471
# 3 57.4237 24.7216 168.7967 3.6010 2.2634 15.9352
# 4 -3.2910 -1.4295 3.6010 44.2876 8.7155 6.0731
# 5 -25.3504 5.1551 2.2634 8.7155 43.3118 -4.0155
# 6 21.7422 11.2471 15.9352 6.0731 -4.0155 21.2372
#
#
#
# Elastic Compliance Matrix: (Units=1/GPa)
#
#
# Indices 1 2 3 4 5 6 
#
# 1 0.034239 -0.007103 -0.008858 0.002302 0.018870 -0.021736
# 2 -0.007103 0.023238 -0.000259 0.002832 -0.008146 -0.007190
# 3 -0.008858 -0.000259 0.008901 -0.000568 -0.005349 0.001678
# 4 0.002302 0.002832 -0.000568 0.025513 -0.005179 -0.011706
# 5 0.018870 -0.008146 -0.005349 -0.005179 0.036177 -0.002670
# 6 -0.021736 -0.007190 0.001678 -0.011706 -0.002670 0.074732
#
#
# Mechanical properties :
#
#
# Convention : Reuss Voigt Hill
#
# Bulk Modulus (GPa) = 29.46552 56.66844 43.06698
# Shear Modulus (GPa) = 20.27964 34.87466 27.57715
#
# Velocity S-wave (km/s) = 3.10113 4.06673 3.61630
# Velocity P-wave (km/s) = 5.17647 6.99459 6.15305
#
# Compressibility (1/GPa) = 0.03393798
#
# Stress axis : x y z
#
# Youngs Moduli (GPa) = 29.20611 43.03349 112.34529
#
# Poissons Ratio (x) = 0.30566 0.99515
# Poissons Ratio (y) = 0.20744 0.02914
# Poissons Ratio (z) = 0.25871 0.01116
#
# Static dielectric constant tensor:
#      x y z
#    x 1.765220 -0.026780 0.022530 
#    y -0.026780 1.758140 0.018370 
#    z 0.022530 0.018370 1.736840 
# 
# From -- ./inp_files/299551.got.cif
#   From: 2010.05.17/outbox.cif.g08.bks.cpg/sg2_150_cif.got.tgz:299551.got - 2010.06.03 11:33:40.
