data_PCOD9027754
_publ_section_title
;
Structure prediction by ZEFSAII (Michael W. Deem and Ramdas Pophale) SiO2 
 PCOD9027754
Probable space group: P -1
;
_chemical_formula_sum "Si O2"
_cell_formula_units_Z 16
_cell_length_a 9.498189
_cell_length_b 24.661083
_cell_length_c 8.688314
_cell_angle_alpha 47.417713
_cell_angle_beta 47.125107
_cell_angle_gamma 28.686361
_cell_volume 697.255726
_symmetry_space_group_name_H-M "P -1"
_symmetry_group_IT_number 2
_symmetry_cell_setting 'triclinic'
loop_
_space_group_symop_operation_xyz
x,y,z
-x,-y,-z
loop_
_atom_site_type_symbol
_atom_site_label
_atom_site_fract_x
_atom_site_fract_y
_atom_site_fract_z
Si Si1 0.212029 0.702997 0.916409
Si Si2 0.254111 0.384475 0.633509
Si Si3 0.760783 0.355589 0.315816
Si Si4 0.399174 0.108816 0.426385
Si Si5 0.309542 0.828839 0.495079
Si Si6 0.153134 0.913743 0.780628
Si Si7 0.840147 0.492475 0.014587
Si Si8 0.236065 0.112999 0.875174
O O1 0.242470 0.636234 0.884359
O O2 0.134067 0.802885 0.695274
O O3 0.538330 0.614631 0.924758
O O4 0.954605 0.772031 0.103090
O O5 0.498031 0.375374 0.511682
O O6 0.413791 0.275480 0.619047
O O7 0.000000 0.500000 0.500000
O O8 0.094558 0.402681 0.868993
O O9 0.077267 0.227274 0.374645
O O10 0.736193 0.442751 0.244371
O O11 0.637616 0.103387 0.225560
O O12 0.372056 0.106486 0.634058
O O13 0.500000 0.000000 0.500000
O O14 0.349159 0.837949 0.626826
O O15 0.109954 0.951770 0.332927
O O16 0.996595 0.883987 0.002358
O O17 0.000000 0.500000 0.000000
O O18 0.500000 0.000000 0.000000
#
# Coordination Sequence:
#
# PCOD9027754 Si02
#       8
#     2   2   2   2   2   2   2   2
#     4  10  22  46  69  96 141 179 235 283 340 419
#     4  11  23  44  72  98 136 186 233 283 342 409
#     4  11  26  45  70 103 135 186 232 282 350 415
#     4  12  26  43  68 103 145 175 229 290 347 418
#     4   9  18  39  71 100 131 177 233 274 338 421
#     4  10  22  41  69 105 138 180 223 286 357 404
#     4  12  28  46  69 101 145 183 235 293 341 410
#     4  11  24  44  71 104 135 180 232 286 351 419
#
# _framework density 22.947104
#
# number of rings (size 3 to 8) (size 9 to 14) (size 15 to 20)
#    0.000    1.250    2.500    4.875    5.250    4.000 
#    0.000    0.000    0.000    0.000    0.000    0.000 
#    0.000    0.000    0.000    0.000    0.000    0.000 
#
# Total GULP energy -89470.693839 kJ/mol
# GULP energy per Si atom -5591.918365 kJ/mol
# Density = 2.289488 g / cm^3
# Si number density = 22.947104 Si / 1000 Ang^3
#
#
#
# Elastic Constant Matrix: (Units=GPa)
#
#
# Indices 1 2 3 4 5 6 
#
# 1 119.9744 17.8898 19.5407 -8.8236 -34.8532 -10.5465
# 2 17.8898 103.1557 12.8602 0.9036 0.6867 5.0612
# 3 19.5407 12.8602 47.4823 2.9349 -17.8045 5.8867
# 4 -8.8236 0.9036 2.9349 38.5550 2.9929 6.7401
# 5 -34.8532 0.6867 -17.8045 2.9929 45.3852 3.3897
# 6 -10.5465 5.0612 5.8867 6.7401 3.3897 41.1898
#
#
#
# Elastic Compliance Matrix: (Units=1/GPa)
#
#
# Indices 1 2 3 4 5 6 
#
# 1 0.011562 -0.001990 -0.001654 0.001764 0.007957 0.002498
# 2 -0.001990 0.010475 -0.002897 -0.000068 -0.002733 -0.001147
# 3 -0.001654 -0.002897 0.026883 -0.002361 0.009798 -0.004330
# 4 0.001764 -0.000068 -0.002361 0.027231 -0.001099 -0.003568
# 5 0.007957 -0.002733 0.009798 -0.001099 0.032214 -0.001498
# 6 0.002498 -0.001147 -0.004330 -0.003568 -0.001498 0.026384
#
#
# Mechanical properties :
#
#
# Convention : Reuss Voigt Hill
#
# Bulk Modulus (GPa) = 27.90289 41.24374 34.57331
# Shear Modulus (GPa) = 31.29350 39.71412 35.50381
#
# Velocity S-wave (km/s) = 3.69687 4.16466 3.93772
# Velocity P-wave (km/s) = 5.51439 6.41391 5.98109
#
# Compressibility (1/GPa) = 0.03583859
#
# Stress axis : x y z
#
# Youngs Moduli (GPa) = 86.48825 95.46216 37.19872
#
# Poissons Ratio (x) = 0.18996 0.06154
# Poissons Ratio (y) = 0.17211 0.10775
# Poissons Ratio (z) = 0.14307 0.27652
#
# Static dielectric constant tensor:
#      x y z
#    x 1.919790 0.039560 -0.025170 
#    y 0.039560 1.837040 0.003640 
#    z -0.025170 0.003640 1.864440 
# 
# From -- ./inp_files/226074.got.cif
#   From: 2010.05.17/outbox.cif.g08.bks.cpg/sg2_114_cif.got.tgz:226074.got - 2010.06.03 11:33:40.
