data_PCOD9027766
_publ_section_title
;
Structure prediction by ZEFSAII (Michael W. Deem and Ramdas Pophale) SiO2 
 PCOD9027766
Probable space group: P -1
;
_chemical_formula_sum "Si O2"
_cell_formula_units_Z 15
_cell_length_a 9.107848
_cell_length_b 11.993864
_cell_length_c 14.395477
_cell_angle_alpha 148.440640
_cell_angle_beta 126.454740
_cell_angle_gamma 58.497937
_cell_volume 661.498830
_symmetry_space_group_name_H-M "P -1"
_symmetry_group_IT_number 2
_symmetry_cell_setting 'triclinic'
loop_
_space_group_symop_operation_xyz
x,y,z
-x,-y,-z
loop_
_atom_site_type_symbol
_atom_site_label
_atom_site_fract_x
_atom_site_fract_y
_atom_site_fract_z
Si Si1 0.109586 0.467686 0.613166
Si Si2 0.265641 0.973535 0.567062
Si Si3 0.852859 0.338621 0.914272
Si Si4 0.341674 0.056444 0.352961
Si Si5 0.016138 0.679525 0.354970
Si Si6 0.215718 0.936523 0.019001
Si Si7 0.261643 0.269186 0.953754
Si Si8 0.500000 0.000000 0.000000
O O1 0.967509 0.402375 0.593028
O O2 0.211522 0.678896 0.831056
O O3 0.000000 0.500000 0.500000
O O4 0.249148 0.270449 0.509788
O O5 0.197684 0.751452 0.423902
O O6 0.443737 0.949791 0.556505
O O7 0.110960 0.105535 0.545760
O O8 0.301863 0.119344 0.773883
O O9 0.748720 0.147303 0.782166
O O10 0.045157 0.255253 0.883992
O O11 0.916356 0.500602 0.132873
O O12 0.731040 0.486320 0.903585
O O13 0.308713 0.036633 0.215346
O O14 0.323078 0.004058 0.014031
O O15 0.000000 0.000000 0.000000
O O16 0.387593 0.177486 0.018321
#
# Coordination Sequence:
#
# PCOD9027766 Si02
#       8
#     2   2   2   2   2   2   2   1
#     4  12  27  43  71 105 143 192 247 290 376 443
#     4  10  23  44  67 101 142 184 243 303 366 433
#     4  10  22  43  75 101 142 194 246 308 371 439
#     4  12  24  46  74 104 144 190 243 311 361 442
#     4  10  23  44  69  99 141 190 240 301 364 445
#     4  12  26  49  72 111 151 198 245 306 378 449
#     4  10  22  41  69 107 138 192 245 299 376 445
#     4  12  26  42  76 110 148 190 252 304 368 462
#
# _framework density 22.675778000000001
#
# number of rings (size 3 to 8) (size 9 to 14) (size 15 to 20)
#    0.000    1.067    4.000    1.600    1.867    5.867 
#    0.000    1.333    0.000    0.000    0.000    0.000 
#    0.000    0.000    0.000    0.000    0.000    0.000 
#
# Total GULP energy -83657.093039 kJ/mol
# GULP energy per Si atom -5577.139536 kJ/mol
# Density = 2.262417 g / cm^3
# Si number density = 22.675778 Si / 1000 Ang^3
#
#
#
# Elastic Constant Matrix: (Units=GPa)
#
#
# Indices 1 2 3 4 5 6 
#
# 1 145.2596 66.8954 51.8670 21.2612 9.5073 29.5380
# 2 66.8954 22.5885 -35.5973 45.3222 -54.0636 -50.2890
# 3 51.8670 -35.5973 79.3829 36.2086 -34.7174 -26.9716
# 4 21.2612 45.3222 36.2086 20.6977 18.7278 14.9608
# 5 9.5073 -54.0636 -34.7174 18.7278 6.1135 -24.6994
# 6 29.5380 -50.2890 -26.9716 14.9608 -24.6994 5.8053
#
#
#
# Elastic Compliance Matrix: (Units=1/GPa)
#
#
# Indices 1 2 3 4 5 6 
#
# 1 0.008807 -0.000341 -0.000084 -0.010368 0.004449 -0.002506
# 2 -0.000341 0.005366 -0.003643 0.004142 -0.006049 -0.005114
# 3 -0.000084 -0.003643 0.008268 -0.000317 -0.002999 -0.004662
# 4 -0.010368 0.004142 -0.000317 0.035325 0.004504 0.015287
# 5 0.004449 -0.006049 -0.002999 0.004504 0.020632 -0.012797
# 6 -0.002506 -0.005114 -0.004662 0.015287 -0.012797 0.025205
#
#
# Mechanical properties :
#
#
# Convention : Reuss Voigt Hill
#
# Bulk Modulus (GPa) = 69.90326 45.95124 57.92725
# Shear Modulus (GPa) = 42.91613 17.46102 30.18858
#
# Velocity S-wave (km/s) = 4.35512 2.77795 3.65268
# Velocity P-wave (km/s) = 7.49557 5.53153 6.58716
#
# Compressibility (1/GPa) = 0.01430549
#
# Stress axis : x y z
#
# Youngs Moduli (GPa) = 113.54505 186.34535 120.95537
#
# Poissons Ratio (x) = 0.06356 0.01013
# Poissons Ratio (y) = 0.03873 0.44063
# Poissons Ratio (z) = 0.00951 0.67885
#
# Static dielectric constant tensor:
#      x y z
#    x 1.861910 -0.008930 -0.007640 
#    y -0.008930 1.845530 -0.025550 
#    z -0.007640 -0.025550 1.843030 
# 
# From -- ./inp_files/499594.got.cif
#   From: 2010.05.17/outbox.cif.g08.bks.cpg/sg2_250_cif.got.tgz:499594.got - 2010.06.03 11:33:40.
