data_PCOD9027860
_publ_section_title
;
Structure prediction by ZEFSAII (Michael W. Deem and Ramdas Pophale) SiO2 
 PCOD9027860
Probable space group: P -1
;
_chemical_formula_sum "Si O2"
_cell_formula_units_Z 16
_cell_length_a 22.685359
_cell_length_b 8.783751
_cell_length_c 14.460014
_cell_angle_alpha 53.915749
_cell_angle_beta 148.324259
_cell_angle_gamma 146.314976
_cell_volume 765.698117
_symmetry_space_group_name_H-M "P -1"
_symmetry_group_IT_number 2
_symmetry_cell_setting 'triclinic'
loop_
_space_group_symop_operation_xyz
x,y,z
-x,-y,-z
loop_
_atom_site_type_symbol
_atom_site_label
_atom_site_fract_x
_atom_site_fract_y
_atom_site_fract_z
Si Si1 0.072042 0.261739 0.102940
Si Si2 0.991094 0.792658 0.618617
Si Si3 0.823357 0.999240 0.692719
Si Si4 0.591017 0.231870 0.956958
Si Si5 0.043705 0.511688 0.660584
Si Si6 0.774584 0.858522 0.006439
Si Si7 0.617087 0.085825 0.395836
Si Si8 0.372751 0.927761 0.281314
O O1 0.179218 0.583520 0.162145
O O2 0.985796 0.196982 0.912055
O O3 0.208303 0.262397 0.276265
O O4 0.914038 0.010484 0.053777
O O5 0.063528 0.726693 0.669938
O O6 0.790413 0.451873 0.496385
O O7 0.000000 0.000000 0.500000
O O8 0.108950 0.965066 0.807375
O O9 0.680305 0.958976 0.558088
O O10 0.890166 0.187455 0.621224
O O11 0.643349 0.509254 0.958757
O O12 0.461310 0.050833 0.761350
O O13 0.777073 0.373028 0.133373
O O14 0.500000 0.000000 0.000000
O O15 0.000000 0.500000 0.500000
O O16 0.656257 0.888661 0.820630
O O17 0.459903 0.973045 0.285765
O O18 0.500000 0.000000 0.500000
#
# Coordination Sequence:
#
# PCOD9027860 Si02
#       8
#     2   2   2   2   2   2   2   2
#     4  11  23  42  70  93 135 177 232 270 333 412
#     4  11  24  44  70  98 132 182 230 272 342 417
#     4  10  22  41  69  98 123 180 229 272 326 410
#     4  12  25  43  68 103 134 174 228 288 338 394
#     4  11  22  44  69  97 133 182 229 276 327 416
#     4  12  25  45  69  99 139 182 228 275 348 415
#     4  11  24  43  66  97 139 167 227 279 340 391
#     4  12  26  42  65 100 139 175 219 289 349 397
#
# _framework density 20.895962999999998
#
# number of rings (size 3 to 8) (size 9 to 14) (size 15 to 20)
#    0.000    0.750    1.250    7.875    3.500    1.500 
#    0.000    2.500    0.000    0.000    0.000    0.000 
#    0.000    0.000    0.000    0.000    0.000    0.000 
#
# Total GULP energy -89462.653018 kJ/mol
# GULP energy per Si atom -5591.415814 kJ/mol
# Density = 2.084840 g / cm^3
# Si number density = 20.895963 Si / 1000 Ang^3
#
#
#
# Elastic Constant Matrix: (Units=GPa)
#
#
# Indices 1 2 3 4 5 6 
#
# 1 65.2543 43.7666 20.1568 -3.7732 -6.4106 -4.3550
# 2 43.7666 139.8221 43.9167 -11.3733 -1.3245 -21.1401
# 3 20.1568 43.9167 101.1602 -12.6799 -14.8164 -7.6951
# 4 -3.7732 -11.3733 -12.6799 36.1305 -9.3043 6.4415
# 5 -6.4106 -1.3245 -14.8164 -9.3043 58.1733 -7.4477
# 6 -4.3550 -21.1401 -7.6951 6.4415 -7.4477 31.2687
#
#
#
# Elastic Compliance Matrix: (Units=1/GPa)
#
#
# Indices 1 2 3 4 5 6 
#
# 1 0.019790 -0.005973 -0.001148 0.000436 0.001661 -0.001259
# 2 -0.005973 0.010877 -0.003088 0.000629 -0.000387 0.005540
# 3 -0.001148 -0.003088 0.012598 0.004145 0.003790 0.000901
# 4 0.000436 0.000629 0.004145 0.031487 0.005690 -0.003625
# 5 0.001661 -0.000387 0.003790 0.005690 0.019809 0.004448
# 6 -0.001259 0.005540 0.000901 -0.003625 0.004448 0.037579
#
#
# Mechanical properties :
#
#
# Convention : Reuss Voigt Hill
#
# Bulk Modulus (GPa) = 43.77172 57.99073 50.88123
# Shear Modulus (GPa) = 31.21618 38.34095 34.77856
#
# Velocity S-wave (km/s) = 3.86927 4.28816 4.08409
# Velocity P-wave (km/s) = 6.39958 7.23396 6.82952
#
# Compressibility (1/GPa) = 0.02284580
#
# Stress axis : x y z
#
# Youngs Moduli (GPa) = 50.53104 91.94017 79.37812
#
# Poissons Ratio (x) = 0.54917 0.09113
# Poissons Ratio (y) = 0.30183 0.24514
# Poissons Ratio (z) = 0.05801 0.28393
#
# Static dielectric constant tensor:
#      x y z
#    x 1.808460 0.029920 0.038210 
#    y 0.029920 1.771920 0.012780 
#    z 0.038210 0.012780 1.731300 
# 
# From -- ./inp_files/542657.got.cif
#   From: 2010.05.17/outbox.cif.g08.bks.cpg/sg2_272_cif.got.tgz:542657.got - 2010.06.03 11:33:40.
