data_PCOD9027480
_publ_section_title
;
Structure prediction by ZEFSAII (Michael W. Deem and Ramdas Pophale) SiO2 
 PCOD9027480
Probable space group: P -1
;
_chemical_formula_sum "Si O2"
_cell_formula_units_Z 10
_cell_length_a 11.286171
_cell_length_b 11.451774
_cell_length_c 8.511776
_cell_angle_alpha 56.324595
_cell_angle_beta 124.843152
_cell_angle_gamma 154.173602
_cell_volume 390.842941
_symmetry_space_group_name_H-M "P -1"
_symmetry_group_IT_number 2
_symmetry_cell_setting 'triclinic'
loop_
_space_group_symop_operation_xyz
x,y,z
-x,-y,-z
loop_
_atom_site_type_symbol
_atom_site_label
_atom_site_fract_x
_atom_site_fract_y
_atom_site_fract_z
Si Si1 0.525153 0.113583 0.176728
Si Si2 0.199237 0.961217 0.505515
Si Si3 0.588933 0.587467 0.817309
Si Si4 0.181348 0.019726 0.794830
Si Si5 0.021793 0.364123 0.689659
O O1 0.650566 0.062408 0.324327
O O2 0.749189 0.417171 0.168401
O O3 0.278992 0.918073 0.260556
O O4 0.365386 0.033272 0.961569
O O5 0.960628 0.729212 0.370593
O O6 0.394149 0.239132 0.365444
O O7 0.095724 0.934272 0.612862
O O8 0.390146 0.320471 0.765837
O O9 0.500000 0.500000 0.000000
O O10 0.912984 0.812604 0.858487
O O11 0.000000 0.500000 0.500000
#
# Coordination Sequence:
#
# PCOD9027480 Si02
#       5
#     2   2   2   2   2
#     4  11  24  44  72 106 143 186 235 287 352 427
#     4  11  25  47  75 108 144 187 237 298 353 419
#     4  12  28  49  72 103 144 193 239 291 358 433
#     4  12  27  47  73 108 144 184 238 300 359 415
#     4  10  22  41  68 103 142 186 232 282 347 424
#
# _framework density 25.585726000000001
#
# number of rings (size 3 to 8) (size 9 to 14) (size 15 to 20)
#    0.000    0.800    0.000    7.200    0.000   12.800 
#    0.000    7.000    0.000    0.000    0.000    0.000 
#    0.000    0.000    0.000    0.000    0.000    0.000 
#
# Total GULP energy -55959.490613 kJ/mol
# GULP energy per Si atom -5595.949061 kJ/mol
# Density = 2.552749 g / cm^3
# Si number density = 25.585726 Si / 1000 Ang^3
#
#
#
# Elastic Constant Matrix: (Units=GPa)
#
#
# Indices 1 2 3 4 5 6 
#
# 1 152.8504 62.3416 70.3820 -0.2788 7.5825 -6.6621
# 2 62.3416 151.9815 33.4321 -21.7475 8.1056 4.1601
# 3 70.3820 33.4321 110.5130 -8.2740 -5.8537 -19.1084
# 4 -0.2788 -21.7475 -8.2740 43.6262 -6.1709 10.6433
# 5 7.5825 8.1056 -5.8537 -6.1709 55.0290 -2.7844
# 6 -6.6621 4.1601 -19.1084 10.6433 -2.7844 34.9208
#
#
#
# Elastic Compliance Matrix: (Units=1/GPa)
#
#
# Indices 1 2 3 4 5 6 
#
# 1 0.010921 -0.003424 -0.006286 -0.003073 -0.002023 -0.000173
# 2 -0.003424 0.009050 -0.000861 0.005179 -0.000566 -0.003826
# 3 -0.006286 -0.000861 0.014744 0.001076 0.003030 0.006885
# 4 -0.003073 0.005179 0.001076 0.028241 0.002485 -0.009024
# 5 -0.002023 -0.000566 0.003030 0.002485 0.019242 0.002117
# 6 -0.000173 -0.003826 0.006885 -0.009024 0.002117 0.035745
#
#
# Mechanical properties :
#
#
# Convention : Reuss Voigt Hill
#
# Bulk Modulus (GPa) = 73.67934 83.07293 78.37613
# Shear Modulus (GPa) = 34.81662 43.32783 39.07223
#
# Velocity S-wave (km/s) = 3.69288 4.11960 3.91207
# Velocity P-wave (km/s) = 6.85877 7.42746 7.14877
#
# Compressibility (1/GPa) = 0.01357233
#
# Stress axis : x y z
#
# Youngs Moduli (GPa) = 91.57005 110.50257 67.82326
#
# Poissons Ratio (x) = 0.37834 0.42636
# Poissons Ratio (y) = 0.31352 0.05838
# Poissons Ratio (z) = 0.57564 0.09512
#
# Static dielectric constant tensor:
#      x y z
#    x 1.945670 0.061680 0.065370 
#    y 0.061680 1.925030 0.043240 
#    z 0.065370 0.043240 2.112610 
# 
# From -- ./inp_files/252301.got.cif
#   From: 2010.05.17/outbox.cif.g08.bks.cpg/sg2_127_cif.got.tgz:252301.got - 2010.06.03 11:33:40.
