data_PCOD9027546
_publ_section_title
;
Structure prediction by ZEFSAII (Michael W. Deem and Ramdas Pophale) SiO2 
 PCOD9027546
Probable space group: P -1
;
_chemical_formula_sum "Si O2"
_cell_formula_units_Z 16
_cell_length_a 7.748510
_cell_length_b 8.117374
_cell_length_c 14.112422
_cell_angle_alpha 52.321700
_cell_angle_beta 67.600770
_cell_angle_gamma 70.234415
_cell_volume 642.764825
_symmetry_space_group_name_H-M "P -1"
_symmetry_group_IT_number 2
_symmetry_cell_setting 'triclinic'
loop_
_space_group_symop_operation_xyz
x,y,z
-x,-y,-z
loop_
_atom_site_type_symbol
_atom_site_label
_atom_site_fract_x
_atom_site_fract_y
_atom_site_fract_z
Si Si1 0.350933 0.986531 0.761837
Si Si2 0.968625 0.645347 0.812906
Si Si3 0.008000 0.282237 0.780636
Si Si4 0.710895 0.894896 0.471587
Si Si5 0.386836 0.805833 0.109422
Si Si6 0.690540 0.469910 0.074678
Si Si7 0.781490 0.041258 0.607754
Si Si8 0.773116 0.397115 0.615584
O O1 0.250534 0.010589 0.671253
O O2 0.349918 0.751248 0.880231
O O3 0.563287 0.022115 0.685214
O O4 0.213946 0.152522 0.793833
O O5 0.906752 0.880208 0.707320
O O6 0.979609 0.488728 0.777148
O O7 0.163006 0.586747 0.849531
O O8 0.802074 0.594420 0.934283
O O9 0.835061 0.151688 0.887279
O O10 0.959658 0.351675 0.657747
O O11 0.500000 0.000000 0.500000
O O12 0.814880 0.961005 0.521000
O O13 0.711854 0.645490 0.545949
O O14 0.500701 0.607390 0.101670
O O15 0.370430 0.724186 0.249830
O O16 0.500000 0.000000 0.000000
O O17 0.800806 0.279398 0.550799
#
# Coordination Sequence:
#
# PCOD9027546 Si02
#       8
#     2   2   2   2   2   2   2   2
#     4  11  25  43  68 103 137 176 228 276 340 401
#     4  11  24  44  68  99 136 178 229 275 349 398
#     4  10  24  43  64 102 140 173 225 285 332 410
#     4  10  22  44  69 100 139 179 229 278 332 402
#     4  10  22  41  68  93 134 177 221 282 336 397
#     4  11  25  43  67  96 135 179 226 286 330 414
#     4  11  22  45  73  99 134 186 222 278 343 401
#     4  10  22  42  69  99 138 171 234 276 330 404
#
# _framework density 24.892462999999999
#
# number of rings (size 3 to 8) (size 9 to 14) (size 15 to 20)
#    0.750    0.750    1.250    3.750    5.250    6.000 
#    2.250    1.250    0.000    0.000    0.000    0.000 
#    0.000    0.000    0.000    0.000    0.000    0.000 
#
# Total GULP energy -89546.584919 kJ/mol
# GULP energy per Si atom -5596.661557 kJ/mol
# Density = 2.483581 g / cm^3
# Si number density = 24.892463 Si / 1000 Ang^3
#
#
#
# Elastic Constant Matrix: (Units=GPa)
#
#
# Indices 1 2 3 4 5 6 
#
# 1 112.2093 32.0382 35.4165 -0.1056 -1.9266 -1.3220
# 2 32.0382 155.5588 40.4479 -5.3192 -4.9177 -1.8759
# 3 35.4165 40.4479 96.1856 -11.5153 -3.0825 -1.5471
# 4 -0.1056 -5.3192 -11.5153 36.9701 4.3857 -4.2208
# 5 -1.9266 -4.9177 -3.0825 4.3857 43.2058 7.5506
# 6 -1.3220 -1.8759 -1.5471 -4.2208 7.5506 47.0603
#
#
#
# Elastic Compliance Matrix: (Units=1/GPa)
#
#
# Indices 1 2 3 4 5 6 
#
# 1 0.010359 -0.001281 -0.003418 -0.001245 0.000202 -0.000016
# 2 -0.001281 0.007392 -0.002594 0.000197 0.000562 0.000101
# 3 -0.003418 -0.002594 0.013210 0.003796 0.000009 0.000574
# 4 -0.001245 0.000197 0.003796 0.029012 -0.003271 0.003225
# 5 0.000202 0.000562 0.000009 -0.003271 0.024278 -0.004160
# 6 -0.000016 0.000101 0.000574 0.003225 -0.004160 0.022228
#
#
# Mechanical properties :
#
#
# Convention : Reuss Voigt Hill
#
# Bulk Modulus (GPa) = 61.06957 64.41766 62.74362
# Shear Modulus (GPa) = 39.51823 42.51733 41.01778
#
# Velocity S-wave (km/s) = 3.98874 4.13733 4.06371
# Velocity P-wave (km/s) = 6.76757 6.98268 6.87597
#
# Compressibility (1/GPa) = 0.01637477
#
# Stress axis : x y z
#
# Youngs Moduli (GPa) = 96.53716 135.27415 75.70039
#
# Poissons Ratio (x) = 0.17329 0.25877
# Poissons Ratio (y) = 0.12366 0.19635
# Poissons Ratio (z) = 0.33000 0.35087
#
# Static dielectric constant tensor:
#      x y z
#    x 1.989390 0.035060 0.015670 
#    y 0.035060 1.935140 0.020930 
#    z 0.015670 0.020930 1.975150 
# 
# From -- ./inp_files/494456.got.cif
#   From: 2010.05.17/outbox.cif.g08.bks.cpg/sg2_248_cif.got.tgz:494456.got - 2010.06.03 11:33:40.
