data_PCOD9027496
_publ_section_title
;
Structure prediction by ZEFSAII (Michael W. Deem and Ramdas Pophale) SiO2 
 PCOD9027496
Probable space group: P -1
;
_chemical_formula_sum "Si O2"
_cell_formula_units_Z 16
_cell_length_a 22.188666
_cell_length_b 16.986000
_cell_length_c 5.393471
_cell_angle_alpha 116.374913
_cell_angle_beta 61.397072
_cell_angle_gamma 155.648295
_cell_volume 735.712105
_symmetry_space_group_name_H-M "P -1"
_symmetry_group_IT_number 2
_symmetry_cell_setting 'triclinic'
loop_
_space_group_symop_operation_xyz
x,y,z
-x,-y,-z
loop_
_atom_site_type_symbol
_atom_site_label
_atom_site_fract_x
_atom_site_fract_y
_atom_site_fract_z
Si Si1 0.607078 0.350157 0.010686
Si Si2 0.465327 0.555593 0.550999
Si Si3 0.708218 0.041801 0.057353
Si Si4 0.212387 0.429544 0.515930
Si Si5 0.832908 0.815400 0.672896
Si Si6 0.025078 0.733021 0.450013
Si Si7 0.911644 0.424037 0.321399
Si Si8 0.753309 0.922835 0.158232
O O1 0.550090 0.385880 0.137555
O O2 0.696017 0.451744 0.240863
O O3 0.699925 0.433070 0.700949
O O4 0.450629 0.122159 0.987114
O O5 0.500000 0.500000 0.500000
O O6 0.300184 0.356538 0.493171
O O7 0.600539 0.737738 0.359481
O O8 0.766053 0.196972 0.287598
O O9 0.718265 0.966998 0.112055
O O10 0.829673 0.153530 0.769761
O O11 0.179781 0.291326 0.302539
O O12 0.055360 0.302053 0.654030
O O13 0.792221 0.867691 0.913759
O O14 0.000000 0.000000 0.500000
O O15 0.909173 0.526729 0.475158
O O16 0.096978 0.879559 0.712488
O O17 0.000000 0.500000 0.500000
O O18 0.000000 0.500000 0.000000
#
# Coordination Sequence:
#
# PCOD9027496 Si02
#       8
#     2   2   2   2   2   2   2   2
#     4  11  24  44  66  95 133 183 217 278 334 404
#     4  11  23  41  62  95 131 172 235 278 333 386
#     4  11  22  43  72  99 132 171 236 278 342 397
#     4  11  27  44  63  94 144 176 223 270 342 398
#     4  11  25  40  62  96 134 180 223 276 332 400
#     4  11  25  42  69 101 132 178 227 280 339 405
#     4  10  22  41  68 106 136 165 220 293 338 391
#     4  12  23  40  72  95 133 181 232 279 335 401
#
# _framework density 21.747637999999998
#
# number of rings (size 3 to 8) (size 9 to 14) (size 15 to 20)
#    0.000    1.000    2.500    4.125    7.000    0.500 
#    0.000    1.250    0.000    0.000    0.000    0.000 
#    0.000    0.000    0.000    0.000    0.000    0.000 
#
# Total GULP energy -89122.460820 kJ/mol
# GULP energy per Si atom -5570.153801 kJ/mol
# Density = 2.169814 g / cm^3
# Si number density = 21.747638 Si / 1000 Ang^3
#
#
#
# Elastic Constant Matrix: (Units=GPa)
#
#
# Indices 1 2 3 4 5 6 
#
# 1 18.2620 105.3552 -9.1017 -15.8354 79.4034 30.5678
# 2 105.3552 116.4977 74.1836 48.6686 -52.9776 -17.6974
# 3 -9.1017 74.1836 49.5031 3.6723 40.4036 18.2738
# 4 -15.8354 48.6686 3.6723 44.0948 28.8664 8.8333
# 5 79.4034 -52.9776 40.4036 28.8664 -42.3305 -28.4732
# 6 30.5678 -17.6974 18.2738 8.8333 -28.4732 22.5091
#
#
#
# Elastic Compliance Matrix: (Units=1/GPa)
#
#
# Indices 1 2 3 4 5 6 
#
# 1 0.009305 0.000320 -0.006045 -0.002175 0.007702 0.003120
# 2 0.000320 0.006067 -0.001825 -0.001003 -0.007346 -0.003082
# 3 -0.006045 -0.001825 0.018165 -0.004884 0.004877 0.000113
# 4 -0.002175 -0.001003 -0.004884 0.020123 0.004011 0.003307
# 5 0.007702 -0.007346 0.004877 0.004011 0.011913 -0.006698
# 6 0.003120 -0.003082 0.000113 0.003307 -0.006698 0.027905
#
#
# Mechanical properties :
#
#
# Convention : Reuss Voigt Hill
#
# Bulk Modulus (GPa) = 54.24188 58.34856 56.29522
# Shear Modulus (GPa) = 43.58319 5.77639 24.67979
#
# Velocity S-wave (km/s) = 4.48151 1.63152 3.37237
# Velocity P-wave (km/s) = 7.19543 5.51700 6.41138
#
# Compressibility (1/GPa) = 0.01843594
#
# Stress axis : x y z
#
# Youngs Moduli (GPa) = 107.47347 164.82645 55.05127
#
# Poissons Ratio (x) = -0.05270 0.33278
# Poissons Ratio (y) = -0.03436 0.10047
# Poissons Ratio (z) = 0.64967 0.30082
#
# Static dielectric constant tensor:
#      x y z
#    x 2.023200 -0.113030 0.013280 
#    y -0.113030 2.023920 -0.140130 
#    z 0.013280 -0.140130 1.802290 
# 
# From -- ./inp_files/39007.got.cif
#   From: 2010.05.17/outbox.cif.g08.bks.cpg/sg2_20_cif.got.tgz:39007.got - 2010.06.03 11:33:40.
