data_PCOD9027569
_publ_section_title
;
Structure prediction by ZEFSAII (Michael W. Deem and Ramdas Pophale) SiO2 
 PCOD9027569
Probable space group: P -1
;
_chemical_formula_sum "Si O2"
_cell_formula_units_Z 14
_cell_length_a 11.190201
_cell_length_b 15.978403
_cell_length_c 4.911185
_cell_angle_alpha 81.596068
_cell_angle_beta 113.824218
_cell_angle_gamma 130.707147
_cell_volume 600.171459
_symmetry_space_group_name_H-M "P -1"
_symmetry_group_IT_number 2
_symmetry_cell_setting 'triclinic'
loop_
_space_group_symop_operation_xyz
x,y,z
-x,-y,-z
loop_
_atom_site_type_symbol
_atom_site_label
_atom_site_fract_x
_atom_site_fract_y
_atom_site_fract_z
Si Si1 0.328462 0.386894 0.514456
Si Si2 0.396393 0.883898 0.624773
Si Si3 0.734921 0.937422 0.912822
Si Si4 0.781198 0.757211 0.045745
Si Si5 0.150212 0.914334 0.571174
Si Si6 0.097787 0.446609 0.439793
Si Si7 0.863077 0.353867 0.768082
O O1 0.500000 0.500000 0.500000
O O2 0.357726 0.342505 0.829241
O O3 0.206792 0.412636 0.474196
O O4 0.242403 0.293038 0.246629
O O5 0.545529 0.885336 0.870322
O O6 0.273241 0.884277 0.714298
O O7 0.273987 0.775338 0.373481
O O8 0.500000 0.000000 0.500000
O O9 0.763478 0.984374 0.613269
O O10 0.764511 0.850879 0.985598
O O11 0.864619 0.043574 0.178259
O O12 0.966485 0.813199 0.321929
O O13 0.195069 0.575975 0.401224
O O14 0.032506 0.413314 0.704535
O O15 0.926441 0.377568 0.124504
#
# Coordination Sequence:
#
# PCOD9027569 Si02
#       7
#     2   2   2   2   2   2   2
#     4  12  26  43  66  95 132 167 223 272 329 386
#     4  10  23  40  65  98 135 166 213 269 335 381
#     4  11  24  41  64  99 132 169 216 263 326 386
#     4  12  25  44  68  93 129 181 214 268 328 385
#     4  11  22  42  67  94 132 170 221 261 314 401
#     4  10  22  43  66  95 125 169 224 263 325 378
#     4  10  22  41  68  95 127 170 213 273 317 395
#
# _framework density 23.326671000000001
#
# number of rings (size 3 to 8) (size 9 to 14) (size 15 to 20)
#    0.000    1.143    0.000    6.000    2.000    5.714 
#    5.143    0.000    0.000    0.000    0.000    0.000 
#    0.000    0.000    0.000    0.000    0.000    0.000 
#
# Total GULP energy -78433.687297 kJ/mol
# GULP energy per Si atom -5602.406235 kJ/mol
# Density = 2.327358 g / cm^3
# Si number density = 23.326671 Si / 1000 Ang^3
#
#
#
# Elastic Constant Matrix: (Units=GPa)
#
#
# Indices 1 2 3 4 5 6 
#
# 1 110.1620 40.9117 23.5560 -0.4495 1.9344 -32.2308
# 2 40.9117 126.6666 7.1065 9.9459 0.0424 -17.2461
# 3 23.5560 7.1065 53.2758 3.1875 -19.3553 -7.2322
# 4 -0.4495 9.9459 3.1875 31.7398 -3.1612 -16.6578
# 5 1.9344 0.0424 -19.3553 -3.1612 35.4157 5.6289
# 6 -32.2308 -17.2461 -7.2322 -16.6578 5.6289 31.5146
#
#
#
# Elastic Compliance Matrix: (Units=1/GPa)
#
#
# Indices 1 2 3 4 5 6 
#
# 1 0.020296 -0.003658 -0.009047 0.015284 -0.008871 0.026342
# 2 -0.003658 0.009253 0.000648 -0.003104 0.000301 -0.000223
# 3 -0.009047 0.000648 0.027893 -0.006014 0.016573 -0.008637
# 4 0.015284 -0.003104 -0.006014 0.055151 -0.005994 0.042775
# 5 -0.008871 0.000301 0.016573 -0.005994 0.039684 -0.015361
# 6 0.026342 -0.000223 -0.008637 0.042775 -0.015361 0.081922
#
#
# Mechanical properties :
#
#
# Convention : Reuss Voigt Hill
#
# Bulk Modulus (GPa) = 30.00600 48.13920 39.07260
# Shear Modulus (GPa) = 18.55818 34.30270 26.43044
#
# Velocity S-wave (km/s) = 2.82366 3.83892 3.36974
# Velocity P-wave (km/s) = 4.84995 6.35071 5.65038
#
# Compressibility (1/GPa) = 0.03332667
#
# Stress axis : x y z
#
# Youngs Moduli (GPa) = 49.27079 108.07136 35.85177
#
# Poissons Ratio (x) = 0.39535 0.32436
# Poissons Ratio (y) = 0.18025 -0.02324
# Poissons Ratio (z) = 0.44577 -0.07004
#
# Static dielectric constant tensor:
#      x y z
#    x 1.876800 0.033940 0.020570 
#    y 0.033940 1.882960 0.000370 
#    z 0.020570 0.000370 1.858570 
# 
# From -- ./inp_files/62622.got.cif
#   From: 2010.05.17/outbox.cif.g08.bks.cpg/sg2_32_cif.got.tgz:62622.got - 2010.06.03 11:33:40.
