data_PCOD9027798
_publ_section_title
;
Structure prediction by ZEFSAII (Michael W. Deem and Ramdas Pophale) SiO2 
 PCOD9027798
Probable space group: P -1
;
_chemical_formula_sum "Si O2"
_cell_formula_units_Z 14
_cell_length_a 15.017210
_cell_length_b 8.857709
_cell_length_c 11.120861
_cell_angle_alpha 48.503796
_cell_angle_beta 29.745422
_cell_angle_gamma 62.180714
_cell_volume 525.728625
_symmetry_space_group_name_H-M "P -1"
_symmetry_group_IT_number 2
_symmetry_cell_setting 'triclinic'
loop_
_space_group_symop_operation_xyz
x,y,z
-x,-y,-z
loop_
_atom_site_type_symbol
_atom_site_label
_atom_site_fract_x
_atom_site_fract_y
_atom_site_fract_z
Si Si1 0.101772 0.115346 0.936968
Si Si2 0.382389 0.749122 0.279911
Si Si3 0.824160 0.337117 0.192880
Si Si4 0.902797 0.759512 0.542294
Si Si5 0.267552 0.617390 0.214896
Si Si6 0.437638 0.062003 0.692843
Si Si7 0.284173 0.271149 0.978073
O O1 0.999006 0.961556 0.245258
O O2 0.026168 0.316964 0.930926
O O3 0.000000 0.000000 0.000000
O O4 0.319277 0.128952 0.689920
O O5 0.225762 0.732582 0.574129
O O6 0.336053 0.656639 0.250556
O O7 0.512437 0.621973 0.258150
O O8 0.500000 0.000000 0.000000
O O9 0.656053 0.182713 0.391024
O O10 0.802066 0.564701 0.071145
O O11 0.749797 0.600187 0.719606
O O12 0.834075 0.821534 0.717018
O O13 0.057396 0.640914 0.453498
O O14 0.389708 0.811022 0.889176
O O15 0.334944 0.119366 0.902173
#
# Coordination Sequence:
#
# PCOD9027798 Si02
#       7
#     2   2   2   2   2   2   2
#     4  11  27  45  69  97 136 179 230 272 341 405
#     4  11  20  41  70  99 129 175 227 274 332 404
#     4  11  25  43  67 101 138 172 225 285 332 390
#     4  10  25  43  65  98 134 176 222 276 338 398
#     4  10  22  41  69  93 138 172 226 276 333 395
#     4  10  23  45  69 100 134 176 224 281 334 399
#     4  11  24  42  67 102 136 172 227 273 341 400
#
# _framework density 26.629709999999999
#
# number of rings (size 3 to 8) (size 9 to 14) (size 15 to 20)
#    0.000    1.429    2.857    2.571    8.000    5.143 
#    0.000    0.000    0.000    0.000    0.000    0.000 
#    0.000    0.000    0.000    0.000    0.000    0.000 
#
# Total GULP energy -78435.408109 kJ/mol
# GULP energy per Si atom -5602.529151 kJ/mol
# Density = 2.656910 g / cm^3
# Si number density = 26.629710 Si / 1000 Ang^3
#
#
#
# Elastic Constant Matrix: (Units=GPa)
#
#
# Indices 1 2 3 4 5 6 
#
# 1 184.1103 41.1573 42.3969 9.0267 -22.4058 10.0758
# 2 41.1573 71.5278 16.4725 -12.7642 -0.9517 -2.8719
# 3 42.3969 16.4725 70.9631 -3.6390 -1.6624 10.8206
# 4 9.0267 -12.7642 -3.6390 41.8755 12.3101 0.4656
# 5 -22.4058 -0.9517 -1.6624 12.3101 55.8068 -0.6988
# 6 10.0758 -2.8719 10.8206 0.4656 -0.6988 42.2278
#
#
#
# Elastic Compliance Matrix: (Units=1/GPa)
#
#
# Indices 1 2 3 4 5 6 
#
# 1 0.008121 -0.004639 -0.003740 -0.004678 0.004087 -0.001176
# 2 -0.004639 0.018398 -0.001597 0.007378 -0.003191 0.002633
# 3 -0.003740 -0.001597 0.017346 0.002330 -0.001573 -0.003713
# 4 -0.004678 0.007378 0.002330 0.029756 -0.008240 0.000556
# 5 0.004087 -0.003191 -0.001573 -0.008240 0.021272 -0.000346
# 6 -0.001176 0.002633 -0.003713 0.000556 -0.000346 0.025080
#
#
# Mechanical properties :
#
#
# Convention : Reuss Voigt Hill
#
# Bulk Modulus (GPa) = 41.81925 58.51718 50.16822
# Shear Modulus (GPa) = 33.80787 43.08699 38.44743
#
# Velocity S-wave (km/s) = 3.56695 4.02681 3.80383
# Velocity P-wave (km/s) = 5.71859 6.60623 6.17837
#
# Compressibility (1/GPa) = 0.02391243
#
# Stress axis : x y z
#
# Youngs Moduli (GPa) = 123.13938 54.35505 57.65142
#
# Poissons Ratio (x) = 0.25216 0.21561
# Poissons Ratio (y) = 0.57126 0.09206
# Poissons Ratio (z) = 0.46052 0.08680
#
# Static dielectric constant tensor:
#      x y z
#    x 2.143280 0.026200 -0.065040 
#    y 0.026200 2.119940 0.022950 
#    z -0.065040 0.022950 2.088950 
# 
# From -- ./inp_files/153740.got.cif
#   From: 2010.05.17/outbox.cif.g08.bks.cpg/sg2_77_cif.got.tgz:153740.got - 2010.06.03 11:33:40.
