data_PCOD9027301
_publ_section_title
;
Structure prediction by ZEFSAII (Michael W. Deem and Ramdas Pophale) SiO2 
 PCOD9027301
Probable space group: P -1
;
_chemical_formula_sum "Si O2"
_cell_formula_units_Z 12
_cell_length_a 6.970771
_cell_length_b 18.734851
_cell_length_c 7.223255
_cell_angle_alpha 116.721038
_cell_angle_beta 41.050749
_cell_angle_gamma 121.533846
_cell_volume 525.451458
_symmetry_space_group_name_H-M "P -1"
_symmetry_group_IT_number 2
_symmetry_cell_setting 'triclinic'
loop_
_space_group_symop_operation_xyz
x,y,z
-x,-y,-z
loop_
_atom_site_type_symbol
_atom_site_label
_atom_site_fract_x
_atom_site_fract_y
_atom_site_fract_z
Si Si1 0.576181 0.415454 0.403149
Si Si2 0.475290 0.811513 0.305543
Si Si3 0.425905 0.110186 0.285141
Si Si4 0.740062 0.079882 0.679794
Si Si5 0.173771 0.293350 0.259654
Si Si6 0.246477 0.416993 0.010766
O O1 0.500000 0.500000 0.500000
O O2 0.436079 0.345685 0.269012
O O3 0.939062 0.434710 0.186831
O O4 0.404476 0.385705 0.687718
O O5 0.524395 0.827613 0.506537
O O6 0.429175 0.892128 0.332524
O O7 0.150819 0.737966 0.436721
O O8 0.739235 0.784677 0.981059
O O9 0.102751 0.101905 0.412406
O O10 0.391834 0.018466 0.289646
O O11 0.683043 0.128435 0.961898
O O12 0.158595 0.351947 0.166744
O O13 0.500000 0.500000 0.000000
#
# Coordination Sequence:
#
# PCOD9027301 Si02
#       6
#     2   2   2   2   2   2
#     4  12  26  45  72  95 128 169 221 277 327 390
#     4  12  25  42  64  96 138 168 214 268 326 390
#     4  10  22  41  67  95 128 173 219 262 317 382
#     4  10  22  41  67  95 128 173 219 262 317 382
#     4  12  28  42  65 100 130 174 216 266 337 388
#     4  12  26  45  72  95 128 169 221 277 327 390
#
# _framework density 22.837506999999999
#
# number of rings (size 3 to 8) (size 9 to 14) (size 15 to 20)
#    0.000    0.667    1.667    5.500    2.333    8.000 
#    0.000    6.667    0.000    0.000    0.000    0.000 
#    0.000    0.000    0.000    0.000    0.000    0.000 
#
# Total GULP energy -67242.062415 kJ/mol
# GULP energy per Si atom -5603.505201 kJ/mol
# Density = 2.278553 g / cm^3
# Si number density = 22.837507 Si / 1000 Ang^3
#
#
#
# Elastic Constant Matrix: (Units=GPa)
#
#
# Indices 1 2 3 4 5 6 
#
# 1 75.1456 9.4127 9.6577 3.5137 -0.8042 4.0947
# 2 9.4127 24.1371 2.2473 5.9125 -2.5828 2.1063
# 3 9.6577 2.2473 92.0788 3.2899 4.3196 3.8538
# 4 3.5137 5.9125 3.2899 34.8001 11.5506 5.4048
# 5 -0.8042 -2.5828 4.3196 11.5506 34.3726 4.9635
# 6 4.0947 2.1063 3.8538 5.4048 4.9635 33.4775
#
#
#
# Elastic Compliance Matrix: (Units=1/GPa)
#
#
# Indices 1 2 3 4 5 6 
#
# 1 0.014216 -0.005175 -0.001318 -0.000374 0.000417 -0.001263
# 2 -0.005175 0.046674 -0.000510 -0.009360 0.006848 -0.001749
# 3 -0.001318 -0.000510 0.011115 -0.000284 -0.001247 -0.000855
# 4 -0.000374 -0.009360 -0.000284 0.034844 -0.011925 -0.003190
# 5 0.000417 0.006848 -0.001247 -0.011925 0.034286 -0.003497
# 6 -0.001263 -0.001749 -0.000855 -0.003190 -0.003497 0.031267
#
#
# Mechanical properties :
#
#
# Convention : Reuss Voigt Hill
#
# Bulk Modulus (GPa) = 17.24146 25.99967 21.62057
# Shear Modulus (GPa) = 24.30243 31.86630 28.08437
#
# Velocity S-wave (km/s) = 3.26566 3.73949 3.51058
# Velocity P-wave (km/s) = 4.66749 5.48219 5.09116
#
# Compressibility (1/GPa) = 0.05799973
#
# Stress axis : x y z
#
# Youngs Moduli (GPa) = 70.34412 21.42531 89.96511
#
# Poissons Ratio (x) = 0.11087 0.11858
# Poissons Ratio (y) = 0.36400 0.04588
# Poissons Ratio (z) = 0.09272 0.01093
#
# Static dielectric constant tensor:
#      x y z
#    x 1.821520 -0.008780 0.014670 
#    y -0.008780 1.838280 0.008340 
#    z 0.014670 0.008340 1.798480 
# 
# From -- ./inp_files/6119.got.cif
#   From: 2010.05.17/outbox.cif.g08.bks.cpg/sg2_4_cif.got.tgz:6119.got - 2010.06.03 11:33:40.
