data_PCOD9027396
_publ_section_title
;
Structure prediction by ZEFSAII (Michael W. Deem and Ramdas Pophale) SiO2 
 PCOD9027396
Probable space group: P -1
;
_chemical_formula_sum "Si O2"
_cell_formula_units_Z 16
_cell_length_a 9.232101
_cell_length_b 11.841952
_cell_length_c 8.949490
_cell_angle_alpha 96.764181
_cell_angle_beta 48.404830
_cell_angle_gamma 96.268367
_cell_volume 725.983745
_symmetry_space_group_name_H-M "P -1"
_symmetry_group_IT_number 2
_symmetry_cell_setting 'triclinic'
loop_
_space_group_symop_operation_xyz
x,y,z
-x,-y,-z
loop_
_atom_site_type_symbol
_atom_site_label
_atom_site_fract_x
_atom_site_fract_y
_atom_site_fract_z
Si Si1 0.584593 0.342545 0.625821
Si Si2 0.193324 0.042763 0.743688
Si Si3 0.451878 0.822183 0.953972
Si Si4 0.025007 0.312383 0.409455
Si Si5 0.047622 0.889465 0.354783
Si Si6 0.421978 0.436249 0.191587
Si Si7 0.738152 0.815650 0.999025
Si Si8 0.586526 0.160033 0.364262
O O1 0.530383 0.473748 0.695557
O O2 0.427107 0.264348 0.816123
O O3 0.594807 0.286454 0.446305
O O4 0.799163 0.336506 0.550739
O O5 0.179782 0.092380 0.926571
O O6 0.389301 0.101858 0.552171
O O7 0.031855 0.085066 0.750748
O O8 0.239563 0.910596 0.697505
O O9 0.482524 0.686259 0.896060
O O10 0.425468 0.857348 0.806945
O O11 0.269193 0.858895 0.179385
O O12 0.634282 0.868612 0.933988
O O13 0.189639 0.410407 0.343040
O O14 0.047109 0.219819 0.511954
O O15 0.098775 0.260055 0.194975
O O16 0.000000 0.000000 0.500000
O O17 0.500000 0.500000 0.000000
#
# Coordination Sequence:
#
# PCOD9027396 Si02
#       8
#     2   2   2   2   2   2   2   2
#     4  11  21  42  67  99 134 176 229 274 334 395
#     4  10  23  41  66  94 133 180 218 276 344 394
#     4  11  24  42  62  97 133 171 223 279 327 398
#     4  11  22  40  70 100 133 178 224 274 339 394
#     4  12  26  42  66 101 142 173 227 275 331 410
#     4  11  21  42  70  96 131 178 225 281 335 395
#     4  10  22  41  67  98 134 175 227 271 331 409
#     4  10  24  41  65  93 135 174 227 279 332 401
#
# _framework density 22.039061
#
# number of rings (size 3 to 8) (size 9 to 14) (size 15 to 20)
#    0.000    1.250    3.750    2.625    7.000    1.500 
#    0.000    0.000    0.000    3.000    0.000    0.000 
#    0.000    0.000    0.000    0.000    0.000    0.000 
#
# Total GULP energy -89424.909117 kJ/mol
# GULP energy per Si atom -5589.056820 kJ/mol
# Density = 2.198890 g / cm^3
# Si number density = 22.039061 Si / 1000 Ang^3
#
#
#
# Elastic Constant Matrix: (Units=GPa)
#
#
# Indices 1 2 3 4 5 6 
#
# 1 75.4914 33.1099 18.9717 7.6876 5.2393 0.5518
# 2 33.1099 87.7718 33.1155 18.4918 6.2674 13.5565
# 3 18.9717 33.1155 108.0908 7.9558 -1.1236 4.2007
# 4 7.6876 18.4918 7.9558 43.3366 2.9299 4.7736
# 5 5.2393 6.2674 -1.1236 2.9299 45.2130 10.1513
# 6 0.5518 13.5565 4.2007 4.7736 10.1513 36.1830
#
#
#
# Elastic Compliance Matrix: (Units=1/GPa)
#
#
# Indices 1 2 3 4 5 6 
#
# 1 0.016258 -0.005921 -0.001134 -0.000325 -0.001656 0.002610
# 2 -0.005921 0.016800 -0.003554 -0.004889 -0.000276 -0.005069
# 3 -0.001134 -0.003554 0.010573 -0.000275 0.000928 -0.000103
# 4 -0.000325 -0.004889 -0.000275 0.025457 -0.000647 -0.001308
# 5 -0.001656 -0.000276 0.000928 -0.000647 0.023894 -0.006597
# 6 0.002610 -0.005069 -0.000103 -0.001308 -0.006597 0.031532
#
#
# Mechanical properties :
#
#
# Convention : Reuss Voigt Hill
#
# Bulk Modulus (GPa) = 44.61785 49.08311 46.85048
# Shear Modulus (GPa) = 32.63628 37.35697 34.99663
#
# Velocity S-wave (km/s) = 3.85234 4.12155 3.98922
# Velocity P-wave (km/s) = 6.33058 6.70588 6.52093
#
# Compressibility (1/GPa) = 0.02241255
#
# Stress axis : x y z
#
# Youngs Moduli (GPa) = 61.50996 59.52254 94.57895
#
# Poissons Ratio (x) = 0.35245 0.10726
# Poissons Ratio (y) = 0.36422 0.33612
# Poissons Ratio (z) = 0.06976 0.21153
#
# Static dielectric constant tensor:
#      x y z
#    x 1.811200 0.013670 -0.007770 
#    y 0.013670 1.825940 0.003710 
#    z -0.007770 0.003710 1.840060 
# 
# From -- ./inp_files/187306.got.cif
#   From: 2010.05.17/outbox.cif.g08.bks.cpg/sg2_94_cif.got.tgz:187306.got - 2010.06.03 11:33:40.
