data_PCOD9027279
_publ_section_title
;
Structure prediction by ZEFSAII (Michael W. Deem and Ramdas Pophale) SiO2 
 PCOD9027279
Probable space group: P -1
;
_chemical_formula_sum "Si O2"
_cell_formula_units_Z 16
_cell_length_a 12.675463
_cell_length_b 15.593975
_cell_length_c 15.439767
_cell_angle_alpha 27.919775
_cell_angle_beta 140.851837
_cell_angle_gamma 122.157587
_cell_volume 771.917656
_symmetry_space_group_name_H-M "P -1"
_symmetry_group_IT_number 2
_symmetry_cell_setting 'triclinic'
loop_
_space_group_symop_operation_xyz
x,y,z
-x,-y,-z
loop_
_atom_site_type_symbol
_atom_site_label
_atom_site_fract_x
_atom_site_fract_y
_atom_site_fract_z
Si Si1 0.129918 0.391782 0.265822
Si Si2 0.538916 0.095502 0.854140
Si Si3 0.201534 0.741567 0.088040
Si Si4 0.046286 0.877752 0.545389
Si Si5 0.915652 0.720146 0.337332
Si Si6 0.093799 0.000038 0.193213
Si Si7 0.604568 0.267223 0.228456
Si Si8 0.777283 0.726084 0.062371
O O1 0.356017 0.191833 0.585181
O O2 0.016119 0.297847 0.328578
O O3 0.161694 0.564866 0.181141
O O4 0.000000 0.500000 0.000000
O O5 0.591297 0.274096 0.754828
O O6 0.500000 0.000000 0.000000
O O7 0.738319 0.901339 0.116539
O O8 0.086960 0.942618 0.769828
O O9 0.100177 0.806002 0.060169
O O10 0.265571 0.764605 0.746281
O O11 0.000000 0.000000 0.500000
O O12 0.814888 0.676987 0.231520
O O13 0.043268 0.820933 0.295508
O O14 0.061865 0.500695 0.675392
O O15 0.248419 0.897537 0.460485
O O16 0.179420 0.089783 0.098168
O O17 0.500000 0.500000 0.000000
O O18 0.436745 0.216895 0.147485
#
# Coordination Sequence:
#
# PCOD9027279 Si02
#       8
#     2   2   2   2   2   2   2   2
#     4  12  25  43  68  98 135 177 225 271 338 401
#     4  11  24  42  70  95 135 175 218 279 337 399
#     4  10  23  41  65  98 130 174 229 269 334 403
#     4  11  24  45  67  96 144 177 216 286 336 396
#     4  10  24  44  62  97 131 167 222 272 334 398
#     4  10  22  41  67  94 131 170 220 279 327 394
#     4  11  24  42  67 100 133 174 229 269 333 400
#     4  11  23  42  68  90 132 174 217 273 335 391
#
# _framework density 20.727599999999999
#
# number of rings (size 3 to 8) (size 9 to 14) (size 15 to 20)
#    0.000    1.250    3.750    1.125    5.250    0.000 
#    2.250    1.250    0.000    0.000    0.000    0.000 
#    0.000    0.000    0.000    0.000    0.000    0.000 
#
# Total GULP energy -89248.440019 kJ/mol
# GULP energy per Si atom -5578.027501 kJ/mol
# Density = 2.068042 g / cm^3
# Si number density = 20.727600 Si / 1000 Ang^3
#
#
#
# Elastic Constant Matrix: (Units=GPa)
#
#
# Indices 1 2 3 4 5 6 
#
# 1 79.0759 16.2831 30.4602 3.8262 6.3745 15.4841
# 2 16.2831 81.3529 24.2606 14.9839 5.4223 11.2472
# 3 30.4602 24.2606 79.8779 10.1509 7.9096 13.1683
# 4 3.8262 14.9839 10.1509 43.6126 5.9276 1.1447
# 5 6.3745 5.4223 7.9096 5.9276 20.9851 -3.6703
# 6 15.4841 11.2472 13.1683 1.1447 -3.6703 37.0019
#
#
#
# Elastic Compliance Matrix: (Units=1/GPa)
#
#
# Indices 1 2 3 4 5 6 
#
# 1 0.015916 -0.000959 -0.004629 0.000680 -0.003932 -0.005132
# 2 -0.000959 0.014616 -0.002886 -0.003937 -0.001823 -0.003074
# 3 -0.004629 -0.002886 0.016343 -0.001761 -0.004097 -0.003354
# 4 0.000680 -0.003937 -0.001761 0.025397 -0.005666 0.000192
# 5 -0.003932 -0.001823 -0.004097 -0.005666 0.054071 0.009196
# 6 -0.005132 -0.003074 -0.003354 0.000192 0.009196 0.032207
#
#
# Mechanical properties :
#
#
# Convention : Reuss Voigt Hill
#
# Bulk Modulus (GPa) = 33.41378 42.47940 37.94659
# Shear Modulus (GPa) = 26.95783 31.60676 29.28230
#
# Velocity S-wave (km/s) = 3.61026 3.90919 3.76269
# Velocity P-wave (km/s) = 5.79086 6.39643 6.10116
#
# Compressibility (1/GPa) = 0.02992777
#
# Stress axis : x y z
#
# Youngs Moduli (GPa) = 62.83128 68.41664 61.18712
#
# Poissons Ratio (x) = 0.06559 0.28323
# Poissons Ratio (y) = 0.06024 0.17659
# Poissons Ratio (z) = 0.29084 0.19746
#
# Static dielectric constant tensor:
#      x y z
#    x 1.757630 -0.033260 0.045790 
#    y -0.033260 1.778260 -0.054450 
#    z 0.045790 -0.054450 1.811080 
# 
# From -- ./inp_files/447193.got.cif
#   From: 2010.05.17/outbox.cif.g08.bks.cpg/sg2_224_cif.got.tgz:447193.got - 2010.06.03 11:33:40.
