data_PCOD9027374
_publ_section_title
;
Structure prediction by ZEFSAII (Michael W. Deem and Ramdas Pophale) SiO2 
 PCOD9027374
Probable space group: P -1
;
_chemical_formula_sum "Si O2"
_cell_formula_units_Z 16
_cell_length_a 9.640198
_cell_length_b 16.353525
_cell_length_c 8.246904
_cell_angle_alpha 81.649681
_cell_angle_beta 105.148600
_cell_angle_gamma 146.727712
_cell_volume 681.872079
_symmetry_space_group_name_H-M "P -1"
_symmetry_group_IT_number 2
_symmetry_cell_setting 'triclinic'
loop_
_space_group_symop_operation_xyz
x,y,z
-x,-y,-z
loop_
_atom_site_type_symbol
_atom_site_label
_atom_site_fract_x
_atom_site_fract_y
_atom_site_fract_z
Si Si1 0.778565 0.868713 0.248790
Si Si2 0.380604 0.932829 0.803846
Si Si3 0.105573 0.175924 0.374739
Si Si4 0.289657 0.401550 0.201982
Si Si5 0.851799 0.236176 0.682361
Si Si6 0.217197 0.282657 0.893238
Si Si7 0.162568 0.611808 0.170627
Si Si8 0.950396 0.356994 0.330887
O O1 0.833913 0.835036 0.429752
O O2 0.814999 0.829139 0.114004
O O3 0.476823 0.754236 0.204539
O O4 0.988062 0.042996 0.274903
O O5 0.302665 0.799020 0.799945
O O6 0.127263 0.867712 0.700877
O O7 0.585194 0.062964 0.697208
O O8 0.500000 0.000000 0.000000
O O9 0.355387 0.349845 0.339742
O O10 0.491067 0.552198 0.115797
O O11 0.172046 0.410375 0.289351
O O12 0.137242 0.280674 0.043466
O O13 0.901752 0.325855 0.815955
O O14 0.875842 0.296319 0.506205
O O15 0.054041 0.259297 0.726494
O O16 0.049560 0.497240 0.307571
O O17 0.000000 0.500000 0.000000
#
# Coordination Sequence:
#
# PCOD9027374 Si02
#       8
#     2   2   2   2   2   2   2   2
#     4  11  24  44  72  97 139 181 228 286 346 413
#     4  11  22  44  72 103 142 182 228 286 344 411
#     4  10  23  44  70  99 137 183 225 280 351 412
#     4  10  22  41  67  97 134 175 233 280 337 409
#     4  12  25  42  69 104 139 179 232 283 349 417
#     4  11  23  41  68 100 132 182 232 282 342 411
#     4  12  25  46  69 101 139 181 234 291 350 404
#     4  11  24  42  68  98 134 182 228 284 350 405
#
# _framework density 23.464812999999999
#
# number of rings (size 3 to 8) (size 9 to 14) (size 15 to 20)
#    0.000    1.000    2.500    5.250    3.500    1.500 
#    0.000    0.000    0.000    0.000    0.000    0.000 
#    0.000    0.000    0.000    0.000    0.000    0.000 
#
# Total GULP energy -89254.765142 kJ/mol
# GULP energy per Si atom -5578.422821 kJ/mol
# Density = 2.341141 g / cm^3
# Si number density = 23.464813 Si / 1000 Ang^3
#
#
#
# Elastic Constant Matrix: (Units=GPa)
#
#
# Indices 1 2 3 4 5 6 
#
# 1 43.1921 4.1754 14.0960 59.5906 0.0089 -63.7436
# 2 4.1754 55.2968 0.8603 29.2079 -9.8357 -49.6768
# 3 14.0960 0.8603 69.9456 -1.7797 -9.8157 19.1231
# 4 59.5906 29.2079 -1.7797 -20.4288 -20.1772 56.9459
# 5 0.0089 -9.8357 -9.8157 -20.1772 28.0375 13.7262
# 6 -63.7436 -49.6768 19.1231 56.9459 13.7262 -22.0295
#
#
#
# Elastic Compliance Matrix: (Units=1/GPa)
#
#
# Indices 1 2 3 4 5 6 
#
# 1 0.010991 -0.007232 -0.000117 0.003198 0.002535 -0.005750
# 2 -0.007232 0.020178 0.001885 0.007716 0.011309 0.004053
# 3 -0.000117 0.001885 0.014865 -0.004576 0.003035 -0.000946
# 4 0.003198 0.007716 -0.004576 0.017704 0.004929 0.018211
# 5 0.002535 0.011309 0.003035 0.004929 0.040452 0.007743
# 6 -0.005750 0.004053 -0.000946 0.018211 0.007743 0.013186
#
#
# Mechanical properties :
#
#
# Convention : Reuss Voigt Hill
#
# Bulk Modulus (GPa) = 28.48539 22.96642 25.72591
# Shear Modulus (GPa) = 35.71269 7.06934 21.39101
#
# Velocity S-wave (km/s) = 3.90547 1.73761 3.02258
# Velocity P-wave (km/s) = 5.70113 3.71948 4.81339
#
# Compressibility (1/GPa) = 0.03510571
#
# Stress axis : x y z
#
# Youngs Moduli (GPa) = 90.98392 49.55925 67.27050
#
# Poissons Ratio (x) = 0.35842 0.00786
# Poissons Ratio (y) = 0.65801 -0.12679
# Poissons Ratio (z) = 0.01063 -0.09341
#
# Static dielectric constant tensor:
#      x y z
#    x 1.895840 0.092410 -0.003180 
#    y 0.092410 2.121200 -0.022390 
#    z -0.003180 -0.022390 1.975920 
# 
# From -- ./inp_files/207091.got.cif
#   From: 2010.05.17/outbox.cif.g08.bks.cpg/sg2_104_cif.got.tgz:207091.got - 2010.06.03 11:33:40.
