data_PCOD9027610
_publ_section_title
;
Structure prediction by ZEFSAII (Michael W. Deem and Ramdas Pophale) SiO2 
 PCOD9027610
Probable space group: P -1
;
_chemical_formula_sum "Si O2"
_cell_formula_units_Z 13
_cell_length_a 5.030802
_cell_length_b 12.422459
_cell_length_c 14.568982
_cell_angle_alpha 42.975318
_cell_angle_beta 77.447257
_cell_angle_gamma 58.216718
_cell_volume 504.925783
_symmetry_space_group_name_H-M "P -1"
_symmetry_group_IT_number 2
_symmetry_cell_setting 'triclinic'
loop_
_space_group_symop_operation_xyz
x,y,z
-x,-y,-z
loop_
_atom_site_type_symbol
_atom_site_label
_atom_site_fract_x
_atom_site_fract_y
_atom_site_fract_z
Si Si1 0.000000 0.000000 0.500000
Si Si2 0.152730 0.313926 0.239421
Si Si3 0.095554 0.462082 0.714226
Si Si4 0.668266 0.128191 0.998713
Si Si5 0.541166 0.640699 0.969173
Si Si6 0.233293 0.762549 0.443122
Si Si7 0.208850 0.210483 0.701571
O O1 0.922987 0.085380 0.558483
O O2 0.077675 0.159481 0.365086
O O3 0.197567 0.392983 0.283690
O O4 0.858591 0.501095 0.094585
O O5 0.423262 0.237926 0.187481
O O6 0.382425 0.283219 0.859459
O O7 0.242736 0.579464 0.593340
O O8 0.017625 0.371517 0.692894
O O9 0.720841 0.232192 0.014452
O O10 0.577932 0.990030 0.137379
O O11 0.000000 0.000000 0.000000
O O12 0.500000 0.500000 0.000000
O O13 0.565973 0.741777 0.401657
O O14 0.025125 0.808408 0.337444
#
# Coordination Sequence:
#
# PCOD9027610 Si02
#       7
#     1   2   2   2   2   2   2
#     4  10  22  46  68 100 140 180 246 292 360 428
#     4   9  21  43  67  96 136 181 234 291 351 424
#     4  10  23  46  68 103 142 190 236 297 360 432
#     4  11  25  43  70 106 142 188 239 303 355 426
#     4  10  22  41  68  96 136 182 233 287 360 424
#     4  11  26  46  73 103 144 192 235 300 362 435
#     4  12  25  45  71 104 145 186 242 293 366 427
#
# _framework density 25.746359000000002
#
# number of rings (size 3 to 8) (size 9 to 14) (size 15 to 20)
#    0.000    1.538    0.000    3.231    4.308    1.846 
#   16.615    0.000    0.000    0.000    0.000    0.000 
#    0.000    0.000    0.000    0.000    0.000    0.000 
#
# Total GULP energy -72580.197196 kJ/mol
# GULP energy per Si atom -5583.092092 kJ/mol
# Density = 2.568776 g / cm^3
# Si number density = 25.746359 Si / 1000 Ang^3
#
#
#
# Elastic Constant Matrix: (Units=GPa)
#
#
# Indices 1 2 3 4 5 6 
#
# 1 48.9060 37.8108 0.7247 6.3136 8.1785 9.9172
# 2 37.8108 249.0947 28.1386 24.7156 4.6450 41.7447
# 3 0.7247 28.1386 145.9359 -3.1755 -1.7171 0.2847
# 4 6.3136 24.7156 -3.1755 41.4163 0.2426 -7.5335
# 5 8.1785 4.6450 -1.7171 0.2426 27.2303 0.1610
# 6 9.9172 41.7447 0.2847 -7.5335 0.1610 31.4145
#
#
#
# Elastic Compliance Matrix: (Units=1/GPa)
#
#
# Indices 1 2 3 4 5 6 
#
# 1 0.025039 -0.002469 0.000209 -0.003263 -0.007025 -0.005372
# 2 -0.002469 0.006652 -0.001374 -0.005395 -0.000376 -0.009339
# 3 0.000209 -0.001374 0.007156 0.001716 0.000595 0.002104
# 4 -0.003263 -0.005395 0.001716 0.030816 0.001642 0.015566
# 5 -0.007025 -0.000376 0.000595 0.001642 0.038904 0.002907
# 6 -0.005372 -0.009339 0.002104 0.015566 0.002907 0.049638
#
#
# Mechanical properties :
#
#
# Convention : Reuss Voigt Hill
#
# Bulk Modulus (GPa) = 31.66762 64.14274 47.90518
# Shear Modulus (GPa) = 28.40918 45.16303 36.78611
#
# Velocity S-wave (km/s) = 3.32539 4.19280 3.78403
# Velocity P-wave (km/s) = 5.20296 6.95751 6.14320
#
# Compressibility (1/GPa) = 0.03157800
#
# Stress axis : x y z
#
# Youngs Moduli (GPa) = 39.93812 150.32932 139.73408
#
# Poissons Ratio (x) = 0.37120 -0.02915
# Poissons Ratio (y) = 0.09862 0.19199
# Poissons Ratio (z) = -0.00833 0.20655
#
# Static dielectric constant tensor:
#      x y z
#    x 2.039100 -0.011540 0.022310 
#    y -0.011540 2.111670 0.017130 
#    z 0.022310 0.017130 2.028810 
# 
# From -- ./inp_files/368490.got.cif
#   From: 2010.05.17/outbox.cif.g08.bks.cpg/sg2_185_cif.got.tgz:368490.got - 2010.06.03 11:33:40.
