data_PCOD9027630
_publ_section_title
;
Structure prediction by ZEFSAII (Michael W. Deem and Ramdas Pophale) SiO2 
 PCOD9027630
Probable space group: P -1
;
_chemical_formula_sum "Si O2"
_cell_formula_units_Z 12
_cell_length_a 5.728388
_cell_length_b 18.226282
_cell_length_c 7.161459
_cell_angle_alpha 47.627556
_cell_angle_beta 110.364530
_cell_angle_gamma 95.727638
_cell_volume 507.973167
_symmetry_space_group_name_H-M "P -1"
_symmetry_group_IT_number 2
_symmetry_cell_setting 'triclinic'
loop_
_space_group_symop_operation_xyz
x,y,z
-x,-y,-z
loop_
_atom_site_type_symbol
_atom_site_label
_atom_site_fract_x
_atom_site_fract_y
_atom_site_fract_z
Si Si1 0.229633 0.377496 0.404525
Si Si2 0.455782 0.115094 0.232000
Si Si3 0.670924 0.289038 0.963529
Si Si4 0.797458 0.762120 0.701754
Si Si5 0.781066 0.936974 0.109732
Si Si6 0.300713 0.578773 0.923558
O O1 0.300852 0.312220 0.345660
O O2 0.208852 0.498062 0.175831
O O3 0.447718 0.338958 0.679060
O O4 0.934955 0.368207 0.360919
O O5 0.685180 0.168719 0.145094
O O6 0.365784 0.177109 0.285845
O O7 0.500000 0.000000 0.500000
O O8 0.274501 0.121435 0.992760
O O9 0.960634 0.301148 0.012533
O O10 0.603236 0.340204 0.059567
O O11 0.871175 0.850939 0.437300
O O12 0.500000 0.000000 0.000000
O O13 0.000000 0.000000 0.000000
O O14 0.500000 0.500000 0.000000
#
# Coordination Sequence:
#
# PCOD9027630 Si02
#       6
#     2   2   2   2   2   2
#     4  10  22  43  66  99 139 178 237 296 365 433
#     4  12  25  43  70 100 144 190 245 295 364 431
#     4  11  24  42  67 101 137 188 238 293 369 432
#     4  11  25  44  68 102 143 187 241 302 359 439
#     4  12  27  47  74 104 147 199 249 309 367 432
#     4  10  22  41  68  97 136 178 232 299 361 440
#
# _framework density 23.623294999999999
#
# number of rings (size 3 to 8) (size 9 to 14) (size 15 to 20)
#    0.000    1.000    3.333    2.500    2.333    3.333 
#    0.000    0.000    0.000    0.000    0.000    0.000 
#    0.000    0.000    0.000    0.000    0.000    0.000 
#
# Total GULP energy -66858.438292 kJ/mol
# GULP energy per Si atom -5571.536524 kJ/mol
# Density = 2.356953 g / cm^3
# Si number density = 23.623295 Si / 1000 Ang^3
#
#
#
# Elastic Constant Matrix: (Units=GPa)
#
#
# Indices 1 2 3 4 5 6 
#
# 1 54.2784 44.5354 29.4467 9.0670 13.6860 3.6201
# 2 44.5354 162.7338 19.9801 -0.3711 9.4600 20.2154
# 3 29.4467 19.9801 107.1181 9.4177 40.8524 24.5959
# 4 9.0670 -0.3711 9.4177 44.1820 6.6828 7.8940
# 5 13.6860 9.4600 40.8524 6.6828 39.0431 -1.2257
# 6 3.6201 20.2154 24.5959 7.8940 -1.2257 45.3284
#
#
#
# Elastic Compliance Matrix: (Units=1/GPa)
#
#
# Indices 1 2 3 4 5 6 
#
# 1 0.029640 -0.008029 -0.008182 -0.005803 0.001320 0.006700
# 2 -0.008029 0.008828 0.002477 0.002491 -0.002504 -0.005142
# 3 -0.008182 0.002477 0.022484 0.002710 -0.022152 -0.013722
# 4 -0.005803 0.002491 0.002710 0.025365 -0.005957 -0.006697
# 5 0.001320 -0.002504 -0.022152 -0.005957 0.050439 0.015433
# 6 0.006700 -0.005142 -0.013722 -0.006697 0.015433 0.032849
#
#
# Mechanical properties :
#
#
# Convention : Reuss Voigt Hill
#
# Bulk Modulus (GPa) = 29.86540 56.89496 43.38018
# Shear Modulus (GPa) = 24.01141 41.05524 32.53333
#
# Velocity S-wave (km/s) = 3.19161 4.17335 3.71505
# Velocity P-wave (km/s) = 5.12363 6.88179 6.06674
#
# Compressibility (1/GPa) = 0.03348356
#
# Stress axis : x y z
#
# Youngs Moduli (GPa) = 33.73823 113.27335 44.47693
#
# Poissons Ratio (x) = 0.90950 0.36391
# Poissons Ratio (y) = 0.27089 -0.11018
# Poissons Ratio (z) = 0.27605 -0.28061
#
# Static dielectric constant tensor:
#      x y z
#    x 2.177940 0.024630 -0.092740 
#    y 0.024630 1.754040 -0.143140 
#    z -0.092740 -0.143140 1.926550 
# 
# From -- ./inp_files/7271.got.cif
#   From: 2010.05.17/outbox.cif.g08.bks.cpg/sg2_4_cif.got.tgz:7271.got - 2010.06.03 11:33:40.
