data_PCOD9027263
_publ_section_title
;
Structure prediction by ZEFSAII (Michael W. Deem and Ramdas Pophale) SiO2 
 PCOD9027263
Probable space group: P -1
;
_chemical_formula_sum "Si O2"
_cell_formula_units_Z 14
_cell_length_a 15.336888
_cell_length_b 5.498560
_cell_length_c 9.289244
_cell_angle_alpha 94.836246
_cell_angle_beta 50.216773
_cell_angle_gamma 97.230315
_cell_volume 597.202304
_symmetry_space_group_name_H-M "P -1"
_symmetry_group_IT_number 2
_symmetry_cell_setting 'triclinic'
loop_
_space_group_symop_operation_xyz
x,y,z
-x,-y,-z
loop_
_atom_site_type_symbol
_atom_site_label
_atom_site_fract_x
_atom_site_fract_y
_atom_site_fract_z
Si Si1 0.241924 0.394423 0.291885
Si Si2 0.952045 0.855141 0.682928
Si Si3 0.596426 0.916044 0.789089
Si Si4 0.537438 0.941066 0.299761
Si Si5 0.589411 0.429235 0.119415
Si Si6 0.118889 0.592676 0.691230
Si Si7 0.930207 0.166717 0.976411
O O1 0.130872 0.363557 0.306717
O O2 0.286900 0.126433 0.260731
O O3 0.211278 0.492066 0.484890
O O4 0.335158 0.543878 0.101906
O O5 0.055643 0.771471 0.662788
O O6 0.885946 0.010110 0.877288
O O7 0.000000 0.000000 0.500000
O O8 0.579141 0.071992 0.673910
O O9 0.542578 0.642687 0.787479
O O10 0.500000 0.000000 0.000000
O O11 0.610901 0.185706 0.173982
O O12 0.500000 0.000000 0.500000
O O13 0.595756 0.690434 0.205051
O O14 0.021444 0.376231 0.825815
O O15 0.152667 0.715218 0.816067
O O16 0.000000 0.000000 0.000000
#
# Coordination Sequence:
#
# PCOD9027263 Si02
#       7
#     2   2   2   2   2   2   2
#     4  12  22  40  69 104 126 179 235 275 348 405
#     4  11  23  40  66  98 135 175 227 281 340 405
#     4  10  23  43  70  94 139 176 229 285 343 401
#     4  10  22  44  71  93 139 180 220 287 356 400
#     4  10  23  42  68 100 135 176 231 290 337 410
#     4  10  22  41  67  93 134 176 219 283 338 407
#     4   9  20  44  64  88 136 174 218 281 342 393
#
# _framework density 23.442643
#
# number of rings (size 3 to 8) (size 9 to 14) (size 15 to 20)
#    0.857    0.857    2.857    1.286    0.000    2.286 
#    0.000    5.714    0.000    0.000    0.000    0.000 
#    0.000    0.000    0.000    0.000    0.000    0.000 
#
# Total GULP energy -78073.185836 kJ/mol
# GULP energy per Si atom -5576.656131 kJ/mol
# Density = 2.338929 g / cm^3
# Si number density = 23.442643 Si / 1000 Ang^3
#
#
#
# Elastic Constant Matrix: (Units=GPa)
#
#
# Indices 1 2 3 4 5 6 
#
# 1 39.5078 3.2576 26.6570 4.4202 11.3173 -4.5213
# 2 3.2576 116.2785 57.1277 9.8273 11.7013 -2.5527
# 3 26.6570 57.1277 179.9847 33.9767 32.6557 3.9758
# 4 4.4202 9.8273 33.9767 46.6844 0.0749 3.3916
# 5 11.3173 11.7013 32.6557 0.0749 36.6733 2.1881
# 6 -4.5213 -2.5527 3.9758 3.3916 2.1881 25.9557
#
#
#
# Elastic Compliance Matrix: (Units=1/GPa)
#
#
# Indices 1 2 3 4 5 6 
#
# 1 0.030669 0.001979 -0.003848 -0.001006 -0.007076 0.006854
# 2 0.001979 0.010384 -0.003458 0.000002 -0.000962 0.001977
# 3 -0.003848 -0.003458 0.009407 -0.005657 -0.006002 -0.001206
# 4 -0.001006 0.000002 -0.005657 0.025852 0.005482 -0.003149
# 5 -0.007076 -0.000962 -0.006002 0.005482 0.035337 -0.004103
# 6 0.006854 0.001977 -0.001206 -0.003149 -0.004103 0.040858
#
#
# Mechanical properties :
#
#
# Convention : Reuss Voigt Hill
#
# Bulk Modulus (GPa) = 25.12253 56.65064 40.88659
# Shear Modulus (GPa) = 28.33996 38.44459 33.39227
#
# Velocity S-wave (km/s) = 3.48071 4.05401 3.77825
# Velocity P-wave (km/s) = 5.18590 6.79202 6.04256
#
# Compressibility (1/GPa) = 0.03980491
#
# Stress axis : x y z
#
# Youngs Moduli (GPa) = 32.60662 96.30423 106.30212
#
# Poissons Ratio (x) = -0.19058 0.40904
# Poissons Ratio (y) = -0.06453 0.36763
# Poissons Ratio (z) = 0.12547 0.33305
#
# Static dielectric constant tensor:
#      x y z
#    x 2.042520 0.016640 -0.059840 
#    y 0.016640 1.980480 0.079150 
#    z -0.059840 0.079150 1.753600 
# 
# From -- ./inp_files/323671.got.cif
#   From: 2010.05.17/outbox.cif.g08.bks.cpg/sg2_162_cif.got.tgz:323671.got - 2010.06.03 11:33:40.
