data_PCOD9027720
_publ_section_title
;
Structure prediction by ZEFSAII (Michael W. Deem and Ramdas Pophale) SiO2 
 PCOD9027720
Probable space group: P -1
;
_chemical_formula_sum "Si O2"
_cell_formula_units_Z 14
_cell_length_a 9.548042
_cell_length_b 11.632444
_cell_length_c 11.858800
_cell_angle_alpha 34.921744
_cell_angle_beta 128.013353
_cell_angle_gamma 117.577310
_cell_volume 591.466377
_symmetry_space_group_name_H-M "P -1"
_symmetry_group_IT_number 2
_symmetry_cell_setting 'triclinic'
loop_
_space_group_symop_operation_xyz
x,y,z
-x,-y,-z
loop_
_atom_site_type_symbol
_atom_site_label
_atom_site_fract_x
_atom_site_fract_y
_atom_site_fract_z
Si Si1 0.813168 0.100505 0.280485
Si Si2 0.431360 0.098450 0.076578
Si Si3 0.202419 0.459645 0.088424
Si Si4 0.513467 0.510313 0.363698
Si Si5 0.177054 0.195419 0.080000
Si Si6 0.900823 0.495794 0.572269
Si Si7 0.121056 0.038318 0.815213
O O1 0.847921 0.107692 0.158017
O O2 0.628624 0.996710 0.283272
O O3 0.771151 0.324144 0.130210
O O4 0.000000 0.000000 0.500000
O O5 0.471306 0.275668 0.865266
O O6 0.332384 0.173407 0.081976
O O7 0.282197 0.991262 0.020493
O O8 0.344237 0.432166 0.281628
O O9 0.233322 0.278312 0.161508
O O10 0.000000 0.500000 0.000000
O O11 0.500000 0.500000 0.500000
O O12 0.712970 0.408995 0.524414
O O13 0.023277 0.362006 0.825580
O O14 0.070815 0.997366 0.199769
O O15 0.874329 0.730199 0.408601
O O16 0.000000 0.500000 0.500000
#
# Coordination Sequence:
#
# PCOD9027720 Si02
#       7
#     2   2   2   2   2   2   2
#     4  11  24  45  67  98 142 183 233 290 342 416
#     4  10  24  44  68 107 135 185 233 288 351 405
#     4  11  23  44  69 101 138 187 230 279 358 409
#     4  10  22  41  69 102 134 180 234 278 338 419
#     4  12  23  46  74 102 147 179 229 297 348 418
#     4  11  23  44  69 106 136 178 236 284 348 414
#     4  11  23  45  70 101 141 181 234 285 348 415
#
# _framework density 23.669983999999999
#
# number of rings (size 3 to 8) (size 9 to 14) (size 15 to 20)
#    0.000    1.143    4.286    2.571    2.000    3.429 
#    5.143    0.714    0.000    0.000    0.000    0.000 
#    0.000    0.000    0.000    0.000    0.000    0.000 
#
# Total GULP energy -78235.051805 kJ/mol
# GULP energy per Si atom -5588.217986 kJ/mol
# Density = 2.361611 g / cm^3
# Si number density = 23.669984 Si / 1000 Ang^3
#
#
#
# Elastic Constant Matrix: (Units=GPa)
#
#
# Indices 1 2 3 4 5 6 
#
# 1 172.1242 62.4205 45.1242 39.1381 11.5008 3.5329
# 2 62.4205 136.1555 49.8999 43.8837 3.5771 7.3366
# 3 45.1242 49.8999 98.3114 16.3940 9.6341 17.9400
# 4 39.1381 43.8837 16.3940 52.6926 9.6740 2.4499
# 5 11.5008 3.5771 9.6341 9.6740 30.8662 6.5104
# 6 3.5329 7.3366 17.9400 2.4499 6.5104 23.1173
#
#
#
# Elastic Compliance Matrix: (Units=1/GPa)
#
#
# Indices 1 2 3 4 5 6 
#
# 1 0.007907 -0.001647 -0.002420 -0.003603 -0.001278 0.001934
# 2 -0.001647 0.012280 -0.004368 -0.008217 0.003189 -0.000283
# 3 -0.002420 -0.004368 0.015194 0.001480 -0.001753 -0.009698
# 4 -0.003603 -0.008217 0.001480 0.029384 -0.007595 0.001035
# 5 -0.001278 0.003189 -0.001753 -0.007595 0.037367 -0.009175
# 6 0.001934 -0.000283 -0.009698 0.001035 -0.009175 0.053053
#
#
# Mechanical properties :
#
#
# Convention : Reuss Voigt Hill
#
# Bulk Modulus (GPa) = 54.01979 80.16451 67.09215
# Shear Modulus (GPa) = 28.05452 37.94498 32.99975
#
# Velocity S-wave (km/s) = 3.44646 4.00820 3.73790
# Velocity P-wave (km/s) = 6.22166 7.44056 6.85824
#
# Compressibility (1/GPa) = 0.01851173
#
# Stress axis : x y z
#
# Youngs Moduli (GPa) = 126.47800 81.43049 65.81541
#
# Poissons Ratio (x) = 0.13413 0.15926
# Poissons Ratio (y) = 0.20834 0.28746
# Poissons Ratio (z) = 0.30605 0.35566
#
# Static dielectric constant tensor:
#      x y z
#    x 1.906270 0.032220 -0.003280 
#    y 0.032220 2.004940 -0.100370 
#    z -0.003280 -0.100370 2.028120 
# 
# From -- ./inp_files/388908.got.cif
#   From: 2010.05.17/outbox.cif.g08.bks.cpg/sg2_195_cif.got.tgz:388908.got - 2010.06.03 11:33:40.
