data_PCOD9027781
_publ_section_title
;
Structure prediction by ZEFSAII (Michael W. Deem and Ramdas Pophale) SiO2 
 PCOD9027781
Probable space group: P -1
;
_chemical_formula_sum "Si O2"
_cell_formula_units_Z 14
_cell_length_a 8.580643
_cell_length_b 6.320337
_cell_length_c 14.699423
_cell_angle_alpha 96.369155
_cell_angle_beta 90.754887
_cell_angle_gamma 52.017840
_cell_volume 622.920136
_symmetry_space_group_name_H-M "P -1"
_symmetry_group_IT_number 2
_symmetry_cell_setting 'triclinic'
loop_
_space_group_symop_operation_xyz
x,y,z
-x,-y,-z
loop_
_atom_site_type_symbol
_atom_site_label
_atom_site_fract_x
_atom_site_fract_y
_atom_site_fract_z
Si Si1 0.982206 0.469382 0.848126
Si Si2 0.093904 0.162037 0.301882
Si Si3 0.350647 0.021223 0.070753
Si Si4 0.302057 0.730291 0.623259
Si Si5 0.616854 0.101260 0.548015
Si Si6 0.670347 0.356189 0.851215
Si Si7 0.399683 0.918235 0.800464
O O1 0.969769 0.591325 0.753866
O O2 0.881831 0.727702 0.926095
O O3 0.833186 0.401389 0.861736
O O4 0.199898 0.194645 0.846994
O O5 0.898410 0.199707 0.334363
O O6 0.223919 0.115087 0.387922
O O7 0.231135 0.880182 0.234328
O O8 0.431839 0.055967 0.168416
O O9 0.364236 0.759792 0.067588
O O10 0.500000 0.000000 0.000000
O O11 0.462167 0.403583 0.603568
O O12 0.277979 0.853229 0.529483
O O13 0.375526 0.862698 0.694359
O O14 0.500000 0.000000 0.500000
O O15 0.467444 0.641632 0.835077
#
# Coordination Sequence:
#
# PCOD9027781 Si02
#       7
#     2   2   2   2   2   2   2
#     4  10  24  39  69 100 124 174 220 263 322 386
#     4  11  23  42  66  92 131 170 223 266 320 386
#     4  10  25  45  67  99 135 167 211 269 326 389
#     4  11  25  41  66  95 130 174 221 270 325 379
#     4  11  27  42  63  94 134 175 220 272 326 375
#     4  10  22  41  69  91 129 167 214 265 324 382
#     4  11  23  41  69  96 128 172 220 262 327 388
#
# _framework density 22.474792000000001
#
# number of rings (size 3 to 8) (size 9 to 14) (size 15 to 20)
#    0.000    1.429    2.857    0.429   10.000    3.429 
#    0.000    1.429    0.000    0.000    0.000    0.000 
#    0.000    0.000    0.000    0.000    0.000    0.000 
#
# Total GULP energy -78163.406054 kJ/mol
# GULP energy per Si atom -5583.100432 kJ/mol
# Density = 2.242364 g / cm^3
# Si number density = 22.474792 Si / 1000 Ang^3
#
#
#
# Elastic Constant Matrix: (Units=GPa)
#
#
# Indices 1 2 3 4 5 6 
#
# 1 92.1985 41.8202 36.0330 -7.5860 -25.2634 2.4401
# 2 41.8202 155.7916 31.3230 -3.8580 -26.9055 -18.5163
# 3 36.0330 31.3230 67.9599 6.1876 -19.7936 -4.5600
# 4 -7.5860 -3.8580 6.1876 35.5486 9.4091 -4.6289
# 5 -25.2634 -26.9055 -19.7936 9.4091 45.7969 0.3178
# 6 2.4401 -18.5163 -4.5600 -4.6289 0.3178 39.0612
#
#
#
# Elastic Compliance Matrix: (Units=1/GPa)
#
#
# Indices 1 2 3 4 5 6 
#
# 1 0.015944 -0.002526 -0.006602 0.002905 0.003880 -0.002651
# 2 -0.002526 0.008353 -0.001477 0.000410 0.002764 0.003971
# 3 -0.006602 -0.001477 0.021377 -0.006728 0.006103 0.001361
# 4 0.002905 0.000410 -0.006728 0.032425 -0.007748 0.003133
# 5 0.003880 0.002764 0.006103 -0.007748 0.029825 0.000620
# 6 -0.002651 0.003971 0.001361 0.003133 0.000620 0.028174
#
#
# Mechanical properties :
#
#
# Convention : Reuss Voigt Hill
#
# Bulk Modulus (GPa) = 40.87416 59.36694 50.12055
# Shear Modulus (GPa) = 30.21832 37.86627 34.04229
#
# Velocity S-wave (km/s) = 3.67078 4.10912 3.89612
# Velocity P-wave (km/s) = 6.01600 6.99896 6.52602
#
# Compressibility (1/GPa) = 0.02446533
#
# Stress axis : x y z
#
# Youngs Moduli (GPa) = 62.71800 119.71364 46.77926
#
# Poissons Ratio (x) = 0.30237 0.30885
# Poissons Ratio (y) = 0.15841 0.06908
# Poissons Ratio (z) = 0.41408 0.17678
#
# Static dielectric constant tensor:
#      x y z
#    x 1.785880 -0.007800 0.007610 
#    y -0.007800 1.888750 -0.006010 
#    z 0.007610 -0.006010 1.917500 
# 
# From -- ./inp_files/105909.got.cif
#   From: 2010.05.17/outbox.cif.g08.bks.cpg/sg2_53_cif.got.tgz:105909.got - 2010.06.03 11:33:40.
