data_PCOD9027017
_publ_section_title
;
Structure prediction by ZEFSAII (Michael W. Deem and Ramdas Pophale) SiO2 
 PCOD9027017
Probable space group: P -1
;
_chemical_formula_sum "Si O2"
_cell_formula_units_Z 16
_cell_length_a 12.198513
_cell_length_b 18.800561
_cell_length_c 15.696777
_cell_angle_alpha 30.094788
_cell_angle_beta 52.980921
_cell_angle_gamma 31.297952
_cell_volume 797.090624
_symmetry_space_group_name_H-M "P -1"
_symmetry_group_IT_number 2
_symmetry_cell_setting 'triclinic'
loop_
_space_group_symop_operation_xyz
x,y,z
-x,-y,-z
loop_
_atom_site_type_symbol
_atom_site_label
_atom_site_fract_x
_atom_site_fract_y
_atom_site_fract_z
Si Si1 0.385812 0.227273 0.873010
Si Si2 0.939071 0.428612 0.488386
Si Si3 0.814816 0.744714 0.892816
Si Si4 0.874655 0.038888 0.101590
Si Si5 0.333656 0.306821 0.482013
Si Si6 0.079575 0.036765 0.314613
Si Si7 0.588035 0.374752 0.266321
Si Si8 0.712229 0.198219 0.723202
O O1 0.192799 0.464430 0.651734
O O2 0.593903 0.165183 0.860799
O O3 0.261055 0.276839 0.965224
O O4 0.500000 0.000000 0.000000
O O5 0.740544 0.601841 0.478993
O O6 0.101205 0.431266 0.418210
O O7 0.105459 0.147351 0.717822
O O8 0.924739 0.801320 0.812904
O O9 0.565967 0.001209 0.692581
O O10 0.000000 0.500000 0.000000
O O11 0.598186 0.335135 0.935142
O O12 0.052087 0.939876 0.196798
O O13 0.000000 0.000000 0.000000
O O14 0.419851 0.380204 0.325111
O O15 0.800679 0.216692 0.260910
O O16 0.254787 0.792801 0.547689
O O17 0.202338 0.929233 0.276777
O O18 0.500000 0.500000 0.500000
#
# Coordination Sequence:
#
# PCOD9027017 Si02
#       8
#     2   2   2   2   2   2   2   2
#     4  12  23  43  70  95 134 176 223 271 330 391
#     4  11  23  42  63 101 133 167 223 283 319 394
#     4  11  25  42  69 102 131 177 224 271 335 403
#     4  12  25  39  66 101 132 171 227 272 333 398
#     4  10  22  41  66  94 134 170 220 272 339 384
#     4  10  23  46  66  96 137 170 229 274 333 405
#     4  10  22  41  70  91 129 181 210 276 339 394
#     4  12  25  42  68  98 131 173 225 280 326 395
#
# _framework density 20.072998999999999
#
# number of rings (size 3 to 8) (size 9 to 14) (size 15 to 20)
#    0.000    1.000    5.000    1.500    5.250    3.500 
#    0.000    0.625    0.000    0.000    0.000    0.000 
#    0.000    0.000    0.000    0.000    0.000    0.000 
#
# Total GULP energy -89486.107698 kJ/mol
# GULP energy per Si atom -5592.881731 kJ/mol
# Density = 2.002731 g / cm^3
# Si number density = 20.072999 Si / 1000 Ang^3
#
#
#
# Elastic Constant Matrix: (Units=GPa)
#
#
# Indices 1 2 3 4 5 6 
#
# 1 43.7102 21.2893 -5.4406 -5.7144 -6.7708 -3.6781
# 2 21.2893 118.7912 43.6900 -15.9882 -12.4716 -1.0807
# 3 -5.4406 43.6900 91.1550 -23.9555 -16.8898 7.8629
# 4 -5.7144 -15.9882 -23.9555 37.1057 2.0050 -8.0187
# 5 -6.7708 -12.4716 -16.8898 2.0050 20.0675 3.2711
# 6 -3.6781 -1.0807 7.8629 -8.0187 3.2711 38.1858
#
#
#
# Elastic Compliance Matrix: (Units=1/GPa)
#
#
# Indices 1 2 3 4 5 6 
#
# 1 0.030188 -0.006393 0.009073 0.007334 0.012905 0.001293
# 2 -0.006393 0.011850 -0.006056 0.000449 -0.000109 0.001070
# 3 0.009073 -0.006056 0.020321 0.010486 0.015783 -0.002632
# 4 0.007334 0.000449 0.010486 0.035842 0.007105 0.005478
# 5 0.012905 -0.000109 0.015783 0.007105 0.067722 -0.006319
# 6 0.001293 0.001070 -0.002632 0.005478 -0.006319 0.028576
#
#
# Mechanical properties :
#
#
# Convention : Reuss Voigt Hill
#
# Bulk Modulus (GPa) = 17.98341 41.41486 29.69913
# Shear Modulus (GPa) = 22.74929 32.01299 27.38114
#
# Velocity S-wave (km/s) = 3.37015 3.99786 3.69735
# Velocity P-wave (km/s) = 4.91145 6.47977 5.74934
#
# Compressibility (1/GPa) = 0.05560682
#
# Stress axis : x y z
#
# Youngs Moduli (GPa) = 33.12597 84.38922 49.20953
#
# Poissons Ratio (x) = 0.53953 -0.44648
# Poissons Ratio (y) = 0.21179 0.29799
# Poissons Ratio (z) = -0.30055 0.51103
#
# Static dielectric constant tensor:
#      x y z
#    x 1.719180 -0.025410 0.000510 
#    y -0.025410 1.695550 0.003850 
#    z 0.000510 0.003850 1.714020 
# 
# From -- ./inp_files/217125.got.cif
#   From: 2010.05.17/outbox.cif.g08.bks.cpg/sg2_109_cif.got.tgz:217125.got - 2010.06.03 11:33:40.
