data_PCOD9027058
_publ_section_title
;
Structure prediction by ZEFSAII (Michael W. Deem and Ramdas Pophale) SiO2 
 PCOD9027058
Probable space group: P -1
;
_chemical_formula_sum "Si O2"
_cell_formula_units_Z 16
_cell_length_a 9.581481
_cell_length_b 13.818351
_cell_length_c 8.148655
_cell_angle_alpha 136.984461
_cell_angle_beta 97.911538
_cell_angle_gamma 67.388778
_cell_volume 661.570343
_symmetry_space_group_name_H-M "P -1"
_symmetry_group_IT_number 2
_symmetry_cell_setting 'triclinic'
loop_
_space_group_symop_operation_xyz
x,y,z
-x,-y,-z
loop_
_atom_site_type_symbol
_atom_site_label
_atom_site_fract_x
_atom_site_fract_y
_atom_site_fract_z
Si Si1 0.762213 0.254836 0.486549
Si Si2 0.907694 0.948431 0.289366
Si Si3 0.544020 0.064859 0.751856
Si Si4 0.996869 0.401533 0.719125
Si Si5 0.220935 0.281359 0.062442
Si Si6 0.213852 0.806374 0.975043
Si Si7 0.312116 0.223349 0.360786
Si Si8 0.550318 0.524581 0.355163
O O1 0.910825 0.288854 0.590449
O O2 0.765294 0.213318 0.242293
O O3 0.608667 0.411125 0.692754
O O4 0.768457 0.107042 0.404224
O O5 0.851352 0.818414 0.174682
O O6 0.000000 0.000000 0.500000
O O7 0.033987 0.877240 0.076973
O O8 0.571772 0.939782 0.746151
O O9 0.500000 0.000000 0.500000
O O10 0.397430 0.228917 0.968182
O O11 0.699572 0.092426 0.814088
O O12 0.887180 0.535749 0.739883
O O13 0.170041 0.307236 0.565993
O O14 0.000000 0.500000 0.000000
O O15 0.234906 0.214685 0.165333
O O16 0.305253 0.636378 0.861985
O O17 0.395220 0.336591 0.475849
O O18 0.500000 0.500000 0.500000
#
# Coordination Sequence:
#
# PCOD9027058 Si02
#       8
#     2   2   2   2   2   2   2   2
#     4  11  22  42  65  90 124 168 211 259 316 384
#     4  12  24  39  59  91 126 163 209 263 315 371
#     4  12  25  43  65  97 134 171 214 272 331 386
#     4  12  25  43  65  97 134 171 214 272 331 386
#     4  12  23  41  65  93 126 170 221 268 315 389
#     4  11  22  42  65  90 124 168 211 259 316 384
#     4  12  24  43  69  98 128 175 223 267 325 394
#     4  10  22  41  66  96 125 160 215 272 317 376
#
# _framework density 24.184881000000001
#
# number of rings (size 3 to 8) (size 9 to 14) (size 15 to 20)
#    0.000    0.500    0.000   10.875    0.000    0.000 
#    0.000    1.875    0.000    0.000    0.000    0.000 
#    0.000    0.000    0.000    0.000    0.000    0.000 
#
# Total GULP energy -89637.820906 kJ/mol
# GULP energy per Si atom -5602.363807 kJ/mol
# Density = 2.412984 g / cm^3
# Si number density = 24.184881 Si / 1000 Ang^3
#
#
#
# Elastic Constant Matrix: (Units=GPa)
#
#
# Indices 1 2 3 4 5 6 
#
# 1 106.4753 -5.2486 2.5363 6.7228 22.3013 0.4757
# 2 -5.2486 98.3399 1.0824 27.0357 5.1044 -12.7680
# 3 2.5363 1.0824 52.8682 -4.7573 9.6343 -4.9184
# 4 6.7228 27.0357 -4.7573 46.9568 -0.0740 11.1429
# 5 22.3013 5.1044 9.6343 -0.0740 38.4419 12.0187
# 6 0.4757 -12.7680 -4.9184 11.1429 12.0187 26.9497
#
#
#
# Elastic Compliance Matrix: (Units=1/GPa)
#
#
# Indices 1 2 3 4 5 6 
#
# 1 0.012239 0.004194 0.001679 -0.006300 -0.011102 0.009633
# 2 0.004194 0.017930 0.002081 -0.015596 -0.011775 0.020501
# 3 0.001679 0.002081 0.021323 -0.001627 -0.009672 0.009834
# 4 -0.006300 -0.015596 -0.001627 0.038251 0.015711 -0.030397
# 5 -0.011102 -0.011775 -0.009672 0.015711 0.047337 -0.034755
# 6 0.009633 0.020501 0.009834 -0.030397 -0.034755 0.076512
#
#
# Mechanical properties :
#
#
# Convention : Reuss Voigt Hill
#
# Bulk Modulus (GPa) = 14.83674 28.26930 21.55302
# Shear Modulus (GPa) = 22.71177 39.75723 31.23450
#
# Velocity S-wave (km/s) = 3.06778 4.05889 3.59763
# Velocity P-wave (km/s) = 4.32393 5.80347 5.11746
#
# Compressibility (1/GPa) = 0.06740026
#
# Stress axis : x y z
#
# Youngs Moduli (GPa) = 81.70906 55.77118 46.89805
#
# Poissons Ratio (x) = -0.23389 -0.07876
# Poissons Ratio (y) = -0.34266 -0.09760
# Poissons Ratio (z) = -0.13722 -0.11607
#
# Static dielectric constant tensor:
#      x y z
#    x 1.909420 -0.023220 -0.001570 
#    y -0.023220 1.933150 -0.030360 
#    z -0.001570 -0.030360 1.946750 
# 
# From -- ./inp_files/208382.got.cif
#   From: 2010.05.17/outbox.cif.g08.bks.cpg/sg2_105_cif.got.tgz:208382.got - 2010.06.03 11:33:40.
