data_PCOD9027395
_publ_section_title
;
Structure prediction by ZEFSAII (Michael W. Deem and Ramdas Pophale) SiO2 
 PCOD9027395
Probable space group: P -1
;
_chemical_formula_sum "Si O2"
_cell_formula_units_Z 16
_cell_length_a 8.684476
_cell_length_b 10.347945
_cell_length_c 20.855379
_cell_angle_alpha 142.040095
_cell_angle_beta 138.486439
_cell_angle_gamma 66.378743
_cell_volume 676.348480
_symmetry_space_group_name_H-M "P -1"
_symmetry_group_IT_number 2
_symmetry_cell_setting 'triclinic'
loop_
_space_group_symop_operation_xyz
x,y,z
-x,-y,-z
loop_
_atom_site_type_symbol
_atom_site_label
_atom_site_fract_x
_atom_site_fract_y
_atom_site_fract_z
Si Si1 0.233487 0.898774 0.794930
Si Si2 0.338685 0.095637 0.777291
Si Si3 0.783430 0.975231 0.013975
Si Si4 0.290084 0.807969 0.268641
Si Si5 0.824894 0.095753 0.592411
Si Si6 0.789835 0.524373 0.680657
Si Si7 0.880909 0.265971 0.952240
Si Si8 0.721442 0.424052 0.468000
O O1 0.295674 0.104606 0.843195
O O2 0.965728 0.658200 0.608048
O O3 0.224156 0.995486 0.900155
O O4 0.482773 0.846806 0.849279
O O5 0.282155 0.823516 0.644803
O O6 0.632391 0.255795 0.907773
O O7 0.115106 0.132124 0.686110
O O8 0.966263 0.853349 0.010429
O O9 0.935166 0.239223 0.136712
O O10 0.235801 0.935044 0.362262
O O11 0.233636 0.870922 0.204743
O O12 0.594897 0.874814 0.397543
O O13 0.096127 0.531930 0.109024
O O14 0.794409 0.320983 0.646199
O O15 0.749357 0.448644 0.563608
O O16 0.546991 0.577813 0.638714
#
# Coordination Sequence:
#
# PCOD9027395 Si02
#       8
#     2   2   2   2   2   2   2   2
#     4  10  24  40  65 100 133 171 220 276 333 392
#     4  12  25  42  67 102 135 171 225 279 329 396
#     4  10  22  45  68  96 131 177 220 273 334 397
#     4  10  26  46  66  97 133 186 218 275 335 400
#     4  11  26  44  70  99 137 177 226 270 334 402
#     4  10  22  42  70  96 131 177 221 266 335 399
#     4  11  24  46  70  96 137 176 225 277 337 395
#     4  10  22  41  67  98 134 173 216 279 329 390
#
# _framework density 23.656441999999998
#
# number of rings (size 3 to 8) (size 9 to 14) (size 15 to 20)
#    0.000    1.500    1.250    1.875   10.500    4.000 
#   11.250    0.000    0.000    0.000    0.000    0.000 
#    0.000    0.000    0.000    0.000    0.000    0.000 
#
# Total GULP energy -89582.749914 kJ/mol
# GULP energy per Si atom -5598.921870 kJ/mol
# Density = 2.360260 g / cm^3
# Si number density = 23.656442 Si / 1000 Ang^3
#
#
#
# Elastic Constant Matrix: (Units=GPa)
#
#
# Indices 1 2 3 4 5 6 
#
# 1 80.2632 33.1372 24.3713 -15.3235 12.2548 7.6720
# 2 33.1372 96.5003 18.9669 -17.1436 20.7671 -6.9201
# 3 24.3713 18.9669 71.8245 -9.4416 29.0181 -3.9414
# 4 -15.3235 -17.1436 -9.4416 37.0227 -1.0129 10.3098
# 5 12.2548 20.7671 29.0181 -1.0129 42.5765 -7.5734
# 6 7.6720 -6.9201 -3.9414 10.3098 -7.5734 35.4433
#
#
#
# Elastic Compliance Matrix: (Units=1/GPa)
#
#
# Indices 1 2 3 4 5 6 
#
# 1 0.017504 -0.004363 -0.003769 0.006224 -0.001471 -0.007185
# 2 -0.004363 0.013776 0.000755 0.004257 -0.005650 0.001272
# 3 -0.003769 0.000755 0.020992 0.003986 -0.013633 -0.000775
# 4 0.006224 0.004257 0.003986 0.035744 -0.007896 -0.012157
# 5 -0.001471 -0.005650 -0.013633 -0.007896 0.037183 0.007941
# 6 -0.007185 0.001272 -0.000775 -0.012157 0.007941 0.035165
#
#
# Mechanical properties :
#
#
# Convention : Reuss Voigt Hill
#
# Bulk Modulus (GPa) = 26.65391 44.61543 35.63467
# Shear Modulus (GPa) = 26.64904 34.48269 30.56587
#
# Velocity S-wave (km/s) = 3.35998 3.82205 3.59844
# Velocity P-wave (km/s) = 5.13266 6.19501 5.68869
#
# Compressibility (1/GPa) = 0.03751794
#
# Stress axis : x y z
#
# Youngs Moduli (GPa) = 57.12860 72.59025 47.63747
#
# Poissons Ratio (x) = 0.31670 0.17955
# Poissons Ratio (y) = 0.24925 -0.03596
# Poissons Ratio (z) = 0.21532 -0.05479
#
# Static dielectric constant tensor:
#      x y z
#    x 1.941150 0.020660 -0.027170 
#    y 0.020660 1.875780 -0.029290 
#    z -0.027170 -0.029290 1.877200 
# 
# From -- ./inp_files/607768.got.cif
#   From: 2010.05.17/outbox.cif.g08.bks.cpg/sg2_304_cif.got.tgz:607768.got - 2010.06.03 11:33:40.
