data_PCOD9027342
_publ_section_title
;
Structure prediction by ZEFSAII (Michael W. Deem and Ramdas Pophale) SiO2 
 PCOD9027342
Probable space group: P -1
;
_chemical_formula_sum "Si O2"
_cell_formula_units_Z 13
_cell_length_a 13.471902
_cell_length_b 7.609515
_cell_length_c 10.230254
_cell_angle_alpha 72.775640
_cell_angle_beta 35.231560
_cell_angle_gamma 59.464842
_cell_volume 505.965566
_symmetry_space_group_name_H-M "P -1"
_symmetry_group_IT_number 2
_symmetry_cell_setting 'triclinic'
loop_
_space_group_symop_operation_xyz
x,y,z
-x,-y,-z
loop_
_atom_site_type_symbol
_atom_site_label
_atom_site_fract_x
_atom_site_fract_y
_atom_site_fract_z
Si Si1 0.717588 0.576980 0.163598
Si Si2 0.643700 0.756830 0.924677
Si Si3 0.529272 0.649716 0.614725
Si Si4 0.500000 0.000000 0.500000
Si Si5 0.059354 0.169424 0.848456
Si Si6 0.717567 0.294645 0.677876
Si Si7 0.955694 0.817710 0.435774
O O1 0.611457 0.713094 0.378233
O O2 0.592916 0.459331 0.282056
O O3 0.707809 0.708129 0.018083
O O4 0.928989 0.388270 0.015100
O O5 0.828516 0.712463 0.647912
O O6 0.505034 0.655207 0.063463
O O7 0.500000 0.000000 0.000000
O O8 0.416991 0.885120 0.731210
O O9 0.693042 0.482742 0.568514
O O10 0.709813 0.923005 0.375842
O O11 0.988529 0.232092 0.762335
O O12 0.000000 0.000000 0.000000
O O13 0.854837 0.255888 0.661628
O O14 0.822514 0.071683 0.536999
#
# Coordination Sequence:
#
# PCOD9027342 Si02
#       7
#     2   2   2   1   2   2   2
#     4  10  22  44  71  96 139 184 221 278 345 392
#     4   9  20  38  63  99 129 174 223 269 331 395
#     4  10  22  45  70 100 135 176 229 282 327 410
#     4  12  28  42  68 106 134 174 236 278 340 394
#     4  12  26  46  65 102 137 179 225 287 337 393
#     4   9  20  42  67  97 132 179 219 270 344 391
#     4  10  22  41  67  96 135 173 224 276 328 411
#
# _framework density 25.693449000000001
#
# number of rings (size 3 to 8) (size 9 to 14) (size 15 to 20)
#    0.000    1.846    1.538    0.923    8.615    2.462 
#    5.538    1.538    0.000    0.000    0.000    0.000 
#    0.000    0.000    0.000    0.000    0.000    0.000 
#
# Total GULP energy -72638.098166 kJ/mol
# GULP energy per Si atom -5587.546013 kJ/mol
# Density = 2.563497 g / cm^3
# Si number density = 25.693449 Si / 1000 Ang^3
#
#
#
# Elastic Constant Matrix: (Units=GPa)
#
#
# Indices 1 2 3 4 5 6 
#
# 1 101.3943 36.7603 37.5063 -10.7798 -5.3593 -0.3286
# 2 36.7603 170.4707 29.5247 -2.1525 17.5475 -21.0059
# 3 37.5063 29.5247 84.4177 -7.0831 13.0230 -6.1332
# 4 -10.7798 -2.1525 -7.0831 54.3991 -8.7826 0.4040
# 5 -5.3593 17.5475 13.0230 -8.7826 30.8066 -2.6191
# 6 -0.3286 -21.0059 -6.1332 0.4040 -2.6191 44.2289
#
#
#
# Elastic Compliance Matrix: (Units=1/GPa)
#
#
# Indices 1 2 3 4 5 6 
#
# 1 0.013891 -0.002856 -0.006180 0.003039 0.007377 -0.001701
# 2 -0.002856 0.007412 -0.000482 -0.001095 -0.004557 0.003172
# 3 -0.006180 -0.000482 0.016001 -0.000390 -0.007548 0.001501
# 4 0.003039 -0.001095 -0.000390 0.020023 0.006998 -0.000320
# 5 0.007377 -0.004557 -0.007548 0.006998 0.041461 -0.000765
# 6 -0.001701 0.003172 0.001501 -0.000320 -0.000765 0.024269
#
#
# Mechanical properties :
#
#
# Convention : Reuss Voigt Hill
#
# Bulk Modulus (GPa) = 54.73729 62.65171 58.69450
# Shear Modulus (GPa) = 33.74259 42.71968 38.23114
#
# Velocity S-wave (km/s) = 3.62785 4.08201 3.86161
# Velocity P-wave (km/s) = 6.23687 6.83039 6.54037
#
# Compressibility (1/GPa) = 0.01826908
#
# Stress axis : x y z
#
# Youngs Moduli (GPa) = 71.98763 134.92494 62.49721
#
# Poissons Ratio (x) = 0.38533 0.38621
# Poissons Ratio (y) = 0.20559 0.03010
# Poissons Ratio (z) = 0.44486 0.06499
#
# Static dielectric constant tensor:
#      x y z
#    x 2.005880 0.119690 0.052860 
#    y 0.119690 2.404780 0.097960 
#    z 0.052860 0.097960 2.118840 
# 
# From -- ./inp_files/204969.got.cif
#   From: 2010.05.17/outbox.cif.g08.bks.cpg/sg2_103_cif.got.tgz:204969.got - 2010.06.03 11:33:40.
