data_PCOD9027519
_publ_section_title
;
Structure prediction by ZEFSAII (Michael W. Deem and Ramdas Pophale) SiO2 
 PCOD9027519
Probable space group: P -1
;
_chemical_formula_sum "Si O2"
_cell_formula_units_Z 16
_cell_length_a 9.310292
_cell_length_b 9.568234
_cell_length_c 10.356046
_cell_angle_alpha 115.927736
_cell_angle_beta 62.454363
_cell_angle_gamma 123.906740
_cell_volume 658.420847
_symmetry_space_group_name_H-M "P -1"
_symmetry_group_IT_number 2
_symmetry_cell_setting 'triclinic'
loop_
_space_group_symop_operation_xyz
x,y,z
-x,-y,-z
loop_
_atom_site_type_symbol
_atom_site_label
_atom_site_fract_x
_atom_site_fract_y
_atom_site_fract_z
Si Si1 0.588091 0.401817 0.840170
Si Si2 0.849359 0.417194 0.145765
Si Si3 0.287358 0.949568 0.039421
Si Si4 0.458129 0.330293 0.367798
Si Si5 0.845730 0.257509 0.740056
Si Si6 0.181940 0.236849 0.217823
Si Si7 0.114800 0.705328 0.553856
Si Si8 0.497046 0.819416 0.467037
O O1 0.675514 0.302861 0.848648
O O2 0.757210 0.573191 0.788533
O O3 0.485147 0.282528 0.710103
O O4 0.500000 0.500000 0.000000
O O5 0.638985 0.383909 0.225183
O O6 0.963858 0.569828 0.258533
O O7 0.808729 0.215579 0.081389
O O8 0.000000 0.500000 0.000000
O O9 0.182781 0.881079 0.192654
O O10 0.249145 0.107918 0.071142
O O11 0.500000 0.000000 0.000000
O O12 0.500000 0.500000 0.500000
O O13 0.287882 0.276890 0.324952
O O14 0.406597 0.184742 0.442269
O O15 0.832972 0.213057 0.577767
O O16 0.971593 0.179960 0.298876
O O17 0.289181 0.714922 0.556625
O O18 0.000000 0.500000 0.500000
O O19 0.500000 0.000000 0.500000
#
# Coordination Sequence:
#
# PCOD9027519 Si02
#       8
#     2   2   2   2   2   2   2   2
#     4  11  24  43  69  95 139 181 229 276 350 417
#     4  10  23  41  66  96 139 176 226 279 350 407
#     4  11  23  42  63  98 138 172 222 277 345 403
#     4  12  23  42  73 100 133 178 236 282 338 413
#     4  10  22  41  68  90 130 184 214 279 341 403
#     4  12  24  41  69 102 129 181 228 282 339 411
#     4  11  21  46  67  93 135 175 227 271 347 405
#     4  11  26  45  69 102 139 182 224 288 349 408
#
# _framework density 24.300567000000001
#
# number of rings (size 3 to 8) (size 9 to 14) (size 15 to 20)
#    0.000    1.000    5.000    2.250    5.250    1.500 
#    6.750    0.625    0.000    0.000    0.000    0.000 
#    0.000    0.000    0.000    0.000    0.000    0.000 
#
# Total GULP energy -89147.079095 kJ/mol
# GULP energy per Si atom -5571.692443 kJ/mol
# Density = 2.424526 g / cm^3
# Si number density = 24.300567 Si / 1000 Ang^3
#
#
#
# Elastic Constant Matrix: (Units=GPa)
#
#
# Indices 1 2 3 4 5 6 
#
# 1 39.8388 -10.6131 2.5409 -2.7523 -4.7047 1.0563
# 2 -10.6131 99.8018 7.9199 3.9923 -0.8243 -2.1010
# 3 2.5409 7.9199 98.6664 7.6840 -23.5198 -2.0827
# 4 -2.7523 3.9923 7.6840 33.5561 -12.8117 7.5751
# 5 -4.7047 -0.8243 -23.5198 -12.8117 31.6085 9.5473
# 6 1.0563 -2.1010 -2.0827 7.5751 9.5473 30.9955
#
#
#
# Elastic Compliance Matrix: (Units=1/GPa)
#
#
# Indices 1 2 3 4 5 6 
#
# 1 0.027308 0.002585 0.000529 0.006135 0.008471 -0.004829
# 2 0.002585 0.010453 -0.001022 -0.001495 -0.001087 0.001252
# 3 0.000529 -0.001022 0.012681 0.002400 0.011474 -0.003356
# 4 0.006135 -0.001495 0.002400 0.044327 0.026400 -0.019114
# 5 0.008471 -0.001087 0.011474 0.026400 0.059466 -0.024360
# 6 -0.004829 0.001252 -0.003356 -0.019114 -0.024360 0.044462
#
#
# Mechanical properties :
#
#
# Convention : Reuss Voigt Hill
#
# Bulk Modulus (GPa) = 18.30634 26.44470 22.37552
# Shear Modulus (GPa) = 23.50488 35.12931 29.31709
#
# Velocity S-wave (km/s) = 3.11345 3.80625 3.47715
# Velocity P-wave (km/s) = 4.52486 5.49752 5.03473
#
# Compressibility (1/GPa) = 0.05462588
#
# Stress axis : x y z
#
# Youngs Moduli (GPa) = 36.61887 95.66584 78.85786
#
# Poissons Ratio (x) = -0.24729 -0.04170
# Poissons Ratio (y) = -0.09466 0.08059
# Poissons Ratio (z) = -0.01936 0.09777
#
# Static dielectric constant tensor:
#      x y z
#    x 1.621960 0.526140 -0.170180 
#    y 0.526140 1.502520 -0.017560 
#    z -0.170180 -0.017560 2.136240 
# 
# From -- ./inp_files/382869.got.cif
#   From: 2010.05.17/outbox.cif.g08.bks.cpg/sg2_192_cif.got.tgz:382869.got - 2010.06.03 11:33:40.
