data_PCOD9027612
_publ_section_title
;
Structure prediction by ZEFSAII (Michael W. Deem and Ramdas Pophale) SiO2 
 PCOD9027612
Probable space group: P -1
;
_chemical_formula_sum "Si O2"
_cell_formula_units_Z 16
_cell_length_a 17.565328
_cell_length_b 11.602077
_cell_length_c 8.403489
_cell_angle_alpha 112.227811
_cell_angle_beta 77.883599
_cell_angle_gamma 148.184977
_cell_volume 813.615368
_symmetry_space_group_name_H-M "P -1"
_symmetry_group_IT_number 2
_symmetry_cell_setting 'triclinic'
loop_
_space_group_symop_operation_xyz
x,y,z
-x,-y,-z
loop_
_atom_site_type_symbol
_atom_site_label
_atom_site_fract_x
_atom_site_fract_y
_atom_site_fract_z
Si Si1 0.741540 0.582880 0.582592
Si Si2 0.571313 0.976877 0.538925
Si Si3 0.044818 0.902726 0.766335
Si Si4 0.847013 0.253038 0.021218
Si Si5 0.864053 0.001376 0.851352
Si Si6 0.838546 0.687820 0.228902
Si Si7 0.851107 0.224304 0.380252
Si Si8 0.655532 0.210409 0.955488
O O1 0.574032 0.306355 0.522378
O O2 0.753100 0.738191 0.727098
O O3 0.786296 0.639027 0.406224
O O4 0.871400 0.683457 0.675281
O O5 0.500000 0.000000 0.500000
O O6 0.703737 0.084462 0.447145
O O7 0.640874 0.129140 0.747455
O O8 0.118049 0.878467 0.647778
O O9 0.127860 0.137991 0.786272
O O10 0.070513 0.926024 0.958593
O O11 0.846974 0.230931 0.196411
O O12 0.748538 0.237916 0.027131
O O13 0.000000 0.500000 0.000000
O O14 0.802232 0.054907 0.875140
O O15 0.004252 0.169341 0.763275
O O16 0.728065 0.445394 0.057023
O O17 0.000000 0.500000 0.500000
O O18 0.500000 0.000000 0.000000
#
# Coordination Sequence:
#
# PCOD9027612 Si02
#       8
#     2   2   2   2   2   2   2   2
#     4  11  23  41  64  98 129 168 216 266 321 380
#     4  12  27  42  66  97 132 170 214 271 322 386
#     4  10  23  42  68  95 128 169 216 265 321 382
#     4  11  23  43  68  94 128 167 216 267 314 385
#     4  10  22  41  68  97 124 171 214 267 320 380
#     4  11  22  39  67  93 129 168 215 260 317 383
#     4  11  25  43  68  97 128 172 217 264 320 384
#     4  12  25  43  63  97 131 169 213 265 332 375
#
# _framework density 19.665312
#
# number of rings (size 3 to 8) (size 9 to 14) (size 15 to 20)
#    0.000    1.000    2.500    5.250    7.000    3.000 
#    2.250    2.500    0.000    0.000    0.000    0.000 
#    0.000    0.000    0.000    0.000    0.000    0.000 
#
# Total GULP energy -89317.746378 kJ/mol
# GULP energy per Si atom -5582.359149 kJ/mol
# Density = 1.962055 g / cm^3
# Si number density = 19.665312 Si / 1000 Ang^3
#
#
#
# Elastic Constant Matrix: (Units=GPa)
#
#
# Indices 1 2 3 4 5 6 
#
# 1 110.6338 52.6009 26.4163 4.3001 -30.6979 3.2814
# 2 52.6009 120.3696 46.7151 6.7338 -17.3917 10.7073
# 3 26.4163 46.7151 97.6195 10.8924 -24.2975 -5.9426
# 4 4.3001 6.7338 10.8924 36.9236 0.9565 -6.5184
# 5 -30.6979 -17.3917 -24.2975 0.9565 30.9270 -2.7309
# 6 3.2814 10.7073 -5.9426 -6.5184 -2.7309 25.1561
#
#
#
# Elastic Compliance Matrix: (Units=1/GPa)
#
#
# Indices 1 2 3 4 5 6 
#
# 1 0.014929 -0.005545 0.002320 -0.001399 0.013751 0.002091
# 2 -0.005545 0.013252 -0.005963 -0.001159 -0.003318 -0.006986
# 3 0.002320 -0.005963 0.016325 -0.003151 0.012458 0.006628
# 4 -0.001399 -0.001159 -0.003151 0.029769 -0.004808 0.007123
# 5 0.013751 -0.003318 0.012458 -0.004808 0.054694 0.007253
# 6 0.002091 -0.006986 0.006628 0.007123 0.007253 0.046652
#
#
# Mechanical properties :
#
#
# Convention : Reuss Voigt Hill
#
# Bulk Modulus (GPa) = 38.27031 64.45417 51.36224
# Shear Modulus (GPa) = 24.66602 32.12738 28.39670
#
# Velocity S-wave (km/s) = 3.54544 4.04630 3.80412
# Velocity P-wave (km/s) = 6.02190 7.39437 6.74315
#
# Compressibility (1/GPa) = 0.02612992
#
# Stress axis : x y z
#
# Youngs Moduli (GPa) = 66.98289 75.45961 61.25390
#
# Poissons Ratio (x) = 0.41844 -0.14208
# Poissons Ratio (y) = 0.37144 0.36525
# Poissons Ratio (z) = -0.15537 0.44995
#
# Static dielectric constant tensor:
#      x y z
#    x 2.233010 -0.002360 0.015540 
#    y -0.002360 1.677080 0.028480 
#    z 0.015540 0.028480 1.755350 
# 
# From -- ./inp_files/332340.got.cif
#   From: 2010.05.17/outbox.cif.g08.bks.cpg/sg2_167_cif.got.tgz:332340.got - 2010.06.03 11:33:40.
