data_PCOD9027464
_publ_section_title
;
Structure prediction by ZEFSAII (Michael W. Deem and Ramdas Pophale) SiO2 
 PCOD9027464
Probable space group: P -1
;
_chemical_formula_sum "Si O2"
_cell_formula_units_Z 14
_cell_length_a 24.070261
_cell_length_b 15.218920
_cell_length_c 5.395686
_cell_angle_alpha 90.174692
_cell_angle_beta 82.727841
_cell_angle_gamma 162.298190
_cell_volume 549.034681
_symmetry_space_group_name_H-M "P -1"
_symmetry_group_IT_number 2
_symmetry_cell_setting 'triclinic'
loop_
_space_group_symop_operation_xyz
x,y,z
-x,-y,-z
loop_
_atom_site_type_symbol
_atom_site_label
_atom_site_fract_x
_atom_site_fract_y
_atom_site_fract_z
Si Si1 0.867213 0.219598 0.837308
Si Si2 0.139136 0.319357 0.223517
Si Si3 0.247875 0.780843 0.905028
Si Si4 0.730419 0.634006 0.460244
Si Si5 0.489374 0.841636 0.651510
Si Si6 0.896255 0.542604 0.634525
Si Si7 0.527021 0.596490 0.235052
O O1 0.095419 0.590495 0.785095
O O2 0.920418 0.237205 0.576641
O O3 0.746544 0.130391 0.901406
O O4 0.736876 0.963590 0.091455
O O5 0.208327 0.348053 0.374929
O O6 0.093630 0.339183 0.403990
O O7 0.301351 0.585676 0.922188
O O8 0.930971 0.971874 0.222347
O O9 0.450241 0.051408 0.671622
O O10 0.125678 0.513944 0.066576
O O11 0.568899 0.349586 0.358154
O O12 0.634212 0.569127 0.659542
O O13 0.681159 0.179781 0.663068
O O14 0.500000 0.500000 0.500000
O O15 0.500000 0.500000 0.000000
#
# Coordination Sequence:
#
# PCOD9027464 Si02
#       7
#     2   2   2   2   2   2   2
#     4  10  23  42  68 102 142 186 243 304 374 434
#     4  11  26  45  69 101 147 193 245 308 370 456
#     4  10  22  41  68 102 137 187 239 302 377 438
#     4  11  26  48  70 103 144 194 247 301 387 439
#     4  11  23  43  69 102 139 189 243 305 368 448
#     4  11  24  42  72 103 143 189 245 308 369 446
#     4  12  29  48  80 111 151 196 254 315 379 458
#
# _framework density 25.499302
#
# number of rings (size 3 to 8) (size 9 to 14) (size 15 to 20)
#    0.000    1.143    1.429    3.000    6.000    3.429 
#    0.000    0.000    0.000    0.000    0.000    0.000 
#    0.000    0.000    0.000    0.000    0.000    0.000 
#
# Total GULP energy -78047.885731 kJ/mol
# GULP energy per Si atom -5574.848981 kJ/mol
# Density = 2.544126 g / cm^3
# Si number density = 25.499302 Si / 1000 Ang^3
#
#
#
# Elastic Constant Matrix: (Units=GPa)
#
#
# Indices 1 2 3 4 5 6 
#
# 1 144.5895 27.5774 48.3253 14.4074 -5.9976 -30.6186
# 2 27.5774 126.7787 26.1479 -17.9583 0.2118 -16.6480
# 3 48.3253 26.1479 139.6150 -28.6735 -9.5345 -3.3205
# 4 14.4074 -17.9583 -28.6735 44.9766 -16.3692 -3.7411
# 5 -5.9976 0.2118 -9.5345 -16.3692 35.0024 -0.3523
# 6 -30.6186 -16.6480 -3.3205 -3.7411 -0.3523 20.8267
#
#
#
# Elastic Compliance Matrix: (Units=1/GPa)
#
#
# Indices 1 2 3 4 5 6 
#
# 1 0.013126 -0.000597 -0.005843 -0.007834 -0.002837 0.016433
# 2 -0.000597 0.009901 -0.000119 0.005663 0.002535 0.008078
# 3 -0.005843 -0.000119 0.012115 0.012048 0.007889 -0.004457
# 4 -0.007834 0.005663 0.012048 0.042951 0.022022 0.003018
# 5 -0.002837 0.002535 0.007889 0.022022 0.040553 0.003755
# 6 0.016433 0.008078 -0.004457 0.003018 0.003755 0.078526
#
#
# Mechanical properties :
#
#
# Convention : Reuss Voigt Hill
#
# Bulk Modulus (GPa) = 45.40976 68.34270 56.87623
# Shear Modulus (GPa) = 22.97463 40.75667 31.86565
#
# Velocity S-wave (km/s) = 3.00491 4.00227 3.53890
# Velocity P-wave (km/s) = 5.46683 6.94388 6.24915
#
# Compressibility (1/GPa) = 0.02202170
#
# Stress axis : x y z
#
# Youngs Moduli (GPa) = 76.18638 101.00104 82.54565
#
# Poissons Ratio (x) = 0.06030 0.48233
# Poissons Ratio (y) = 0.04549 0.00986
# Poissons Ratio (z) = 0.44517 0.01206
#
# Static dielectric constant tensor:
#      x y z
#    x 2.042210 0.079810 0.034480 
#    y 0.079810 2.185640 0.116140 
#    z 0.034480 0.116140 2.107130 
# 
# From -- ./inp_files/124247.got.cif
#   From: 2010.05.17/outbox.cif.g08.bks.cpg/sg2_63_cif.got.tgz:124247.got - 2010.06.03 11:33:40.
