data_PCOD9027423
_publ_section_title
;
Structure prediction by ZEFSAII (Michael W. Deem and Ramdas Pophale) SiO2 
 PCOD9027423
Probable space group: P -1
;
_chemical_formula_sum "Si O2"
_cell_formula_units_Z 15
_cell_length_a 10.801269
_cell_length_b 7.035285
_cell_length_c 9.628568
_cell_angle_alpha 85.977872
_cell_angle_beta 53.655645
_cell_angle_gamma 79.862390
_cell_volume 579.602157
_symmetry_space_group_name_H-M "P -1"
_symmetry_group_IT_number 2
_symmetry_cell_setting 'triclinic'
loop_
_space_group_symop_operation_xyz
x,y,z
-x,-y,-z
loop_
_atom_site_type_symbol
_atom_site_label
_atom_site_fract_x
_atom_site_fract_y
_atom_site_fract_z
Si Si1 0.712973 0.074735 0.114280
Si Si2 0.841273 0.771618 0.224283
Si Si3 0.500000 0.000000 0.500000
Si Si4 0.240339 0.361685 0.296490
Si Si5 0.314854 0.934906 0.186647
Si Si6 0.953466 0.261562 0.671214
Si Si7 0.430094 0.622766 0.334318
Si Si8 0.742229 0.395867 0.271601
O O1 0.820238 0.867744 0.081958
O O2 0.557348 0.076309 0.309267
O O3 0.794530 0.228998 0.136650
O O4 0.672693 0.118838 0.980779
O O5 0.972038 0.832123 0.232896
O O6 0.858962 0.540327 0.223815
O O7 0.672836 0.856182 0.401085
O O8 0.672492 0.311879 0.462183
O O9 0.097762 0.310913 0.485265
O O10 0.354328 0.463994 0.310495
O O11 0.163100 0.535453 0.237896
O O12 0.315223 0.160536 0.189821
O O13 0.429267 0.800230 0.221175
O O14 0.146797 0.874909 0.336168
O O15 0.597124 0.533290 0.287248
#
# Coordination Sequence:
#
# PCOD9027423 Si02
#       8
#     2   2   1   2   2   2   2   2
#     4  10  25  42  67 101 133 177 227 273 342 402
#     4  10  22  41  71  97 130 174 226 276 322 401
#     4   8  20  42  64  96 132 170 230 258 326 408
#     4  10  22  42  67  99 136 175 225 273 333 403
#     4  11  25  44  66 101 142 173 219 290 336 384
#     4  10  22  41  68 100 129 182 227 265 334 403
#     4  10  23  39  71 100 128 176 227 275 332 400
#     4  11  22  41  69  97 131 177 227 270 331 406
#
# _framework density 25.879819000000001
#
# number of rings (size 3 to 8) (size 9 to 14) (size 15 to 20)
#    0.800    1.067    1.333    2.000    1.867    5.333 
#    0.000    2.667    0.000    0.000    0.000    0.000 
#    0.000    0.000    0.000    0.000    0.000    0.000 
#
# Total GULP energy -83750.696575 kJ/mol
# GULP energy per Si atom -5583.379772 kJ/mol
# Density = 2.582092 g / cm^3
# Si number density = 25.879819 Si / 1000 Ang^3
#
#
#
# Elastic Constant Matrix: (Units=GPa)
#
#
# Indices 1 2 3 4 5 6 
#
# 1 111.1589 27.6312 13.3651 -5.3575 17.0064 -6.3437
# 2 27.6312 115.3734 39.8163 8.2138 18.9767 -0.0852
# 3 13.3651 39.8163 64.3210 -5.5587 21.0565 -18.4901
# 4 -5.3575 8.2138 -5.5587 23.4865 0.2232 14.4977
# 5 17.0064 18.9767 21.0565 0.2232 38.1400 -14.1805
# 6 -6.3437 -0.0852 -18.4901 14.4977 -14.1805 44.8224
#
#
#
# Elastic Compliance Matrix: (Units=1/GPa)
#
#
# Indices 1 2 3 4 5 6 
#
# 1 0.010257 -0.002311 0.000767 0.003867 -0.004169 -0.000806
# 2 -0.002311 0.012612 -0.007905 -0.005313 -0.001740 -0.002396
# 3 0.000767 -0.007905 0.025142 0.005077 -0.007977 0.006299
# 4 0.003867 -0.005313 0.005077 0.058496 -0.009386 -0.019258
# 5 -0.004169 -0.001740 -0.007977 -0.009386 0.037498 0.011015
# 6 -0.000806 -0.002396 0.006299 -0.019258 0.011015 0.034504
#
#
# Mechanical properties :
#
#
# Convention : Reuss Voigt Hill
#
# Bulk Modulus (GPa) = 34.35083 50.27538 42.31310
# Shear Modulus (GPa) = 24.14149 35.29250 29.71700
#
# Velocity S-wave (km/s) = 3.05754 3.69685 3.39229
# Velocity P-wave (km/s) = 5.07610 6.13929 5.63284
#
# Compressibility (1/GPa) = 0.02911138
#
# Stress axis : x y z
#
# Youngs Moduli (GPa) = 97.49801 79.29068 39.77387
#
# Poissons Ratio (x) = 0.18325 -0.03049
# Poissons Ratio (y) = 0.22533 0.31442
# Poissons Ratio (z) = -0.07475 0.62680
#
# Static dielectric constant tensor:
#      x y z
#    x 2.040370 0.019390 -0.012320 
#    y 0.019390 2.093750 -0.021910 
#    z -0.012320 -0.021910 2.040230 
# 
# From -- ./inp_files/66379.got.cif
#   From: 2010.05.17/outbox.cif.g08.bks.cpg/sg2_34_cif.got.tgz:66379.got - 2010.06.03 11:33:40.
