data_PCOD9027430
_publ_section_title
;
Structure prediction by ZEFSAII (Michael W. Deem and Ramdas Pophale) SiO2 
 PCOD9027430
Probable space group: P -1
;
_chemical_formula_sum "Si O2"
_cell_formula_units_Z 15
_cell_length_a 14.020771
_cell_length_b 19.022029
_cell_length_c 7.709642
_cell_angle_alpha 122.673505
_cell_angle_beta 135.925228
_cell_angle_gamma 26.341771
_cell_volume 597.550732
_symmetry_space_group_name_H-M "P -1"
_symmetry_group_IT_number 2
_symmetry_cell_setting 'triclinic'
loop_
_space_group_symop_operation_xyz
x,y,z
-x,-y,-z
loop_
_atom_site_type_symbol
_atom_site_label
_atom_site_fract_x
_atom_site_fract_y
_atom_site_fract_z
Si Si1 0.965058 0.894071 0.211150
Si Si2 0.269188 0.365590 0.790681
Si Si3 0.756808 0.088841 0.526245
Si Si4 0.066858 0.299982 0.565245
Si Si5 0.504682 0.602668 0.008579
Si Si6 0.094494 0.110954 0.248367
Si Si7 0.500000 0.500000 0.500000
Si Si8 0.206412 0.465428 0.199435
O O1 0.024659 0.955493 0.296005
O O2 0.244375 0.697819 0.367079
O O3 0.840465 0.918453 0.908988
O O4 0.788020 0.003868 0.299747
O O5 0.261752 0.276816 0.746739
O O6 0.000000 0.500000 0.500000
O O7 0.505582 0.291270 0.901011
O O8 0.233907 0.452351 0.013855
O O9 0.477298 0.289313 0.411921
O O10 0.788558 0.025790 0.664717
O O11 0.204146 0.138515 0.511895
O O12 0.925652 0.385339 0.684097
O O13 0.801019 0.438915 0.274018
O O14 0.238137 0.721102 0.934046
O O15 0.492885 0.549375 0.753551
O O16 0.000000 0.500000 0.000000
#
# Coordination Sequence:
#
# PCOD9027430 Si02
#       8
#     2   2   2   2   2   2   1   2
#     4  11  25  42  64 107 146 189 226 297 366 422
#     4   9  21  41  64  96 134 179 234 288 351 418
#     4  11  25  43  65 103 149 186 230 294 377 425
#     4  10  22  41  68 100 137 185 244 292 343 429
#     4  11  22  35  68 104 140 182 238 296 347 422
#     4  12  24  42  67 109 145 182 236 300 365 423
#     4  12  22  40  68 104 146 184 238 296 354 416
#     4  10  22  44  70  95 130 187 245 289 341 433
#
# _framework density 25.102471999999999
#
# number of rings (size 3 to 8) (size 9 to 14) (size 15 to 20)
#    0.000    1.333    2.667    2.400    5.600    0.000 
#    4.800    2.667    0.000    3.200    0.000    0.000 
#    0.000    0.000    0.000    0.000    0.000    0.000 
#
# Total GULP energy -83547.266105 kJ/mol
# GULP energy per Si atom -5569.817740 kJ/mol
# Density = 2.504534 g / cm^3
# Si number density = 25.102472 Si / 1000 Ang^3
#
#
#
# Elastic Constant Matrix: (Units=GPa)
#
#
# Indices 1 2 3 4 5 6 
#
# 1 77.1434 35.6202 10.4668 15.0277 4.1056 18.1307
# 2 35.6202 106.3872 37.5155 23.7708 -17.9740 -1.2416
# 3 10.4668 37.5155 87.4343 14.1065 -34.0322 1.6332
# 4 15.0277 23.7708 14.1065 46.0530 -1.9013 -5.1343
# 5 4.1056 -17.9740 -34.0322 -1.9013 48.2755 8.6327
# 6 18.1307 -1.2416 1.6332 -5.1343 8.6327 29.5556
#
#
#
# Elastic Compliance Matrix: (Units=1/GPa)
#
#
# Indices 1 2 3 4 5 6 
#
# 1 0.019783 -0.006160 0.000832 -0.005026 -0.001273 -0.012942
# 2 -0.006160 0.014061 -0.003886 -0.003596 0.002290 0.003291
# 3 0.000832 -0.003886 0.018686 -0.004150 0.012583 -0.006103
# 4 -0.005026 -0.003596 -0.004150 0.027325 -0.004405 0.009195
# 5 -0.001273 0.002290 0.012583 -0.004405 0.032156 -0.009976
# 6 -0.012942 0.003291 -0.006103 0.009195 -0.009976 0.046760
#
#
# Mechanical properties :
#
#
# Convention : Reuss Voigt Hill
#
# Bulk Modulus (GPa) = 29.32362 48.68555 39.00459
# Shear Modulus (GPa) = 26.51580 37.26765 31.89172
#
# Velocity S-wave (km/s) = 3.25361 3.85726 3.56822
# Velocity P-wave (km/s) = 5.08149 6.26696 5.70510
#
# Compressibility (1/GPa) = 0.03410220
#
# Stress axis : x y z
#
# Youngs Moduli (GPa) = 50.54894 71.11803 53.51516
#
# Poissons Ratio (x) = 0.43810 -0.04452
# Poissons Ratio (y) = 0.31139 0.20795
# Poissons Ratio (z) = -0.04206 0.27636
#
# Static dielectric constant tensor:
#      x y z
#    x 1.743690 0.072480 0.213690 
#    y 0.072480 2.001680 -0.016330 
#    z 0.213690 -0.016330 1.827840 
# 
# From -- ./inp_files/337293.got.cif
#   From: 2010.05.17/outbox.cif.g08.bks.cpg/sg2_169_cif.got.tgz:337293.got - 2010.06.03 11:33:40.
