data_PCOD9027344
_publ_section_title
;
Structure prediction by ZEFSAII (Michael W. Deem and Ramdas Pophale) SiO2 
 PCOD9027344
Probable space group: P -1
;
_chemical_formula_sum "Si O2"
_cell_formula_units_Z 16
_cell_length_a 10.752834
_cell_length_b 15.180130
_cell_length_c 17.043847
_cell_angle_alpha 24.458832
_cell_angle_beta 46.709647
_cell_angle_gamma 35.885808
_cell_volume 659.651464
_symmetry_space_group_name_H-M "P -1"
_symmetry_group_IT_number 2
_symmetry_cell_setting 'triclinic'
loop_
_space_group_symop_operation_xyz
x,y,z
-x,-y,-z
loop_
_atom_site_type_symbol
_atom_site_label
_atom_site_fract_x
_atom_site_fract_y
_atom_site_fract_z
Si Si1 0.667670 0.685439 0.085122
Si Si2 0.472364 0.403888 0.351717
Si Si3 0.279018 0.559998 0.023935
Si Si4 0.430900 0.787492 0.268169
Si Si5 0.899821 0.483509 0.477721
Si Si6 0.085122 0.729189 0.136778
Si Si7 0.124590 0.217300 0.328032
Si Si8 0.022067 0.053511 0.658952
O O1 0.545146 0.592808 0.167605
O O2 0.580947 0.727798 0.177950
O O3 0.927870 0.437786 0.176491
O O4 0.594952 0.980895 0.854546
O O5 0.318221 0.465489 0.442943
O O6 0.312199 0.487051 0.278656
O O7 0.687181 0.095657 0.520748
O O8 0.129635 0.726899 0.028505
O O9 0.253317 0.330475 0.206645
O O10 0.500000 0.500000 0.000000
O O11 0.212305 0.737868 0.830589
O O12 0.500000 0.500000 0.500000
O O13 0.181159 0.932502 0.240273
O O14 0.051742 0.202466 0.594003
O O15 0.000000 0.500000 0.500000
O O16 0.901671 0.688339 0.256203
O O17 0.000000 0.000000 0.000000
O O18 0.007030 0.194281 0.471477
#
# Coordination Sequence:
#
# PCOD9027344 Si02
#       8
#     2   2   2   2   2   2   2   2
#     4  11  24  45  71 102 138 182 236 285 348 419
#     4  11  25  45  68 101 146 188 226 291 349 414
#     4  12  27  43  70 101 139 184 229 285 351 421
#     4  11  23  42  73 103 132 177 237 291 343 403
#     4  10  22  41  67  96 135 178 228 282 338 402
#     4  11  25  43  69 104 138 181 238 287 347 411
#     4  12  26  45  70 102 144 186 229 283 354 421
#     4  12  23  45  70 101 136 180 235 287 343 411
#
# _framework density 24.255233
#
# number of rings (size 3 to 8) (size 9 to 14) (size 15 to 20)
#    0.000    0.750    5.000    2.625    5.250    2.000 
#    0.000    0.625    0.000    0.000    0.000    0.000 
#    0.000    0.000    0.000    0.000    0.000    0.000 
#
# Total GULP energy -89363.378100 kJ/mol
# GULP energy per Si atom -5585.211131 kJ/mol
# Density = 2.420003 g / cm^3
# Si number density = 24.255233 Si / 1000 Ang^3
#
#
#
# Elastic Constant Matrix: (Units=GPa)
#
#
# Indices 1 2 3 4 5 6 
#
# 1 73.4887 20.6701 35.2921 -1.0428 -14.7681 -22.6846
# 2 20.6701 70.9574 24.7995 1.6092 -4.4673 -11.6700
# 3 35.2921 24.7995 147.6993 -2.0890 -22.7316 -7.0811
# 4 -1.0428 1.6092 -2.0890 31.8749 -1.7433 0.4836
# 5 -14.7681 -4.4673 -22.7316 -1.7433 50.9804 -3.5491
# 6 -22.6846 -11.6700 -7.0811 0.4836 -3.5491 42.3238
#
#
#
# Elastic Compliance Matrix: (Units=1/GPa)
#
#
# Indices 1 2 3 4 5 6 
#
# 1 0.019862 -0.002827 -0.003047 0.000710 0.004851 0.009755
# 2 -0.002827 0.016031 -0.001928 -0.001075 -0.000131 0.002584
# 3 -0.003047 -0.001928 0.008202 0.000686 0.002589 -0.000583
# 4 0.000710 -0.001075 0.000686 0.031577 0.001495 -0.000036
# 5 0.004851 -0.000131 0.002589 0.001495 0.022554 0.004871
# 6 0.009755 0.002584 -0.000583 -0.000036 0.004871 0.029880
#
#
# Mechanical properties :
#
#
# Convention : Reuss Voigt Hill
#
# Bulk Modulus (GPa) = 35.09756 50.40764 42.75260
# Shear Modulus (GPa) = 32.63549 39.12806 35.88178
#
# Velocity S-wave (km/s) = 3.67209 4.02080 3.85039
# Velocity P-wave (km/s) = 5.69917 6.51023 6.11815
#
# Compressibility (1/GPa) = 0.02849201
#
# Stress axis : x y z
#
# Youngs Moduli (GPa) = 50.34720 62.37780 121.91593
#
# Poissons Ratio (x) = 0.17636 0.37147
# Poissons Ratio (y) = 0.14235 0.23500
# Poissons Ratio (z) = 0.15341 0.12024
#
# Static dielectric constant tensor:
#      x y z
#    x 0.920220 2.063030 0.348570 
#    y 2.063030 -2.499240 -0.732180 
#    z 0.348570 -0.732180 1.854520 
# 
# From -- ./inp_files/348820.got.cif
#   From: 2010.05.17/outbox.cif.g08.bks.cpg/sg2_175_cif.got.tgz:348820.got - 2010.06.03 11:33:40.
