data_PCOD9027128
_publ_section_title
;
Structure prediction by ZEFSAII (Michael W. Deem and Ramdas Pophale) SiO2 
 PCOD9027128
Probable space group: P -1
;
_chemical_formula_sum "Si O2"
_cell_formula_units_Z 16
_cell_length_a 7.842467
_cell_length_b 14.726618
_cell_length_c 15.282838
_cell_angle_alpha 36.142095
_cell_angle_beta 89.767503
_cell_angle_gamma 114.912110
_cell_volume 722.689130
_symmetry_space_group_name_H-M "P -1"
_symmetry_group_IT_number 2
_symmetry_cell_setting 'triclinic'
loop_
_space_group_symop_operation_xyz
x,y,z
-x,-y,-z
loop_
_atom_site_type_symbol
_atom_site_label
_atom_site_fract_x
_atom_site_fract_y
_atom_site_fract_z
Si Si1 0.969191 0.965444 0.788116
Si Si2 0.420245 0.595950 0.010582
Si Si3 0.613107 0.105721 0.322046
Si Si4 0.974584 0.876916 0.677650
Si Si5 0.953347 0.535599 0.376976
Si Si6 0.672391 0.313903 0.880484
Si Si7 0.440507 0.074646 0.720896
Si Si8 0.153566 0.987494 0.070186
O O1 0.168585 0.968993 0.813733
O O2 0.688307 0.737211 0.942999
O O3 0.050075 0.040446 0.629582
O O4 0.948877 0.073337 0.782112
O O5 0.403670 0.726841 0.838661
O O6 0.293724 0.366295 0.148224
O O7 0.280236 0.565935 0.122255
O O8 0.870787 0.180731 0.268879
O O9 0.500000 0.000000 0.500000
O O10 0.502975 0.951734 0.356160
O O11 0.000000 0.000000 0.500000
O O12 0.657328 0.339107 0.526514
O O13 0.000000 0.500000 0.500000
O O14 0.086855 0.534141 0.298305
O O15 0.097805 0.789158 0.181596
O O16 0.438863 0.220414 0.897120
O O17 0.568111 0.078524 0.096062
O O18 0.000000 0.000000 0.000000
#
# Coordination Sequence:
#
# PCOD9027128 Si02
#       8
#     2   2   2   2   2   2   2   2
#     4  10  23  43  63  93 135 168 220 272 323 394
#     4  10  22  43  70  95 132 180 210 271 341 388
#     4  10  22  41  66  98 132 171 218 273 323 398
#     4  11  23  41  65  99 135 172 217 273 325 401
#     4  12  25  41  72  96 125 179 223 272 332 385
#     4  10  23  45  68  96 136 167 225 273 328 400
#     4  10  23  45  66 100 132 172 221 275 326 393
#     4  11  24  44  65  95 133 176 216 277 330 382
#
# _framework density 22.139534000000001
#
# number of rings (size 3 to 8) (size 9 to 14) (size 15 to 20)
#    0.000    1.500    1.250    2.625    3.500    1.500 
#   15.750    0.000    0.000    0.000    0.000    0.000 
#    0.000    0.000    0.000    0.000    0.000    0.000 
#
# Total GULP energy -89069.421209 kJ/mol
# GULP energy per Si atom -5566.838826 kJ/mol
# Density = 2.208914 g / cm^3
# Si number density = 22.139534 Si / 1000 Ang^3
#
#
#
# Elastic Constant Matrix: (Units=GPa)
#
#
# Indices 1 2 3 4 5 6 
#
# 1 75.1977 26.0026 27.0040 9.0273 -18.5661 16.7292
# 2 26.0026 95.8616 32.0769 14.9621 -1.2723 8.4559
# 3 27.0040 32.0769 65.0208 10.8624 -9.4595 10.5458
# 4 9.0273 14.9621 10.8624 31.1202 -7.0883 -4.8955
# 5 -18.5661 -1.2723 -9.4595 -7.0883 20.7062 3.8135
# 6 16.7292 8.4559 10.5458 -4.8955 3.8135 37.4828
#
#
#
# Elastic Compliance Matrix: (Units=1/GPa)
#
#
# Indices 1 2 3 4 5 6 
#
# 1 0.023527 -0.004089 -0.002713 -0.000788 0.021378 -0.011093
# 2 -0.004089 0.014068 -0.005434 -0.005270 -0.007128 0.000217
# 3 -0.002713 -0.005434 0.021495 -0.003300 0.006795 -0.004733
# 4 -0.000788 -0.005270 -0.003300 0.039297 0.009696 0.006615
# 5 0.021378 -0.007128 0.006795 0.009696 0.076461 -0.016358
# 6 -0.011093 0.000217 -0.004733 0.006615 -0.016358 0.035441
#
#
# Mechanical properties :
#
#
# Convention : Reuss Voigt Hill
#
# Bulk Modulus (GPa) = 28.88655 45.13857 37.01256
# Shear Modulus (GPa) = 20.30055 27.92829 24.11442
#
# Velocity S-wave (km/s) = 3.03138 3.55557 3.30389
# Velocity P-wave (km/s) = 5.03271 6.10644 5.59539
#
# Compressibility (1/GPa) = 0.03461818
#
# Stress axis : x y z
#
# Youngs Moduli (GPa) = 42.50469 71.08385 46.52307
#
# Poissons Ratio (x) = 0.29064 0.12622
# Poissons Ratio (y) = 0.17379 0.25280
# Poissons Ratio (z) = 0.11532 0.38626
#
# Static dielectric constant tensor:
#      x y z
#    x 1.899760 -0.034980 -0.141450 
#    y -0.034980 1.792300 0.029910 
#    z -0.141450 0.029910 1.842420 
# 
# From -- ./inp_files/503866.got.cif
#   From: 2010.05.17/outbox.cif.g08.bks.cpg/sg2_252_cif.got.tgz:503866.got - 2010.06.03 11:33:40.
