data_PCOD9027138
_publ_section_title
;
Structure prediction by ZEFSAII (Michael W. Deem and Ramdas Pophale) SiO2 
 PCOD9027138
Probable space group: P -1
;
_chemical_formula_sum "Si O2"
_cell_formula_units_Z 16
_cell_length_a 17.904599
_cell_length_b 15.879249
_cell_length_c 24.320895
_cell_angle_alpha 160.369854
_cell_angle_beta 19.253713
_cell_angle_gamma 151.439065
_cell_volume 762.296043
_symmetry_space_group_name_H-M "P -1"
_symmetry_group_IT_number 2
_symmetry_cell_setting 'triclinic'
loop_
_space_group_symop_operation_xyz
x,y,z
-x,-y,-z
loop_
_atom_site_type_symbol
_atom_site_label
_atom_site_fract_x
_atom_site_fract_y
_atom_site_fract_z
Si Si1 0.277540 0.953700 0.762091
Si Si2 0.838700 0.737993 0.070919
Si Si3 0.023604 0.795726 0.405742
Si Si4 0.242109 0.970728 0.174727
Si Si5 0.423705 0.460394 0.768494
Si Si6 0.857423 0.681707 0.636928
Si Si7 0.468689 0.760934 0.147476
Si Si8 0.120994 0.187954 0.174750
O O1 0.303253 0.135085 0.803349
O O2 0.425078 0.041640 0.764373
O O3 0.412968 0.691744 0.483983
O O4 0.000000 0.000000 0.000000
O O5 0.694286 0.707383 0.207876
O O6 0.940666 0.470431 0.812491
O O7 0.034172 0.922370 0.058031
O O8 0.220564 0.815130 0.326735
O O9 0.000000 0.000000 0.500000
O O10 0.805251 0.859909 0.634457
O O11 0.103863 0.105405 0.303099
O O12 0.234489 0.672828 0.006401
O O13 0.500000 0.000000 0.000000
O O14 0.595972 0.621077 0.781560
O O15 0.931485 0.762911 0.695031
O O16 0.988852 0.409003 0.366113
O O17 0.500000 0.500000 0.000000
O O18 0.623163 0.771992 0.992577
#
# Coordination Sequence:
#
# PCOD9027138 Si02
#       8
#     2   2   2   2   2   2   2   2
#     4  12  25  44  71 108 143 176 239 301 355 413
#     4  12  24  43  72 100 146 179 232 294 356 410
#     4  12  26  48  72 101 144 188 237 288 357 429
#     4  10  24  43  71  97 133 189 234 279 350 424
#     4  11  23  44  70  99 136 190 230 286 358 422
#     4  10  22  41  66  98 141 178 236 284 348 424
#     4  12  25  42  72 103 137 187 239 293 353 422
#     4  11  24  40  67 106 139 179 234 297 356 408
#
# _framework density 20.989221000000001
#
# number of rings (size 3 to 8) (size 9 to 14) (size 15 to 20)
#    0.000    0.750    5.000    1.875    5.250    2.000 
#    2.250    1.875    0.000    0.000    0.000    0.000 
#    0.000    0.000    0.000    0.000    0.000    0.000 
#
# Total GULP energy -89181.727551 kJ/mol
# GULP energy per Si atom -5573.857972 kJ/mol
# Density = 2.094145 g / cm^3
# Si number density = 20.989221 Si / 1000 Ang^3
#
#
#
# Elastic Constant Matrix: (Units=GPa)
#
#
# Indices 1 2 3 4 5 6 
#
# 1 91.5300 36.0635 42.8829 13.9068 5.7213 -8.5131
# 2 36.0635 78.5168 48.8554 1.9072 -1.1121 -12.9945
# 3 42.8829 48.8554 101.8634 10.3903 12.6851 -4.1496
# 4 13.9068 1.9072 10.3903 43.0596 -9.4755 0.8816
# 5 5.7213 -1.1121 12.6851 -9.4755 33.8531 4.4942
# 6 -8.5131 -12.9945 -4.1496 0.8816 4.4942 40.0725
#
#
#
# Elastic Compliance Matrix: (Units=1/GPa)
#
#
# Indices 1 2 3 4 5 6 
#
# 1 0.015377 -0.004612 -0.003328 -0.004670 -0.003059 0.001872
# 2 -0.004612 0.021226 -0.009132 0.003857 0.005412 0.004266
# 3 -0.003328 -0.009132 0.016857 -0.004123 -0.007070 -0.001039
# 4 -0.004670 0.003857 -0.004123 0.027914 0.010535 -0.001964
# 5 -0.003059 0.005412 -0.007070 0.010535 0.036355 -0.003936
# 6 0.001872 0.004266 -0.001039 -0.001964 -0.003936 0.027113
#
#
# Mechanical properties :
#
#
# Convention : Reuss Voigt Hill
#
# Bulk Modulus (GPa) = 51.77302 58.61264 55.19283
# Shear Modulus (GPa) = 26.96537 33.00426 29.98482
#
# Velocity S-wave (km/s) = 3.58819 3.96970 3.78376
# Velocity P-wave (km/s) = 6.47201 6.99979 6.74107
#
# Compressibility (1/GPa) = 0.01931508
#
# Stress axis : x y z
#
# Youngs Moduli (GPa) = 65.03397 47.11259 59.32418
#
# Poissons Ratio (x) = 0.21729 0.19741
# Poissons Ratio (y) = 0.29994 0.54176
# Poissons Ratio (z) = 0.21641 0.43024
#
# Static dielectric constant tensor:
#      x y z
#    x 1.792280 0.008710 -0.018480 
#    y 0.008710 1.794300 0.008520 
#    z -0.018480 0.008520 1.852500 
# 
# From -- ./inp_files/565838.got.cif
#   From: 2010.05.17/outbox.cif.g08.bks.cpg/sg2_283_cif.got.tgz:565838.got - 2010.06.03 11:33:40.
