data_PCOD9027935
_publ_section_title
;
Structure prediction by ZEFSAII (Michael W. Deem and Ramdas Pophale) SiO2 
 PCOD9027935
Probable space group: P -1
;
_chemical_formula_sum "Si O2"
_cell_formula_units_Z 14
_cell_length_a 6.335016
_cell_length_b 22.863335
_cell_length_c 14.863141
_cell_angle_alpha 159.708721
_cell_angle_beta 102.445261
_cell_angle_gamma 86.268490
_cell_volume 666.652610
_symmetry_space_group_name_H-M "P -1"
_symmetry_group_IT_number 2
_symmetry_cell_setting 'triclinic'
loop_
_space_group_symop_operation_xyz
x,y,z
-x,-y,-z
loop_
_atom_site_type_symbol
_atom_site_label
_atom_site_fract_x
_atom_site_fract_y
_atom_site_fract_z
Si Si1 0.195119 0.101830 0.238139
Si Si2 0.524180 0.018001 0.782331
Si Si3 0.457231 0.491223 0.730626
Si Si4 0.704735 0.448751 0.388387
Si Si5 0.926272 0.592352 0.989314
Si Si6 0.567479 0.162896 0.669681
Si Si7 0.996539 0.252404 0.594888
O O1 0.357974 0.300145 0.499211
O O2 0.088570 0.142608 0.378036
O O3 0.335023 0.985226 0.118989
O O4 0.000000 0.000000 0.000000
O O5 0.568216 0.917908 0.552660
O O6 0.255945 0.890435 0.599628
O O7 0.586270 0.227120 0.063203
O O8 0.319150 0.479418 0.609319
O O9 0.734346 0.538888 0.816368
O O10 0.454600 0.661119 0.033827
O O11 0.500000 0.500000 0.500000
O O12 0.000000 0.500000 0.500000
O O13 0.978272 0.417872 0.773160
O O14 0.156682 0.759447 0.217344
O O15 0.854377 0.654274 0.167685
O O16 0.500000 0.000000 0.500000
#
# Coordination Sequence:
#
# PCOD9027935 Si02
#       7
#     2   2   2   2   2   2   2
#     4  12  26  42  70 101 143 191 248 298 364 449
#     4  11  25  46  72 104 143 189 247 310 372 444
#     4  12  25  45  73 106 142 191 245 312 370 445
#     4  12  31  53  75 104 155 206 249 305 373 447
#     4  10  22  41  70 102 139 180 235 311 378 437
#     4  11  23  44  70 104 140 184 243 302 382 441
#     4  10  22  42  68 104 140 182 237 308 378 437
#
# _framework density 21.000440999999999
#
# number of rings (size 3 to 8) (size 9 to 14) (size 15 to 20)
#    0.000    0.857    4.286    1.714    6.000    3.429 
#    0.000    0.000    0.000    0.000    0.000    0.000 
#    0.000    0.000    0.000    0.000    0.000    0.000 
#
# Total GULP energy -77985.574728 kJ/mol
# GULP energy per Si atom -5570.398195 kJ/mol
# Density = 2.095264 g / cm^3
# Si number density = 21.000441 Si / 1000 Ang^3
#
#
#
# Elastic Constant Matrix: (Units=GPa)
#
#
# Indices 1 2 3 4 5 6 
#
# 1 62.8994 32.9372 12.7324 -14.4967 9.5388 -2.8972
# 2 32.9372 95.8971 -0.7977 4.1203 19.7470 -4.8765
# 3 12.7324 -0.7977 56.8707 4.6583 4.1063 8.7044
# 4 -14.4967 4.1203 4.6583 34.0485 -3.0488 16.7232
# 5 9.5388 19.7470 4.1063 -3.0488 31.9115 -6.1820
# 6 -2.8972 -4.8765 8.7044 16.7232 -6.1820 26.4009
#
#
#
# Elastic Compliance Matrix: (Units=1/GPa)
#
#
# Indices 1 2 3 4 5 6 
#
# 1 0.025981 -0.009948 -0.006085 0.016888 -0.000735 -0.007849
# 2 -0.009948 0.016064 0.002946 -0.009933 -0.007229 0.005503
# 3 -0.006085 0.002946 0.020426 -0.003295 -0.004055 -0.005720
# 4 0.016888 -0.009933 -0.003295 0.054673 0.000263 -0.033465
# 5 -0.000735 -0.007229 -0.004055 0.000263 0.038265 0.008715
# 6 -0.007849 0.005503 -0.005720 -0.033465 0.008715 0.063157
#
#
# Mechanical properties :
#
#
# Convention : Reuss Voigt Hill
#
# Bulk Modulus (GPa) = 27.55065 33.93454 30.74260
# Shear Modulus (GPa) = 19.46737 29.85853 24.66295
#
# Velocity S-wave (km/s) = 3.04797 3.77477 3.43067
# Velocity P-wave (km/s) = 5.05315 5.93234 5.51031
#
# Compressibility (1/GPa) = 0.03629678
#
# Stress axis : x y z
#
# Youngs Moduli (GPa) = 38.48905 62.25001 48.95810
#
# Poissons Ratio (x) = 0.61925 0.29792
# Poissons Ratio (y) = 0.38288 -0.14422
# Poissons Ratio (z) = 0.23421 -0.18337
#
# Static dielectric constant tensor:
#      x y z
#    x 1.908560 -0.024890 0.011080 
#    y -0.024890 1.725650 -0.044880 
#    z 0.011080 -0.044880 1.751180 
# 
# From -- ./inp_files/72449.got.cif
#   From: 2010.05.17/outbox.cif.g08.bks.cpg/sg2_37_cif.got.tgz:72449.got - 2010.06.03 11:33:40.
