data_PCOD9027093
_publ_section_title
;
Structure prediction by ZEFSAII (Michael W. Deem and Ramdas Pophale) SiO2 
 PCOD9027093
Probable space group: P -1
;
_chemical_formula_sum "Si O2"
_cell_formula_units_Z 15
_cell_length_a 8.118714
_cell_length_b 8.618103
_cell_length_c 11.389049
_cell_angle_alpha 97.964888
_cell_angle_beta 91.314807
_cell_angle_gamma 124.870265
_cell_volume 642.343517
_symmetry_space_group_name_H-M "P -1"
_symmetry_group_IT_number 2
_symmetry_cell_setting 'triclinic'
loop_
_space_group_symop_operation_xyz
x,y,z
-x,-y,-z
loop_
_atom_site_type_symbol
_atom_site_label
_atom_site_fract_x
_atom_site_fract_y
_atom_site_fract_z
Si Si1 0.030900 0.547822 0.796218
Si Si2 0.266053 0.151736 0.733991
Si Si3 0.659020 0.503353 0.659787
Si Si4 0.690937 0.024458 0.064219
Si Si5 0.208317 0.407047 0.922538
Si Si6 0.878539 0.573320 0.439719
Si Si7 0.000000 0.000000 0.500000
Si Si8 0.661502 0.723753 0.883303
O O1 0.825043 0.483519 0.722999
O O2 0.144315 0.760025 0.870762
O O3 0.026244 0.419726 0.887131
O O4 0.164643 0.533260 0.696211
O O5 0.440961 0.317345 0.671273
O O6 0.182815 0.239676 0.826157
O O7 0.096082 0.996075 0.627732
O O8 0.361066 0.086650 0.824022
O O9 0.702484 0.520081 0.524029
O O10 0.678815 0.683374 0.743809
O O11 0.500000 0.000000 0.000000
O O12 0.760683 0.934468 0.959492
O O13 0.426050 0.600542 0.907148
O O14 0.247149 0.370847 0.050747
O O15 0.000000 0.500000 0.500000
O O16 0.979560 0.798612 0.439825
#
# Coordination Sequence:
#
# PCOD9027093 Si02
#       8
#     2   2   2   2   2   2   1   2
#     4  11  21  40  64  92 130 180 214 273 341 392
#     4  10  22  41  66  97 126 177 226 270 339 402
#     4  10  23  41  65  97 137 166 224 287 328 396
#     4  11  22  40  69  95 134 180 223 271 337 413
#     4   9  17  36  63  84 126 173 217 256 334 405
#     4  10  23  44  66  94 135 178 225 273 340 406
#     4  12  22  44  74  92 128 186 226 274 338 408
#     4   9  19  37  60  95 124 169 221 269 326 398
#
# _framework density 23.351991999999999
#
# number of rings (size 3 to 8) (size 9 to 14) (size 15 to 20)
#    0.000    1.867    2.667    2.400    0.000    1.600 
#    0.000    8.667    0.000    0.000    0.000    0.000 
#    0.000    0.000    0.000    0.000    0.000    0.000 
#
# Total GULP energy -83522.746619 kJ/mol
# GULP energy per Si atom -5568.183108 kJ/mol
# Density = 2.329884 g / cm^3
# Si number density = 23.351992 Si / 1000 Ang^3
#
#
#
# Elastic Constant Matrix: (Units=GPa)
#
#
# Indices 1 2 3 4 5 6 
#
# 1 72.4786 17.5394 28.4207 -7.7352 4.7023 -13.0315
# 2 17.5394 53.4997 26.1235 12.4153 -12.8463 -18.6504
# 3 28.4207 26.1235 148.4176 6.4479 -21.0265 3.7837
# 4 -7.7352 12.4153 6.4479 36.7805 -8.3402 3.0067
# 5 4.7023 -12.8463 -21.0265 -8.3402 57.1426 -6.4511
# 6 -13.0315 -18.6504 3.7837 3.0067 -6.4511 31.4056
#
#
#
# Elastic Compliance Matrix: (Units=1/GPa)
#
#
# Indices 1 2 3 4 5 6 
#
# 1 0.017563 -0.004505 -0.003237 0.004890 -0.002481 0.004024
# 2 -0.004505 0.034225 -0.004170 -0.011894 0.007231 0.021582
# 3 -0.003237 -0.004170 0.008480 0.000047 0.001954 -0.004444
# 4 0.004890 -0.011894 0.000047 0.033075 0.000862 -0.008029
# 5 -0.002481 0.007231 0.001954 0.000862 0.020994 0.007259
# 6 0.004024 0.021582 -0.004444 -0.008029 0.007259 0.049123
#
#
# Mechanical properties :
#
#
# Convention : Reuss Voigt Hill
#
# Bulk Modulus (GPa) = 27.43996 46.50700 36.97348
# Shear Modulus (GPa) = 25.07118 38.55321 31.81219
#
# Velocity S-wave (km/s) = 3.28017 4.06761 3.69493
# Velocity P-wave (km/s) = 5.11098 6.48224 5.83702
#
# Compressibility (1/GPa) = 0.03644320
#
# Stress axis : x y z
#
# Youngs Moduli (GPa) = 56.93775 29.21850 117.92832
#
# Poissons Ratio (x) = 0.13163 0.38171
# Poissons Ratio (y) = 0.25651 0.49182
# Poissons Ratio (z) = 0.18429 0.12185
#
# Static dielectric constant tensor:
#      x y z
#    x 1.924280 0.008550 -0.010580 
#    y 0.008550 1.897220 -0.006660 
#    z -0.010580 -0.006660 1.872060 
# 
# From -- ./inp_files/379581.got.cif
#   From: 2010.05.17/outbox.cif.g08.bks.cpg/sg2_190_cif.got.tgz:379581.got - 2010.06.03 11:33:40.
