data_PCOD9027876
_publ_section_title
;
Structure prediction by ZEFSAII (Michael W. Deem and Ramdas Pophale) SiO2 
 PCOD9027876
Probable space group: P -1
;
_chemical_formula_sum "Si O2"
_cell_formula_units_Z 16
_cell_length_a 9.133500
_cell_length_b 12.753952
_cell_length_c 13.050702
_cell_angle_alpha 133.603151
_cell_angle_beta 133.821346
_cell_angle_gamma 54.209687
_cell_volume 777.349494
_symmetry_space_group_name_H-M "P -1"
_symmetry_group_IT_number 2
_symmetry_cell_setting 'triclinic'
loop_
_space_group_symop_operation_xyz
x,y,z
-x,-y,-z
loop_
_atom_site_type_symbol
_atom_site_label
_atom_site_fract_x
_atom_site_fract_y
_atom_site_fract_z
Si Si1 0.546315 0.067848 0.175032
Si Si2 0.142676 0.863669 0.113082
Si Si3 0.634619 0.385937 0.411170
Si Si4 0.022095 0.923894 0.326204
Si Si5 0.577876 0.646435 0.170662
Si Si6 0.191897 0.148874 0.215510
Si Si7 0.758914 0.578842 0.439268
Si Si8 0.042390 0.233580 0.618130
O O1 0.544921 0.238805 0.268484
O O2 0.380400 0.062461 0.179273
O O3 0.776411 0.986538 0.261625
O O4 0.500000 0.000000 0.000000
O O5 0.377435 0.777912 0.159462
O O6 0.073289 0.863660 0.197154
O O7 0.122427 0.033296 0.181691
O O8 0.994759 0.796681 0.918649
O O9 0.500000 0.500000 0.500000
O O10 0.640239 0.463256 0.357018
O O11 0.869950 0.334185 0.531514
O O12 0.070839 0.801262 0.355669
O O13 0.114817 0.070528 0.491270
O O14 0.668860 0.625151 0.315487
O O15 0.763236 0.689088 0.222473
O O16 0.500000 0.500000 0.000000
O O17 0.256663 0.280112 0.398564
O O18 0.000000 0.500000 0.500000
#
# Coordination Sequence:
#
# PCOD9027876 Si02
#       8
#     2   2   2   2   2   2   2   2
#     4  11  22  41  68  98 136 174 226 281 341 400
#     4  11  25  41  68 102 134 168 233 277 343 397
#     4  11  24  41  67 100 131 180 231 274 337 414
#     4  10  22  41  69  99 127 177 218 287 339 393
#     4  12  27  46  65  99 137 181 223 284 341 406
#     4  11  24  44  70 100 136 178 225 285 337 415
#     4  12  25  44  71  94 137 184 226 276 342 410
#     4  10  23  43  66  94 138 170 225 275 341 403
#
# _framework density 20.582763
#
# number of rings (size 3 to 8) (size 9 to 14) (size 15 to 20)
#    0.000    1.000    3.750    2.250    3.500    5.000 
#    0.000    0.625    0.000    0.000    0.000    0.000 
#    0.000    0.000    0.000    0.000    0.000    0.000 
#
# Total GULP energy -89474.942049 kJ/mol
# GULP energy per Si atom -5592.183878 kJ/mol
# Density = 2.053592 g / cm^3
# Si number density = 20.582763 Si / 1000 Ang^3
#
#
#
# Elastic Constant Matrix: (Units=GPa)
#
#
# Indices 1 2 3 4 5 6 
#
# 1 75.5462 9.3950 19.3532 0.1023 -3.8295 6.1867
# 2 9.3950 61.6230 24.2340 -2.7925 -3.3967 4.7366
# 3 19.3532 24.2340 113.2888 -2.2808 -3.8407 0.3821
# 4 0.1023 -2.7925 -2.2808 17.5255 2.4760 -2.0775
# 5 -3.8295 -3.3967 -3.8407 2.4760 35.6121 -2.6942
# 6 6.1867 4.7366 0.3821 -2.0775 -2.6942 34.3988
#
#
#
# Elastic Compliance Matrix: (Units=1/GPa)
#
#
# Indices 1 2 3 4 5 6 
#
# 1 0.014177 -0.001117 -0.002158 -0.000972 0.001075 -0.002346
# 2 -0.001117 0.018118 -0.003605 0.002050 0.000921 -0.002058
# 3 -0.002158 -0.003605 0.009997 0.000769 0.000514 0.000860
# 4 -0.000972 0.002050 0.000769 0.058378 -0.003649 0.003124
# 5 0.001075 0.000921 0.000514 -0.003649 0.028722 0.001703
# 6 -0.002346 -0.002058 0.000860 0.003124 0.001703 0.030089
#
#
# Mechanical properties :
#
#
# Convention : Reuss Voigt Hill
#
# Bulk Modulus (GPa) = 35.05049 39.60249 37.32649
# Shear Modulus (GPa) = 27.35970 30.67234 29.01602
#
# Velocity S-wave (km/s) = 3.64985 3.86449 3.75870
# Velocity P-wave (km/s) = 5.90151 6.26057 6.08369
#
# Compressibility (1/GPa) = 0.02853027
#
# Stress axis : x y z
#
# Youngs Moduli (GPa) = 70.53840 55.19457 100.03114
#
# Poissons Ratio (x) = 0.06166 0.21587
# Poissons Ratio (y) = 0.07880 0.36065
# Poissons Ratio (z) = 0.15223 0.19900
#
# Static dielectric constant tensor:
#      x y z
#    x 1.726020 0.019580 0.016140 
#    y 0.019580 1.725700 -0.031340 
#    z 0.016140 -0.031340 1.784370 
# 
# From -- ./inp_files/224096.got.cif
#   From: 2010.05.17/outbox.cif.g08.bks.cpg/sg2_113_cif.got.tgz:224096.got - 2010.06.03 11:33:40.
