data_PCOD9027812
_publ_section_title
;
Structure prediction by ZEFSAII (Michael W. Deem and Ramdas Pophale) SiO2 
 PCOD9027812
Probable space group: P -1
;
_chemical_formula_sum "Si O2"
_cell_formula_units_Z 16
_cell_length_a 13.564911
_cell_length_b 10.625063
_cell_length_c 8.564675
_cell_angle_alpha 109.169871
_cell_angle_beta 136.853277
_cell_angle_gamma 78.075854
_cell_volume 796.325427
_symmetry_space_group_name_H-M "P -1"
_symmetry_group_IT_number 2
_symmetry_cell_setting 'triclinic'
loop_
_space_group_symop_operation_xyz
x,y,z
-x,-y,-z
loop_
_atom_site_type_symbol
_atom_site_label
_atom_site_fract_x
_atom_site_fract_y
_atom_site_fract_z
Si Si1 0.873749 0.930271 0.428511
Si Si2 0.115379 0.295587 0.403124
Si Si3 0.301940 0.873146 0.485291
Si Si4 0.363772 0.807377 0.025426
Si Si5 0.383839 0.105208 0.098396
Si Si6 0.346090 0.136173 0.435663
Si Si7 0.200204 0.681093 0.034430
Si Si8 0.663165 0.470213 0.133132
O O1 0.921866 0.813427 0.549796
O O2 0.805935 0.049132 0.498510
O O3 0.745428 0.858217 0.147332
O O4 0.000000 0.000000 0.500000
O O5 0.204701 0.211946 0.348405
O O6 0.223899 0.414336 0.636695
O O7 0.968905 0.351757 0.191213
O O8 0.453764 0.844140 0.729881
O O9 0.340323 0.988527 0.445168
O O10 0.241279 0.740101 0.274274
O O11 0.514580 0.793476 0.287767
O O12 0.377997 0.945046 0.011661
O O13 0.240598 0.804966 0.013921
O O14 0.321083 0.674502 0.826416
O O15 0.361216 0.134952 0.267122
O O16 0.295705 0.569268 0.015948
O O17 0.500000 0.500000 0.000000
#
# Coordination Sequence:
#
# PCOD9027812 Si02
#       8
#     2   2   2   2   2   2   2   2
#     4  11  26  36  53  84 128 153 178 226 285 352
#     4  11  22  35  56  88 117 150 182 229 288 335
#     4  10  20  36  57  82 111 153 191 233 278 325
#     4   9  17  32  58  85 108 141 186 241 267 324
#     4  11  18  37  57  88 114 147 187 228 288 340
#     4  10  17  31  59  86 111 142 191 236 277 331
#     4  10  19  33  57  83 111 143 186 237 276 327
#     4  10  19  36  59  86 110 140 194 245 277 317
#
# _framework density 20.092289000000001
#
# number of rings (size 3 to 8) (size 9 to 14) (size 15 to 20)
#    0.750    1.000    3.750    2.250    1.750    1.000 
#    0.000    0.000    0.000    5.250    0.000    0.000 
#    0.000    0.000    0.000    0.000    0.000    0.000 
#
# Total GULP energy -89099.156002 kJ/mol
# GULP energy per Si atom -5568.697250 kJ/mol
# Density = 2.004656 g / cm^3
# Si number density = 20.092289 Si / 1000 Ang^3
#
#
#
# Elastic Constant Matrix: (Units=GPa)
#
#
# Indices 1 2 3 4 5 6 
#
# 1 90.9490 15.0012 47.3217 8.3145 6.1506 -7.1786
# 2 15.0012 30.7109 19.7339 14.6526 0.3751 -7.3419
# 3 47.3217 19.7339 91.8982 17.8269 12.0568 -8.6060
# 4 8.3145 14.6526 17.8269 28.8469 -1.4229 0.3221
# 5 6.1506 0.3751 12.0568 -1.4229 34.9446 0.2502
# 6 -7.1786 -7.3419 -8.6060 0.3221 0.2502 17.4672
#
#
#
# Elastic Compliance Matrix: (Units=1/GPa)
#
#
# Indices 1 2 3 4 5 6 
#
# 1 0.015333 -0.003299 -0.007422 0.001828 -0.000037 0.001225
# 2 -0.003299 0.052202 -0.003038 -0.023907 -0.000045 0.019531
# 3 -0.007422 -0.003038 0.017988 -0.007744 -0.005217 0.004753
# 4 0.001828 -0.023907 -0.007744 0.051463 0.004803 -0.014131
# 5 -0.000037 -0.000045 -0.005217 0.004803 0.030642 -0.003132
# 6 0.001225 0.019531 0.004753 -0.014131 -0.003132 0.068610
#
#
# Mechanical properties :
#
#
# Convention : Reuss Voigt Hill
#
# Bulk Modulus (GPa) = 17.24037 41.96351 29.60194
# Shear Modulus (GPa) = 17.66219 25.01850 21.34035
#
# Velocity S-wave (km/s) = 2.96810 3.53254 3.26255
# Velocity P-wave (km/s) = 4.51058 6.12937 5.38120
#
# Compressibility (1/GPa) = 0.05800341
#
# Stress axis : x y z
#
# Youngs Moduli (GPa) = 65.21767 19.15646 55.59374
#
# Poissons Ratio (x) = 0.06320 0.41263
# Poissons Ratio (y) = 0.21517 0.16891
# Poissons Ratio (z) = 0.48406 0.05820
#
# Static dielectric constant tensor:
#      x y z
#    x 1.751180 -0.012570 -0.000500 
#    y -0.012570 1.739480 -0.013010 
#    z -0.000500 -0.013010 1.748100 
# 
# From -- ./inp_files/270762.got.cif
#   From: 2010.05.17/outbox.cif.g08.bks.cpg/sg2_136_cif.got.tgz:270762.got - 2010.06.03 11:33:40.
