data_PCOD9027680
_publ_section_title
;
Structure prediction by ZEFSAII (Michael W. Deem and Ramdas Pophale) SiO2 
 PCOD9027680
Probable space group: P -1
;
_chemical_formula_sum "Si O2"
_cell_formula_units_Z 16
_cell_length_a 12.625477
_cell_length_b 14.510602
_cell_length_c 14.950665
_cell_angle_alpha 38.334959
_cell_angle_beta 28.022151
_cell_angle_gamma 56.700975
_cell_volume 694.782689
_symmetry_space_group_name_H-M "P -1"
_symmetry_group_IT_number 2
_symmetry_cell_setting 'triclinic'
loop_
_space_group_symop_operation_xyz
x,y,z
-x,-y,-z
loop_
_atom_site_type_symbol
_atom_site_label
_atom_site_fract_x
_atom_site_fract_y
_atom_site_fract_z
Si Si1 0.965120 0.422871 0.182527
Si Si2 0.401560 0.299734 0.724968
Si Si3 0.124873 0.768898 0.903289
Si Si4 0.432971 0.894785 0.758398
Si Si5 0.277342 0.044033 0.158993
Si Si6 0.845857 0.328666 0.692279
Si Si7 0.798029 0.757512 0.626129
Si Si8 0.641296 0.706469 0.964673
O O1 0.154432 0.345124 0.111456
O O2 0.657767 0.288256 0.518657
O O3 0.045181 0.576590 0.077682
O O4 0.000000 0.500000 0.000000
O O5 0.500000 0.500000 0.500000
O O6 0.330678 0.216922 0.937927
O O7 0.134189 0.215696 0.932761
O O8 0.220053 0.819218 0.895994
O O9 0.370686 0.902911 0.557186
O O10 0.627985 0.820495 0.652735
O O11 0.309275 0.825072 0.002128
O O12 0.270597 0.095032 0.227237
O O13 0.019983 0.901286 0.413751
O O14 0.500000 0.000000 0.000000
O O15 0.000000 0.500000 0.500000
O O16 0.049913 0.301460 0.505167
O O17 0.660453 0.360849 0.738157
O O18 0.614966 0.641862 0.930115
#
# Coordination Sequence:
#
# PCOD9027680 Si02
#       8
#     2   2   2   2   2   2   2   2
#     4  11  25  41  67 105 142 184 230 289 358 417
#     4  10  22  41  68  99 142 182 230 287 351 422
#     4  10  22  46  69  99 141 188 235 294 348 429
#     4  10  24  45  72 100 139 183 241 288 353 417
#     4  12  22  42  70 101 139 179 232 288 354 425
#     4  11  27  44  71 101 141 186 238 295 354 423
#     4  11  24  44  69 103 134 183 231 294 353 413
#     4  11  25  43  70 105 139 181 236 288 359 420
#
# _framework density 23.028782
#
# number of rings (size 3 to 8) (size 9 to 14) (size 15 to 20)
#    0.000    1.250    2.500    2.625    3.500    4.000 
#    0.000    1.250    0.000    0.000    0.000    0.000 
#    0.000    0.000    0.000    0.000    0.000    0.000 
#
# Total GULP energy -89193.192084 kJ/mol
# GULP energy per Si atom -5574.574505 kJ/mol
# Density = 2.297637 g / cm^3
# Si number density = 23.028782 Si / 1000 Ang^3
#
#
#
# Elastic Constant Matrix: (Units=GPa)
#
#
# Indices 1 2 3 4 5 6 
#
# 1 112.1013 39.3422 19.2098 4.1183 -32.7280 -10.7701
# 2 39.3422 143.8542 23.6756 25.9245 -10.9884 1.5152
# 3 19.2098 23.6756 56.9245 0.2963 -20.5115 5.3246
# 4 4.1183 25.9245 0.2963 29.3255 -5.3479 -4.8392
# 5 -32.7280 -10.9884 -20.5115 -5.3479 53.9151 7.0004
# 6 -10.7701 1.5152 5.3246 -4.8392 7.0004 41.0169
#
#
#
# Elastic Compliance Matrix: (Units=1/GPa)
#
#
# Indices 1 2 3 4 5 6 
#
# 1 0.012211 -0.003261 -0.000719 0.002782 0.006405 0.002655
# 2 -0.003261 0.009885 -0.003550 -0.008852 -0.002004 -0.001463
# 3 -0.000719 -0.003550 0.022648 0.003880 0.008356 -0.003966
# 4 0.002782 -0.008852 0.003880 0.043202 0.005023 0.004793
# 5 0.006405 -0.002004 0.008356 0.005023 0.026120 -0.003194
# 6 0.002655 -0.001463 -0.003966 0.004793 -0.003194 0.026757
#
#
# Mechanical properties :
#
#
# Convention : Reuss Voigt Hill
#
# Bulk Modulus (GPa) = 33.68837 53.03723 43.36280
# Shear Modulus (GPa) = 30.16076 40.22835 35.19455
#
# Velocity S-wave (km/s) = 3.62290 4.18409 3.91357
# Velocity P-wave (km/s) = 5.67108 6.81345 6.26834
#
# Compressibility (1/GPa) = 0.02968383
#
# Stress axis : x y z
#
# Youngs Moduli (GPa) = 81.89163 101.16143 44.15418
#
# Poissons Ratio (x) = 0.32991 0.03176
# Poissons Ratio (y) = 0.26707 0.15674
# Poissons Ratio (z) = 0.05890 0.35911
#
# Static dielectric constant tensor:
#      x y z
#    x 1.919520 0.024200 -0.003650 
#    y 0.024200 1.919200 0.012560 
#    z -0.003650 0.012560 1.943950 
# 
# From -- ./inp_files/522243.got.cif
#   From: 2010.05.17/outbox.cif.g08.bks.cpg/sg2_262_cif.got.tgz:522243.got - 2010.06.03 11:33:40.
