data_PCOD9027293
_publ_section_title
;
Structure prediction by ZEFSAII (Michael W. Deem and Ramdas Pophale) SiO2 
 PCOD9027293
Probable space group: P -1
;
_chemical_formula_sum "Si O2"
_cell_formula_units_Z 14
_cell_length_a 5.803684
_cell_length_b 14.947327
_cell_length_c 12.944289
_cell_angle_alpha 127.921211
_cell_angle_beta 57.326833
_cell_angle_gamma 89.877044
_cell_volume 644.508410
_symmetry_space_group_name_H-M "P -1"
_symmetry_group_IT_number 2
_symmetry_cell_setting 'triclinic'
loop_
_space_group_symop_operation_xyz
x,y,z
-x,-y,-z
loop_
_atom_site_type_symbol
_atom_site_label
_atom_site_fract_x
_atom_site_fract_y
_atom_site_fract_z
Si Si1 0.301348 0.428801 0.515613
Si Si2 0.789203 0.678403 0.721542
Si Si3 0.333215 0.506449 0.931777
Si Si4 0.663286 0.230357 0.927541
Si Si5 0.624184 0.088636 0.658992
Si Si6 0.707654 0.045862 0.381751
Si Si7 0.666563 0.307246 0.527012
O O1 0.500000 0.500000 0.500000
O O2 0.421408 0.317393 0.320967
O O3 0.349274 0.378536 0.583819
O O4 0.951706 0.537193 0.641301
O O5 0.062792 0.691881 0.608653
O O6 0.573080 0.768929 0.928247
O O7 0.581081 0.387779 0.711945
O O8 0.500000 0.500000 0.000000
O O9 0.283070 0.645274 0.996194
O O10 0.000000 0.500000 0.000000
O O11 0.533440 0.215656 0.837530
O O12 0.983212 0.093262 0.770741
O O13 0.521928 0.111917 0.580914
O O14 0.501851 0.994391 0.665482
O O15 0.000000 0.000000 0.500000
O O16 0.771870 0.156298 0.404245
#
# Coordination Sequence:
#
# PCOD9027293 Si02
#       7
#     2   2   2   2   2   2   2
#     4   9  19  38  62  92 128 180 223 283 347 413
#     4  10  22  41  67  94 136 183 235 287 361 421
#     4  12  30  46  74 113 145 184 246 305 357 424
#     4  11  24  43  69 100 138 185 232 293 352 432
#     4   9  21  40  66  89 132 184 227 276 357 420
#     4  10  23  42  66  98 136 182 228 291 356 433
#     4  11  25  43  69 101 140 181 237 294 358 427
#
# _framework density 21.721979999999999
#
# number of rings (size 3 to 8) (size 9 to 14) (size 15 to 20)
#    0.000    1.714    0.000    3.429   12.000    5.143 
#    0.000    1.429    0.000    0.000    0.000    0.000 
#    0.000    0.000    0.000    0.000    0.000    0.000 
#
# Total GULP energy -77939.514043 kJ/mol
# GULP energy per Si atom -5567.108146 kJ/mol
# Density = 2.167254 g / cm^3
# Si number density = 21.721980 Si / 1000 Ang^3
#
#
#
# Elastic Constant Matrix: (Units=GPa)
#
#
# Indices 1 2 3 4 5 6 
#
# 1 92.2028 38.8371 38.5727 -4.1874 12.5288 13.2443
# 2 38.8371 121.2457 38.9569 15.5540 -2.5946 25.0957
# 3 38.5727 38.9569 108.4328 -9.6323 -0.8071 15.1170
# 4 -4.1874 15.5540 -9.6323 36.3798 4.5503 5.8938
# 5 12.5288 -2.5946 -0.8071 4.5503 28.9547 -2.3653
# 6 13.2443 25.0957 15.1170 5.8938 -2.3653 40.2203
#
#
#
# Elastic Compliance Matrix: (Units=1/GPa)
#
#
# Indices 1 2 3 4 5 6 
#
# 1 0.015636 -0.004096 -0.003465 0.004022 -0.008054 -0.002354
# 2 -0.004096 0.012200 -0.002887 -0.006223 0.003431 -0.004065
# 3 -0.003465 -0.002887 0.012194 0.004336 0.000717 -0.002234
# 4 0.004022 -0.006223 0.004336 0.033453 -0.007796 -0.004432
# 5 -0.008054 0.003431 0.000717 -0.007796 0.039879 0.003729
# 6 -0.002354 -0.004065 -0.002234 -0.004432 0.003729 0.029883
#
#
# Mechanical properties :
#
#
# Convention : Reuss Voigt Hill
#
# Bulk Modulus (GPa) = 52.26168 61.62387 56.94278
# Shear Modulus (GPa) = 29.32235 34.81192 32.06714
#
# Velocity S-wave (km/s) = 3.67808 4.00761 3.84637
# Velocity P-wave (km/s) = 6.49224 7.06014 6.78214
#
# Compressibility (1/GPa) = 0.01913448
#
# Stress axis : x y z
#
# Youngs Moduli (GPa) = 63.95618 81.96457 82.00762
#
# Poissons Ratio (x) = 0.33575 0.28415
# Poissons Ratio (y) = 0.26198 0.23672
# Poissons Ratio (z) = 0.22160 0.23660
#
# Static dielectric constant tensor:
#      x y z
#    x 1.980880 -0.007590 0.018570 
#    y -0.007590 1.863770 -0.022290 
#    z 0.018570 -0.022290 1.856980 
# 
# From -- ./inp_files/94417.got.cif
#   From: 2010.05.17/outbox.cif.g08.bks.cpg/sg2_48_cif.got.tgz:94417.got - 2010.06.03 11:33:40.
