data_PCOD9027105
_publ_section_title
;
Structure prediction by ZEFSAII (Michael W. Deem and Ramdas Pophale) SiO2 
 PCOD9027105
Probable space group: P -1
;
_chemical_formula_sum "Si O2"
_cell_formula_units_Z 16
_cell_length_a 18.164671
_cell_length_b 9.263162
_cell_length_c 5.218616
_cell_angle_alpha 66.055037
_cell_angle_beta 100.091063
_cell_angle_gamma 118.861535
_cell_volume 702.606225
_symmetry_space_group_name_H-M "P -1"
_symmetry_group_IT_number 2
_symmetry_cell_setting 'triclinic'
loop_
_space_group_symop_operation_xyz
x,y,z
-x,-y,-z
loop_
_atom_site_type_symbol
_atom_site_label
_atom_site_fract_x
_atom_site_fract_y
_atom_site_fract_z
Si Si1 0.858953 0.427901 0.385114
Si Si2 0.416075 0.020942 0.994194
Si Si3 0.379696 0.505036 0.837138
Si Si4 0.973814 0.345590 0.885634
Si Si5 0.432782 0.251808 0.345926
Si Si6 0.778651 0.625595 0.496031
Si Si7 0.712891 0.336536 0.032918
Si Si8 0.944401 0.982272 0.233892
O O1 0.913383 0.351737 0.622597
O O2 0.805157 0.480594 0.505160
O O3 0.790259 0.313144 0.217128
O O4 0.933819 0.610438 0.192290
O O5 0.405737 0.138287 0.671734
O O6 0.338507 0.822554 0.078104
O O7 0.422259 0.120075 0.194865
O O8 0.500000 0.000000 0.000000
O O9 0.468721 0.608036 0.676165
O O10 0.304762 0.394275 0.676899
O O11 0.357362 0.656859 0.826995
O O12 0.388919 0.373669 0.145745
O O13 0.000000 0.500000 0.000000
O O14 0.928698 0.153222 0.111239
O O15 0.856856 0.809857 0.347635
O O16 0.756133 0.545176 0.823531
O O17 0.000000 0.000000 0.500000
O O18 0.000000 0.000000 0.000000
#
# Coordination Sequence:
#
# PCOD9027105 Si02
#       8
#     2   2   2   2   2   2   2   2
#     4  10  22  41  66  97 135 174 232 280 353 409
#     4  12  25  44  72 104 140 182 239 285 349 415
#     4  10  25  44  71  99 142 184 230 292 350 415
#     4  11  23  43  70  99 132 182 229 289 349 412
#     4  11  26  46  71 106 140 184 239 289 347 418
#     4  11  24  45  69  98 140 185 234 282 360 414
#     4  11  24  42  71  98 140 186 230 291 351 413
#     4  12  26  46  72 101 136 182 232 284 342 422
#
# _framework density 22.772355999999998
#
# number of rings (size 3 to 8) (size 9 to 14) (size 15 to 20)
#    0.000    1.000    2.500    3.375    8.750    2.000 
#    2.250    0.000    0.000    0.000    0.000    0.000 
#    0.000    0.000    0.000    0.000    0.000    0.000 
#
# Total GULP energy -89373.045943 kJ/mol
# GULP energy per Si atom -5585.815371 kJ/mol
# Density = 2.272052 g / cm^3
# Si number density = 22.772356 Si / 1000 Ang^3
#
#
#
# Elastic Constant Matrix: (Units=GPa)
#
#
# Indices 1 2 3 4 5 6 
#
# 1 109.4341 41.5677 24.8902 5.8375 18.0960 30.7174
# 2 41.5677 127.0723 38.8088 -9.8381 6.3790 34.8861
# 3 24.8902 38.8088 95.2507 -5.5114 -0.2880 18.6607
# 4 5.8375 -9.8381 -5.5114 39.9728 5.1250 -0.7171
# 5 18.0960 6.3790 -0.2880 5.1250 29.6508 8.4584
# 6 30.7174 34.8861 18.6607 -0.7171 8.4584 39.8938
#
#
#
# Elastic Compliance Matrix: (Units=1/GPa)
#
#
# Indices 1 2 3 4 5 6 
#
# 1 0.013032 -0.001888 -0.001475 -0.002006 -0.005332 -0.006598
# 2 -0.001888 0.011495 -0.002589 0.002574 0.000323 -0.007410
# 3 -0.001475 -0.002589 0.012579 0.000971 0.002251 -0.002944
# 4 -0.002006 0.002574 0.000971 0.026588 -0.003960 0.000157
# 5 -0.005332 0.000323 0.002251 -0.003960 0.039219 -0.005617
# 6 -0.006598 -0.007410 -0.002944 0.000157 -0.005617 0.039197
#
#
# Mechanical properties :
#
#
# Convention : Reuss Voigt Hill
#
# Bulk Modulus (GPa) = 39.68211 60.25449 49.96830
# Shear Modulus (GPa) = 30.78536 37.00283 33.89409
#
# Velocity S-wave (km/s) = 3.68077 4.03538 3.86215
# Velocity P-wave (km/s) = 5.96050 6.94473 6.47135
#
# Compressibility (1/GPa) = 0.02520028
#
# Stress axis : x y z
#
# Youngs Moduli (GPa) = 76.73644 86.99378 79.50011
#
# Poissons Ratio (x) = 0.16429 0.11730
# Poissons Ratio (y) = 0.14492 0.20579
# Poissons Ratio (z) = 0.11322 0.22519
#
# Static dielectric constant tensor:
#      x y z
#    x 1.885470 -0.068750 -0.067330 
#    y -0.068750 1.866240 0.015220 
#    z -0.067330 0.015220 2.028800 
# 
# From -- ./inp_files/106302.got.cif
#   From: 2010.05.17/outbox.cif.g08.bks.cpg/sg2_54_cif.got.tgz:106302.got - 2010.06.03 11:33:40.
