data_PCOD9027234
_publ_section_title
;
Structure prediction by ZEFSAII (Michael W. Deem and Ramdas Pophale) SiO2 
 PCOD9027234
Probable space group: P -1
;
_chemical_formula_sum "Si O2"
_cell_formula_units_Z 16
_cell_length_a 8.779698
_cell_length_b 17.149031
_cell_length_c 21.801310
_cell_angle_alpha 157.434032
_cell_angle_beta 147.715290
_cell_angle_gamma 39.219677
_cell_volume 672.524050
_symmetry_space_group_name_H-M "P -1"
_symmetry_group_IT_number 2
_symmetry_cell_setting 'triclinic'
loop_
_space_group_symop_operation_xyz
x,y,z
-x,-y,-z
loop_
_atom_site_type_symbol
_atom_site_label
_atom_site_fract_x
_atom_site_fract_y
_atom_site_fract_z
Si Si1 0.255153 0.632091 0.441672
Si Si2 0.169737 0.454516 0.865093
Si Si3 0.776528 0.264970 0.196865
Si Si4 0.734643 0.004911 0.201644
Si Si5 0.855907 0.072067 0.820091
Si Si6 0.886489 0.278568 0.108617
Si Si7 0.657493 0.687114 0.503927
Si Si8 0.783696 0.662173 0.071122
O O1 0.495737 0.627844 0.468520
O O2 0.976045 0.664306 0.327136
O O3 0.149739 0.429127 0.292326
O O4 0.325023 0.794775 0.635264
O O5 0.121573 0.328804 0.819165
O O6 0.500000 0.500000 0.000000
O O7 0.080424 0.691758 0.009366
O O8 0.913538 0.216845 0.143194
O O9 0.636502 0.488554 0.310078
O O10 0.010048 0.280071 0.340209
O O11 0.531837 0.095033 0.998141
O O12 0.809918 0.849413 0.169153
O O13 0.971866 0.037298 0.254671
O O14 0.584102 0.908777 0.613141
O O15 0.889913 0.115856 0.936789
O O16 0.564416 0.371929 0.065850
O O17 0.000000 0.500000 0.000000
#
# Coordination Sequence:
#
# PCOD9027234 Si02
#       8
#     2   2   2   2   2   2   2   2
#     4  11  24  40  64  97 128 166 212 259 311 382
#     4  11  22  44  66  90 133 169 207 261 317 371
#     4  10  23  44  67  92 128 166 208 268 322 375
#     4  11  24  41  64  94 131 168 215 260 312 379
#     4  11  22  41  65  93 129 166 213 262 309 375
#     4  10  22  41  67  92 130 164 212 263 313 378
#     4  11  24  42  67  96 124 166 214 262 323 375
#     4  11  21  39  67  93 124 173 208 260 322 366
#
# _framework density 23.790970999999999
#
# number of rings (size 3 to 8) (size 9 to 14) (size 15 to 20)
#    0.000    1.250    3.750    3.750    1.750    3.500 
#    0.000    2.500    0.000    0.000    0.000    0.000 
#    0.000    0.000    0.000    0.000    0.000    0.000 
#
# Total GULP energy -89134.195305 kJ/mol
# GULP energy per Si atom -5570.887207 kJ/mol
# Density = 2.373682 g / cm^3
# Si number density = 23.790971 Si / 1000 Ang^3
#
#
#
# Elastic Constant Matrix: (Units=GPa)
#
#
# Indices 1 2 3 4 5 6 
#
# 1 156.7429 26.9104 17.6944 19.4251 -7.8690 5.5473
# 2 26.9104 59.9951 23.4623 1.2617 -3.8028 -0.3161
# 3 17.6944 23.4623 112.5207 23.5016 -11.3435 -21.3820
# 4 19.4251 1.2617 23.5016 29.2544 4.3795 -12.7993
# 5 -7.8690 -3.8028 -11.3435 4.3795 44.4181 5.8849
# 6 5.5473 -0.3161 -21.3820 -12.7993 5.8849 25.3815
#
#
#
# Elastic Compliance Matrix: (Units=1/GPa)
#
#
# Indices 1 2 3 4 5 6 
#
# 1 0.008524 -0.003595 0.000334 -0.009333 0.003143 -0.007062
# 2 -0.003595 0.020016 -0.004842 0.005457 -0.000680 -0.000134
# 3 0.000334 -0.004842 0.013013 -0.008317 0.003001 0.005939
# 4 -0.009333 0.005457 -0.008317 0.061605 -0.013258 0.029241
# 5 0.003143 -0.000680 0.003001 -0.013258 0.026544 -0.011008
# 6 -0.007062 -0.000134 0.005939 0.029241 -0.011008 0.063241
#
#
# Mechanical properties :
#
#
# Convention : Reuss Voigt Hill
#
# Bulk Modulus (GPa) = 39.45643 51.71032 45.58337
# Shear Modulus (GPa) = 22.97808 37.22358 30.10083
#
# Velocity S-wave (km/s) = 3.11116 3.95981 3.56085
# Velocity P-wave (km/s) = 5.43381 6.53370 6.00897
#
# Compressibility (1/GPa) = 0.02534441
#
# Stress axis : x y z
#
# Youngs Moduli (GPa) = 117.31726 49.96066 76.84763
#
# Poissons Ratio (x) = 0.17963 -0.02563
# Poissons Ratio (y) = 0.42181 0.37210
# Poissons Ratio (z) = -0.03913 0.24191
#
# Static dielectric constant tensor:
#      x y z
#    x 1.850830 0.058810 0.052490 
#    y 0.058810 2.163050 0.030340 
#    z 0.052490 0.030340 1.894580 
# 
# From -- ./inp_files/608681.got.cif
#   From: 2010.05.17/outbox.cif.g08.bks.cpg/sg2_305_cif.got.tgz:608681.got - 2010.06.03 11:33:40.
