data_PCOD9027856
_publ_section_title
;
Structure prediction by ZEFSAII (Michael W. Deem and Ramdas Pophale) SiO2 
 PCOD9027856
Probable space group: P -1
;
_chemical_formula_sum "Si O2"
_cell_formula_units_Z 16
_cell_length_a 5.192929
_cell_length_b 13.903945
_cell_length_c 14.387978
_cell_angle_alpha 55.227013
_cell_angle_beta 127.399640
_cell_angle_gamma 124.869362
_cell_volume 636.208122
_symmetry_space_group_name_H-M "P -1"
_symmetry_group_IT_number 2
_symmetry_cell_setting 'triclinic'
loop_
_space_group_symop_operation_xyz
x,y,z
-x,-y,-z
loop_
_atom_site_type_symbol
_atom_site_label
_atom_site_fract_x
_atom_site_fract_y
_atom_site_fract_z
Si Si1 0.621265 0.013789 0.411643
Si Si2 0.786874 0.530264 0.675852
Si Si3 0.332947 0.634469 0.429420
Si Si4 0.604648 0.894978 0.292520
Si Si5 0.983784 0.129336 0.958430
Si Si6 0.496674 0.428010 0.136147
Si Si7 0.637624 0.645943 0.198021
Si Si8 0.150971 0.152489 0.196330
O O1 0.435698 0.917038 0.341500
O O2 0.500000 0.000000 0.500000
O O3 0.521417 0.132109 0.293134
O O4 0.000000 0.000000 0.500000
O O5 0.498507 0.595763 0.578247
O O6 0.791585 0.490929 0.591904
O O7 0.669931 0.395014 0.774177
O O8 0.149959 0.601266 0.759964
O O9 0.642108 0.760407 0.393799
O O10 0.983133 0.665902 0.324067
O O11 0.369166 0.868747 0.164258
O O12 0.897327 0.029951 0.262201
O O13 0.290442 0.236377 0.915691
O O14 0.018866 0.142007 0.068130
O O15 0.000000 0.000000 0.000000
O O16 0.528283 0.527149 0.170205
O O17 0.198554 0.293833 0.158239
O O18 0.500000 0.500000 0.000000
#
# Coordination Sequence:
#
# PCOD9027856 Si02
#       8
#     2   2   2   2   2   2   2   2
#     4  12  27  49  72 109 152 198 250 304 378 457
#     4  10  22  41  69  97 137 190 239 297 374 436
#     4   9  22  42  67 104 136 175 246 300 373 439
#     4  11  25  44  75 107 146 195 243 317 377 447
#     4  11  23  43  70 107 143 188 258 311 380 448
#     4  11  25  44  63  99 143 190 248 298 357 450
#     4  10  22  43  69  98 138 186 241 306 367 440
#     4  12  26  46  73 104 153 200 251 308 385 449
#
# _framework density 25.149000999999998
#
# number of rings (size 3 to 8) (size 9 to 14) (size 15 to 20)
#    0.000    1.250    3.750    0.750    3.500    3.500 
#    0.000    0.000    0.000    0.000    0.000    0.000 
#    0.000    0.000    0.000    0.000    0.000    0.000 
#
# Total GULP energy -89183.841731 kJ/mol
# GULP energy per Si atom -5573.990108 kJ/mol
# Density = 2.509176 g / cm^3
# Si number density = 25.149001 Si / 1000 Ang^3
#
#
#
# Elastic Constant Matrix: (Units=GPa)
#
#
# Indices 1 2 3 4 5 6 
#
# 1 57.2007 27.2501 28.7817 4.7054 -6.2007 2.3274
# 2 27.2501 187.4424 62.9209 -22.9306 -4.9169 4.1862
# 3 28.7817 62.9209 155.1422 11.4941 -20.5684 -1.9734
# 4 4.7054 -22.9306 11.4941 39.3126 -0.1638 -6.1633
# 5 -6.2007 -4.9169 -20.5684 -0.1638 18.9487 -4.1234
# 6 2.3274 4.1862 -1.9734 -6.1633 -4.1234 34.8300
#
#
#
# Elastic Compliance Matrix: (Units=1/GPa)
#
#
# Indices 1 2 3 4 5 6 
#
# 1 0.020477 -0.002612 -0.002030 -0.003584 0.003486 -0.001391
# 2 -0.002612 0.007434 -0.003274 0.005562 -0.002478 -0.000214
# 3 -0.002030 -0.003274 0.009717 -0.004244 0.009308 0.001431
# 4 -0.003584 0.005562 -0.004244 0.031037 -0.003099 0.004456
# 5 0.003486 -0.002478 0.009308 -0.003099 0.065034 0.007743
# 6 -0.001391 -0.000214 0.001431 0.004456 0.007743 0.030616
#
#
# Mechanical properties :
#
#
# Convention : Reuss Voigt Hill
#
# Bulk Modulus (GPa) = 45.87626 70.85449 58.36537
# Shear Modulus (GPa) = 26.67952 37.34043 32.00997
#
# Velocity S-wave (km/s) = 3.26061 3.85745 3.57152
# Velocity P-wave (km/s) = 5.69709 6.93361 6.34554
#
# Compressibility (1/GPa) = 0.02179777
#
# Stress axis : x y z
#
# Youngs Moduli (GPa) = 48.83508 134.52174 102.91645
#
# Poissons Ratio (x) = 0.35132 0.20888
# Poissons Ratio (y) = 0.12754 0.33691
# Poissons Ratio (z) = 0.09911 0.44038
#
# Static dielectric constant tensor:
#      x y z
#    x 2.108630 0.030290 -0.034190 
#    y 0.030290 2.052530 -0.006120 
#    z -0.034190 -0.006120 1.917430 
# 
# From -- ./inp_files/364039.got.cif
#   From: 2010.05.17/outbox.cif.g08.bks.cpg/sg2_183_cif.got.tgz:364039.got - 2010.06.03 11:33:40.
