data_PCOD9027164
_publ_section_title
;
Structure prediction by ZEFSAII (Michael W. Deem and Ramdas Pophale) SiO2 
 PCOD9027164
Probable space group: P -1
;
_chemical_formula_sum "Si O2"
_cell_formula_units_Z 14
_cell_length_a 9.006191
_cell_length_b 9.515405
_cell_length_c 11.117887
_cell_angle_alpha 68.553315
_cell_angle_beta 76.861683
_cell_angle_gamma 128.186927
_cell_volume 547.058660
_symmetry_space_group_name_H-M "P -1"
_symmetry_group_IT_number 2
_symmetry_cell_setting 'triclinic'
loop_
_space_group_symop_operation_xyz
x,y,z
-x,-y,-z
loop_
_atom_site_type_symbol
_atom_site_label
_atom_site_fract_x
_atom_site_fract_y
_atom_site_fract_z
Si Si1 0.132438 0.319562 0.868407
Si Si2 0.082766 0.301270 0.352790
Si Si3 0.324142 0.961431 0.130048
Si Si4 0.181171 0.097194 0.762408
Si Si5 0.671246 0.309612 0.613278
Si Si6 0.799988 0.898935 0.714574
Si Si7 0.255725 0.719215 0.650907
O O1 0.269700 0.301736 0.767533
O O2 0.258870 0.577900 0.782736
O O3 0.892498 0.168018 0.880528
O O4 0.035141 0.158377 0.052740
O O5 0.220136 0.493274 0.372314
O O6 0.253100 0.309757 0.255380
O O7 0.963378 0.332000 0.275404
O O8 0.860610 0.045620 0.540322
O O9 0.295473 0.826563 0.289531
O O10 0.362700 0.147025 0.139159
O O11 0.500000 0.000000 0.000000
O O12 0.397751 0.148303 0.689849
O O13 0.064023 0.079589 0.672128
O O14 0.790218 0.393616 0.435198
O O15 0.500000 0.000000 0.500000
#
# Coordination Sequence:
#
# PCOD9027164 Si02
#       7
#     2   2   2   2   2   2   2
#     4  10  22  41  68  95 137 176 224 278 340 401
#     4  11  23  42  69  99 137 177 229 283 337 400
#     4  11  20  40  71  98 130 180 228 276 337 407
#     4  10  22  41  67 100 133 178 221 279 341 400
#     4  12  22  40  71  99 129 181 231 274 340 400
#     4  10  23  42  66  97 141 179 224 282 336 401
#     4  12  25  42  69 103 136 177 231 283 337 401
#
# _framework density 25.591405000000002
#
# number of rings (size 3 to 8) (size 9 to 14) (size 15 to 20)
#    0.000    1.143    4.286    3.000    0.000    4.571 
#    0.000    5.000    0.000    0.000    0.000    0.000 
#    0.000    0.000    0.000    0.000    0.000    0.000 
#
# Total GULP energy -78307.544873 kJ/mol
# GULP energy per Si atom -5593.396062 kJ/mol
# Density = 2.553316 g / cm^3
# Si number density = 25.591405 Si / 1000 Ang^3
#
#
#
# Elastic Constant Matrix: (Units=GPa)
#
#
# Indices 1 2 3 4 5 6 
#
# 1 103.9819 33.2808 23.0733 2.2998 1.8400 -19.5241
# 2 33.2808 124.5764 19.9223 9.5757 -16.1013 -39.4259
# 3 23.0733 19.9223 51.7731 7.3132 11.1631 -23.2793
# 4 2.2998 9.5757 7.3132 36.1277 -21.0517 -2.3137
# 5 1.8400 -16.1013 11.1631 -21.0517 40.6607 0.8616
# 6 -19.5241 -39.4259 -23.2793 -2.3137 0.8616 48.1497
#
#
#
# Elastic Compliance Matrix: (Units=1/GPa)
#
#
# Indices 1 2 3 4 5 6 
#
# 1 0.011336 -0.002137 -0.003905 0.000743 0.000077 0.000994
# 2 -0.002137 0.012094 -0.001273 0.000961 0.005556 0.008368
# 3 -0.003905 -0.001273 0.033617 -0.015904 -0.018070 0.013187
# 4 0.000743 0.000961 -0.015904 0.047390 0.029352 -0.004849
# 5 0.000077 0.005556 -0.018070 0.029352 0.047024 -0.003587
# 6 0.000994 0.008368 0.013187 -0.004849 -0.003587 0.034230
#
#
# Mechanical properties :
#
#
# Convention : Reuss Voigt Hill
#
# Bulk Modulus (GPa) = 23.57437 48.09823 35.83630
# Shear Modulus (GPa) = 23.31454 38.59131 30.95292
#
# Velocity S-wave (km/s) = 3.02160 3.88748 3.48157
# Velocity P-wave (km/s) = 4.62658 6.24384 5.49503
#
# Compressibility (1/GPa) = 0.04241894
#
# Stress axis : x y z
#
# Youngs Moduli (GPa) = 88.21322 82.68573 29.74683
#
# Poissons Ratio (x) = 0.17669 0.11615
# Poissons Ratio (y) = 0.18850 0.03786
# Poissons Ratio (z) = 0.34445 0.10522
#
# Static dielectric constant tensor:
#      x y z
#    x 1.989500 -0.012390 -0.002020 
#    y -0.012390 2.101090 -0.023780 
#    z -0.002020 -0.023780 2.045650 
# 
# From -- ./inp_files/156876.got.cif
#   From: 2010.05.17/outbox.cif.g08.bks.cpg/sg2_79_cif.got.tgz:156876.got - 2010.06.03 11:33:40.
