data_PCOD9027873
_publ_section_title
;
Structure prediction by ZEFSAII (Michael W. Deem and Ramdas Pophale) SiO2 
 PCOD9027873
Probable space group: P -1
;
_chemical_formula_sum "Si O2"
_cell_formula_units_Z 15
_cell_length_a 16.894275
_cell_length_b 9.197957
_cell_length_c 13.621186
_cell_angle_alpha 138.486803
_cell_angle_beta 154.183762
_cell_angle_gamma 42.751012
_cell_volume 597.484712
_symmetry_space_group_name_H-M "P -1"
_symmetry_group_IT_number 2
_symmetry_cell_setting 'triclinic'
loop_
_space_group_symop_operation_xyz
x,y,z
-x,-y,-z
loop_
_atom_site_type_symbol
_atom_site_label
_atom_site_fract_x
_atom_site_fract_y
_atom_site_fract_z
Si Si1 0.129678 0.246943 0.127667
Si Si2 0.745117 0.878707 0.432017
Si Si3 0.418373 0.458394 0.060291
Si Si4 0.148600 0.704476 0.320756
Si Si5 0.474306 0.916146 0.318261
Si Si6 0.500000 0.000000 0.000000
Si Si7 0.026698 0.655530 0.789208
Si Si8 0.100283 0.197663 0.731543
O O1 0.235558 0.452107 0.326694
O O2 0.080972 0.220739 0.174105
O O3 0.259760 0.027760 0.117173
O O4 0.930359 0.299155 0.878853
O O5 0.675792 0.682567 0.195981
O O6 0.600094 0.984998 0.407928
O O7 0.931943 0.768817 0.642666
O O8 0.759218 0.075950 0.469265
O O9 0.250267 0.613091 0.012957
O O10 0.518841 0.646223 0.225833
O O11 0.547455 0.251023 0.152805
O O12 0.962788 0.742385 0.198425
O O13 0.500000 0.000000 0.500000
O O14 0.682694 0.869433 0.077697
O O15 0.009621 0.399638 0.659881
O O16 0.000000 0.000000 0.500000
#
# Coordination Sequence:
#
# PCOD9027873 Si02
#       8
#     2   2   2   2   2   1   2   2
#     4  10  23  45  67 102 134 184 224 289 342 423
#     4  12  25  44  69 105 136 183 232 288 351 414
#     4  11  26  44  69 103 137 180 231 296 341 415
#     4  10  23  42  72  99 136 177 235 285 346 413
#     4  12  27  43  66 100 142 183 225 284 353 414
#     4  10  24  44  70 102 138 184 234 280 356 414
#     4  10  22  43  70  96 134 180 232 273 357 413
#     4  10  22  41  69  98 136 184 227 289 345 413
#
# _framework density 25.105245
#
# number of rings (size 3 to 8) (size 9 to 14) (size 15 to 20)
#    0.000    1.333    1.333    3.200    5.600    3.733 
#    0.000    0.000    0.000    0.000    0.000    0.000 
#    0.000    0.000    0.000    0.000    0.000    0.000 
#
# Total GULP energy -83570.380215 kJ/mol
# GULP energy per Si atom -5571.358681 kJ/mol
# Density = 2.504810 g / cm^3
# Si number density = 25.105245 Si / 1000 Ang^3
#
#
#
# Elastic Constant Matrix: (Units=GPa)
#
#
# Indices 1 2 3 4 5 6 
#
# 1 120.8894 50.4252 16.4854 -5.1533 9.2593 -0.6050
# 2 50.4252 154.3700 18.4610 9.6911 14.2023 18.2416
# 3 16.4854 18.4610 35.6771 12.7424 -3.9974 8.1353
# 4 -5.1533 9.6911 12.7424 43.9168 7.2169 5.3147
# 5 9.2593 14.2023 -3.9974 7.2169 34.8211 -3.9865
# 6 -0.6050 18.2416 8.1353 5.3147 -3.9865 54.1567
#
#
#
# Elastic Compliance Matrix: (Units=1/GPa)
#
#
# Indices 1 2 3 4 5 6 
#
# 1 0.010622 -0.002962 -0.005343 0.003757 -0.002855 0.001340
# 2 -0.002962 0.008379 -0.002476 -0.000651 -0.003082 -0.002646
# 3 -0.005343 -0.002476 0.037818 -0.012153 0.008941 -0.003056
# 4 0.003757 -0.000651 -0.012153 0.028379 -0.008159 -0.001299
# 5 -0.002855 -0.003082 0.008941 -0.008159 0.033790 0.002951
# 6 0.001340 -0.002646 -0.003056 -0.001299 0.002951 0.020175
#
#
# Mechanical properties :
#
#
# Convention : Reuss Voigt Hill
#
# Bulk Modulus (GPa) = 28.36314 53.51997 40.94155
# Shear Modulus (GPa) = 28.98951 41.61658 35.30305
#
# Velocity S-wave (km/s) = 3.40180 4.07588 3.75400
# Velocity P-wave (km/s) = 5.17222 6.59659 5.92735
#
# Compressibility (1/GPa) = 0.03525703
#
# Stress axis : x y z
#
# Youngs Moduli (GPa) = 94.14686 119.34839 26.44234
#
# Poissons Ratio (x) = 0.35354 0.14127
# Poissons Ratio (y) = 0.27889 0.06547
# Poissons Ratio (z) = 0.50298 0.29551
#
# Static dielectric constant tensor:
#      x y z
#    x 1.806400 0.083660 0.088760 
#    y 0.083660 2.114960 -0.003200 
#    z 0.088760 -0.003200 2.060640 
# 
# From -- ./inp_files/261801.got.cif
#   From: 2010.05.17/outbox.cif.g08.bks.cpg/sg2_131_cif.got.tgz:261801.got - 2010.06.03 11:33:40.
