data_PCOD9027493
_publ_section_title
;
Structure prediction by ZEFSAII (Michael W. Deem and Ramdas Pophale) SiO2 
 PCOD9027493
Probable space group: P -1
;
_chemical_formula_sum "Si O2"
_cell_formula_units_Z 15
_cell_length_a 9.558412
_cell_length_b 8.913714
_cell_length_c 10.707866
_cell_angle_alpha 110.308183
_cell_angle_beta 46.780825
_cell_angle_gamma 105.790153
_cell_volume 622.724380
_symmetry_space_group_name_H-M "P -1"
_symmetry_group_IT_number 2
_symmetry_cell_setting 'triclinic'
loop_
_space_group_symop_operation_xyz
x,y,z
-x,-y,-z
loop_
_atom_site_type_symbol
_atom_site_label
_atom_site_fract_x
_atom_site_fract_y
_atom_site_fract_z
Si Si1 0.170045 0.121354 0.379563
Si Si2 0.324699 0.641974 0.390722
Si Si3 0.930158 0.715029 0.277161
Si Si4 0.050046 0.632803 0.796070
Si Si5 0.000000 0.000000 0.000000
Si Si6 0.654175 0.882199 0.314772
Si Si7 0.287041 0.332288 0.160580
Si Si8 0.682098 0.187465 0.805053
O O1 0.162574 0.189912 0.265009
O O2 0.172907 0.262060 0.518982
O O3 0.346159 0.004467 0.239170
O O4 0.000000 0.000000 0.500000
O O5 0.198135 0.647942 0.593712
O O6 0.534797 0.718417 0.312699
O O7 0.325227 0.468745 0.279226
O O8 0.246700 0.750578 0.356911
O O9 0.158787 0.400428 0.149842
O O10 0.153520 0.766523 0.180192
O O11 0.906513 0.528431 0.202089
O O12 0.040587 0.804249 0.915466
O O13 0.174083 0.158206 0.707784
O O14 0.231430 0.043234 0.850278
O O15 0.500000 0.000000 0.500000
O O16 0.486949 0.270472 0.975737
#
# Coordination Sequence:
#
# PCOD9027493 Si02
#       8
#     2   2   2   2   1   2   2   2
#     4  10  22  41  68 105 143 190 243 308 368 440
#     4  12  24  48  76 106 151 205 252 307 384 452
#     4  11  25  47  74 106 150 197 257 311 376 452
#     4  12  25  48  75 112 149 206 255 311 383 452
#     4  12  30  50  78 108 154 204 254 308 386 462
#     4  12  28  54  76 109 154 205 250 318 387 455
#     4  12  24  44  77 111 150 198 250 313 383 450
#     4  11  24  43  72 114 149 195 252 314 373 449
#
# _framework density 24.087703000000001
#
# number of rings (size 3 to 8) (size 9 to 14) (size 15 to 20)
#    0.000    0.533    4.000    4.400    5.600    1.067 
#    4.800    0.000    0.000    0.000    0.000    0.000 
#    0.000    0.000    0.000    0.000    0.000    0.000 
#
# Total GULP energy -83643.206133 kJ/mol
# GULP energy per Si atom -5576.213742 kJ/mol
# Density = 2.403288 g / cm^3
# Si number density = 24.087703 Si / 1000 Ang^3
#
#
#
# Elastic Constant Matrix: (Units=GPa)
#
#
# Indices 1 2 3 4 5 6 
#
# 1 71.2785 -7.7397 15.7996 -12.3652 -19.9844 3.5801
# 2 -7.7397 102.0426 33.0003 20.6392 -7.4115 6.0782
# 3 15.7996 33.0003 120.5424 8.9172 -25.5824 -2.5659
# 4 -12.3652 20.6392 8.9172 33.5272 2.8912 -8.0037
# 5 -19.9844 -7.4115 -25.5824 2.8912 31.6286 -7.7411
# 6 3.5801 6.0782 -2.5659 -8.0037 -7.7411 27.8153
#
#
#
# Elastic Compliance Matrix: (Units=1/GPa)
#
#
# Indices 1 2 3 4 5 6 
#
# 1 0.018377 0.001144 -0.000707 0.005796 0.011299 0.002132
# 2 0.001144 0.012864 -0.003044 -0.008026 0.000699 -0.005354
# 3 -0.000707 -0.003044 0.011326 -0.001234 0.009087 0.003975
# 4 0.005796 -0.008026 -0.001234 0.040205 0.000170 0.012510
# 5 0.011299 0.000699 0.009087 0.000170 0.049446 0.013041
# 6 0.002132 -0.005354 0.003975 0.012510 0.013041 0.044443
#
#
# Mechanical properties :
#
#
# Convention : Reuss Voigt Hill
#
# Bulk Modulus (GPa) = 26.77147 41.77597 34.27372
# Shear Modulus (GPa) = 25.73009 35.44777 30.58893
#
# Velocity S-wave (km/s) = 3.27185 3.84032 3.56743
# Velocity P-wave (km/s) = 5.04100 6.08646 5.58823
#
# Compressibility (1/GPa) = 0.03735320
#
# Stress axis : x y z
#
# Youngs Moduli (GPa) = 54.41618 77.73717 88.29185
#
# Poissons Ratio (x) = -0.08893 0.06244
# Poissons Ratio (y) = -0.06225 0.26872
# Poissons Ratio (z) = 0.03848 0.23660
#
# Static dielectric constant tensor:
#      x y z
#    x 1.932160 -0.014200 0.025480 
#    y -0.014200 1.962390 -0.000420 
#    z 0.025480 -0.000420 1.963580 
# 
# From -- ./inp_files/528903.got.cif
#   From: 2010.05.17/outbox.cif.g08.bks.cpg/sg2_265_cif.got.tgz:528903.got - 2010.06.03 11:33:40.
