data_PCOD9027100
_publ_section_title
;
Structure prediction by ZEFSAII (Michael W. Deem and Ramdas Pophale) SiO2 
 PCOD9027100
Probable space group: P -1
;
_chemical_formula_sum "Si O2"
_cell_formula_units_Z 12
_cell_length_a 14.248455
_cell_length_b 14.262293
_cell_length_c 8.341851
_cell_angle_alpha 28.382850
_cell_angle_beta 46.953350
_cell_angle_gamma 33.737977
_cell_volume 439.769234
_symmetry_space_group_name_H-M "P -1"
_symmetry_group_IT_number 2
_symmetry_cell_setting 'triclinic'
loop_
_space_group_symop_operation_xyz
x,y,z
-x,-y,-z
loop_
_atom_site_type_symbol
_atom_site_label
_atom_site_fract_x
_atom_site_fract_y
_atom_site_fract_z
Si Si1 0.581292 0.464940 0.787899
Si Si2 0.361956 0.302686 0.152654
Si Si3 0.077944 0.782126 0.594763
Si Si4 0.651380 0.167567 0.782384
Si Si5 0.096736 0.104357 0.693902
Si Si6 0.798503 0.582330 0.490051
O O1 0.425436 0.681811 0.524658
O O2 0.695658 0.546659 0.540008
O O3 0.500000 0.500000 0.000000
O O4 0.707171 0.142394 0.122908
O O5 0.265245 0.438741 0.232346
O O6 0.500000 0.000000 0.500000
O O7 0.191245 0.479395 0.975561
O O8 0.489942 0.292135 0.899155
O O9 0.220344 0.798018 0.347626
O O10 0.944148 0.840362 0.531530
O O11 0.000000 0.000000 0.500000
O O12 0.746046 0.862274 0.112921
O O13 0.997942 0.352792 0.554892
O O14 0.000000 0.000000 0.000000
#
# Coordination Sequence:
#
# PCOD9027100 Si02
#       6
#     2   2   2   2   2   2
#     4  11  22  42  69  99 132 178 228 277 333 403
#     4  10  22  41  66  97 131 172 225 277 329 395
#     4  12  24  44  68  98 134 178 226 279 340 405
#     4  11  24  44  70  98 134 178 224 280 338 400
#     4  10  22  42  66  94 132 174 219 276 335 396
#     4  10  22  43  67 100 135 174 225 281 337 399
#
# _framework density 27.287039
#
# number of rings (size 3 to 8) (size 9 to 14) (size 15 to 20)
#    0.000    1.333    0.000    7.000    0.000    4.000 
#    0.000   21.667    0.000    0.000    0.000    5.833 
#    0.000    0.000    0.000    0.000    0.000    0.000 
#
# Total GULP energy -66948.620230 kJ/mol
# GULP energy per Si atom -5579.051686 kJ/mol
# Density = 2.722493 g / cm^3
# Si number density = 27.287039 Si / 1000 Ang^3
#
#
#
# Elastic Constant Matrix: (Units=GPa)
#
#
# Indices 1 2 3 4 5 6 
#
# 1 120.6751 29.1321 63.9002 -9.7239 22.4652 0.6480
# 2 29.1321 209.2635 77.9959 -15.7369 13.3619 24.0334
# 3 63.9002 77.9959 177.8758 -14.4078 34.1022 15.1937
# 4 -9.7239 -15.7369 -14.4078 64.2711 4.8805 -9.6661
# 5 22.4652 13.3619 34.1022 4.8805 62.8617 6.0628
# 6 0.6480 24.0334 15.1937 -9.6661 6.0628 31.7991
#
#
#
# Elastic Compliance Matrix: (Units=1/GPa)
#
#
# Indices 1 2 3 4 5 6 
#
# 1 0.010653 -0.000258 -0.003382 0.001327 -0.002255 0.002427
# 2 -0.000258 0.006079 -0.002317 0.000387 0.000358 -0.003433
# 3 -0.003382 -0.002317 0.008601 0.000846 -0.002888 -0.001482
# 4 0.001327 0.000387 0.000846 0.017007 -0.002816 0.004983
# 5 -0.002255 0.000358 -0.002888 -0.002816 0.018739 -0.003273
# 6 0.002427 -0.003433 -0.001482 0.004983 -0.003273 0.036839
#
#
# Mechanical properties :
#
#
# Convention : Reuss Voigt Hill
#
# Bulk Modulus (GPa) = 74.51060 94.43010 84.47035
# Shear Modulus (GPa) = 43.74280 54.23880 48.99080
#
# Velocity S-wave (km/s) = 4.00817 4.46321 4.24180
# Velocity P-wave (km/s) = 6.98470 7.82571 7.41713
#
# Compressibility (1/GPa) = 0.01342091
#
# Stress axis : x y z
#
# Youngs Moduli (GPa) = 93.86840 164.51404 116.25993
#
# Poissons Ratio (x) = 0.04238 0.39314
# Poissons Ratio (y) = 0.02418 0.26936
# Poissons Ratio (z) = 0.31742 0.38117
#
# Static dielectric constant tensor:
#      x y z
#    x 2.336650 0.109980 -0.040620 
#    y 0.109980 2.301140 0.050760 
#    z -0.040620 0.050760 2.181980 
# 
# From -- ./inp_files/336134.got.cif
#   From: 2010.05.17/outbox.cif.g08.bks.cpg/sg2_169_cif.got.tgz:336134.got - 2010.06.03 11:33:40.
