data_PCOD9027031
_publ_section_title
;
Structure prediction by ZEFSAII (Michael W. Deem and Ramdas Pophale) SiO2 
 PCOD9027031
Probable space group: P -1
;
_chemical_formula_sum "Si O2"
_cell_formula_units_Z 16
_cell_length_a 8.712706
_cell_length_b 9.307110
_cell_length_c 27.114318
_cell_angle_alpha 28.729613
_cell_angle_beta 49.423870
_cell_angle_gamma 61.368553
_cell_volume 777.279283
_symmetry_space_group_name_H-M "P -1"
_symmetry_group_IT_number 2
_symmetry_cell_setting 'triclinic'
loop_
_space_group_symop_operation_xyz
x,y,z
-x,-y,-z
loop_
_atom_site_type_symbol
_atom_site_label
_atom_site_fract_x
_atom_site_fract_y
_atom_site_fract_z
Si Si1 0.886132 0.680169 0.931050
Si Si2 0.438767 0.395482 0.370507
Si Si3 0.213199 0.267708 0.862964
Si Si4 0.505638 0.163522 0.530338
Si Si5 0.069356 0.672172 0.383202
Si Si6 0.762641 0.737653 0.352945
Si Si7 0.529731 0.104298 0.018556
Si Si8 0.116409 0.396388 0.153973
O O1 0.683443 0.797762 0.953258
O O2 0.821036 0.502363 0.946129
O O3 0.068373 0.977602 0.789686
O O4 0.000000 0.500000 0.000000
O O5 0.668029 0.628953 0.244689
O O6 0.394534 0.219395 0.485412
O O7 0.272421 0.594849 0.342134
O O8 0.414496 0.135463 0.411085
O O9 0.116562 0.558006 0.806277
O O10 0.392694 0.168285 0.887058
O O11 0.000000 0.000000 0.000000
O O12 0.663777 0.497735 0.404075
O O13 0.391121 0.142572 0.613656
O O14 0.000000 0.500000 0.500000
O O15 0.881448 0.559662 0.418521
O O16 0.109178 0.039659 0.269619
O O17 0.720677 0.398388 0.903887
O O18 0.500000 0.000000 0.000000
#
# Coordination Sequence:
#
# PCOD9027031 Si02
#       8
#     2   2   2   2   2   2   2   2
#     4  11  23  41  68  97 132 174 218 266 340 405
#     4  11  22  40  66  92 126 171 222 270 334 389
#     4  10  22  41  66  95 128 169 218 277 329 393
#     4  10  23  40  63  90 127 171 218 272 326 389
#     4  11  22  41  63  93 127 171 223 269 327 391
#     4  10  22  43  61  93 131 166 221 273 323 400
#     4  11  24  43  62  99 134 170 219 274 336 401
#     4  10  23  42  67  91 136 173 217 276 335 396
#
# _framework density 20.584620999999999
#
# number of rings (size 3 to 8) (size 9 to 14) (size 15 to 20)
#    0.000    1.500    1.250    4.125    1.750    6.500 
#    2.250    0.000    0.000    0.000    0.000    0.000 
#    0.000    0.000    0.000    0.000    0.000    0.000 
#
# Total GULP energy -89075.120602 kJ/mol
# GULP energy per Si atom -5567.195038 kJ/mol
# Density = 2.053777 g / cm^3
# Si number density = 20.584621 Si / 1000 Ang^3
#
#
#
# Elastic Constant Matrix: (Units=GPa)
#
#
# Indices 1 2 3 4 5 6 
#
# 1 98.0627 76.5269 32.4828 -2.9816 14.3082 -5.1841
# 2 76.5269 154.8282 39.3840 -2.9625 1.9902 -26.9243
# 3 32.4828 39.3840 76.3086 -5.2967 5.9957 -3.5880
# 4 -2.9816 -2.9625 -5.2967 37.4055 1.4519 0.5850
# 5 14.3082 1.9902 5.9957 1.4519 36.5785 -9.2272
# 6 -5.1841 -26.9243 -3.5880 0.5850 -9.2272 43.7185
#
#
#
# Elastic Compliance Matrix: (Units=1/GPa)
#
#
# Indices 1 2 3 4 5 6 
#
# 1 0.019841 -0.009956 -0.002876 0.000795 -0.008233 -0.005763
# 2 -0.009956 0.013405 -0.002780 -0.000472 0.005670 0.008050
# 3 -0.002876 -0.002780 0.015976 0.001897 -0.001702 -0.001127
# 4 0.000795 -0.000472 0.001897 0.027114 -0.001874 -0.000799
# 5 -0.008233 0.005670 -0.001702 -0.001874 0.032965 0.009359
# 6 -0.005763 0.008050 -0.001127 -0.000799 0.009359 0.029041
#
#
# Mechanical properties :
#
#
# Convention : Reuss Voigt Hill
#
# Bulk Modulus (GPa) = 55.56456 69.55412 62.55934
# Shear Modulus (GPa) = 28.47933 35.59423 32.03678
#
# Velocity S-wave (km/s) = 3.72361 4.16284 3.94933
# Velocity P-wave (km/s) = 6.74825 7.54774 7.15916
#
# Compressibility (1/GPa) = 0.01799708
#
# Stress axis : x y z
#
# Youngs Moduli (GPa) = 50.40101 74.59893 62.59315
#
# Poissons Ratio (x) = 0.74273 0.18002
# Poissons Ratio (y) = 0.50181 0.17402
# Poissons Ratio (z) = 0.14496 0.20739
#
# Static dielectric constant tensor:
#      x y z
#    x 1.575660 -0.242460 -0.047820 
#    y -0.242460 1.492000 -0.048050 
#    z -0.047820 -0.048050 1.782590 
# 
# From -- ./inp_files/616586.got.cif
#   From: 2010.05.17/outbox.cif.g08.bks.cpg/sg2_309_cif.got.tgz:616586.got - 2010.06.03 11:33:40.
