data_PCOD9027699
_publ_section_title
;
Structure prediction by ZEFSAII (Michael W. Deem and Ramdas Pophale) SiO2 
 PCOD9027699
Probable space group: P -1
;
_chemical_formula_sum "Si O2"
_cell_formula_units_Z 12
_cell_length_a 7.719765
_cell_length_b 17.709843
_cell_length_c 8.743421
_cell_angle_alpha 149.572595
_cell_angle_beta 61.192695
_cell_angle_gamma 124.930842
_cell_volume 496.120752
_symmetry_space_group_name_H-M "P -1"
_symmetry_group_IT_number 2
_symmetry_cell_setting 'triclinic'
loop_
_space_group_symop_operation_xyz
x,y,z
-x,-y,-z
loop_
_atom_site_type_symbol
_atom_site_label
_atom_site_fract_x
_atom_site_fract_y
_atom_site_fract_z
Si Si1 0.505749 0.880889 0.926298
Si Si2 0.235259 0.903456 0.542294
Si Si3 0.198119 0.608918 0.202825
Si Si4 0.942803 0.323768 0.286571
Si Si5 0.263909 0.292018 0.656710
Si Si6 0.793577 0.868171 0.286148
O O1 0.262012 0.792616 0.921303
O O2 0.582875 0.743271 0.590477
O O3 0.500000 0.000000 0.000000
O O4 0.677072 0.980697 0.148948
O O5 0.303988 0.753603 0.293589
O O6 0.978809 0.816881 0.478660
O O7 0.305430 0.024254 0.581387
O O8 0.124914 0.671844 0.499912
O O9 0.294204 0.476167 0.974871
O O10 0.000000 0.500000 0.000000
O O11 0.000000 0.500000 0.500000
O O12 0.125947 0.249415 0.057147
O O13 0.312815 0.229258 0.689015
O O14 0.000000 0.000000 0.500000
#
# Coordination Sequence:
#
# PCOD9027699 Si02
#       6
#     2   2   2   2   2   2
#     4  12  24  42  70 103 133 178 229 280 334 399
#     4  10  22  41  69 101 132 177 223 281 331 399
#     4  10  22  41  69  98 132 180 222 270 340 400
#     4  12  25  46  67  96 143 179 219 280 343 397
#     4  10  22  43  69  99 135 176 224 276 340 399
#     4  10  22  42  69  98 134 177 220 277 337 394
#
# _framework density 24.187659
#
# number of rings (size 3 to 8) (size 9 to 14) (size 15 to 20)
#    0.000    1.333    3.333    2.500    4.667    0.667 
#    0.000   10.000    0.000    0.000    0.000    0.000 
#    0.000    0.000    0.000    0.000    0.000    0.000 
#
# Total GULP energy -67087.273743 kJ/mol
# GULP energy per Si atom -5590.606145 kJ/mol
# Density = 2.413261 g / cm^3
# Si number density = 24.187659 Si / 1000 Ang^3
#
#
#
# Elastic Constant Matrix: (Units=GPa)
#
#
# Indices 1 2 3 4 5 6 
#
# 1 130.8082 44.2515 33.8795 6.0203 11.7565 -33.1306
# 2 44.2515 123.5043 47.8790 43.6659 3.4852 -28.1469
# 3 33.8795 47.8790 148.3913 3.5843 -8.7805 -15.6366
# 4 6.0203 43.6659 3.5843 42.5330 -5.3945 -5.0097
# 5 11.7565 3.4852 -8.7805 -5.3945 42.7207 5.1000
# 6 -33.1306 -28.1469 -15.6366 -5.0097 5.1000 51.5668
#
#
#
# Elastic Compliance Matrix: (Units=1/GPa)
#
#
# Indices 1 2 3 4 5 6 
#
# 1 0.010403 -0.002313 -0.001283 0.001221 -0.003439 0.005491
# 2 -0.002313 0.018835 -0.004757 -0.018523 -0.004938 0.006041
# 3 -0.001283 -0.004757 0.008570 0.004665 0.003173 -0.000683
# 4 0.001221 -0.018523 0.004665 0.042442 0.008040 -0.004583
# 5 -0.003439 -0.004938 0.003173 0.008040 0.027122 -0.005844
# 6 0.005491 0.006041 -0.000683 -0.004583 -0.005844 0.026143
#
#
# Mechanical properties :
#
#
# Convention : Reuss Voigt Hill
#
# Bulk Modulus (GPa) = 47.39169 72.74711 60.06940
# Shear Modulus (GPa) = 31.79523 45.81036 38.80279
#
# Velocity S-wave (km/s) = 3.62957 4.35668 4.00964
# Velocity P-wave (km/s) = 6.09925 7.44641 6.80624
#
# Compressibility (1/GPa) = 0.02110074
#
# Stress axis : x y z
#
# Youngs Moduli (GPa) = 96.12298 53.09254 116.68665
#
# Poissons Ratio (x) = 0.12282 0.14973
# Poissons Ratio (y) = 0.22237 0.55511
# Poissons Ratio (z) = 0.12335 0.25257
#
# Static dielectric constant tensor:
#      x y z
#    x 1.980860 0.051620 -0.026700 
#    y 0.051620 1.998060 -0.017430 
#    z -0.026700 -0.017430 1.900760 
# 
# From -- ./inp_files/147358.got.cif
#   From: 2010.05.17/outbox.cif.g08.bks.cpg/sg2_74_cif.got.tgz:147358.got - 2010.06.03 11:33:40.
