data_PCOD9027583
_publ_section_title
;
Structure prediction by ZEFSAII (Michael W. Deem and Ramdas Pophale) SiO2 
 PCOD9027583
Probable space group: P -1
;
_chemical_formula_sum "Si O2"
_cell_formula_units_Z 14
_cell_length_a 8.187321
_cell_length_b 18.807207
_cell_length_c 5.198044
_cell_angle_alpha 121.641929
_cell_angle_beta 60.141655
_cell_angle_gamma 128.013794
_cell_volume 518.314090
_symmetry_space_group_name_H-M "P -1"
_symmetry_group_IT_number 2
_symmetry_cell_setting 'triclinic'
loop_
_space_group_symop_operation_xyz
x,y,z
-x,-y,-z
loop_
_atom_site_type_symbol
_atom_site_label
_atom_site_fract_x
_atom_site_fract_y
_atom_site_fract_z
Si Si1 0.535277 0.378760 0.256451
Si Si2 0.263626 0.925575 0.457467
Si Si3 0.191537 0.743355 0.435890
Si Si4 0.440974 0.222869 0.408162
Si Si5 0.208068 0.433816 0.837909
Si Si6 0.819880 0.998574 0.835445
Si Si7 0.150457 0.292439 0.000783
O O1 0.577913 0.305464 0.250294
O O2 0.432487 0.429276 0.613392
O O3 0.726271 0.460004 0.096548
O O4 0.334091 0.321663 0.122911
O O5 0.227411 0.820373 0.337815
O O6 0.263947 0.952111 0.211302
O O7 0.500000 0.000000 0.500000
O O8 0.125576 0.948138 0.828227
O O9 0.408310 0.754494 0.415144
O O10 0.999542 0.641493 0.300693
O O11 0.074559 0.767069 0.804512
O O12 0.229268 0.237633 0.638474
O O13 0.347299 0.113085 0.201468
O O14 0.153206 0.387955 0.074930
O O15 0.000000 0.000000 0.500000
#
# Coordination Sequence:
#
# PCOD9027583 Si02
#       7
#     2   2   2   2   2   2   2
#     4   9  20  39  66  97 134 173 228 286 347 421
#     4  12  27  48  72 104 146 188 240 295 365 426
#     4  11  25  42  68  97 137 181 230 288 351 424
#     4  11  25  42  66 101 137 176 234 288 350 422
#     4   9  20  40  66  96 132 178 225 283 354 418
#     4  12  28  47  75 106 144 190 242 299 360 429
#     4  10  22  41  68  95 136 179 228 284 354 417
#
# _framework density 27.010649000000001
#
# number of rings (size 3 to 8) (size 9 to 14) (size 15 to 20)
#    0.000    1.429    1.429    2.143   10.000    2.857 
#    0.000    1.429    0.000    0.000    0.000    0.000 
#    0.000    0.000    0.000    0.000    0.000    0.000 
#
# Total GULP energy -78273.156431 kJ/mol
# GULP energy per Si atom -5590.939745 kJ/mol
# Density = 2.694917 g / cm^3
# Si number density = 27.010649 Si / 1000 Ang^3
#
#
#
# Elastic Constant Matrix: (Units=GPa)
#
#
# Indices 1 2 3 4 5 6 
#
# 1 110.8238 54.2570 28.3430 4.7656 -0.6024 -14.9937
# 2 54.2570 167.8049 29.7361 -17.0162 -13.9863 -54.2363
# 3 28.3430 29.7361 79.3460 -9.1984 -3.9250 -6.4645
# 4 4.7656 -17.0162 -9.1984 28.8779 -4.1755 1.1833
# 5 -0.6024 -13.9863 -3.9250 -4.1755 44.8846 -14.2750
# 6 -14.9937 -54.2363 -6.4645 1.1833 -14.2750 47.6702
#
#
#
# Elastic Compliance Matrix: (Units=1/GPa)
#
#
# Indices 1 2 3 4 5 6 
#
# 1 0.012502 -0.005764 -0.003648 -0.007018 -0.003909 -0.004117
# 2 -0.005764 0.017005 -0.000591 0.011794 0.012959 0.021042
# 3 -0.003648 -0.000591 0.014866 0.005216 0.001739 0.000587
# 4 -0.007018 0.011794 0.005216 0.045670 0.012949 0.014663
# 5 -0.003909 0.012959 0.001739 0.012949 0.035250 0.023985
# 6 -0.004117 0.021042 0.000587 0.014663 0.023985 0.050521
#
#
# Mechanical properties :
#
#
# Convention : Reuss Voigt Hill
#
# Bulk Modulus (GPa) = 41.03984 64.73855 52.88920
# Shear Modulus (GPa) = 24.51684 40.66244 32.58964
#
# Velocity S-wave (km/s) = 3.01603 3.88419 3.47731
# Velocity P-wave (km/s) = 5.23025 6.64347 5.97876
#
# Compressibility (1/GPa) = 0.02436657
#
# Stress axis : x y z
#
# Youngs Moduli (GPa) = 79.98883 58.80675 67.26639
#
# Poissons Ratio (x) = 0.33896 0.24539
# Poissons Ratio (y) = 0.46105 0.03977
# Poissons Ratio (z) = 0.29180 0.03477
#
# Static dielectric constant tensor:
#      x y z
#    x 2.119410 -0.014700 0.081860 
#    y -0.014700 1.980360 -0.474520 
#    z 0.081860 -0.474520 0.606470 
# 
# From -- ./inp_files/43144.got.cif
#   From: 2010.05.17/outbox.cif.g08.bks.cpg/sg2_22_cif.got.tgz:43144.got - 2010.06.03 11:33:40.
