data_PCOD9027465
_publ_section_title
;
Structure prediction by ZEFSAII (Michael W. Deem and Ramdas Pophale) SiO2 
 PCOD9027465
Probable space group: P -1
;
_chemical_formula_sum "Si O2"
_cell_formula_units_Z 12
_cell_length_a 8.751786
_cell_length_b 16.984652
_cell_length_c 6.357131
_cell_angle_alpha 56.270951
_cell_angle_beta 99.533540
_cell_angle_gamma 134.815045
_cell_volume 515.082376
_symmetry_space_group_name_H-M "P -1"
_symmetry_group_IT_number 2
_symmetry_cell_setting 'triclinic'
loop_
_space_group_symop_operation_xyz
x,y,z
-x,-y,-z
loop_
_atom_site_type_symbol
_atom_site_label
_atom_site_fract_x
_atom_site_fract_y
_atom_site_fract_z
Si Si1 0.861691 0.155127 0.988770
Si Si2 0.386654 0.850629 0.403791
Si Si3 0.076279 0.634930 0.029685
Si Si4 0.807202 0.855386 0.801445
Si Si5 0.450654 0.587666 0.810054
Si Si6 0.447368 0.719154 0.254799
O O1 0.946722 0.286910 0.932852
O O2 0.057520 0.166263 0.017480
O O3 0.635521 0.010372 0.273351
O O4 0.770801 0.142807 0.757413
O O5 0.250644 0.746032 0.722001
O O6 0.431053 0.790466 0.327068
O O7 0.207355 0.613406 0.223971
O O8 0.817713 0.503403 0.076482
O O9 0.624852 0.726439 0.789243
O O10 0.656074 0.839913 0.965154
O O11 0.000000 0.000000 0.500000
O O12 0.487917 0.638427 0.501959
O O13 0.500000 0.500000 0.000000
#
# Coordination Sequence:
#
# PCOD9027465 Si02
#       6
#     2   2   2   2   2   2
#     4  10  22  41  68 102 138 182 235 285 343 409
#     4  10  23  43  71 103 136 189 231 284 346 413
#     4  11  23  46  70  99 141 184 235 285 341 418
#     4  12  27  46  72 104 142 183 233 291 348 412
#     4  12  27  46  70 108 140 186 230 287 353 408
#     4  11  26  45  72 103 142 181 237 283 349 412
#
# _framework density 23.297243999999999
#
# number of rings (size 3 to 8) (size 9 to 14) (size 15 to 20)
#    0.000    1.000    1.667    4.000    2.333   11.333 
#    0.000    0.000    0.000    0.000    0.000    0.000 
#    0.000    0.000    0.000    0.000    0.000    0.000 
#
# Total GULP energy -67210.537108 kJ/mol
# GULP energy per Si atom -5600.878092 kJ/mol
# Density = 2.324422 g / cm^3
# Si number density = 23.297244 Si / 1000 Ang^3
#
#
#
# Elastic Constant Matrix: (Units=GPa)
#
#
# Indices 1 2 3 4 5 6 
#
# 1 99.6641 21.8025 27.6496 13.4531 23.0998 30.9480
# 2 21.8025 97.4479 0.7094 -16.3348 15.0137 25.2667
# 3 27.6496 0.7094 108.4239 -4.7925 11.7470 16.3262
# 4 13.4531 -16.3348 -4.7925 25.0227 3.4371 3.4090
# 5 23.0998 15.0137 11.7470 3.4371 35.2677 5.6663
# 6 30.9480 25.2667 16.3262 3.4090 5.6663 41.0774
#
#
#
# Elastic Compliance Matrix: (Units=1/GPa)
#
#
# Indices 1 2 3 4 5 6 
#
# 1 0.016603 -0.001734 -0.002504 -0.008370 -0.007077 -0.008776
# 2 -0.001734 0.017043 0.003385 0.015139 -0.006985 -0.010815
# 3 -0.002504 0.003385 0.011230 0.006827 -0.003443 -0.004750
# 4 -0.008370 0.015139 0.006827 0.057961 -0.007357 -0.009515
# 5 -0.007077 -0.006985 -0.003443 -0.007357 0.036777 0.006534
# 6 -0.008776 -0.010815 -0.004750 -0.009515 0.006534 0.039385
#
#
# Mechanical properties :
#
#
# Convention : Reuss Voigt Hill
#
# Bulk Modulus (GPa) = 23.16409 45.09544 34.12976
# Shear Modulus (GPa) = 25.62850 37.29853 31.46351
#
# Velocity S-wave (km/s) = 3.32032 4.00557 3.67894
# Velocity P-wave (km/s) = 4.96627 6.38681 5.72080
#
# Compressibility (1/GPa) = 0.04317027
#
# Stress axis : x y z
#
# Youngs Moduli (GPa) = 60.23004 58.67398 89.04992
#
# Poissons Ratio (x) = 0.10172 0.22302
# Poissons Ratio (y) = 0.10441 -0.30144
# Poissons Ratio (z) = 0.15084 -0.19862
#
# Static dielectric constant tensor:
#      x y z
#    x 1.879310 -0.002990 0.020730 
#    y -0.002990 1.873030 -0.010010 
#    z 0.020730 -0.010010 1.881970 
# 
# From -- ./inp_files/26549.got.cif
#   From: 2010.05.17/outbox.cif.g08.bks.cpg/sg2_14_cif.got.tgz:26549.got - 2010.06.03 11:33:40.
