data_PCOD9027534
_publ_section_title
;
Structure prediction by ZEFSAII (Michael W. Deem and Ramdas Pophale) SiO2 
 PCOD9027534
Probable space group: P -1
;
_chemical_formula_sum "Si O2"
_cell_formula_units_Z 16
_cell_length_a 12.412162
_cell_length_b 11.331291
_cell_length_c 11.594152
_cell_angle_alpha 101.282533
_cell_angle_beta 105.966699
_cell_angle_gamma 143.986725
_cell_volume 620.298725
_symmetry_space_group_name_H-M "P -1"
_symmetry_group_IT_number 2
_symmetry_cell_setting 'triclinic'
loop_
_space_group_symop_operation_xyz
x,y,z
-x,-y,-z
loop_
_atom_site_type_symbol
_atom_site_label
_atom_site_fract_x
_atom_site_fract_y
_atom_site_fract_z
Si Si1 0.636909 0.022554 0.110377
Si Si2 0.281960 0.394376 0.428290
Si Si3 0.250252 0.866487 0.569711
Si Si4 0.798457 0.061983 0.952785
Si Si5 0.346657 0.509019 0.214295
Si Si6 0.553752 0.921603 0.644594
Si Si7 0.094991 0.374119 0.756337
Si Si8 0.303407 0.380073 0.687087
O O1 0.755672 0.149327 0.296785
O O2 0.372631 0.673772 0.964771
O O3 0.500000 0.000000 0.000000
O O4 0.852947 0.177809 0.113687
O O5 0.500000 0.500000 0.500000
O O6 0.197681 0.317208 0.253353
O O7 0.395339 0.640626 0.526888
O O8 0.157979 0.245623 0.491686
O O9 0.460878 0.183158 0.660595
O O10 0.376490 0.865906 0.560330
O O11 0.950910 0.605362 0.377983
O O12 0.669724 0.038960 0.831040
O O13 0.565126 0.730029 0.828996
O O14 0.074297 0.278346 0.018865
O O15 0.547560 0.601003 0.247663
O O16 0.833493 0.175163 0.703592
O O17 0.105436 0.244203 0.699882
#
# Coordination Sequence:
#
# PCOD9027534 Si02
#       8
#     2   2   2   2   2   2   2   2
#     4  11  25  45  63  99 135 176 222 270 332 400
#     4   9  20  40  63  92 127 172 218 262 319 390
#     4  12  26  42  68 103 134 176 219 270 347 396
#     4  10  22  41  68  92 132 176 220 280 327 389
#     4  11  22  40  67  97 129 172 226 270 331 408
#     4  11  22  44  63  98 137 170 219 271 332 402
#     4  11  25  43  68  96 140 173 219 282 333 388
#     4   9  22  44  62  95 130 174 226 273 332 384
#
# _framework density 25.794021000000001
#
# number of rings (size 3 to 8) (size 9 to 14) (size 15 to 20)
#    0.000    1.500    2.500    1.500    3.500    2.000 
#    0.000    6.875    0.000    0.000    0.000    0.000 
#    0.000    0.000    0.000    0.000    0.000    0.000 
#
# Total GULP energy -89357.124150 kJ/mol
# GULP energy per Si atom -5584.820259 kJ/mol
# Density = 2.573531 g / cm^3
# Si number density = 25.794021 Si / 1000 Ang^3
#
#
#
# Elastic Constant Matrix: (Units=GPa)
#
#
# Indices 1 2 3 4 5 6 
#
# 1 186.4313 29.8297 10.4059 -2.0674 21.3127 12.1159
# 2 29.8297 36.8023 10.3715 5.2263 -2.3145 6.7304
# 3 10.4059 10.3715 67.3545 -9.9183 8.1846 13.6227
# 4 -2.0674 5.2263 -9.9183 24.9914 5.6967 0.2153
# 5 21.3127 -2.3145 8.1846 5.6967 47.7182 -4.1309
# 6 12.1159 6.7304 13.6227 0.2153 -4.1309 41.4059
#
#
#
# Elastic Compliance Matrix: (Units=1/GPa)
#
#
# Indices 1 2 3 4 5 6 
#
# 1 0.006958 -0.006416 0.001303 0.003410 -0.004210 -0.001859
# 2 -0.006416 0.036871 -0.007278 -0.012797 0.007350 -0.000922
# 3 0.001303 -0.007278 0.019346 0.010746 -0.006075 -0.006225
# 4 0.003410 -0.012797 0.010746 0.049601 -0.010231 -0.003732
# 5 -0.004210 0.007350 -0.006075 -0.010231 0.025861 0.004669
# 6 -0.001859 -0.000922 -0.006225 -0.003732 0.004669 0.027378
#
#
# Mechanical properties :
#
#
# Convention : Reuss Voigt Hill
#
# Bulk Modulus (GPa) = 26.04561 43.53359 34.78960
# Shear Modulus (GPa) = 24.55869 38.82184 31.69026
#
# Velocity S-wave (km/s) = 3.08897 3.88373 3.50893
# Velocity P-wave (km/s) = 4.77931 6.08484 5.47115
#
# Compressibility (1/GPa) = 0.03839418
#
# Stress axis : x y z
#
# Youngs Moduli (GPa) = 143.72590 27.12125 51.69096
#
# Poissons Ratio (x) = 0.17400 -0.06734
# Poissons Ratio (y) = 0.92209 0.37618
# Poissons Ratio (z) = -0.18725 0.19738
#
# Static dielectric constant tensor:
#      x y z
#    x 1.973180 0.016030 -0.040760 
#    y 0.016030 2.211700 -0.051250 
#    z -0.040760 -0.051250 2.086370 
# 
# From -- ./inp_files/306966.got.cif
#   From: 2010.05.17/outbox.cif.g08.bks.cpg/sg2_154_cif.got.tgz:306966.got - 2010.06.03 11:33:40.
