data_PCOD9027409
_publ_section_title
;
Structure prediction by ZEFSAII (Michael W. Deem and Ramdas Pophale) SiO2 
 PCOD9027409
Probable space group: P -1
;
_chemical_formula_sum "Si O2"
_cell_formula_units_Z 10
_cell_length_a 14.414116
_cell_length_b 9.532891
_cell_length_c 12.903196
_cell_angle_alpha 37.172486
_cell_angle_beta 30.608248
_cell_angle_gamma 59.027666
_cell_volume 453.229305
_symmetry_space_group_name_H-M "P -1"
_symmetry_group_IT_number 2
_symmetry_cell_setting 'triclinic'
loop_
_space_group_symop_operation_xyz
x,y,z
-x,-y,-z
loop_
_atom_site_type_symbol
_atom_site_label
_atom_site_fract_x
_atom_site_fract_y
_atom_site_fract_z
Si Si1 0.204288 0.717042 0.247885
Si Si2 0.681766 0.984848 0.537080
Si Si3 0.375740 0.693596 0.748179
Si Si4 0.056692 0.114792 0.493354
Si Si5 0.232821 0.276361 0.587120
O O1 0.214275 0.536134 0.436980
O O2 0.000000 0.500000 0.500000
O O3 0.149643 0.930986 0.218860
O O4 0.432783 0.854984 0.887622
O O5 0.822248 0.996782 0.491760
O O6 0.700172 0.789292 0.550055
O O7 0.750440 0.273450 0.244302
O O8 0.577167 0.661770 0.551958
O O9 0.500000 0.000000 0.500000
O O10 0.219554 0.448736 0.121336
O O11 0.000000 0.000000 0.500000
O O12 0.000000 0.000000 0.000000
#
# Coordination Sequence:
#
# PCOD9027409 Si02
#       5
#     2   2   2   2   2
#     4  12  21  39  72  97 129 178 223 276 337 385
#     4  11  23  42  67  97 139 171 226 280 325 400
#     4  10  22  41  67  99 131 170 225 277 325 396
#     4  12  27  46  66  99 141 182 219 272 342 400
#     4  11  20  37  68 103 133 166 225 284 332 386
#
# _framework density 22.063884999999999
#
# number of rings (size 3 to 8) (size 9 to 14) (size 15 to 20)
#    0.000    0.800    4.000    6.600    0.000    1.600 
#    0.000    1.000    0.000    0.000    0.000    0.000 
#    0.000    0.000    0.000    0.000    0.000    0.000 
#
# Total GULP energy -55885.863844 kJ/mol
# GULP energy per Si atom -5588.586384 kJ/mol
# Density = 2.201367 g / cm^3
# Si number density = 22.063885 Si / 1000 Ang^3
#
#
#
# Elastic Constant Matrix: (Units=GPa)
#
#
# Indices 1 2 3 4 5 6 
#
# 1 173.5946 54.0675 8.0385 8.1508 15.8488 -34.8820
# 2 54.0675 64.3710 13.6180 35.3247 -14.4614 -8.3349
# 3 8.0385 13.6180 83.9236 27.0978 6.2046 -10.9678
# 4 8.1508 35.3247 27.0978 41.3920 -13.7441 4.1914
# 5 15.8488 -14.4614 6.2046 -13.7441 26.1956 -5.0676
# 6 -34.8820 -8.3349 -10.9678 4.1914 -5.0676 50.9036
#
#
#
# Elastic Compliance Matrix: (Units=1/GPa)
#
#
# Indices 1 2 3 4 5 6 
#
# 1 0.012662 -0.016687 0.000947 0.006406 -0.012897 0.004337
# 2 -0.016687 0.056731 0.005535 -0.043110 0.018340 0.004422
# 3 0.000947 0.005535 0.020257 -0.023228 -0.013242 0.006514
# 4 0.006406 -0.043110 -0.023228 0.082345 0.018593 -0.012603
# 5 -0.012897 0.018340 -0.013242 0.018593 0.068333 -0.003416
# 6 0.004337 0.004422 0.006514 -0.012603 -0.003416 0.025442
#
#
# Mechanical properties :
#
#
# Convention : Reuss Voigt Hill
#
# Bulk Modulus (GPa) = 14.44292 52.59303 33.51797
# Shear Modulus (GPa) = 16.16755 40.10926 28.13840
#
# Velocity S-wave (km/s) = 2.70989 4.26827 3.57503
# Velocity P-wave (km/s) = 4.04370 6.94113 5.68027
#
# Compressibility (1/GPa) = 0.06923810
#
# Stress axis : x y z
#
# Youngs Moduli (GPa) = 78.97473 17.62715 49.36521
#
# Poissons Ratio (x) = 0.29415 -0.04673
# Poissons Ratio (y) = 1.31787 -0.27322
# Poissons Ratio (z) = -0.07477 -0.09756
#
# Static dielectric constant tensor:
#      x y z
#    x 1.904760 -0.021830 0.018490 
#    y -0.021830 1.840290 0.012570 
#    z 0.018490 0.012570 1.849300 
# 
# From -- ./inp_files/27431.got.cif
#   From: 2010.05.17/outbox.cif.g08.bks.cpg/sg2_14_cif.got.tgz:27431.got - 2010.06.03 11:33:40.
