data_PCOD9027445
_publ_section_title
;
Structure prediction by ZEFSAII (Michael W. Deem and Ramdas Pophale) SiO2 
 PCOD9027445
Probable space group: P -1
;
_chemical_formula_sum "Si O2"
_cell_formula_units_Z 15
_cell_length_a 11.563070
_cell_length_b 11.692384
_cell_length_c 5.529945
_cell_angle_alpha 70.112299
_cell_angle_beta 109.492354
_cell_angle_gamma 129.124653
_cell_volume 538.106863
_symmetry_space_group_name_H-M "P -1"
_symmetry_group_IT_number 2
_symmetry_cell_setting 'triclinic'
loop_
_space_group_symop_operation_xyz
x,y,z
-x,-y,-z
loop_
_atom_site_type_symbol
_atom_site_label
_atom_site_fract_x
_atom_site_fract_y
_atom_site_fract_z
Si Si1 0.676366 0.847465 0.261372
Si Si2 0.665419 0.628178 0.750660
Si Si3 0.063003 0.443806 0.389448
Si Si4 0.440558 0.861351 0.389516
Si Si5 0.061282 0.225447 0.818799
Si Si6 0.438533 0.653612 0.862261
Si Si7 0.000000 0.000000 0.500000
Si Si8 0.156307 0.738184 0.024806
O O1 0.679779 0.707602 0.452542
O O2 0.576376 0.865994 0.362918
O O3 0.849276 0.983354 0.305163
O O4 0.585984 0.798996 0.985757
O O5 0.514364 0.600945 0.772606
O O6 0.820723 0.753663 0.910045
O O7 0.646525 0.473726 0.898136
O O8 0.149720 0.383501 0.618259
O O9 0.141957 0.582481 0.163803
O O10 0.000000 0.500000 0.500000
O O11 0.927064 0.296861 0.261195
O O12 0.358174 0.714298 0.614590
O O13 0.331992 0.855405 0.114749
O O14 0.500000 0.000000 0.500000
O O15 0.934468 0.231914 0.865715
O O16 0.006473 0.093007 0.687833
#
# Coordination Sequence:
#
# PCOD9027445 Si02
#       8
#     2   2   2   2   2   2   1   2
#     4  11  25  44  68 100 134 188 227 290 350 414
#     4  10  22  42  69 101 135 176 233 286 351 410
#     4   9  21  41  66 102 134 176 231 282 359 401
#     4  11  25  44  67 102 140 185 236 279 350 422
#     4  11  23  40  66  99 139 186 223 288 341 418
#     4  10  22  44  69 100 138 177 228 294 345 414
#     4  12  26  44  62 100 144 184 236 276 350 424
#     4  10  22  41  68 101 135 179 229 293 343 414
#
# _framework density 27.875502999999998
#
# number of rings (size 3 to 8) (size 9 to 14) (size 15 to 20)
#    0.000    1.600    1.333    2.000    1.867    7.467 
#    0.000    0.000    0.000    0.000    0.000    0.000 
#    0.000    0.000    0.000    0.000    0.000    0.000 
#
# Total GULP energy -83758.801979 kJ/mol
# GULP energy per Si atom -5583.920132 kJ/mol
# Density = 2.781206 g / cm^3
# Si number density = 27.875503 Si / 1000 Ang^3
#
#
#
# Elastic Constant Matrix: (Units=GPa)
#
#
# Indices 1 2 3 4 5 6 
#
# 1 165.0564 42.4312 14.9254 17.8872 5.4310 -39.1298
# 2 42.4312 126.2614 27.7673 7.3049 -2.4870 -16.6788
# 3 14.9254 27.7673 120.6825 25.3226 19.3650 -10.2836
# 4 17.8872 7.3049 25.3226 66.7779 6.3340 -4.3051
# 5 5.4310 -2.4870 19.3650 6.3340 29.6786 15.7258
# 6 -39.1298 -16.6788 -10.2836 -4.3051 15.7258 41.1119
#
#
#
# Elastic Compliance Matrix: (Units=1/GPa)
#
#
# Indices 1 2 3 4 5 6 
#
# 1 0.009957 -0.002271 0.002297 -0.001521 -0.009958 0.012780
# 2 -0.002271 0.009234 -0.002313 0.000226 0.002640 0.000019
# 3 0.002297 -0.002313 0.011892 -0.003158 -0.012244 0.008576
# 4 -0.001521 0.000226 -0.003158 0.016678 -0.001242 0.000075
# 5 -0.009958 0.002640 -0.012244 -0.001242 0.062884 -0.035654
# 6 0.012780 0.000019 0.008576 0.000075 -0.035654 0.052287
#
#
# Mechanical properties :
#
#
# Convention : Reuss Voigt Hill
#
# Bulk Modulus (GPa) = 37.72326 64.69422 51.20874
# Shear Modulus (GPa) = 28.35413 49.30544 38.82979
#
# Velocity S-wave (km/s) = 3.19277 4.21024 3.73630
# Velocity P-wave (km/s) = 5.21094 6.84788 6.08471
#
# Compressibility (1/GPa) = 0.02650884
#
# Stress axis : x y z
#
# Youngs Moduli (GPa) = 100.43209 108.30095 84.08797
#
# Poissons Ratio (x) = 0.24598 -0.19318
# Poissons Ratio (y) = 0.22811 0.19450
# Poissons Ratio (z) = -0.23073 0.25051
#
# Static dielectric constant tensor:
#      x y z
#    x 2.157820 0.162000 -0.077020 
#    y 0.162000 2.413320 -0.144990 
#    z -0.077020 -0.144990 2.220650 
# 
# From -- ./inp_files/70193.got.cif
#   From: 2010.05.17/outbox.cif.g08.bks.cpg/sg2_36_cif.got.tgz:70193.got - 2010.06.03 11:33:40.
