data_PCOD9027690
_publ_section_title
;
Structure prediction by ZEFSAII (Michael W. Deem and Ramdas Pophale) SiO2 
 PCOD9027690
Probable space group: P -1
;
_chemical_formula_sum "Si O2"
_cell_formula_units_Z 16
_cell_length_a 9.527513
_cell_length_b 11.076935
_cell_length_c 9.460522
_cell_angle_alpha 83.174820
_cell_angle_beta 46.223381
_cell_angle_gamma 81.716611
_cell_volume 713.125969
_symmetry_space_group_name_H-M "P -1"
_symmetry_group_IT_number 2
_symmetry_cell_setting 'triclinic'
loop_
_space_group_symop_operation_xyz
x,y,z
-x,-y,-z
loop_
_atom_site_type_symbol
_atom_site_label
_atom_site_fract_x
_atom_site_fract_y
_atom_site_fract_z
Si Si1 0.300689 0.031419 0.550654
Si Si2 0.221301 0.002512 0.292639
Si Si3 0.269490 0.265264 0.172942
Si Si4 0.050011 0.376173 0.565217
Si Si5 0.217651 0.808073 0.793258
Si Si6 0.710780 0.225832 0.929492
Si Si7 0.347842 0.292511 0.574953
Si Si8 0.113333 0.373235 0.987782
O O1 0.332134 0.013183 0.364307
O O2 0.245739 0.170076 0.615779
O O3 0.500000 0.000000 0.500000
O O4 0.170001 0.931297 0.719333
O O5 0.260152 0.122865 0.159507
O O6 0.269575 0.881563 0.185156
O O7 0.000000 0.000000 0.500000
O O8 0.128714 0.281548 0.403121
O O9 0.488663 0.283782 0.065125
O O10 0.193413 0.359469 0.092399
O O11 0.230583 0.391081 0.542839
O O12 0.000000 0.500000 0.500000
O O13 0.865612 0.324410 0.776930
O O14 0.423021 0.738198 0.605940
O O15 0.250438 0.828526 0.933676
O O16 0.044869 0.723902 0.905488
O O17 0.293021 0.332468 0.764972
O O18 0.000000 0.500000 0.000000
#
# Coordination Sequence:
#
# PCOD9027690 Si02
#       8
#     2   2   2   2   2   2   2   2
#     4  10  22  41  69 100 136 173 216 274 346 405
#     4  12  23  44  70 105 142 176 224 284 346 411
#     4  12  26  44  70 105 137 179 231 289 342 401
#     4  12  25  46  70  96 138 182 233 289 333 406
#     4  11  25  45  73 100 136 182 222 280 351 407
#     4  12  26  44  73 106 136 181 231 278 351 415
#     4  11  23  47  69  99 139 174 228 284 337 409
#     4  12  29  46  67 100 137 182 238 280 339 405
#
# _framework density 22.436429
#
# number of rings (size 3 to 8) (size 9 to 14) (size 15 to 20)
#    0.000    0.500    5.000    2.625    5.250    2.500 
#    0.000    0.000    0.000    0.000    0.000    0.000 
#    0.000    0.000    0.000    0.000    0.000    0.000 
#
# Total GULP energy -89515.997674 kJ/mol
# GULP energy per Si atom -5594.749855 kJ/mol
# Density = 2.238536 g / cm^3
# Si number density = 22.436429 Si / 1000 Ang^3
#
#
#
# Elastic Constant Matrix: (Units=GPa)
#
#
# Indices 1 2 3 4 5 6 
#
# 1 68.4792 -4.8076 11.4997 4.9878 6.9609 -18.2540
# 2 -4.8076 43.6714 5.2937 -3.5460 9.6229 -15.2391
# 3 11.4997 5.2937 100.4941 9.1554 8.3567 -7.3355
# 4 4.9878 -3.5460 9.1554 21.6916 -5.3854 10.8100
# 5 6.9609 9.6229 8.3567 -5.3854 40.2135 -2.7810
# 6 -18.2540 -15.2391 -7.3355 10.8100 -2.7810 31.6912
#
#
#
# Elastic Compliance Matrix: (Units=1/GPa)
#
#
# Indices 1 2 3 4 5 6 
#
# 1 0.024214 0.011657 0.000823 -0.018629 -0.007890 0.025405
# 2 0.011657 0.034837 0.000949 -0.013655 -0.010484 0.027424
# 3 0.000823 0.000949 0.011355 -0.008808 -0.003476 0.006258
# 4 -0.018629 -0.013655 -0.008808 0.077967 0.015683 -0.044554
# 5 -0.007890 -0.010484 -0.003476 0.015683 0.030662 -0.013049
# 6 0.025405 0.027424 0.006258 -0.044554 -0.013049 0.074876
#
#
# Mechanical properties :
#
#
# Convention : Reuss Voigt Hill
#
# Bulk Modulus (GPa) = 10.28142 26.29070 18.28606
# Shear Modulus (GPa) = 19.26964 32.09651 25.68308
#
# Velocity S-wave (km/s) = 2.93380 3.78637 3.38702
# Velocity P-wave (km/s) = 4.00858 5.55507 4.84394
#
# Compressibility (1/GPa) = 0.09726284
#
# Stress axis : x y z
#
# Youngs Moduli (GPa) = 41.29825 28.70482 88.06677
#
# Poissons Ratio (x) = -0.33461 -0.07246
# Poissons Ratio (y) = -0.48141 -0.08353
# Poissons Ratio (z) = -0.03398 -0.02723
#
# Static dielectric constant tensor:
#      x y z
#    x 1.873200 -0.012370 0.025800 
#    y -0.012370 1.906230 0.001730 
#    z 0.025800 0.001730 1.843530 
# 
# From -- ./inp_files/186364.got.cif
#   From: 2010.05.17/outbox.cif.g08.bks.cpg/sg2_94_cif.got.tgz:186364.got - 2010.06.03 11:33:40.
