data_PCOD9027259
_publ_section_title
;
Structure prediction by ZEFSAII (Michael W. Deem and Ramdas Pophale) SiO2 
 PCOD9027259
Probable space group: P -1
;
_chemical_formula_sum "Si O2"
_cell_formula_units_Z 14
_cell_length_a 10.795906
_cell_length_b 11.537876
_cell_length_c 14.798417
_cell_angle_alpha 29.303386
_cell_angle_beta 43.932446
_cell_angle_gamma 51.108340
_cell_volume 625.942880
_symmetry_space_group_name_H-M "P -1"
_symmetry_group_IT_number 2
_symmetry_cell_setting 'triclinic'
loop_
_space_group_symop_operation_xyz
x,y,z
-x,-y,-z
loop_
_atom_site_type_symbol
_atom_site_label
_atom_site_fract_x
_atom_site_fract_y
_atom_site_fract_z
Si Si1 0.328647 0.127017 0.050552
Si Si2 0.294616 0.722011 0.915474
Si Si3 0.305759 0.228864 0.330713
Si Si4 0.317274 0.430315 0.690755
Si Si5 0.205745 0.937538 0.424282
Si Si6 0.977965 0.925953 0.281242
Si Si7 0.176145 0.949066 0.998974
O O1 0.322464 0.085584 0.188803
O O2 0.334089 0.375637 0.826053
O O3 0.133388 0.025285 0.196081
O O4 0.500000 0.000000 0.000000
O O5 0.493269 0.747593 0.754622
O O6 0.143893 0.862712 0.842649
O O7 0.302412 0.829448 0.940739
O O8 0.261878 0.445525 0.138578
O O9 0.160414 0.229018 0.485562
O O10 0.288832 0.990372 0.442829
O O11 0.500000 0.500000 0.500000
O O12 0.203381 0.664958 0.580828
O O13 0.248573 0.192179 0.839638
O O14 0.000000 0.000000 0.500000
O O15 0.096451 0.803067 0.224279
O O16 0.000000 0.000000 0.000000
#
# Coordination Sequence:
#
# PCOD9027259 Si02
#       7
#     2   2   2   2   2   2   2
#     4  11  24  43  67 100 133 177 229 278 339 409
#     4  10  23  44  67  95 132 176 222 274 328 405
#     4  11  24  42  67  97 136 173 220 271 338 404
#     4  11  23  43  70  95 135 178 223 284 338 397
#     4  12  26  42  68 103 137 176 225 280 344 406
#     4  10  22  41  67  93 132 171 223 273 333 394
#     4   9  21  40  66  91 125 172 223 268 327 389
#
# _framework density 22.366256
#
# number of rings (size 3 to 8) (size 9 to 14) (size 15 to 20)
#    0.000    1.429    2.857    1.286    8.000    2.286 
#    0.000   10.000    0.000    0.000    0.000    0.000 
#    0.000    0.000    0.000    0.000    0.000    0.000 
#
# Total GULP energy -78081.917444 kJ/mol
# GULP energy per Si atom -5577.279817 kJ/mol
# Density = 2.231535 g / cm^3
# Si number density = 22.366256 Si / 1000 Ang^3
#
#
#
# Elastic Constant Matrix: (Units=GPa)
#
#
# Indices 1 2 3 4 5 6 
#
# 1 69.1846 16.9780 18.3701 -1.1197 -7.3050 -14.4598
# 2 16.9780 106.1063 47.6341 10.1256 -8.4445 -7.3830
# 3 18.3701 47.6341 126.3610 33.1473 -7.1311 -5.7641
# 4 -1.1197 10.1256 33.1473 35.9267 -5.6083 -3.4185
# 5 -7.3050 -8.4445 -7.1311 -5.6083 33.3001 7.9753
# 6 -14.4598 -7.3830 -5.7641 -3.4185 7.9753 41.7231
#
#
#
# Elastic Compliance Matrix: (Units=1/GPa)
#
#
# Indices 1 2 3 4 5 6 
#
# 1 0.016887 -0.001360 -0.002691 0.004236 0.002262 0.005155
# 2 -0.001360 0.011684 -0.004340 0.001010 0.001726 0.000750
# 3 -0.002691 -0.004340 0.012689 -0.010731 -0.000611 -0.000710
# 4 0.004236 0.001010 -0.010731 0.038562 0.004806 0.002405
# 5 0.002262 0.001726 -0.000611 0.004806 0.032809 -0.004873
# 6 0.005155 0.000750 -0.000710 0.002405 -0.004873 0.026917
#
#
# Mechanical properties :
#
#
# Convention : Reuss Voigt Hill
#
# Bulk Modulus (GPa) = 40.85127 51.95737 46.40432
# Shear Modulus (GPa) = 30.39732 36.76798 33.58265
#
# Velocity S-wave (km/s) = 3.69056 4.05891 3.87911
# Velocity P-wave (km/s) = 6.03859 6.72659 6.39185
#
# Compressibility (1/GPa) = 0.02447905
#
# Stress axis : x y z
#
# Youngs Moduli (GPa) = 59.21721 85.59065 78.80731
#
# Poissons Ratio (x) = 0.11637 0.21205
# Poissons Ratio (y) = 0.08051 0.34202
# Poissons Ratio (z) = 0.15934 0.37146
#
# Static dielectric constant tensor:
#      x y z
#    x 1.813750 0.052150 0.030300 
#    y 0.052150 1.847410 0.016300 
#    z 0.030300 0.016300 1.862580 
# 
# From -- ./inp_files/518514.got.cif
#   From: 2010.05.17/outbox.cif.g08.bks.cpg/sg2_260_cif.got.tgz:518514.got - 2010.06.03 11:33:40.
