data_PCOD9027028
_publ_section_title
;
Structure prediction by ZEFSAII (Michael W. Deem and Ramdas Pophale) SiO2 
 PCOD9027028
Probable space group: P -1
;
_chemical_formula_sum "Si O2"
_cell_formula_units_Z 16
_cell_length_a 9.003516
_cell_length_b 9.744293
_cell_length_c 23.189110
_cell_angle_alpha 40.738798
_cell_angle_beta 38.953542
_cell_angle_gamma 42.089110
_cell_volume 774.604422
_symmetry_space_group_name_H-M "P -1"
_symmetry_group_IT_number 2
_symmetry_cell_setting 'triclinic'
loop_
_space_group_symop_operation_xyz
x,y,z
-x,-y,-z
loop_
_atom_site_type_symbol
_atom_site_label
_atom_site_fract_x
_atom_site_fract_y
_atom_site_fract_z
Si Si1 0.054573 0.657755 0.835725
Si Si2 0.510314 0.150295 0.004527
Si Si3 0.489598 0.426205 0.189152
Si Si4 0.985573 0.593432 0.356367
Si Si5 0.338586 0.074553 0.743701
Si Si6 0.844628 0.173178 0.541170
Si Si7 0.681190 0.798336 0.162797
Si Si8 0.916659 0.124387 0.666642
O O1 0.260572 0.588143 0.846604
O O2 0.133726 0.446068 0.836393
O O3 0.774133 0.726818 0.924182
O O4 0.054227 0.879476 0.731946
O O5 0.672127 0.983418 0.058488
O O6 0.598560 0.349680 0.894358
O O7 0.500000 0.000000 0.000000
O O8 0.268804 0.450931 0.293749
O O9 0.558366 0.195470 0.206922
O O10 0.867327 0.803549 0.281518
O O11 0.834431 0.425384 0.452405
O O12 0.998274 0.695746 0.382451
O O13 0.572136 0.153950 0.634957
O O14 0.248345 0.146012 0.812923
O O15 0.967264 0.111935 0.587341
O O16 0.000000 0.000000 0.500000
O O17 0.388101 0.808494 0.252140
#
# Coordination Sequence:
#
# PCOD9027028 Si02
#       8
#     2   2   2   2   2   2   2   2
#     4  11  21  41  69  94 127 168 213 258 316 375
#     4  11  23  39  68  99 128 164 214 263 312 373
#     4  12  23  40  67  96 128 166 217 262 308 380
#     4  12  23  43  66  93 128 169 215 263 312 378
#     4  11  26  43  64  94 133 168 207 263 328 371
#     4  11  24  44  64  94 131 168 208 265 324 375
#     4  10  23  41  64  95 129 170 209 259 319 374
#     4  10  22  41  66  95 126 166 218 259 310 378
#
# _framework density 20.655704
#
# number of rings (size 3 to 8) (size 9 to 14) (size 15 to 20)
#    0.000    1.000    5.000    1.875    1.750    1.500 
#    0.000    2.500    0.000    0.000    0.000    0.000 
#    0.000    0.000    0.000    0.000    0.000    0.000 
#
# Total GULP energy -89494.439901 kJ/mol
# GULP energy per Si atom -5593.402494 kJ/mol
# Density = 2.060869 g / cm^3
# Si number density = 20.655704 Si / 1000 Ang^3
#
#
#
# Elastic Constant Matrix: (Units=GPa)
#
#
# Indices 1 2 3 4 5 6 
#
# 1 84.6406 43.9327 14.6381 3.4305 18.1821 27.9848
# 2 43.9327 146.7371 45.5486 -6.5539 11.2985 35.8580
# 3 14.6381 45.5486 76.3492 -14.5472 14.5902 21.6962
# 4 3.4305 -6.5539 -14.5472 33.3002 3.7256 -0.1545
# 5 18.1821 11.2985 14.5902 3.7256 30.2247 2.3783
# 6 27.9848 35.8580 21.6962 -0.1545 2.3783 35.4298
#
#
#
# Elastic Compliance Matrix: (Units=1/GPa)
#
#
# Indices 1 2 3 4 5 6 
#
# 1 0.019966 -0.002773 0.004482 0.000634 -0.012043 -0.014897
# 2 -0.002773 0.010295 -0.003835 0.000602 0.000060 -0.005882
# 3 0.004482 -0.003835 0.022272 0.009825 -0.012246 -0.012432
# 4 0.000634 0.000602 0.009825 0.035376 -0.009210 -0.006354
# 5 -0.012043 0.000060 -0.012246 -0.009210 0.046269 0.013806
# 6 -0.014897 -0.005882 -0.012432 -0.006354 0.013806 0.052603
#
#
# Mechanical properties :
#
#
# Convention : Reuss Voigt Hill
#
# Bulk Modulus (GPa) = 20.71258 57.32954 39.02106
# Shear Modulus (GPa) = 24.13974 33.36476 28.75225
#
# Velocity S-wave (km/s) = 3.42229 4.02342 3.73497
# Velocity P-wave (km/s) = 5.06611 7.02844 6.12635
#
# Compressibility (1/GPa) = 0.04827985
#
# Stress axis : x y z
#
# Youngs Moduli (GPa) = 50.08591 97.13034 44.90010
#
# Poissons Ratio (x) = 0.26933 -0.20124
# Poissons Ratio (y) = 0.13888 0.17221
# Poissons Ratio (z) = -0.22448 0.37254
#
# Static dielectric constant tensor:
#      x y z
#    x 1.725160 -0.010420 -0.007950 
#    y -0.010420 1.700020 -0.002160 
#    z -0.007950 -0.002160 1.753660 
# 
# From -- ./inp_files/38085.got.cif
#   From: 2010.05.17/outbox.cif.g08.bks.cpg/sg2_20_cif.got.tgz:38085.got - 2010.06.03 11:33:40.
