data_PCOD9027566
_publ_section_title
;
Structure prediction by ZEFSAII (Michael W. Deem and Ramdas Pophale) SiO2 
 PCOD9027566
Probable space group: P -1
;
_chemical_formula_sum "Si O2"
_cell_formula_units_Z 14
_cell_length_a 8.678087
_cell_length_b 8.644072
_cell_length_c 11.948702
_cell_angle_alpha 74.538099
_cell_angle_beta 115.008116
_cell_angle_gamma 131.013763
_cell_volume 612.836817
_symmetry_space_group_name_H-M "P -1"
_symmetry_group_IT_number 2
_symmetry_cell_setting 'triclinic'
loop_
_space_group_symop_operation_xyz
x,y,z
-x,-y,-z
loop_
_atom_site_type_symbol
_atom_site_label
_atom_site_fract_x
_atom_site_fract_y
_atom_site_fract_z
Si Si1 0.215706 0.524430 0.827283
Si Si2 0.104938 0.386665 0.577099
Si Si3 0.986719 0.250380 0.225749
Si Si4 0.252597 0.003342 0.595021
Si Si5 0.394823 0.304359 0.394329
Si Si6 0.596355 0.929285 0.754622
Si Si7 0.015786 0.819538 0.021014
O O1 0.121180 0.379631 0.717009
O O2 0.454843 0.725109 0.827845
O O3 0.081876 0.609989 0.790133
O O4 0.190012 0.396252 0.950868
O O5 0.350762 0.527113 0.581600
O O6 0.000000 0.500000 0.500000
O O7 0.952391 0.173475 0.507675
O O8 0.236244 0.358718 0.310056
O O9 0.837807 0.046387 0.296836
O O10 0.949605 0.199674 0.093616
O O11 0.432636 0.969063 0.653808
O O12 0.351885 0.212768 0.522558
O O13 0.323922 0.126163 0.316124
O O14 0.782280 0.113875 0.852278
O O15 0.000000 0.000000 0.000000
#
# Coordination Sequence:
#
# PCOD9027566 Si02
#       7
#     2   2   2   2   2   2   2
#     4  10  24  44  66  93 134 168 215 272 316 384
#     4  11  21  41  67  97 128 173 215 253 330 396
#     4  11  24  44  62 102 134 166 219 270 319 384
#     4  11  23  40  66  96 135 167 213 266 319 388
#     4  11  22  40  66  99 132 168 209 268 325 382
#     4  10  22  41  68  95 124 174 222 252 327 388
#     4  12  25  44  70  92 125 176 224 264 320 380
#
# _framework density 22.844580000000001
#
# number of rings (size 3 to 8) (size 9 to 14) (size 15 to 20)
#    0.000    1.143    5.714    2.143    2.000    3.429 
#    0.000    4.286    0.000    0.000    0.000    0.000 
#    0.000    0.000    0.000    0.000    0.000    0.000 
#
# Total GULP energy -78393.934928 kJ/mol
# GULP energy per Si atom -5599.566781 kJ/mol
# Density = 2.279258 g / cm^3
# Si number density = 22.844580 Si / 1000 Ang^3
#
#
#
# Elastic Constant Matrix: (Units=GPa)
#
#
# Indices 1 2 3 4 5 6 
#
# 1 95.6941 33.9281 29.6878 -17.9856 -8.7581 7.6446
# 2 33.9281 63.0919 44.6373 -10.0912 -13.3688 11.5793
# 3 29.6878 44.6373 109.9118 -8.4915 -40.2463 9.2080
# 4 -17.9856 -10.0912 -8.4915 39.3144 4.6022 -0.7299
# 5 -8.7581 -13.3688 -40.2463 4.6022 45.2055 -0.1432
# 6 7.6446 11.5793 9.2080 -0.7299 -0.1432 25.8013
#
#
#
# Elastic Compliance Matrix: (Units=1/GPa)
#
#
# Indices 1 2 3 4 5 6 
#
# 1 0.013746 -0.005808 -0.001107 0.004601 -0.000511 -0.000944
# 2 -0.005808 0.026724 -0.009102 0.002292 -0.001581 -0.006968
# 3 -0.001107 -0.009102 0.018059 -0.000526 0.013219 -0.001973
# 4 0.004601 0.002292 -0.000526 0.028197 -0.001774 -0.001416
# 5 -0.000511 -0.001581 0.013219 -0.001774 0.033492 -0.003721
# 6 -0.000944 -0.006968 -0.001973 -0.001416 -0.003721 0.042808
#
#
# Mechanical properties :
#
#
# Convention : Reuss Voigt Hill
#
# Bulk Modulus (GPa) = 37.74502 53.91159 45.82830
# Shear Modulus (GPa) = 24.52294 32.76053 28.64174
#
# Velocity S-wave (km/s) = 3.27994 3.79101 3.54470
# Velocity P-wave (km/s) = 5.55899 6.54315 6.07105
#
# Compressibility (1/GPa) = 0.02649356
#
# Stress axis : x y z
#
# Youngs Moduli (GPa) = 72.74879 37.42025 55.37488
#
# Poissons Ratio (x) = 0.21734 0.06128
# Poissons Ratio (y) = 0.42254 0.50404
# Poissons Ratio (z) = 0.08051 0.34061
#
# Static dielectric constant tensor:
#      x y z
#    x 1.842180 0.008640 0.002230 
#    y 0.008640 1.847280 0.003250 
#    z 0.002230 0.003250 1.835850 
# 
# From -- ./inp_files/378828.got.cif
#   From: 2010.05.17/outbox.cif.g08.bks.cpg/sg2_190_cif.got.tgz:378828.got - 2010.06.03 11:33:40.
