data_PCOD9027166
_publ_section_title
;
Structure prediction by ZEFSAII (Michael W. Deem and Ramdas Pophale) SiO2 
 PCOD9027166
Probable space group: P -1
;
_chemical_formula_sum "Si O2"
_cell_formula_units_Z 14
_cell_length_a 9.461165
_cell_length_b 9.528085
_cell_length_c 11.929544
_cell_angle_alpha 68.616016
_cell_angle_beta 69.814688
_cell_angle_gamma 37.657675
_cell_volume 608.769270
_symmetry_space_group_name_H-M "P -1"
_symmetry_group_IT_number 2
_symmetry_cell_setting 'triclinic'
loop_
_space_group_symop_operation_xyz
x,y,z
-x,-y,-z
loop_
_atom_site_type_symbol
_atom_site_label
_atom_site_fract_x
_atom_site_fract_y
_atom_site_fract_z
Si Si1 0.224160 0.102044 0.129249
Si Si2 0.240619 0.041894 0.760917
Si Si3 0.221887 0.361370 0.559349
Si Si4 0.967387 0.234602 0.381130
Si Si5 0.690772 0.166908 0.415182
Si Si6 0.575925 0.732476 0.969057
Si Si7 0.912341 0.239265 0.968605
O O1 0.137349 0.096332 0.269131
O O2 0.244075 0.266576 0.090528
O O3 0.460710 0.849812 0.087967
O O4 0.050235 0.198943 0.048574
O O5 0.314159 0.131279 0.644132
O O6 0.987094 0.253727 0.824210
O O7 0.253462 0.895439 0.713141
O O8 0.400240 0.898993 0.866718
O O9 0.432609 0.299511 0.468759
O O10 0.000000 0.500000 0.500000
O O11 0.126621 0.527497 0.642352
O O12 0.750223 0.289367 0.403920
O O13 0.118074 0.073678 0.495703
O O14 0.663411 0.497351 0.992560
O O15 0.000000 0.000000 0.000000
#
# Coordination Sequence:
#
# PCOD9027166 Si02
#       7
#     2   2   2   2   2   2   2
#     4  10  22  41  67 100 134 186 231 283 347 417
#     4  11  24  41  68 100 134 182 234 282 350 418
#     4  12  25  42  70 103 136 186 237 292 345 417
#     4  11  24  44  68  98 145 182 236 289 350 422
#     4  11  25  43  65 101 139 185 232 289 357 413
#     4  10  23  42  69 100 138 180 234 290 344 422
#     4  11  24  43  67 101 138 179 228 288 356 416
#
# _framework density 22.997216000000002
#
# number of rings (size 3 to 8) (size 9 to 14) (size 15 to 20)
#    0.000    1.143    1.429    3.857    4.000    5.714 
#    0.000    5.714    0.000    0.000    0.000    0.000 
#    0.000    0.000    0.000    0.000    0.000    0.000 
#
# Total GULP energy -78191.849604 kJ/mol
# GULP energy per Si atom -5585.132115 kJ/mol
# Density = 2.294487 g / cm^3
# Si number density = 22.997216 Si / 1000 Ang^3
#
#
#
# Elastic Constant Matrix: (Units=GPa)
#
#
# Indices 1 2 3 4 5 6 
#
# 1 141.0340 34.8847 20.4522 0.0167 9.2859 15.7512
# 2 34.8847 91.4640 11.4638 8.7769 1.7705 25.7450
# 3 20.4522 11.4638 79.3762 19.1201 12.1026 8.7268
# 4 0.0167 8.7769 19.1201 27.8012 0.2754 4.9566
# 5 9.2859 1.7705 12.1026 0.2754 36.5468 3.8635
# 6 15.7512 25.7450 8.7268 4.9566 3.8635 20.7037
#
#
#
# Elastic Compliance Matrix: (Units=1/GPa)
#
#
# Indices 1 2 3 4 5 6 
#
# 1 0.008359 -0.002300 -0.001952 0.002628 -0.001057 -0.003108
# 2 -0.002300 0.017598 0.000580 -0.002383 0.001685 -0.020121
# 3 -0.001952 0.000580 0.016719 -0.011146 -0.004695 -0.002740
# 4 0.002628 -0.002383 -0.011146 0.045394 0.003414 -0.005843
# 5 -0.001057 0.001685 -0.004695 0.003414 0.029677 -0.005667
# 6 -0.003108 -0.020121 -0.002740 -0.005843 -0.005667 0.079297
#
#
# Mechanical properties :
#
#
# Convention : Reuss Voigt Hill
#
# Bulk Modulus (GPa) = 28.30267 49.49731 38.89999
# Shear Modulus (GPa) = 23.13058 33.34856 28.23957
#
# Velocity S-wave (km/s) = 3.17487 3.81217 3.50802
# Velocity P-wave (km/s) = 5.07676 6.39896 5.77582
#
# Compressibility (1/GPa) = 0.03533236
#
# Stress axis : x y z
#
# Youngs Moduli (GPa) = 119.63228 56.82625 59.81168
#
# Poissons Ratio (x) = 0.13072 0.11673
# Poissons Ratio (y) = 0.27520 -0.03472
# Poissons Ratio (z) = 0.23348 -0.03298
#
# Static dielectric constant tensor:
#      x y z
#    x 1.899830 -0.052840 -0.068150 
#    y -0.052840 1.926490 0.026470 
#    z -0.068150 0.026470 1.839850 
# 
# From -- ./inp_files/369593.got.cif
#   From: 2010.05.17/outbox.cif.g08.bks.cpg/sg2_185_cif.got.tgz:369593.got - 2010.06.03 11:33:40.
