data_PCOD9027795
_publ_section_title
;
Structure prediction by ZEFSAII (Michael W. Deem and Ramdas Pophale) SiO2 
 PCOD9027795
Probable space group: P -1
;
_chemical_formula_sum "Si O2"
_cell_formula_units_Z 16
_cell_length_a 11.349109
_cell_length_b 14.215084
_cell_length_c 7.826865
_cell_angle_alpha 112.343881
_cell_angle_beta 110.940770
_cell_angle_gamma 35.474975
_cell_volume 675.089265
_symmetry_space_group_name_H-M "P -1"
_symmetry_group_IT_number 2
_symmetry_cell_setting 'triclinic'
loop_
_space_group_symop_operation_xyz
x,y,z
-x,-y,-z
loop_
_atom_site_type_symbol
_atom_site_label
_atom_site_fract_x
_atom_site_fract_y
_atom_site_fract_z
Si Si1 0.932970 0.894247 0.193498
Si Si2 0.188688 0.361375 0.374516
Si Si3 0.232437 0.879872 0.341990
Si Si4 0.526162 0.251588 0.293734
Si Si5 0.528311 0.686860 0.059748
Si Si6 0.383397 0.164514 0.647176
Si Si7 0.044012 0.218963 0.532616
Si Si8 0.936784 0.330962 0.180949
O O1 0.033048 0.765171 0.310066
O O2 0.024090 0.949003 0.291883
O O3 0.689954 0.056040 0.210143
O O4 0.994997 0.809844 0.986456
O O5 0.293762 0.363139 0.287839
O O6 0.361686 0.251013 0.531608
O O7 0.000000 0.500000 0.500000
O O8 0.124744 0.291425 0.226022
O O9 0.373834 0.761864 0.496311
O O10 0.347591 0.777473 0.158465
O O11 0.176599 0.035144 0.421366
O O12 0.520452 0.316177 0.159183
O O13 0.548323 0.798715 0.150202
O O14 0.736250 0.506861 0.115252
O O15 0.177715 0.236275 0.643016
O O16 0.500000 0.000000 0.500000
O O17 0.913475 0.325247 0.368078
#
# Coordination Sequence:
#
# PCOD9027795 Si02
#       8
#     2   2   2   2   2   2   2   2
#     4  11  26  45  70 100 133 181 241 281 328 402
#     4  11  22  43  67  95 146 176 212 280 343 409
#     4  11  23  49  69  95 138 177 238 292 328 387
#     4  11  24  42  71 100 130 183 230 276 339 402
#     4  12  25  42  68 106 142 179 221 279 350 405
#     4  11  20  39  67  99 137 175 221 279 340 404
#     4  10  22  41  69  93 133 181 227 278 338 398
#     4  11  26  42  63 106 140 180 221 276 346 410
#
# _framework density 23.700569000000002
#
# number of rings (size 3 to 8) (size 9 to 14) (size 15 to 20)
#    0.000    1.000    3.750    3.000    3.500    7.500 
#    0.000    1.250    0.000    0.000    0.000    0.000 
#    0.000    0.000    0.000    0.000    0.000    0.000 
#
# Total GULP energy -89234.583881 kJ/mol
# GULP energy per Si atom -5577.161493 kJ/mol
# Density = 2.364662 g / cm^3
# Si number density = 23.700569 Si / 1000 Ang^3
#
#
#
# Elastic Constant Matrix: (Units=GPa)
#
#
# Indices 1 2 3 4 5 6 
#
# 1 82.6132 11.1846 28.9528 -2.3331 -4.4677 -9.0372
# 2 11.1846 66.5536 26.0803 -9.0775 -7.3027 -9.4857
# 3 28.9528 26.0803 92.5540 -18.1961 -20.0978 -2.7064
# 4 -2.3331 -9.0775 -18.1961 40.3001 12.4570 -10.5775
# 5 -4.4677 -7.3027 -20.0978 12.4570 33.3916 -2.5707
# 6 -9.0372 -9.4857 -2.7064 -10.5775 -2.5707 20.5103
#
#
#
# Elastic Compliance Matrix: (Units=1/GPa)
#
#
# Indices 1 2 3 4 5 6 
#
# 1 0.014245 0.000202 -0.004295 0.000656 -0.000411 0.006090
# 2 0.000202 0.018880 -0.003878 0.005193 0.000737 0.011079
# 3 -0.004295 -0.003878 0.015513 0.004251 0.006433 0.001359
# 4 0.000656 0.005193 0.004251 0.035857 -0.007998 0.020741
# 5 -0.000411 0.000737 0.006433 -0.007998 0.037027 0.001525
# 6 0.006090 0.011079 0.001359 0.020741 0.001525 0.067630
#
#
# Mechanical properties :
#
#
# Convention : Reuss Voigt Hill
#
# Bulk Modulus (GPa) = 30.58575 41.57293 36.07934
# Shear Modulus (GPa) = 23.14881 30.54061 26.84471
#
# Velocity S-wave (km/s) = 3.12864 3.59361 3.36915
# Velocity P-wave (km/s) = 5.09748 5.89895 5.51280
#
# Compressibility (1/GPa) = 0.03269496
#
# Stress axis : x y z
#
# Youngs Moduli (GPa) = 70.19962 52.96718 64.46112
#
# Poissons Ratio (x) = -0.01068 0.27687
# Poissons Ratio (y) = -0.01415 0.24998
# Poissons Ratio (z) = 0.30152 0.20540
#
# Static dielectric constant tensor:
#      x y z
#    x 1.888150 0.036550 0.049020 
#    y 0.036550 1.985160 -0.017420 
#    z 0.049020 -0.017420 1.931610 
# 
# From -- ./inp_files/270712.got.cif
#   From: 2010.05.17/outbox.cif.g08.bks.cpg/sg2_136_cif.got.tgz:270712.got - 2010.06.03 11:33:40.
