data_PCOD9027664
_publ_section_title
;
Structure prediction by ZEFSAII (Michael W. Deem and Ramdas Pophale) SiO2 
 PCOD9027664
Probable space group: P -1
;
_chemical_formula_sum "Si O2"
_cell_formula_units_Z 14
_cell_length_a 12.163899
_cell_length_b 10.714387
_cell_length_c 11.127461
_cell_angle_alpha 127.402660
_cell_angle_beta 101.378010
_cell_angle_gamma 39.343582
_cell_volume 614.238987
_symmetry_space_group_name_H-M "P -1"
_symmetry_group_IT_number 2
_symmetry_cell_setting 'triclinic'
loop_
_space_group_symop_operation_xyz
x,y,z
-x,-y,-z
loop_
_atom_site_type_symbol
_atom_site_label
_atom_site_fract_x
_atom_site_fract_y
_atom_site_fract_z
Si Si1 0.293371 0.418021 0.524193
Si Si2 0.350194 0.692807 0.694841
Si Si3 0.912047 0.232715 0.785619
Si Si4 0.656151 0.963096 0.022588
Si Si5 0.941230 0.519423 0.309406
Si Si6 0.969882 0.828688 0.495018
Si Si7 0.698971 0.761457 0.155346
O O1 0.359451 0.508152 0.646994
O O2 0.131138 0.520410 0.632985
O O3 0.184625 0.584393 0.471340
O O4 0.480941 0.081567 0.341695
O O5 0.500000 0.500000 0.500000
O O6 0.112493 0.996724 0.778006
O O7 0.415392 0.772172 0.827480
O O8 0.986468 0.215763 0.663645
O O9 0.852674 0.122973 0.681088
O O10 0.729742 0.551846 0.985884
O O11 0.757037 0.808447 0.085113
O O12 0.816441 0.762815 0.831213
O O13 0.500000 0.000000 0.000000
O O14 0.873212 0.776039 0.477157
O O15 0.841082 0.600370 0.207594
#
# Coordination Sequence:
#
# PCOD9027664 Si02
#       7
#     2   2   2   2   2   2   2
#     4  11  26  43  71 100 140 184 223 275 349 408
#     4  11  23  43  69 100 134 176 234 280 333 405
#     4  10  22  41  69 101 133 178 229 285 330 393
#     4  12  25  41  71 102 128 175 232 285 330 399
#     4  12  24  44  69  99 144 180 221 281 348 403
#     4  10  22  41  68  99 134 177 223 281 339 391
#     4  12  23  44  69 100 135 181 233 271 335 409
#
# _framework density 22.792428999999998
#
# number of rings (size 3 to 8) (size 9 to 14) (size 15 to 20)
#    0.000    0.857    4.286    3.000    2.000    0.571 
#    0.000    0.714    0.000    0.000    0.000    0.000 
#    0.000    0.000    0.000    0.000    0.000    0.000 
#
# Total GULP energy -78291.994959 kJ/mol
# GULP energy per Si atom -5592.285354 kJ/mol
# Density = 2.274055 g / cm^3
# Si number density = 22.792429 Si / 1000 Ang^3
#
#
#
# Elastic Constant Matrix: (Units=GPa)
#
#
# Indices 1 2 3 4 5 6 
#
# 1 165.4290 16.7717 91.4657 7.6138 22.4974 26.7291
# 2 16.7717 49.4411 32.5625 6.5658 5.7472 -6.9927
# 3 91.4657 32.5625 157.7395 29.9710 29.9331 7.2203
# 4 7.6138 6.5658 29.9710 28.7324 -0.2708 5.8676
# 5 22.4974 5.7472 29.9331 -0.2708 57.5183 -0.9409
# 6 26.7291 -6.9927 7.2203 5.8676 -0.9409 19.5855
#
#
#
# Elastic Compliance Matrix: (Units=1/GPa)
#
#
# Indices 1 2 3 4 5 6 
#
# 1 0.013689 -0.003361 -0.007900 0.009424 -0.001187 -0.019849
# 2 -0.003361 0.026656 -0.003523 -0.004976 0.000738 0.016929
# 3 -0.007900 -0.003523 0.014767 -0.014206 -0.004177 0.008135
# 4 0.009424 -0.004976 -0.014206 0.053450 0.004043 -0.025219
# 5 -0.001187 0.000738 -0.004177 0.004043 0.020021 0.003174
# 6 -0.019849 0.016929 0.008135 -0.025219 0.003174 0.088901
#
#
# Mechanical properties :
#
#
# Convention : Reuss Voigt Hill
#
# Bulk Modulus (GPa) = 39.15035 72.68993 55.92014
# Shear Modulus (GPa) = 19.56433 36.62121 28.09277
#
# Velocity S-wave (km/s) = 2.93297 4.01275 3.51458
# Velocity P-wave (km/s) = 5.35574 7.30964 6.40761
#
# Compressibility (1/GPa) = 0.02554256
#
# Stress axis : x y z
#
# Youngs Moduli (GPa) = 73.05396 37.51476 67.71766
#
# Poissons Ratio (x) = 0.12610 0.53498
# Poissons Ratio (y) = 0.24555 0.23859
# Poissons Ratio (z) = 0.57714 0.13218
#
# Static dielectric constant tensor:
#      x y z
#    x 1.871800 -0.049870 0.050460 
#    y -0.049870 1.911040 0.017890 
#    z 0.050460 0.017890 1.850430 
# 
# From -- ./inp_files/450650.got.cif
#   From: 2010.05.17/outbox.cif.g08.bks.cpg/sg2_226_cif.got.tgz:450650.got - 2010.06.03 11:33:40.
