data_PCOD9027983
_publ_section_title
;
Structure prediction by ZEFSAII (Michael W. Deem and Ramdas Pophale) SiO2 
 PCOD9027983
Probable space group: P -1
;
_chemical_formula_sum "Si O2"
_cell_formula_units_Z 13
_cell_length_a 15.328894
_cell_length_b 12.447803
_cell_length_c 7.999150
_cell_angle_alpha 47.889537
_cell_angle_beta 56.667463
_cell_angle_gamma 29.079780
_cell_volume 547.500639
_symmetry_space_group_name_H-M "P -1"
_symmetry_group_IT_number 2
_symmetry_cell_setting 'triclinic'
loop_
_space_group_symop_operation_xyz
x,y,z
-x,-y,-z
loop_
_atom_site_type_symbol
_atom_site_label
_atom_site_fract_x
_atom_site_fract_y
_atom_site_fract_z
Si Si1 0.294800 0.177821 0.521998
Si Si2 0.500000 0.000000 0.000000
Si Si3 0.178509 0.502504 0.030030
Si Si4 0.712923 0.273605 0.836908
Si Si5 0.077983 0.934250 0.669151
Si Si6 0.777329 0.898287 0.978377
Si Si7 0.342997 0.827041 0.651850
O O1 0.177375 0.431411 0.288994
O O2 0.236385 0.194202 0.749231
O O3 0.500000 0.000000 0.500000
O O4 0.300294 0.033472 0.545952
O O5 0.649543 0.965105 0.910406
O O6 0.351398 0.252560 0.009200
O O7 0.991263 0.674997 0.954653
O O8 0.186613 0.665442 0.875193
O O9 0.550087 0.565205 0.659734
O O10 0.692059 0.238343 0.083314
O O11 0.903226 0.137722 0.758005
O O12 0.712040 0.130234 0.871652
O O13 0.205781 0.926544 0.554651
O O14 0.000000 0.000000 0.500000
#
# Coordination Sequence:
#
# PCOD9027983 Si02
#       7
#     2   1   2   2   2   2   2
#     4  11  23  44  67 101 128 170 223 270 325 383
#     4  12  22  38  64  96 136 174 212 254 332 386
#     4  11  25  43  66  92 137 170 217 274 320 389
#     4   9  21  42  68  94 126 167 221 266 315 381
#     4  11  25  44  65  97 131 171 216 262 327 389
#     4  10  22  42  64  98 132 174 217 270 323 384
#     4  10  22  41  70  94 127 169 214 270 321 376
#
# _framework density 23.744263
#
# number of rings (size 3 to 8) (size 9 to 14) (size 15 to 20)
#    0.000    1.538    1.538    2.308    4.308    5.538 
#    2.769    0.000    0.000    0.000    0.000    0.000 
#    0.000    0.000    0.000    0.000    0.000    0.000 
#
# Total GULP energy -72554.998178 kJ/mol
# GULP energy per Si atom -5581.153706 kJ/mol
# Density = 2.369022 g / cm^3
# Si number density = 23.744263 Si / 1000 Ang^3
#
#
#
# Elastic Constant Matrix: (Units=GPa)
#
#
# Indices 1 2 3 4 5 6 
#
# 1 115.3439 -3.9812 -4.6208 -0.3714 -10.5849 -10.3093
# 2 -3.9812 93.0227 -4.2646 17.4364 -3.9571 -10.5695
# 3 -4.6208 -4.2646 65.8915 -9.0014 -7.9518 8.5916
# 4 -0.3714 17.4364 -9.0014 19.6773 -3.0445 -6.7016
# 5 -10.5849 -3.9571 -7.9518 -3.0445 26.0673 2.3640
# 6 -10.3093 -10.5695 8.5916 -6.7016 2.3640 30.0894
#
#
#
# Elastic Compliance Matrix: (Units=1/GPa)
#
#
# Indices 1 2 3 4 5 6 
#
# 1 0.009410 0.000654 0.001029 0.001813 0.004152 0.003238
# 2 0.000654 0.013127 -0.000901 -0.011080 0.000455 0.002589
# 3 0.001029 -0.000901 0.017710 0.008775 0.007037 -0.003619
# 4 0.001813 -0.011080 0.008775 0.069113 0.008995 0.008910
# 5 0.004152 0.000455 0.007037 0.008995 0.043481 -0.001839
# 6 0.003238 0.002589 -0.003619 0.008910 -0.001839 0.038416
#
#
# Mechanical properties :
#
#
# Convention : Reuss Voigt Hill
#
# Bulk Modulus (GPa) = 23.91639 27.61390 25.76514
# Shear Modulus (GPa) = 24.55449 34.30846 29.43147
#
# Velocity S-wave (km/s) = 3.21927 3.80533 3.52450
# Velocity P-wave (km/s) = 4.89005 5.56438 5.23808
#
# Compressibility (1/GPa) = 0.04181233
#
# Stress axis : x y z
#
# Youngs Moduli (GPa) = 106.27193 76.17827 56.46470
#
# Poissons Ratio (x) = -0.04986 -0.05810
# Poissons Ratio (y) = -0.06955 0.05086
# Poissons Ratio (z) = -0.10934 0.06862
#
# Static dielectric constant tensor:
#      x y z
#    x 1.870230 -0.043110 0.028300 
#    y -0.043110 1.804570 0.002280 
#    z 0.028300 0.002280 1.967260 
# 
# From -- ./inp_files/166755.got.cif
#   From: 2010.05.17/outbox.cif.g08.bks.cpg/sg2_84_cif.got.tgz:166755.got - 2010.06.03 11:33:40.
