data_PCOD9027118
_publ_section_title
;
Structure prediction by ZEFSAII (Michael W. Deem and Ramdas Pophale) SiO2 
 PCOD9027118
Probable space group: P -1
;
_chemical_formula_sum "Si O2"
_cell_formula_units_Z 14
_cell_length_a 9.506222
_cell_length_b 9.286155
_cell_length_c 12.560120
_cell_angle_alpha 98.641555
_cell_angle_beta 41.763712
_cell_angle_gamma 121.856340
_cell_volume 566.227136
_symmetry_space_group_name_H-M "P -1"
_symmetry_group_IT_number 2
_symmetry_cell_setting 'triclinic'
loop_
_space_group_symop_operation_xyz
x,y,z
-x,-y,-z
loop_
_atom_site_type_symbol
_atom_site_label
_atom_site_fract_x
_atom_site_fract_y
_atom_site_fract_z
Si Si1 0.176666 0.933257 0.409880
Si Si2 0.874002 0.514136 0.220497
Si Si3 0.217037 0.172311 0.970896
Si Si4 0.374624 0.542159 0.852481
Si Si5 0.648539 0.064916 0.035680
Si Si6 0.138742 0.290007 0.247894
Si Si7 0.977334 0.444299 0.630960
O O1 0.132064 0.858938 0.546941
O O2 0.078605 0.752826 0.373668
O O3 0.482901 0.091479 0.215178
O O4 0.000000 0.000000 0.500000
O O5 0.625705 0.416882 0.267703
O O6 0.818574 0.466362 0.371655
O O7 0.093385 0.488286 0.051869
O O8 0.052925 0.740245 0.128604
O O9 0.110793 0.206143 0.140214
O O10 0.359588 0.359387 0.843632
O O11 0.379420 0.106727 0.918238
O O12 0.000000 0.000000 0.000000
O O13 0.620716 0.674742 0.811540
O O14 0.500000 0.000000 0.000000
O O15 0.198206 0.488568 0.226071
O O16 0.000000 0.500000 0.500000
#
# Coordination Sequence:
#
# PCOD9027118 Si02
#       7
#     2   2   2   2   2   2   2
#     4  11  23  40  65 101 140 179 231 286 347 411
#     4  11  22  40  65 102 136 179 237 286 335 416
#     4  12  24  43  69 109 142 181 237 295 352 411
#     4  11  23  40  68  99 139 181 230 285 343 418
#     4  12  23  40  70 101 137 179 236 289 346 411
#     4  11  24  44  68 101 138 190 228 280 358 424
#     4  10  22  41  66  97 139 185 232 278 349 420
#
# _framework density 24.725061
#
# number of rings (size 3 to 8) (size 9 to 14) (size 15 to 20)
#    0.000    0.857    4.286    3.857    0.000    0.000 
#    0.000    3.571    0.000    6.857    0.000    0.000 
#    0.000    0.000    0.000    0.000    0.000    0.000 
#
# Total GULP energy -78099.469733 kJ/mol
# GULP energy per Si atom -5578.533552 kJ/mol
# Density = 2.466879 g / cm^3
# Si number density = 24.725061 Si / 1000 Ang^3
#
#
#
# Elastic Constant Matrix: (Units=GPa)
#
#
# Indices 1 2 3 4 5 6 
#
# 1 167.0586 47.8890 44.1346 20.9108 50.4073 5.1796
# 2 47.8890 127.7929 18.2150 29.0874 9.6497 -3.3923
# 3 44.1346 18.2150 88.8813 15.9018 24.5210 9.8646
# 4 20.9108 29.0874 15.9018 38.7112 -3.4273 2.0651
# 5 50.4073 9.6497 24.5210 -3.4273 33.5085 14.7253
# 6 5.1796 -3.3923 9.8646 2.0651 14.7253 53.6569
#
#
#
# Elastic Compliance Matrix: (Units=1/GPa)
#
#
# Indices 1 2 3 4 5 6 
#
# 1 0.015588 -0.001296 0.001517 -0.010886 -0.028046 0.006250
# 2 -0.001296 0.010222 0.000505 -0.007540 -0.002911 0.001768
# 3 0.001517 0.000505 0.016328 -0.009416 -0.016066 0.001655
# 4 -0.010886 -0.007540 -0.009416 0.044706 0.033834 -0.008700
# 5 -0.028046 -0.002911 -0.016066 0.033834 0.098083 -0.022743
# 6 0.006250 0.001768 0.001655 -0.008700 -0.022743 0.024417
#
#
# Mechanical properties :
#
#
# Convention : Reuss Voigt Hill
#
# Bulk Modulus (GPa) = 22.94214 67.13446 45.03830
# Shear Modulus (GPa) = 22.47976 43.40827 32.94401
#
# Velocity S-wave (km/s) = 3.01855 4.19458 3.65418
# Velocity P-wave (km/s) = 4.63119 7.11833 6.00494
#
# Compressibility (1/GPa) = 0.04358791
#
# Stress axis : x y z
#
# Youngs Moduli (GPa) = 64.15174 97.82939 61.24579
#
# Poissons Ratio (x) = 0.12680 -0.09289
# Poissons Ratio (y) = 0.08315 -0.03091
# Poissons Ratio (z) = -0.09730 -0.04938
#
# Static dielectric constant tensor:
#      x y z
#    x 1.988390 -0.028040 -0.050780 
#    y -0.028040 1.995480 -0.047430 
#    z -0.050780 -0.047430 2.041590 
# 
# From -- ./inp_files/380933.got.cif
#   From: 2010.05.17/outbox.cif.g08.bks.cpg/sg2_191_cif.got.tgz:380933.got - 2010.06.03 11:33:40.
