data_PCOD9027989
_publ_section_title
;
Structure prediction by ZEFSAII (Michael W. Deem and Ramdas Pophale) SiO2 
 PCOD9027989
Probable space group: P -1
;
_chemical_formula_sum "Si O2"
_cell_formula_units_Z 15
_cell_length_a 15.083036
_cell_length_b 12.452730
_cell_length_c 15.809628
_cell_angle_alpha 130.861037
_cell_angle_beta 130.082288
_cell_angle_gamma 18.640989
_cell_volume 714.295812
_symmetry_space_group_name_H-M "P -1"
_symmetry_group_IT_number 2
_symmetry_cell_setting 'triclinic'
loop_
_space_group_symop_operation_xyz
x,y,z
-x,-y,-z
loop_
_atom_site_type_symbol
_atom_site_label
_atom_site_fract_x
_atom_site_fract_y
_atom_site_fract_z
Si Si1 0.418731 0.322707 0.740106
Si Si2 0.098672 0.480203 0.881333
Si Si3 0.285103 0.285912 0.337629
Si Si4 0.547447 0.469338 0.613620
Si Si5 0.000000 0.500000 0.000000
Si Si6 0.392274 0.265821 0.204893
Si Si7 0.982677 0.855997 0.891513
Si Si8 0.171939 0.674145 0.590016
O O1 0.340997 0.451456 0.663981
O O2 0.151859 0.642319 0.799702
O O3 0.510985 0.055445 0.669710
O O4 0.672577 0.137556 0.835015
O O5 0.904283 0.690466 0.951872
O O6 0.975269 0.518664 0.752018
O O7 0.130619 0.597979 0.922569
O O8 0.376191 0.091305 0.882711
O O9 0.399010 0.223265 0.287171
O O10 0.196895 0.509914 0.459955
O O11 0.500000 0.500000 0.500000
O O12 0.547647 0.636281 0.719323
O O13 0.311269 0.649859 0.613267
O O14 0.850407 0.067168 0.613565
O O15 0.893785 0.468017 0.874608
O O16 0.000000 0.000000 0.000000
#
# Coordination Sequence:
#
# PCOD9027989 Si02
#       8
#     2   2   2   2   1   2   2   2
#     4  11  24  45  68 103 132 173 231 276 336 403
#     4  10  22  42  66  94 131 175 231 272 345 397
#     4  10  22  41  70  94 134 180 219 278 334 417
#     4  12  26  43  68  97 140 184 222 273 343 409
#     4  10  24  38  64  96 128 170 236 284 322 392
#     4  11  22  43  65  94 134 179 230 272 341 406
#     4  11  24  46  70  96 133 179 220 282 344 404
#     4  12  26  43  68 105 138 177 224 280 341 393
#
# _framework density 20.999701999999999
#
# number of rings (size 3 to 8) (size 9 to 14) (size 15 to 20)
#    0.000    1.067    2.667    3.200    3.733    2.133 
#    2.400    3.333    0.000    0.000    0.000    0.000 
#    0.000    0.000    0.000    0.000    0.000    0.000 
#
# Total GULP energy -83613.286485 kJ/mol
# GULP energy per Si atom -5574.219099 kJ/mol
# Density = 2.095191 g / cm^3
# Si number density = 20.999702 Si / 1000 Ang^3
#
#
#
# Elastic Constant Matrix: (Units=GPa)
#
#
# Indices 1 2 3 4 5 6 
#
# 1 66.5251 2.5362 20.2559 -30.1392 54.8389 22.4575
# 2 2.5362 46.5511 25.3921 17.4077 -9.0574 8.8090
# 3 20.2559 25.3921 56.5394 -39.6875 51.3497 38.4466
# 4 -30.1392 17.4077 -39.6875 -30.1744 69.5490 7.3860
# 5 54.8389 -9.0574 51.3497 69.5490 -24.5151 -3.3424
# 6 22.4575 8.8090 38.4466 7.3860 -3.3424 35.8196
#
#
#
# Elastic Compliance Matrix: (Units=1/GPa)
#
#
# Indices 1 2 3 4 5 6 
#
# 1 0.017767 0.006728 -0.010998 -0.006027 -0.002873 -0.000015
# 2 0.006728 0.023983 -0.005022 -0.000740 -0.005731 -0.005109
# 3 -0.010998 -0.005022 0.021712 -0.005930 0.007713 -0.013232
# 4 -0.006027 -0.000740 -0.005930 0.014339 0.013869 0.008663
# 5 -0.002873 -0.005731 0.007713 0.013869 0.011337 -0.006870
# 6 -0.000015 -0.005109 -0.013232 0.008663 -0.006870 0.040958
#
#
# Mechanical properties :
#
#
# Convention : Reuss Voigt Hill
#
# Bulk Modulus (GPa) = 22.28168 29.55379 25.91774
# Shear Modulus (GPa) = 30.55511 4.32145 17.43828
#
# Velocity S-wave (km/s) = 3.81862 1.43608 2.88480
# Velocity P-wave (km/s) = 5.48416 4.10533 4.84405
#
# Compressibility (1/GPa) = 0.04487991
#
# Stress axis : x y z
#
# Youngs Moduli (GPa) = 56.28308 41.69670 46.05779
#
# Poissons Ratio (x) = -0.28055 0.50652
# Poissons Ratio (y) = -0.37870 0.23129
# Poissons Ratio (z) = 0.61898 0.20939
#
# Static dielectric constant tensor:
#      x y z
#    x 1.834200 -0.076090 -0.035160 
#    y -0.076090 1.837760 0.024370 
#    z -0.035160 0.024370 1.753670 
# 
# From -- ./inp_files/65629.got.cif
#   From: 2010.05.17/outbox.cif.g08.bks.cpg/sg2_33_cif.got.tgz:65629.got - 2010.06.03 11:33:40.
