data_PCOD9027449
_publ_section_title
;
Structure prediction by ZEFSAII (Michael W. Deem and Ramdas Pophale) SiO2 
 PCOD9027449
Probable space group: P -1
;
_chemical_formula_sum "Si O2"
_cell_formula_units_Z 16
_cell_length_a 26.271492
_cell_length_b 5.222579
_cell_length_c 17.471306
_cell_angle_alpha 110.450844
_cell_angle_beta 19.924690
_cell_angle_gamma 100.075541
_cell_volume 671.120318
_symmetry_space_group_name_H-M "P -1"
_symmetry_group_IT_number 2
_symmetry_cell_setting 'triclinic'
loop_
_space_group_symop_operation_xyz
x,y,z
-x,-y,-z
loop_
_atom_site_type_symbol
_atom_site_label
_atom_site_fract_x
_atom_site_fract_y
_atom_site_fract_z
Si Si1 0.240934 0.847590 0.688046
Si Si2 0.263581 0.958582 0.987263
Si Si3 0.851631 0.706790 0.668984
Si Si4 0.308846 0.596034 0.252130
Si Si5 0.933309 0.401803 0.269389
Si Si6 0.969153 0.840117 0.363863
Si Si7 0.447182 0.243884 0.666985
Si Si8 0.809847 0.709559 0.321850
O O1 0.248394 0.964967 0.603702
O O2 0.387889 0.866623 0.526603
O O3 0.277988 0.493674 0.601470
O O4 0.062743 0.087008 0.007584
O O5 0.384342 0.593136 0.763803
O O6 0.311595 0.197454 0.904273
O O7 0.083305 0.008801 0.214823
O O8 0.264751 0.006161 0.081718
O O9 0.734076 0.594679 0.774292
O O10 0.950260 0.784217 0.472624
O O11 0.000000 0.500000 0.500000
O O12 0.192333 0.622224 0.493519
O O13 0.220380 0.936586 0.374864
O O14 0.500000 0.500000 0.000000
O O15 0.040427 0.531718 0.179541
O O16 0.827209 0.662724 0.382863
O O17 0.500000 0.000000 0.500000
O O18 0.000000 0.500000 0.000000
#
# Coordination Sequence:
#
# PCOD9027449 Si02
#       8
#     2   2   2   2   2   2   2   2
#     4  11  24  44  68 104 145 191 244 303 363 446
#     4  12  26  46  77 108 145 199 244 302 380 428
#     4  11  24  48  75 109 147 195 256 308 371 461
#     4  11  27  47  72 110 147 188 250 317 376 447
#     4  10  24  42  71  98 142 197 235 298 378 442
#     4  11  25  44  76 103 142 192 250 301 375 456
#     4  12  28  46  69 111 150 186 246 312 364 442
#     4  10  22  41  68 101 138 189 250 290 353 450
#
# _framework density 23.840731999999999
#
# number of rings (size 3 to 8) (size 9 to 14) (size 15 to 20)
#    0.000    1.000    1.250    4.500   10.500    3.000 
#    4.500    0.000    0.000    0.000    0.000    0.000 
#    0.000    0.000    0.000    0.000    0.000    0.000 
#
# Total GULP energy -89414.725972 kJ/mol
# GULP energy per Si atom -5588.420373 kJ/mol
# Density = 2.378647 g / cm^3
# Si number density = 23.840732 Si / 1000 Ang^3
#
#
#
# Elastic Constant Matrix: (Units=GPa)
#
#
# Indices 1 2 3 4 5 6 
#
# 1 144.7761 24.5072 53.7366 -12.7342 -3.9168 5.3392
# 2 24.5072 73.2548 26.6715 -14.5058 -1.3353 3.7776
# 3 53.7366 26.6715 79.1494 -8.4746 -16.3648 1.5093
# 4 -12.7342 -14.5058 -8.4746 41.8041 5.7923 -2.0497
# 5 -3.9168 -1.3353 -16.3648 5.7923 48.9572 4.9230
# 6 5.3392 3.7776 1.5093 -2.0497 4.9230 52.2265
#
#
#
# Elastic Compliance Matrix: (Units=1/GPa)
#
#
# Indices 1 2 3 4 5 6 
#
# 1 0.009491 -0.000529 -0.006401 0.001595 -0.001529 -0.000540
# 2 -0.000529 0.016631 -0.005090 0.004795 -0.001793 -0.000645
# 3 -0.006401 -0.005090 0.019898 -0.000532 0.006078 -0.000146
# 4 0.001595 0.004795 -0.000532 0.026438 -0.003132 0.000838
# 5 -0.001529 -0.001793 0.006078 -0.003132 0.022875 -0.002169
# 6 -0.000540 -0.000645 -0.000146 0.000838 -0.002169 0.019491
#
#
# Mechanical properties :
#
#
# Convention : Reuss Voigt Hill
#
# Bulk Modulus (GPa) = 45.49459 56.33456 50.91457
# Shear Modulus (GPa) = 34.20186 41.41523 37.80855
#
# Velocity S-wave (km/s) = 3.79172 4.17245 3.98663
# Velocity P-wave (km/s) = 6.18819 6.84787 6.52637
#
# Compressibility (1/GPa) = 0.02198064
#
# Stress axis : x y z
#
# Youngs Moduli (GPa) = 105.35843 60.12779 50.25696
#
# Poissons Ratio (x) = 0.03180 0.32168
# Poissons Ratio (y) = 0.05573 0.25582
# Poissons Ratio (z) = 0.67437 0.30606
#
# Static dielectric constant tensor:
#      x y z
#    x 1.906350 -0.014180 -0.003430 
#    y -0.014180 1.908290 0.038310 
#    z -0.003430 0.038310 1.963820 
# 
# From -- ./inp_files/579499.got.cif
#   From: 2010.05.17/outbox.cif.g08.bks.cpg/sg2_290_cif.got.tgz:579499.got - 2010.06.03 11:33:40.
