data_PCOD9027930
_publ_section_title
;
Structure prediction by ZEFSAII (Michael W. Deem and Ramdas Pophale) SiO2 
 PCOD9027930
Probable space group: P -1
;
_chemical_formula_sum "Si O2"
_cell_formula_units_Z 16
_cell_length_a 8.971745
_cell_length_b 15.117160
_cell_length_c 8.219032
_cell_angle_alpha 93.151666
_cell_angle_beta 56.328291
_cell_angle_gamma 128.129781
_cell_volume 655.686703
_symmetry_space_group_name_H-M "P -1"
_symmetry_group_IT_number 2
_symmetry_cell_setting 'triclinic'
loop_
_space_group_symop_operation_xyz
x,y,z
-x,-y,-z
loop_
_atom_site_type_symbol
_atom_site_label
_atom_site_fract_x
_atom_site_fract_y
_atom_site_fract_z
Si Si1 0.901053 0.214562 0.532921
Si Si2 0.779018 0.083325 0.273135
Si Si3 0.349873 0.111911 0.872291
Si Si4 0.771211 0.549884 0.832182
Si Si5 0.003366 0.074328 0.646313
Si Si6 0.033719 0.304842 0.931463
Si Si7 0.999715 0.467983 0.808598
Si Si8 0.569641 0.702429 0.375443
O O1 0.941945 0.171931 0.335806
O O2 0.626164 0.162786 0.705080
O O3 0.093812 0.362876 0.399727
O O4 0.933173 0.149689 0.639459
O O5 0.500000 0.000000 0.500000
O O6 0.803974 0.992738 0.188884
O O7 0.828175 0.160453 0.092939
O O8 0.383392 0.224865 0.809678
O O9 0.206257 0.034921 0.113265
O O10 0.798775 0.453609 0.823440
O O11 0.500000 0.500000 0.000000
O O12 0.913068 0.629568 0.920520
O O13 0.282550 0.189085 0.565364
O O14 0.000000 0.000000 0.500000
O O15 0.955889 0.347931 0.846790
O O16 0.285628 0.340029 0.732696
O O17 0.277837 0.586679 0.582166
O O18 0.000000 0.500000 0.000000
#
# Coordination Sequence:
#
# PCOD9027930 Si02
#       8
#     2   2   2   2   2   2   2   2
#     4  10  22  42  65  97 138 177 226 284 351 405
#     4   9  19  38  70  99 130 182 230 277 342 411
#     4  11  22  44  67  97 138 183 229 276 344 422
#     4  10  22  44  70  97 137 176 225 289 346 400
#     4  12  27  41  66 106 142 176 231 290 350 403
#     4  10  22  41  70 102 135 182 232 274 330 416
#     4  10  23  44  68 103 130 180 236 279 335 409
#     4  12  24  44  72  99 140 184 233 281 338 420
#
# _framework density 24.401897999999999
#
# number of rings (size 3 to 8) (size 9 to 14) (size 15 to 20)
#    0.000    1.500    2.500    1.875    8.750    0.000 
#    0.000    1.875    0.000    0.000    0.000    0.000 
#    0.000    0.000    0.000    0.000    0.000    0.000 
#
# Total GULP energy -89477.470934 kJ/mol
# GULP energy per Si atom -5592.341933 kJ/mol
# Density = 2.434636 g / cm^3
# Si number density = 24.401898 Si / 1000 Ang^3
#
#
#
# Elastic Constant Matrix: (Units=GPa)
#
#
# Indices 1 2 3 4 5 6 
#
# 1 129.9976 42.9822 44.7166 -28.6022 1.0480 -54.8615
# 2 42.9822 67.8466 17.6674 -8.7447 5.8719 -28.3983
# 3 44.7166 17.6674 142.4440 -22.2786 -0.1403 -21.0890
# 4 -28.6022 -8.7447 -22.2786 48.3844 -1.6891 13.9375
# 5 1.0480 5.8719 -0.1403 -1.6891 35.8575 -0.4966
# 6 -54.8615 -28.3983 -21.0890 13.9375 -0.4966 57.5138
#
#
#
# Elastic Compliance Matrix: (Units=1/GPa)
#
#
# Indices 1 2 3 4 5 6 
#
# 1 0.015190 -0.004127 -0.002009 0.004249 0.000572 0.010690
# 2 -0.004127 0.020157 -0.000448 -0.000850 -0.003138 0.006030
# 3 -0.002009 -0.000448 0.008122 0.002406 0.000281 0.000260
# 4 0.004249 -0.000850 0.002406 0.024587 0.001163 -0.001432
# 5 0.000572 -0.003138 0.000281 0.001163 0.028428 -0.000937
# 6 0.010690 0.006030 0.000260 -0.001432 -0.000937 0.030996
#
#
# Mechanical properties :
#
#
# Convention : Reuss Voigt Hill
#
# Bulk Modulus (GPa) = 33.00244 61.22451 47.11348
# Shear Modulus (GPa) = 33.16819 44.01262 38.59040
#
# Velocity S-wave (km/s) = 3.69080 4.25155 3.98106
# Velocity P-wave (km/s) = 5.63174 7.01751 6.36247
#
# Compressibility (1/GPa) = 0.03030079
#
# Stress axis : x y z
#
# Youngs Moduli (GPa) = 65.83400 49.61146 123.12976
#
# Poissons Ratio (x) = 0.20476 0.24733
# Poissons Ratio (y) = 0.27172 0.05510
# Poissons Ratio (z) = 0.13224 0.02220
#
# Static dielectric constant tensor:
#      x y z
#    x 1.971750 0.021840 0.034450 
#    y 0.021840 1.531160 0.089510 
#    z 0.034450 0.089510 1.894600 
# 
# From -- ./inp_files/206712.got.cif
#   From: 2010.05.17/outbox.cif.g08.bks.cpg/sg2_104_cif.got.tgz:206712.got - 2010.06.03 11:33:40.
