data_PCOD9027741
_publ_section_title
;
Structure prediction by ZEFSAII (Michael W. Deem and Ramdas Pophale) SiO2 
 PCOD9027741
Probable space group: P -1
;
_chemical_formula_sum "Si O2"
_cell_formula_units_Z 16
_cell_length_a 8.543129
_cell_length_b 11.470369
_cell_length_c 10.849828
_cell_angle_alpha 130.302257
_cell_angle_beta 119.108675
_cell_angle_gamma 48.324637
_cell_volume 602.665559
_symmetry_space_group_name_H-M "P -1"
_symmetry_group_IT_number 2
_symmetry_cell_setting 'triclinic'
loop_
_space_group_symop_operation_xyz
x,y,z
-x,-y,-z
loop_
_atom_site_type_symbol
_atom_site_label
_atom_site_fract_x
_atom_site_fract_y
_atom_site_fract_z
Si Si1 0.187071 0.372284 0.578612
Si Si2 0.469749 0.332896 0.259854
Si Si3 0.483400 0.095788 0.318874
Si Si4 0.401120 0.568927 0.843284
Si Si5 0.145363 0.793222 0.229808
Si Si6 0.192619 0.949294 0.128806
Si Si7 0.807323 0.729174 0.081058
Si Si8 0.946191 0.319899 0.650342
O O1 0.407078 0.224331 0.496501
O O2 0.245962 0.499102 0.762180
O O3 0.097529 0.280347 0.567983
O O4 0.000000 0.500000 0.500000
O O5 0.532319 0.192488 0.295462
O O6 0.632227 0.360178 0.262619
O O7 0.285536 0.522983 0.370476
O O8 0.360038 0.278713 0.073581
O O9 0.283029 0.072923 0.212365
O O10 0.673371 0.891991 0.241057
O O11 0.639735 0.401373 0.830062
O O12 0.356424 0.737594 0.021697
O O13 0.150697 0.943001 0.253912
O O14 0.949388 0.783365 0.094474
O O15 0.094392 0.810670 0.368991
O O16 0.000000 0.000000 0.000000
O O17 0.976318 0.591893 0.153157
#
# Coordination Sequence:
#
# PCOD9027741 Si02
#       8
#     2   2   2   2   2   2   2   2
#     4  12  26  49  67 100 138 189 229 276 346 419
#     4  11  21  44  69 106 134 183 226 281 346 403
#     4  12  26  42  71 100 146 179 222 284 355 401
#     4  11  26  42  74  98 136 182 239 279 331 418
#     4   9  24  44  67 105 136 181 230 285 335 411
#     4  12  25  43  69 110 139 175 232 295 337 394
#     4  10  22  41  69 104 135 177 219 287 345 398
#     4   9  23  42  71  95 136 186 224 274 338 415
#
# _framework density 26.548721
#
# number of rings (size 3 to 8) (size 9 to 14) (size 15 to 20)
#    0.750    0.500    2.500    2.625    5.250    1.000 
#    0.000    1.250    0.000    0.000    0.000    0.000 
#    0.000    0.000    0.000    0.000    0.000    0.000 
#
# Total GULP energy -89360.408686 kJ/mol
# GULP energy per Si atom -5585.025543 kJ/mol
# Density = 2.648829 g / cm^3
# Si number density = 26.548721 Si / 1000 Ang^3
#
#
#
# Elastic Constant Matrix: (Units=GPa)
#
#
# Indices 1 2 3 4 5 6 
#
# 1 124.7074 31.6680 13.1731 -5.0240 -16.5585 29.7935
# 2 31.6680 47.7427 12.2607 -18.4998 0.0496 28.0462
# 3 13.1731 12.2607 72.9444 8.1446 0.8413 11.4562
# 4 -5.0240 -18.4998 8.1446 28.6370 10.9493 -1.5298
# 5 -16.5585 0.0496 0.8413 10.9493 30.9195 -13.3140
# 6 29.7935 28.0462 11.4562 -1.5298 -13.3140 42.9549
#
#
#
# Elastic Compliance Matrix: (Units=1/GPa)
#
#
# Indices 1 2 3 4 5 6 
#
# 1 0.012576 -0.021509 0.001679 -0.018279 0.017327 0.009593
# 2 -0.021509 0.170976 -0.021199 0.151015 -0.117236 -0.122020
# 3 0.001679 -0.021199 0.017595 -0.022947 0.013463 0.011340
# 4 -0.018279 0.151015 -0.022947 0.175433 -0.119100 -0.110470
# 5 0.017327 -0.117236 0.013463 -0.119100 0.124672 0.095338
# 6 0.009593 -0.122020 0.011340 -0.110470 0.095338 0.118887
#
#
# Mechanical properties :
#
#
# Convention : Reuss Voigt Hill
#
# Bulk Modulus (GPa) = 8.39722 39.95533 24.17627
# Shear Modulus (GPa) = 6.73951 33.05512 19.89732
#
# Velocity S-wave (km/s) = 1.59501 3.53239 2.74060
# Velocity P-wave (km/s) = 2.56162 5.63201 4.37501
#
# Compressibility (1/GPa) = 0.11908703
#
# Stress axis : x y z
#
# Youngs Moduli (GPa) = 79.51713 5.84879 56.83450
#
# Poissons Ratio (x) = 0.12580 -0.09541
# Poissons Ratio (y) = 1.71034 1.20485
# Poissons Ratio (z) = -0.13348 0.12399
#
# Static dielectric constant tensor:
#      x y z
#    x 2.090920 -0.044170 -0.041890 
#    y -0.044170 2.101920 0.042050 
#    z -0.041890 0.042050 2.174700 
# 
# From -- ./inp_files/393178.got.cif
#   From: 2010.05.17/outbox.cif.g08.bks.cpg/sg2_197_cif.got.tgz:393178.got - 2010.06.03 11:33:40.
