data_PCOD9027731
_publ_section_title
;
Structure prediction by ZEFSAII (Michael W. Deem and Ramdas Pophale) SiO2 
 PCOD9027731
Probable space group: P -1
;
_chemical_formula_sum "Si O2"
_cell_formula_units_Z 15
_cell_length_a 11.925262
_cell_length_b 12.906516
_cell_length_c 14.492835
_cell_angle_alpha 37.537769
_cell_angle_beta 149.770104
_cell_angle_gamma 135.675764
_cell_volume 680.924259
_symmetry_space_group_name_H-M "P -1"
_symmetry_group_IT_number 2
_symmetry_cell_setting 'triclinic'
loop_
_space_group_symop_operation_xyz
x,y,z
-x,-y,-z
loop_
_atom_site_type_symbol
_atom_site_label
_atom_site_fract_x
_atom_site_fract_y
_atom_site_fract_z
Si Si1 0.091089 0.430857 0.019138
Si Si2 0.597159 0.123321 0.398065
Si Si3 0.447087 0.344911 0.827473
Si Si4 0.228859 0.494620 0.725006
Si Si5 0.889294 0.444527 0.670488
Si Si6 0.964638 0.040308 0.208704
Si Si7 0.500000 0.000000 0.000000
Si Si8 0.213347 0.948469 0.130987
O O1 0.931968 0.464064 0.795794
O O2 0.334392 0.523079 0.111694
O O3 0.000000 0.500000 0.000000
O O4 0.094429 0.228226 0.172003
O O5 0.621202 0.323827 0.298071
O O6 0.500000 0.000000 0.500000
O O7 0.429977 0.060402 0.242349
O O8 0.848613 0.089934 0.571691
O O9 0.352007 0.354704 0.856495
O O10 0.261656 0.418153 0.576666
O O11 0.510318 0.168171 0.956613
O O12 0.000000 0.500000 0.500000
O O13 0.131938 0.455356 0.785397
O O14 0.773378 0.254249 0.701587
O O15 0.776338 0.022506 0.165162
O O16 0.836509 0.030809 0.026472
O O17 0.000000 0.000000 0.000000
#
# Coordination Sequence:
#
# PCOD9027731 Si02
#       8
#     2   2   2   2   2   2   1   2
#     4  11  23  45  66  96 129 186 231 275 339 417
#     4  12  22  42  73 103 140 179 221 290 361 407
#     4  11  24  44  68  94 138 179 227 280 346 410
#     4  10  22  41  69 103 135 177 221 285 357 410
#     4  10  24  44  68 102 139 174 226 294 349 407
#     4  11  24  44  66  98 140 176 231 281 343 413
#     4  12  26  46  68  94 140 188 226 288 334 416
#     4  11  24  40  69 106 135 173 231 285 350 414
#
# _framework density 22.028880999999998
#
# number of rings (size 3 to 8) (size 9 to 14) (size 15 to 20)
#    0.000    1.067    2.667    4.800    3.733    2.133 
#    2.400    1.333    0.000    0.000    0.000    0.000 
#    0.000    0.000    0.000    0.000    0.000    0.000 
#
# Total GULP energy -83657.574253 kJ/mol
# GULP energy per Si atom -5577.171617 kJ/mol
# Density = 2.197874 g / cm^3
# Si number density = 22.028881 Si / 1000 Ang^3
#
#
#
# Elastic Constant Matrix: (Units=GPa)
#
#
# Indices 1 2 3 4 5 6 
#
# 1 93.5114 34.3054 42.2809 -6.9676 19.4200 -21.5796
# 2 34.3054 178.6181 27.4447 -6.1773 5.7490 -5.5714
# 3 42.2809 27.4447 69.4407 -3.2854 16.1391 -15.4814
# 4 -6.9676 -6.1773 -3.2854 28.5625 -5.0586 12.6316
# 5 19.4200 5.7490 16.1391 -5.0586 35.1438 0.9045
# 6 -21.5796 -5.5714 -15.4814 12.6316 0.9045 45.7931
#
#
#
# Elastic Compliance Matrix: (Units=1/GPa)
#
#
# Indices 1 2 3 4 5 6 
#
# 1 0.017101 -0.001855 -0.006984 -0.000686 -0.006186 0.005783
# 2 -0.001855 0.006202 -0.001744 0.001360 0.001036 -0.001105
# 3 -0.006984 -0.001744 0.021749 -0.002808 -0.006370 0.004750
# 4 -0.000686 0.001360 -0.002808 0.041861 0.007801 -0.012808
# 5 -0.006186 0.001036 -0.006370 0.007801 0.035952 -0.007805
# 6 0.005783 -0.001105 0.004750 -0.012808 -0.007805 0.029721
#
#
# Mechanical properties :
#
#
# Convention : Reuss Voigt Hill
#
# Bulk Modulus (GPa) = 41.86917 61.07024 51.46970
# Shear Modulus (GPa) = 27.51553 37.73582 32.62567
#
# Velocity S-wave (km/s) = 3.53805 4.14335 3.85260
# Velocity P-wave (km/s) = 5.97814 7.11848 6.57309
#
# Compressibility (1/GPa) = 0.02388392
#
# Stress axis : x y z
#
# Youngs Moduli (GPa) = 58.47730 161.23474 45.97872
#
# Poissons Ratio (x) = 0.29916 0.32113
# Poissons Ratio (y) = 0.10850 0.08020
# Poissons Ratio (z) = 0.40842 0.28125
#
# Static dielectric constant tensor:
#      x y z
#    x 1.871600 0.019110 -0.030910 
#    y 0.019110 1.795050 -0.011600 
#    z -0.030910 -0.011600 1.826610 
# 
# From -- ./inp_files/518711.got.cif
#   From: 2010.05.17/outbox.cif.g08.bks.cpg/sg2_260_cif.got.tgz:518711.got - 2010.06.03 11:33:40.
