data_PCOD9027921
_publ_section_title
;
Structure prediction by ZEFSAII (Michael W. Deem and Ramdas Pophale) SiO2 
 PCOD9027921
Probable space group: P -1
;
_chemical_formula_sum "Si O2"
_cell_formula_units_Z 12
_cell_length_a 16.111253
_cell_length_b 9.802501
_cell_length_c 5.229135
_cell_angle_alpha 110.890609
_cell_angle_beta 118.005911
_cell_angle_gamma 114.422356
_cell_volume 483.628513
_symmetry_space_group_name_H-M "P -1"
_symmetry_group_IT_number 2
_symmetry_cell_setting 'triclinic'
loop_
_space_group_symop_operation_xyz
x,y,z
-x,-y,-z
loop_
_atom_site_type_symbol
_atom_site_label
_atom_site_fract_x
_atom_site_fract_y
_atom_site_fract_z
Si Si1 0.082796 0.133314 0.962720
Si Si2 0.213964 0.998138 0.986002
Si Si3 0.432867 0.773068 0.024484
Si Si4 0.710825 0.201652 0.800936
Si Si5 0.494337 0.320653 0.416730
Si Si6 0.057102 0.410252 0.922059
O O1 0.101386 0.326868 0.115424
O O2 0.207816 0.161262 0.162456
O O3 0.000000 0.000000 0.500000
O O4 0.000000 0.000000 0.000000
O O5 0.071282 0.796183 0.542608
O O6 0.238118 0.908100 0.182974
O O7 0.337317 0.112049 0.051184
O O8 0.316367 0.754312 0.931855
O O9 0.454459 0.685161 0.238828
O O10 0.563409 0.018997 0.357029
O O11 0.428476 0.675650 0.696069
O O12 0.818529 0.415206 0.957767
O O13 0.500000 0.500000 0.500000
O O14 0.000000 0.500000 0.000000
#
# Coordination Sequence:
#
# PCOD9027921 Si02
#       6
#     2   2   2   2   2   2
#     4  10  23  43  63  94 136 174 214 271 334 398
#     4  10  23  43  65  99 137 177 223 282 340 399
#     4  10  24  44  67 100 136 178 228 283 334 401
#     4  10  22  41  70 101 137 179 227 284 341 405
#     4  11  24  44  68  96 135 182 230 278 338 407
#     4  11  22  39  70 103 136 178 228 278 341 407
#
# _framework density 24.812436000000002
#
# number of rings (size 3 to 8) (size 9 to 14) (size 15 to 20)
#    0.000    1.667    0.000    3.000    2.333   12.667 
#    6.000    0.000    0.000    0.000    0.000    0.000 
#    0.000    0.000    0.000    0.000    0.000    0.000 
#
# Total GULP energy -67135.847930 kJ/mol
# GULP energy per Si atom -5594.653994 kJ/mol
# Density = 2.475596 g / cm^3
# Si number density = 24.812436 Si / 1000 Ang^3
#
#
#
# Elastic Constant Matrix: (Units=GPa)
#
#
# Indices 1 2 3 4 5 6 
#
# 1 174.1178 85.7275 20.1134 -6.9477 2.9884 -10.3805
# 2 85.7275 208.5242 43.4986 10.3008 5.8394 -17.3649
# 3 20.1134 43.4986 60.9941 6.0087 -2.0664 6.8822
# 4 -6.9477 10.3008 6.0087 40.5643 5.2236 4.7430
# 5 2.9884 5.8394 -2.0664 5.2236 37.4596 -0.5686
# 6 -10.3805 -17.3649 6.8822 4.7430 -0.5686 62.1153
#
#
#
# Elastic Compliance Matrix: (Units=1/GPa)
#
#
# Indices 1 2 3 4 5 6 
#
# 1 0.007390 -0.002989 -0.000564 0.002131 -0.000447 0.000295
# 2 -0.002989 0.007198 -0.004232 -0.001854 -0.000826 0.002116
# 3 -0.000564 -0.004232 0.020233 -0.001888 0.002033 -0.003356
# 4 0.002131 -0.001854 -0.001888 0.026480 -0.003708 -0.002009
# 5 -0.000447 -0.000826 0.002033 -0.003708 0.027489 0.000004
# 6 0.000295 0.002116 -0.003356 -0.002009 0.000004 0.017265
#
#
# Mechanical properties :
#
#
# Convention : Reuss Voigt Hill
#
# Bulk Modulus (GPa) = 51.94349 82.47943 67.21146
# Shear Modulus (GPa) = 39.04975 47.64763 43.34869
#
# Velocity S-wave (km/s) = 3.97142 4.38689 4.18431
# Velocity P-wave (km/s) = 6.48147 7.67939 7.10572
#
# Compressibility (1/GPa) = 0.01925169
#
# Stress axis : x y z
#
# Youngs Moduli (GPa) = 135.31362 138.92717 49.42514
#
# Poissons Ratio (x) = 0.41522 0.02787
# Poissons Ratio (y) = 0.40442 0.20916
# Poissons Ratio (z) = 0.07631 0.58792
#
# Static dielectric constant tensor:
#      x y z
#    x 2.003220 -0.067740 -0.002100 
#    y -0.067740 2.010250 -0.017050 
#    z -0.002100 -0.017050 2.049880 
# 
# From -- ./inp_files/72065.got.cif
#   From: 2010.05.17/outbox.cif.g08.bks.cpg/sg2_37_cif.got.tgz:72065.got - 2010.06.03 11:33:40.
