data_PCOD9027467
_publ_section_title
;
Structure prediction by ZEFSAII (Michael W. Deem and Ramdas Pophale) SiO2 
 PCOD9027467
Probable space group: P -1
;
_chemical_formula_sum "Si O2"
_cell_formula_units_Z 12
_cell_length_a 6.871409
_cell_length_b 14.329896
_cell_length_c 10.167665
_cell_angle_alpha 28.648059
_cell_angle_beta 114.004257
_cell_angle_gamma 105.462396
_cell_volume 429.037655
_symmetry_space_group_name_H-M "P -1"
_symmetry_group_IT_number 2
_symmetry_cell_setting 'triclinic'
loop_
_space_group_symop_operation_xyz
x,y,z
-x,-y,-z
loop_
_atom_site_type_symbol
_atom_site_label
_atom_site_fract_x
_atom_site_fract_y
_atom_site_fract_z
Si Si1 0.097195 0.723829 0.793803
Si Si2 0.429079 0.937151 0.711666
Si Si3 0.525258 0.720468 0.264505
Si Si4 0.128473 0.345851 0.906880
Si Si5 0.007450 0.767193 0.264759
Si Si6 0.648651 0.703988 0.604619
O O1 0.216893 0.905722 0.615134
O O2 0.895430 0.749530 0.606759
O O3 0.287636 0.530324 0.060988
O O4 0.988662 0.675408 0.961810
O O5 0.458883 0.158396 0.476324
O O6 0.394961 0.859463 0.945990
O O7 0.641089 0.800589 0.876859
O O8 0.500000 0.500000 0.500000
O O9 0.770817 0.737485 0.280974
O O10 0.504913 0.759373 0.366044
O O11 0.979797 0.287912 0.818657
O O12 0.156790 0.574700 0.614154
O O13 0.000000 0.000000 0.000000
#
# Coordination Sequence:
#
# PCOD9027467 Si02
#       6
#     2   2   2   2   2   2
#     4  11  24  46  70  93 147 181 225 287 348 414
#     4  11  24  42  70 102 135 177 236 284 343 410
#     4  11  21  44  73 101 138 180 235 293 337 411
#     4  10  23  43  66 102 138 178 228 290 341 410
#     4  10  22  41  68 102 140 183 228 285 354 406
#     4  11  24  43  68 102 133 187 228 279 354 412
#
# _framework density 27.969574000000001
#
# number of rings (size 3 to 8) (size 9 to 14) (size 15 to 20)
#    0.000    1.333    3.333    1.000    2.333    3.333 
#    6.000    3.333    0.000    0.000    0.000    0.000 
#    0.000    0.000    0.000    0.000    0.000    0.000 
#
# Total GULP energy -67283.744112 kJ/mol
# GULP energy per Si atom -5606.978676 kJ/mol
# Density = 2.790591 g / cm^3
# Si number density = 27.969574 Si / 1000 Ang^3
#
#
#
# Elastic Constant Matrix: (Units=GPa)
#
#
# Indices 1 2 3 4 5 6 
#
# 1 104.0151 31.1332 56.6410 -28.2366 -7.1550 -1.7422
# 2 31.1332 174.1734 73.1472 -22.1106 -23.3223 -1.2904
# 3 56.6410 73.1472 160.1084 -45.5180 1.5927 -18.2087
# 4 -28.2366 -22.1106 -45.5180 70.1107 -4.6170 1.6679
# 5 -7.1550 -23.3223 1.5927 -4.6170 48.3070 -4.0602
# 6 -1.7422 -1.2904 -18.2087 1.6679 -4.0602 36.2622
#
#
#
# Elastic Compliance Matrix: (Units=1/GPa)
#
#
# Indices 1 2 3 4 5 6 
#
# 1 0.012570 -0.000018 -0.003815 0.002750 0.002141 -0.001199
# 2 -0.000018 0.007820 -0.003623 0.000386 0.003834 -0.001130
# 3 -0.003815 -0.003623 0.011022 0.004240 -0.001868 0.004819
# 4 0.002750 0.000386 0.004240 0.018359 0.002351 0.001693
# 5 0.002141 0.003834 -0.001868 0.002351 0.023307 0.001803
# 6 -0.001199 -0.001130 0.004819 0.001693 0.001803 0.030023
#
#
# Mechanical properties :
#
#
# Convention : Reuss Voigt Hill
#
# Bulk Modulus (GPa) = 60.60207 84.45998 72.53103
# Shear Modulus (GPa) = 40.48103 49.42768 44.95436
#
# Velocity S-wave (km/s) = 3.80850 4.20836 4.01341
# Velocity P-wave (km/s) = 6.40732 7.34005 6.88949
#
# Compressibility (1/GPa) = 0.01650109
#
# Stress axis : x y z
#
# Youngs Moduli (GPa) = 79.55265 127.87068 90.72356
#
# Poissons Ratio (x) = 0.00231 0.34607
# Poissons Ratio (y) = 0.00143 0.32873
# Poissons Ratio (z) = 0.30346 0.46333
#
# Static dielectric constant tensor:
#      x y z
#    x 2.219230 0.014440 0.080470 
#    y 0.014440 2.203440 0.056230 
#    z 0.080470 0.056230 2.243680 
# 
# From -- ./inp_files/395128.got.cif
#   From: 2010.05.17/outbox.cif.g08.bks.cpg/sg2_198_cif.got.tgz:395128.got - 2010.06.03 11:33:40.
