data_PCOD9027299
_publ_section_title
;
Structure prediction by ZEFSAII (Michael W. Deem and Ramdas Pophale) SiO2 
 PCOD9027299
Probable space group: P -1
;
_chemical_formula_sum "Si O2"
_cell_formula_units_Z 16
_cell_length_a 9.574950
_cell_length_b 8.574577
_cell_length_c 12.344344
_cell_angle_alpha 59.861795
_cell_angle_beta 122.361773
_cell_angle_gamma 113.676349
_cell_volume 728.008057
_symmetry_space_group_name_H-M "P -1"
_symmetry_group_IT_number 2
_symmetry_cell_setting 'triclinic'
loop_
_space_group_symop_operation_xyz
x,y,z
-x,-y,-z
loop_
_atom_site_type_symbol
_atom_site_label
_atom_site_fract_x
_atom_site_fract_y
_atom_site_fract_z
Si Si1 0.447580 0.420774 0.291940
Si Si2 0.389402 0.071671 0.519653
Si Si3 0.185834 0.494101 0.980190
Si Si4 0.200019 0.153616 0.792044
Si Si5 0.886930 0.201138 0.002247
Si Si6 0.736821 0.442809 0.238662
Si Si7 0.493857 0.837153 0.223028
Si Si8 0.953855 0.161680 0.498557
O O1 0.389770 0.279445 0.412259
O O2 0.594923 0.370111 0.293950
O O3 0.502786 0.621068 0.296832
O O4 0.297100 0.428605 0.143326
O O5 0.450844 0.072636 0.669446
O O6 0.500000 0.000000 0.500000
O O7 0.210403 0.946055 0.474411
O O8 0.299590 0.574752 0.897771
O O9 0.034177 0.324312 0.949941
O O10 0.116242 0.664461 0.943063
O O11 0.239022 0.339310 0.810486
O O12 0.367380 0.086794 0.838077
O O13 0.103136 0.209772 0.627748
O O14 0.089632 0.992686 0.871956
O O15 0.701378 0.159983 0.885225
O O16 0.894765 0.338942 0.359290
O O17 0.000000 0.000000 0.500000
#
# Coordination Sequence:
#
# PCOD9027299 Si02
#       8
#     2   2   2   2   2   2   2   2
#     4  10  22  43  64  95 133 168 218 264 329 386
#     4  12  24  41  66  97 129 171 218 270 317 384
#     4  10  22  41  67  95 127 171 216 270 323 388
#     4  11  23  42  65  96 132 170 218 269 329 386
#     4  10  22  42  66  95 128 170 220 265 326 391
#     4  11  24  41  64  98 130 169 215 275 327 385
#     4  10  23  41  64  97 131 176 209 266 329 388
#     4  12  24  43  66  94 130 174 219 267 323 387
#
# _framework density 21.977779000000002
#
# number of rings (size 3 to 8) (size 9 to 14) (size 15 to 20)
#    0.000    1.250    2.500    3.000    0.000    4.500 
#    4.500    0.000    0.000    0.000    0.000    0.000 
#    0.000    0.000    0.000    0.000    0.000    0.000 
#
# Total GULP energy -89296.298597 kJ/mol
# GULP energy per Si atom -5581.018662 kJ/mol
# Density = 2.192776 g / cm^3
# Si number density = 21.977779 Si / 1000 Ang^3
#
#
#
# Elastic Constant Matrix: (Units=GPa)
#
#
# Indices 1 2 3 4 5 6 
#
# 1 77.6594 11.1512 8.1309 5.8333 5.1864 -8.8183
# 2 11.1512 46.6942 10.9554 -5.7566 -2.2456 3.9932
# 3 8.1309 10.9554 59.6179 -2.9464 4.2322 -0.7451
# 4 5.8333 -5.7566 -2.9464 38.7601 3.5345 -2.8231
# 5 5.1864 -2.2456 4.2322 3.5345 31.7059 2.7762
# 6 -8.8183 3.9932 -0.7451 -2.8231 2.7762 37.5928
#
#
#
# Elastic Compliance Matrix: (Units=1/GPa)
#
#
# Indices 1 2 3 4 5 6 
#
# 1 0.014323 -0.003885 -0.001126 -0.002313 -0.002540 0.003764
# 2 -0.003885 0.024126 -0.003981 0.003354 0.002809 -0.003509
# 3 -0.001126 -0.003981 0.017922 0.001246 -0.002699 0.000807
# 4 -0.002313 0.003354 0.001246 0.027085 -0.002689 0.001359
# 5 -0.002540 0.002809 -0.002699 -0.002689 0.033129 -0.003596
# 6 0.003764 -0.003509 0.000807 0.001359 -0.003596 0.028240
#
#
# Mechanical properties :
#
#
# Convention : Reuss Voigt Hill
#
# Bulk Modulus (GPa) = 26.05131 27.16072 26.60601
# Shear Modulus (GPa) = 28.47268 31.86070 30.16669
#
# Velocity S-wave (km/s) = 3.60324 3.81159 3.70888
# Velocity P-wave (km/s) = 5.40281 5.63525 5.52025
#
# Compressibility (1/GPa) = 0.03838579
#
# Stress axis : x y z
#
# Youngs Moduli (GPa) = 69.81622 41.44824 55.79749
#
# Poissons Ratio (x) = 0.16104 0.06285
# Poissons Ratio (y) = 0.27127 0.22214
# Poissons Ratio (z) = 0.07864 0.16501
#
# Static dielectric constant tensor:
#      x y z
#    x 1.970750 -0.179490 0.031180 
#    y -0.179490 2.020690 -0.066140 
#    z 0.031180 -0.066140 1.786140 
# 
# From -- ./inp_files/381476.got.cif
#   From: 2010.05.17/outbox.cif.g08.bks.cpg/sg2_191_cif.got.tgz:381476.got - 2010.06.03 11:33:40.
