data_PCOD9027075
_publ_section_title
;
Structure prediction by ZEFSAII (Michael W. Deem and Ramdas Pophale) SiO2 
 PCOD9027075
Probable space group: P -1
;
_chemical_formula_sum "Si O2"
_cell_formula_units_Z 10
_cell_length_a 9.413531
_cell_length_b 22.336304
_cell_length_c 15.709320
_cell_angle_alpha 18.853137
_cell_angle_beta 29.658382
_cell_angle_gamma 26.246626
_cell_volume 467.286453
_symmetry_space_group_name_H-M "P -1"
_symmetry_group_IT_number 2
_symmetry_cell_setting 'triclinic'
loop_
_space_group_symop_operation_xyz
x,y,z
-x,-y,-z
loop_
_atom_site_type_symbol
_atom_site_label
_atom_site_fract_x
_atom_site_fract_y
_atom_site_fract_z
Si Si1 0.859715 0.710127 0.234783
Si Si2 0.802664 0.246229 0.753997
Si Si3 0.880815 0.490807 0.167650
Si Si4 0.780240 0.137220 0.731502
Si Si5 0.860161 0.471307 0.843879
O O1 0.476607 0.799455 0.296788
O O2 0.000000 0.500000 0.500000
O O3 0.994405 0.680714 0.108198
O O4 0.919176 0.891418 0.002231
O O5 0.511638 0.382048 0.787401
O O6 0.631810 0.253422 0.741892
O O7 0.051142 0.342806 0.481339
O O8 0.000000 0.000000 0.000000
O O9 0.005833 0.242547 0.451538
O O10 0.009352 0.577536 0.061461
O O11 0.000000 0.500000 0.000000
O O12 0.500000 0.500000 0.000000
#
# Coordination Sequence:
#
# PCOD9027075 Si02
#       5
#     2   2   2   2   2
#     4  11  22  40  68 100 132 171 223 282 343 392
#     4  11  22  45  70  95 134 187 225 276 347 407
#     4  11  24  45  67  97 140 183 224 279 341 409
#     4  10  22  41  66  96 133 175 222 277 335 413
#     4  11  24  42  66 100 136 170 230 286 330 407
#
# _framework density 21.40015
#
# number of rings (size 3 to 8) (size 9 to 14) (size 15 to 20)
#    0.000    1.200    4.000    2.400    2.800    1.600 
#    0.000    6.000    0.000    0.000    0.000    0.000 
#    0.000    0.000    0.000    0.000    0.000    0.000 
#
# Total GULP energy -55715.816896 kJ/mol
# GULP energy per Si atom -5571.581690 kJ/mol
# Density = 2.135144 g / cm^3
# Si number density = 21.400150 Si / 1000 Ang^3
#
#
#
# Elastic Constant Matrix: (Units=GPa)
#
#
# Indices 1 2 3 4 5 6 
#
# 1 105.5895 44.6765 39.6880 10.2025 -1.8074 15.5046
# 2 44.6765 86.9179 75.2429 7.4281 0.4908 19.7065
# 3 39.6880 75.2429 108.9254 -5.4099 -4.4230 13.6949
# 4 10.2025 7.4281 -5.4099 43.9209 3.2456 1.7296
# 5 -1.8074 0.4908 -4.4230 3.2456 40.4962 -1.1260
# 6 15.5046 19.7065 13.6949 1.7296 -1.1260 50.5900
#
#
#
# Elastic Compliance Matrix: (Units=1/GPa)
#
#
# Indices 1 2 3 4 5 6 
#
# 1 0.012391 -0.005072 -0.000903 -0.002121 0.000644 -0.001491
# 2 -0.005072 0.035441 -0.022341 -0.007132 -0.002692 -0.006020
# 3 -0.000903 -0.022341 0.025131 0.006821 0.002484 0.001998
# 4 -0.002121 -0.007132 0.006821 0.025375 -0.001278 0.000685
# 5 0.000644 -0.002692 0.002484 -0.001278 0.025151 0.000782
# 6 -0.001491 -0.006020 0.001998 0.000685 0.000782 0.022021
#
#
# Mechanical properties :
#
#
# Convention : Reuss Voigt Hill
#
# Bulk Modulus (GPa) = 61.23085 68.96086 65.09585
# Shear Modulus (GPa) = 24.08661 36.45643 30.27152
#
# Velocity S-wave (km/s) = 3.35854 4.13190 3.76513
# Velocity P-wave (km/s) = 6.61167 7.42010 7.02752
#
# Compressibility (1/GPa) = 0.01633164
#
# Stress axis : x y z
#
# Youngs Moduli (GPa) = 80.70513 28.21561 39.79226
#
# Poissons Ratio (x) = 0.14310 0.03594
# Poissons Ratio (y) = 0.40930 0.88899
# Poissons Ratio (z) = 0.07289 0.63036
#
# Static dielectric constant tensor:
#      x y z
#    x 1.862920 -0.017140 0.006240 
#    y -0.017140 1.805570 -0.007720 
#    z 0.006240 -0.007720 1.808420 
# 
# From -- ./inp_files/143999.got.cif
#   From: 2010.05.17/outbox.cif.g08.bks.cpg/sg2_72_cif.got.tgz:143999.got - 2010.06.03 11:33:40.
