data_PCOD9027861
_publ_section_title
;
Structure prediction by ZEFSAII (Michael W. Deem and Ramdas Pophale) SiO2 
 PCOD9027861
Probable space group: P -1
;
_chemical_formula_sum "Si O2"
_cell_formula_units_Z 14
_cell_length_a 10.134794
_cell_length_b 12.462532
_cell_length_c 16.254538
_cell_angle_alpha 154.114794
_cell_angle_beta 133.498885
_cell_angle_gamma 57.171884
_cell_volume 630.565455
_symmetry_space_group_name_H-M "P -1"
_symmetry_group_IT_number 2
_symmetry_cell_setting 'triclinic'
loop_
_space_group_symop_operation_xyz
x,y,z
-x,-y,-z
loop_
_atom_site_type_symbol
_atom_site_label
_atom_site_fract_x
_atom_site_fract_y
_atom_site_fract_z
Si Si1 0.852903 0.773465 0.048658
Si Si2 0.450862 0.218024 0.684806
Si Si3 0.770791 0.023505 0.016396
Si Si4 0.814029 0.796027 0.710404
Si Si5 0.443850 0.566235 0.777175
Si Si6 0.936453 0.881603 0.479102
Si Si7 0.845866 0.340369 0.012533
O O1 0.792370 0.905963 0.033105
O O2 0.663264 0.588930 0.872638
O O3 0.937917 0.970655 0.292181
O O4 0.019568 0.655412 0.005498
O O5 0.385190 0.406221 0.723914
O O6 0.276995 0.101968 0.587689
O O7 0.500000 0.000000 0.500000
O O8 0.639257 0.354192 0.906219
O O9 0.604753 0.164743 0.045852
O O10 0.970452 0.220550 0.217057
O O11 0.753284 0.820379 0.795132
O O12 0.675737 0.580331 0.450839
O O13 0.820589 0.070898 0.861172
O O14 0.936136 0.585667 0.273589
O O15 0.000000 0.000000 0.500000
#
# Coordination Sequence:
#
# PCOD9027861 Si02
#       7
#     2   2   2   2   2   2   2
#     4  11  26  44  65 102 138 180 215 289 332 398
#     4  12  23  45  71  97 137 175 225 278 335 399
#     4  10  23  43  65  96 134 173 231 271 337 396
#     4  10  22  41  69  98 125 178 227 279 328 403
#     4  12  24  41  70  95 138 178 222 276 339 397
#     4  12  27  44  70 102 136 178 225 279 338 403
#     4  11  24  44  69  98 138 173 231 273 341 395
#
# _framework density 22.202294999999999
#
# number of rings (size 3 to 8) (size 9 to 14) (size 15 to 20)
#    0.000    0.857    2.857    3.857    2.000    7.429 
#    0.000    0.000    0.000    0.000    0.000    0.000 
#    0.000    0.000    0.000    0.000    0.000    0.000 
#
# Total GULP energy -78379.045752 kJ/mol
# GULP energy per Si atom -5598.503268 kJ/mol
# Density = 2.215176 g / cm^3
# Si number density = 22.202295 Si / 1000 Ang^3
#
#
#
# Elastic Constant Matrix: (Units=GPa)
#
#
# Indices 1 2 3 4 5 6 
#
# 1 150.7184 20.9325 33.6473 -9.2882 2.9590 10.2029
# 2 20.9325 44.4094 -13.9549 -11.3448 -4.9356 5.9959
# 3 33.6473 -13.9549 79.6632 -20.6208 -3.8448 3.2536
# 4 -9.2882 -11.3448 -20.6208 33.9871 -2.8295 -2.7740
# 5 2.9590 -4.9356 -3.8448 -2.8295 29.4934 -7.5902
# 6 10.2029 5.9959 3.2536 -2.7740 -7.5902 28.4707
#
#
#
# Elastic Compliance Matrix: (Units=1/GPa)
#
#
# Indices 1 2 3 4 5 6 
#
# 1 0.009089 -0.007567 -0.006420 -0.004476 -0.004076 -0.002453
# 2 -0.007567 0.037873 0.015838 0.020885 0.010596 -0.002215
# 3 -0.006420 0.015838 0.023152 0.018278 0.008136 0.000269
# 4 -0.004476 0.020885 0.018278 0.047459 0.011610 0.002836
# 5 -0.004076 0.010596 0.008136 0.011610 0.040923 0.010341
# 6 -0.002453 -0.002215 0.000269 0.002836 0.010341 0.039472
#
#
# Mechanical properties :
#
#
# Convention : Reuss Voigt Hill
#
# Bulk Modulus (GPa) = 13.54688 39.56009 26.55348
# Shear Modulus (GPa) = 22.84449 34.00130 28.42289
#
# Velocity S-wave (km/s) = 3.21117 3.91760 3.58184
# Velocity P-wave (km/s) = 4.45686 6.19032 5.39369
#
# Compressibility (1/GPa) = 0.07381776
#
# Stress axis : x y z
#
# Youngs Moduli (GPa) = 110.02050 26.40381 43.19298
#
# Poissons Ratio (x) = 0.19980 0.27729
# Poissons Ratio (y) = 0.83252 -0.68411
# Poissons Ratio (z) = 0.70631 -0.41819
#
# Static dielectric constant tensor:
#      x y z
#    x 1.825740 -0.002460 0.000310 
#    y -0.002460 1.826440 0.001070 
#    z 0.000310 0.001070 1.793980 
# 
# From -- ./inp_files/242296.got.cif
#   From: 2010.05.17/outbox.cif.g08.bks.cpg/sg2_122_cif.got.tgz:242296.got - 2010.06.03 11:33:40.
