data_PCOD9027182
_publ_section_title
;
Structure prediction by ZEFSAII (Michael W. Deem and Ramdas Pophale) SiO2 
 PCOD9027182
Probable space group: P -1
;
_chemical_formula_sum "Si O2"
_cell_formula_units_Z 16
_cell_length_a 16.375931
_cell_length_b 12.038818
_cell_length_c 5.307832
_cell_angle_alpha 104.686690
_cell_angle_beta 120.941365
_cell_angle_gamma 50.910524
_cell_volume 692.678013
_symmetry_space_group_name_H-M "P -1"
_symmetry_group_IT_number 2
_symmetry_cell_setting 'triclinic'
loop_
_space_group_symop_operation_xyz
x,y,z
-x,-y,-z
loop_
_atom_site_type_symbol
_atom_site_label
_atom_site_fract_x
_atom_site_fract_y
_atom_site_fract_z
Si Si1 0.899709 0.738749 0.558507
Si Si2 0.496891 0.078718 0.786830
Si Si3 0.078926 0.515881 0.330576
Si Si4 0.186462 0.818029 0.303738
Si Si5 0.614350 0.496069 0.740789
Si Si6 0.947991 0.900235 0.103277
Si Si7 0.338080 0.403233 0.615753
Si Si8 0.264856 0.972122 0.770916
O O1 0.875842 0.622805 0.504395
O O2 0.957213 0.774905 0.889163
O O3 0.994765 0.661530 0.438738
O O4 0.777615 0.895627 0.406298
O O5 0.386316 0.244786 0.687055
O O6 0.500000 0.000000 0.500000
O O7 0.613343 0.074865 0.948623
O O8 0.500000 0.000000 0.000000
O O9 0.195420 0.496467 0.412141
O O10 0.000000 0.500000 0.000000
O O11 0.264170 0.664741 0.206513
O O12 0.277619 0.837654 0.596008
O O13 0.114962 0.954877 0.082065
O O14 0.082645 0.843814 0.335264
O O15 0.500000 0.500000 0.500000
O O16 0.612419 0.594891 0.576791
O O17 0.623266 0.539207 0.063162
O O18 0.852031 0.952943 0.198443
#
# Coordination Sequence:
#
# PCOD9027182 Si02
#       8
#     2   2   2   2   2   2   2   2
#     4  10  23  40  66 101 142 179 236 285 366 426
#     4  12  29  49  77 105 144 190 246 298 356 425
#     4  11  25  41  70  99 148 186 233 296 368 433
#     4  10  24  41  69 101 140 182 238 289 359 420
#     4  12  28  49  77 103 149 192 245 302 362 428
#     4  10  22  41  67 101 139 179 235 293 355 428
#     4  12  29  48  75 109 145 191 247 295 365 434
#     4  11  24  41  73  98 141 183 239 297 358 423
#
# _framework density 23.098756000000002
#
# number of rings (size 3 to 8) (size 9 to 14) (size 15 to 20)
#    0.000    1.000    0.000    4.500   17.500    0.000 
#    0.000    0.000    0.000    0.000    0.000    0.000 
#    0.000    0.000    0.000    0.000    0.000    0.000 
#
# Total GULP energy -89450.795475 kJ/mol
# GULP energy per Si atom -5590.674717 kJ/mol
# Density = 2.304618 g / cm^3
# Si number density = 23.098756 Si / 1000 Ang^3
#
#
#
# Elastic Constant Matrix: (Units=GPa)
#
#
# Indices 1 2 3 4 5 6 
#
# 1 66.5676 -6.7886 3.8911 -18.1211 9.6558 7.3252
# 2 -6.7886 99.3703 5.4519 8.7457 -5.2645 0.0844
# 3 3.8911 5.4519 92.2577 13.3303 14.5416 -3.0034
# 4 -18.1211 8.7457 13.3303 26.2906 -7.8295 -5.2058
# 5 9.6558 -5.2645 14.5416 -7.8295 40.2072 -7.8023
# 6 7.3252 0.0844 -3.0034 -5.2058 -7.8023 25.1137
#
#
#
# Elastic Compliance Matrix: (Units=1/GPa)
#
#
# Indices 1 2 3 4 5 6 
#
# 1 0.019534 0.000202 -0.002607 0.013415 -0.001848 -0.003803
# 2 0.000202 0.010402 -0.000315 -0.003051 0.000729 -0.000537
# 3 -0.002607 -0.000315 0.013577 -0.011023 -0.006867 -0.002033
# 4 0.013415 -0.003051 -0.011023 0.060528 0.014445 0.011813
# 5 -0.001848 0.000729 -0.006867 0.014445 0.033236 0.013035
# 6 -0.003803 -0.000537 -0.002033 0.011813 0.013035 0.047185
#
#
# Mechanical properties :
#
#
# Convention : Reuss Voigt Hill
#
# Bulk Modulus (GPa) = 26.26500 29.25604 27.76052
# Shear Modulus (GPa) = 24.68021 35.36505 30.02263
#
# Velocity S-wave (km/s) = 3.27228 3.91709 3.60912
# Velocity P-wave (km/s) = 5.06681 5.75771 5.42328
#
# Compressibility (1/GPa) = 0.03807348
#
# Stress axis : x y z
#
# Youngs Moduli (GPa) = 51.19371 96.13525 73.65601
#
# Poissons Ratio (x) = -0.01944 0.19200
# Poissons Ratio (y) = -0.01035 0.02319
# Poissons Ratio (z) = 0.13345 0.03027
#
# Static dielectric constant tensor:
#      x y z
#    x 1.912030 0.049530 -0.032840 
#    y 0.049530 1.847190 -0.059510 
#    z -0.032840 -0.059510 1.889600 
# 
# From -- ./inp_files/109825.got.cif
#   From: 2010.05.17/outbox.cif.g08.bks.cpg/sg2_55_cif.got.tgz:109825.got - 2010.06.03 11:33:40.
