data_PCOD9027102
_publ_section_title
;
Structure prediction by ZEFSAII (Michael W. Deem and Ramdas Pophale) SiO2 
 PCOD9027102
Probable space group: P -1
;
_chemical_formula_sum "Si O2"
_cell_formula_units_Z 16
_cell_length_a 8.974350
_cell_length_b 7.834795
_cell_length_c 16.189000
_cell_angle_alpha 91.904952
_cell_angle_beta 116.099112
_cell_angle_gamma 46.255999
_cell_volume 671.006597
_symmetry_space_group_name_H-M "P -1"
_symmetry_group_IT_number 2
_symmetry_cell_setting 'triclinic'
loop_
_space_group_symop_operation_xyz
x,y,z
-x,-y,-z
loop_
_atom_site_type_symbol
_atom_site_label
_atom_site_fract_x
_atom_site_fract_y
_atom_site_fract_z
Si Si1 0.043242 0.700758 0.371470
Si Si2 0.455724 0.649060 0.605644
Si Si3 0.971520 0.244737 0.447328
Si Si4 0.753482 0.673069 0.800586
Si Si5 0.754479 0.913318 0.048313
Si Si6 0.533118 0.381276 0.917441
Si Si7 0.027981 0.602238 0.729977
Si Si8 0.377580 0.829492 0.811870
O O1 0.323624 0.537566 0.411635
O O2 0.011936 0.671015 0.458410
O O3 0.962288 0.606423 0.292161
O O4 0.850527 0.001797 0.306522
O O5 0.319880 0.593686 0.614247
O O6 0.598735 0.653958 0.708415
O O7 0.208344 0.931977 0.511636
O O8 0.018464 0.284837 0.369531
O O9 0.816851 0.774319 0.753634
O O10 0.560414 0.844095 0.831181
O O11 0.010170 0.396734 0.895849
O O12 0.762440 0.022666 0.134630
O O13 0.500000 0.000000 0.000000
O O14 0.732025 0.072429 0.972890
O O15 0.550983 0.527539 0.861765
O O16 0.277056 0.486893 0.828308
O O17 0.500000 0.500000 0.000000
#
# Coordination Sequence:
#
# PCOD9027102 Si02
#       8
#     2   2   2   2   2   2   2   2
#     4  11  22  42  67  98 134 177 217 269 330 391
#     4  10  22  41  66  97 133 175 218 273 327 386
#     4  11  23  41  68  98 135 175 222 268 329 395
#     4  11  22  40  69  91 133 175 214 268 334 382
#     4  11  21  44  68  92 131 168 216 279 328 383
#     4  10  23  42  69  96 128 173 217 277 329 388
#     4  11  23  43  65  96 138 171 220 277 321 393
#     4  11  22  41  68  93 134 166 219 266 327 395
#
# _framework density 23.844774000000001
#
# number of rings (size 3 to 8) (size 9 to 14) (size 15 to 20)
#    0.000    1.250    5.000    1.500    1.750    3.000 
#    2.250    0.000    2.750    0.000    0.000    0.000 
#    0.000    0.000    0.000    0.000    0.000    0.000 
#
# Total GULP energy -89220.260232 kJ/mol
# GULP energy per Si atom -5576.266264 kJ/mol
# Density = 2.379050 g / cm^3
# Si number density = 23.844774 Si / 1000 Ang^3
#
#
#
# Elastic Constant Matrix: (Units=GPa)
#
#
# Indices 1 2 3 4 5 6 
#
# 1 116.5817 23.3757 46.5748 -17.2104 -21.6932 -23.3889
# 2 23.3757 51.7770 18.4153 -7.1099 -1.3542 -20.7453
# 3 46.5748 18.4153 132.4080 -10.0769 -7.5370 -3.2581
# 4 -17.2104 -7.1099 -10.0769 40.6921 4.3429 9.5087
# 5 -21.6932 -1.3542 -7.5370 4.3429 54.0697 2.1261
# 6 -23.3889 -20.7453 -3.2581 9.5087 2.1261 39.3068
#
#
#
# Elastic Compliance Matrix: (Units=1/GPa)
#
#
# Indices 1 2 3 4 5 6 
#
# 1 0.012596 -0.001771 -0.003634 0.002406 0.004095 0.005456
# 2 -0.001771 0.026099 -0.002730 0.000324 -0.000954 0.012468
# 3 -0.003634 -0.002730 0.009200 0.001004 -0.000204 -0.003072
# 4 0.002406 0.000324 0.001004 0.027119 -0.000875 -0.004827
# 5 0.004095 -0.000954 -0.000204 -0.000875 0.020115 0.001040
# 6 0.005456 0.012468 -0.003072 -0.004827 0.001040 0.036124
#
#
# Mechanical properties :
#
#
# Convention : Reuss Voigt Hill
#
# Bulk Modulus (GPa) = 31.62020 53.05537 42.33778
# Shear Modulus (GPa) = 31.63277 40.97377 36.30327
#
# Velocity S-wave (km/s) = 3.64622 4.14980 3.90613
# Velocity P-wave (km/s) = 5.56922 6.72754 6.17560
#
# Compressibility (1/GPa) = 0.03162536
#
# Stress axis : x y z
#
# Youngs Moduli (GPa) = 79.38815 38.31586 108.70090
#
# Poissons Ratio (x) = 0.06785 0.39502
# Poissons Ratio (y) = 0.14059 0.29673
# Poissons Ratio (z) = 0.28850 0.10459
#
# Static dielectric constant tensor:
#      x y z
#    x 1.989760 0.018260 -0.066450 
#    y 0.018260 1.992210 0.073970 
#    z -0.066450 0.073970 1.960830 
# 
# From -- ./inp_files/557178.got.cif
#   From: 2010.05.17/outbox.cif.g08.bks.cpg/sg2_279_cif.got.tgz:557178.got - 2010.06.03 11:33:40.
