data_PCOD9027300
_publ_section_title
;
Structure prediction by ZEFSAII (Michael W. Deem and Ramdas Pophale) SiO2 
 PCOD9027300
Probable space group: P -1
;
_chemical_formula_sum "Si O2"
_cell_formula_units_Z 16
_cell_length_a 10.554651
_cell_length_b 18.566971
_cell_length_c 16.082168
_cell_angle_alpha 24.541995
_cell_angle_beta 53.273954
_cell_angle_gamma 37.982347
_cell_volume 712.984962
_symmetry_space_group_name_H-M "P -1"
_symmetry_group_IT_number 2
_symmetry_cell_setting 'triclinic'
loop_
_space_group_symop_operation_xyz
x,y,z
-x,-y,-z
loop_
_atom_site_type_symbol
_atom_site_label
_atom_site_fract_x
_atom_site_fract_y
_atom_site_fract_z
Si Si1 0.815615 0.304272 0.234931
Si Si2 0.764097 0.083467 0.984662
Si Si3 0.422958 0.807058 0.606239
Si Si4 0.632921 0.373491 0.493959
Si Si5 0.103264 0.539701 0.118635
Si Si6 0.279458 0.055096 0.034206
Si Si7 0.862879 0.877194 0.462238
Si Si8 0.499647 0.132917 0.183620
O O1 0.587644 0.364292 0.258148
O O2 0.916747 0.309496 0.106114
O O3 0.715791 0.555955 0.058239
O O4 0.000000 0.000000 0.500000
O O5 0.545781 0.391697 0.743702
O O6 0.781453 0.975676 0.000368
O O7 0.676835 0.019866 0.156016
O O8 0.000000 0.000000 0.000000
O O9 0.652960 0.622580 0.763723
O O10 0.222817 0.955646 0.598480
O O11 0.414873 0.000103 0.360719
O O12 0.500000 0.500000 0.500000
O O13 0.887725 0.251975 0.527343
O O14 0.665364 0.144008 0.713959
O O15 0.106201 0.344430 0.287679
O O16 0.925964 0.681530 0.115831
O O17 0.500000 0.000000 0.000000
O O18 0.661841 0.038123 0.301525
#
# Coordination Sequence:
#
# PCOD9027300 Si02
#       8
#     2   2   2   2   2   2   2   2
#     4  12  27  40  66 107 139 181 227 292 364 418
#     4  11  26  46  70  99 141 187 229 296 361 413
#     4  11  24  43  69  99 134 190 232 281 355 427
#     4  10  22  41  67  95 127 189 232 272 344 417
#     4  11  22  44  70  98 136 180 238 288 341 427
#     4  11  25  45  69 101 136 184 245 290 338 426
#     4  11  21  44  72  99 137 185 237 285 347 432
#     4  11  24  46  67 102 144 176 233 296 360 415
#
# _framework density 22.440864000000001
#
# number of rings (size 3 to 8) (size 9 to 14) (size 15 to 20)
#    0.000    1.000    2.500    4.875    7.000    3.500 
#    0.000    3.125    0.000    0.000    0.000    0.000 
#    0.000    0.000    0.000    0.000    0.000    0.000 
#
# Total GULP energy -89277.863232 kJ/mol
# GULP energy per Si atom -5579.866452 kJ/mol
# Density = 2.238979 g / cm^3
# Si number density = 22.440864 Si / 1000 Ang^3
#
#
#
# Elastic Constant Matrix: (Units=GPa)
#
#
# Indices 1 2 3 4 5 6 
#
# 1 45.7013 -23.7672 -30.4661 -4.7714 21.1747 -12.7108
# 2 -23.7672 57.4304 -59.3631 -0.8898 49.1533 -9.1712
# 3 -30.4661 -59.3631 35.6845 7.3035 44.2003 -3.4190
# 4 -4.7714 -0.8898 7.3035 35.4809 0.2526 -2.9741
# 5 21.1747 49.1533 44.2003 0.2526 -1.6269 4.7261
# 6 -12.7108 -9.1712 -3.4190 -2.9741 4.7261 38.5496
#
#
#
# Elastic Compliance Matrix: (Units=1/GPa)
#
#
# Indices 1 2 3 4 5 6 
#
# 1 0.015184 -0.003581 -0.003339 0.002840 0.008121 0.003082
# 2 -0.003581 0.005318 -0.003796 0.000282 0.007603 -0.001163
# 3 -0.003339 -0.003796 0.006509 -0.002194 0.010113 -0.002836
# 4 0.002840 0.000282 -0.002194 0.029290 -0.000491 0.003129
# 5 0.008121 0.007603 0.010113 -0.000491 0.008062 0.004357
# 6 0.003082 -0.001163 -0.002836 0.003129 0.004357 0.026136
#
#
# Mechanical properties :
#
#
# Convention : Reuss Voigt Hill
#
# Bulk Modulus (GPa) = 179.22234 -9.81963 84.70135
# Shear Modulus (GPa) = 43.94018 31.30825 37.62422
#
# Velocity S-wave (km/s) = 4.42978 3.73922 4.09907
# Velocity P-wave (km/s) = 10.30541 3.77585 7.76075
#
# Compressibility (1/GPa) = 0.00557966
#
# Stress axis : x y z
#
# Youngs Moduli (GPa) = 65.85759 188.02980 153.63752
#
# Poissons Ratio (x) = 0.67338 0.51292
# Poissons Ratio (y) = 0.23585 0.58322
# Poissons Ratio (z) = 0.21987 0.71378
#
# Static dielectric constant tensor:
#      x y z
#    x 1.958630 -0.014340 0.020410 
#    y -0.014340 2.068860 -0.243410 
#    z 0.020410 -0.243410 2.087690 
# 
# From -- ./inp_files/567072.got.cif
#   From: 2010.05.17/outbox.cif.g08.bks.cpg/sg2_284_cif.got.tgz:567072.got - 2010.06.03 11:33:40.
