data_PCOD9027410
_publ_section_title
;
Structure prediction by ZEFSAII (Michael W. Deem and Ramdas Pophale) SiO2 
 PCOD9027410
Probable space group: P -1
;
_chemical_formula_sum "Si O2"
_cell_formula_units_Z 16
_cell_length_a 9.329254
_cell_length_b 9.339478
_cell_length_c 11.593854
_cell_angle_alpha 106.917606
_cell_angle_beta 62.990834
_cell_angle_gamma 133.471099
_cell_volume 652.790562
_symmetry_space_group_name_H-M "P -1"
_symmetry_group_IT_number 2
_symmetry_cell_setting 'triclinic'
loop_
_space_group_symop_operation_xyz
x,y,z
-x,-y,-z
loop_
_atom_site_type_symbol
_atom_site_label
_atom_site_fract_x
_atom_site_fract_y
_atom_site_fract_z
Si Si1 0.879324 0.083645 0.560146
Si Si2 0.603473 0.937043 0.842604
Si Si3 0.971848 0.070742 0.893044
Si Si4 0.331606 0.581612 0.335600
Si Si5 0.909771 0.181336 0.318145
Si Si6 0.365265 0.514204 0.815280
Si Si7 0.693310 0.492728 0.425140
Si Si8 0.357648 0.030865 0.836905
O O1 0.811682 0.088371 0.457393
O O2 0.069790 0.306204 0.583601
O O3 0.681736 0.952573 0.686064
O O4 0.000000 0.000000 0.500000
O O5 0.460322 0.715021 0.891494
O O6 0.825723 0.074328 0.857731
O O7 0.466562 0.000902 0.889324
O O8 0.177291 0.300946 0.887277
O O9 0.012425 0.936914 0.782949
O O10 0.820353 0.973847 0.037897
O O11 0.441766 0.485165 0.268942
O O12 0.345843 0.635040 0.478019
O O13 0.467078 0.770545 0.249547
O O14 0.099187 0.411197 0.329291
O O15 0.761088 0.138706 0.257080
O O16 0.296705 0.535318 0.720320
O O17 0.500000 0.500000 0.500000
#
# Coordination Sequence:
#
# PCOD9027410 Si02
#       8
#     2   2   2   2   2   2   2   2
#     4  11  19  39  69  96 131 166 225 276 317 400
#     4  12  26  44  67 103 133 177 221 278 336 387
#     4  12  24  46  70  95 134 181 232 264 320 412
#     4  10  22  41  67  99 131 172 221 277 328 392
#     4  11  23  43  69 100 128 175 224 274 328 391
#     4  11  21  39  71  96 125 179 230 269 320 395
#     4   9  18  34  63  99 125 160 221 273 319 382
#     4  12  29  43  64 101 143 175 215 279 340 387
#
# _framework density 24.510158000000001
#
# number of rings (size 3 to 8) (size 9 to 14) (size 15 to 20)
#    0.000    1.000    5.000    2.250    3.500    3.500 
#    0.000    1.250    0.000    0.000    0.000    0.000 
#    0.000    0.000    0.000    0.000    0.000    0.000 
#
# Total GULP energy -89435.849640 kJ/mol
# GULP energy per Si atom -5589.740603 kJ/mol
# Density = 2.445437 g / cm^3
# Si number density = 24.510158 Si / 1000 Ang^3
#
#
#
# Elastic Constant Matrix: (Units=GPa)
#
#
# Indices 1 2 3 4 5 6 
#
# 1 64.7183 11.8581 -16.2496 5.9743 11.9953 3.2571
# 2 11.8581 104.8954 22.3797 -23.0480 -0.3832 25.8565
# 3 -16.2496 22.3797 70.1408 -17.2537 6.2770 10.0519
# 4 5.9743 -23.0480 -17.2537 37.0377 2.5378 3.4546
# 5 11.9953 -0.3832 6.2770 2.5378 43.0259 6.5620
# 6 3.2571 25.8565 10.0519 3.4546 6.5620 34.0921
#
#
#
# Elastic Compliance Matrix: (Units=1/GPa)
#
#
# Indices 1 2 3 4 5 6 
#
# 1 0.018928 -0.004276 0.005395 -0.002904 -0.006132 0.001319
# 2 -0.004276 0.015930 -0.001867 0.010725 0.002922 -0.012772
# 3 0.005395 -0.001867 0.018985 0.007525 -0.004019 -0.004686
# 4 -0.002904 0.010725 0.007525 0.038974 -0.000363 -0.013955
# 5 -0.006132 0.002922 -0.004019 -0.000363 0.026423 -0.005494
# 6 0.001319 -0.012772 -0.004686 -0.013955 -0.005494 0.042747
#
#
# Mechanical properties :
#
#
# Convention : Reuss Voigt Hill
#
# Bulk Modulus (GPa) = 19.10318 30.63677 24.86998
# Shear Modulus (GPa) = 27.63481 37.61556 32.62519
#
# Velocity S-wave (km/s) = 3.36145 3.92177 3.65237
# Velocity P-wave (km/s) = 4.78296 5.74750 5.28727
#
# Compressibility (1/GPa) = 0.05234729
#
# Stress axis : x y z
#
# Youngs Moduli (GPa) = 52.83206 62.77268 52.67406
#
# Poissons Ratio (x) = 0.26844 -0.28417
# Poissons Ratio (y) = 0.22593 0.09832
# Poissons Ratio (z) = -0.28502 0.11717
#
# Static dielectric constant tensor:
#      x y z
#    x 1.992560 -0.030300 0.028870 
#    y -0.030300 1.912640 0.073660 
#    z 0.028870 0.073660 2.015050 
# 
# From -- ./inp_files/382281.got.cif
#   From: 2010.05.17/outbox.cif.g08.bks.cpg/sg2_192_cif.got.tgz:382281.got - 2010.06.03 11:33:40.
