data_PCOD9027678
_publ_section_title
;
Structure prediction by ZEFSAII (Michael W. Deem and Ramdas Pophale) SiO2 
 PCOD9027678
Probable space group: P -1
;
_chemical_formula_sum "Si O2"
_cell_formula_units_Z 14
_cell_length_a 24.259264
_cell_length_b 5.854752
_cell_length_c 17.963182
_cell_angle_alpha 52.527905
_cell_angle_beta 19.366602
_cell_angle_gamma 61.083820
_cell_volume 630.597653
_symmetry_space_group_name_H-M "P -1"
_symmetry_group_IT_number 2
_symmetry_cell_setting 'triclinic'
loop_
_space_group_symop_operation_xyz
x,y,z
-x,-y,-z
loop_
_atom_site_type_symbol
_atom_site_label
_atom_site_fract_x
_atom_site_fract_y
_atom_site_fract_z
Si Si1 0.776156 0.306117 0.040205
Si Si2 0.191050 0.712719 0.687625
Si Si3 0.622513 0.615141 0.708066
Si Si4 0.125002 0.714416 0.596186
Si Si5 0.001315 0.657543 0.549141
Si Si6 0.427750 0.386670 0.532320
Si Si7 0.272253 0.380470 0.262731
O O1 0.597497 0.374020 0.272820
O O2 0.719429 0.945370 0.199277
O O3 0.852080 0.425077 0.838249
O O4 0.938144 0.476753 0.854995
O O5 0.157744 0.693827 0.645668
O O6 0.335059 0.584299 0.564968
O O7 0.266703 0.076731 0.537471
O O8 0.000000 0.500000 0.000000
O O9 0.710781 0.363594 0.630987
O O10 0.646302 0.695387 0.749550
O O11 0.410879 0.486377 0.997816
O O12 0.128917 0.046096 0.497471
O O13 0.000000 0.500000 0.500000
O O14 0.189658 0.636600 0.337933
O O15 0.000000 0.000000 0.500000
O O16 0.500000 0.500000 0.500000
#
# Coordination Sequence:
#
# PCOD9027678 Si02
#       7
#     2   2   2   2   2   2   2
#     4  11  26  47  72 104 143 202 244 310 388 441
#     4  11  25  41  69 107 137 187 246 308 368 442
#     4  10  22  41  68  99 141 183 240 298 366 438
#     4  11  22  44  76 100 145 187 248 307 370 455
#     4  12  28  45  74 109 148 200 251 307 377 466
#     4  11  27  46  73 102 150 194 248 313 377 454
#     4  10  23  42  67 102 140 190 234 300 371 431
#
# _framework density 22.201159000000001
#
# number of rings (size 3 to 8) (size 9 to 14) (size 15 to 20)
#    0.000    1.143    1.429    3.000    8.000    5.714 
#    0.000    0.000    0.000    0.000    0.000    0.000 
#    0.000    0.000    0.000    0.000    0.000    0.000 
#
# Total GULP energy -78070.784095 kJ/mol
# GULP energy per Si atom -5576.484578 kJ/mol
# Density = 2.215063 g / cm^3
# Si number density = 22.201159 Si / 1000 Ang^3
#
#
#
# Elastic Constant Matrix: (Units=GPa)
#
#
# Indices 1 2 3 4 5 6 
#
# 1 111.2412 37.7661 28.9005 -3.5854 7.7604 0.4679
# 2 37.7661 146.8847 55.9782 -8.2074 4.1840 -19.4819
# 3 28.9005 55.9782 124.0110 -5.3005 14.5806 -2.4804
# 4 -3.5854 -8.2074 -5.3005 18.8780 5.0205 -5.9317
# 5 7.7604 4.1840 14.5806 5.0205 34.6592 3.5061
# 6 0.4679 -19.4819 -2.4804 -5.9317 3.5061 30.0862
#
#
#
# Elastic Compliance Matrix: (Units=1/GPa)
#
#
# Indices 1 2 3 4 5 6 
#
# 1 0.010199 -0.002299 -0.001177 0.000527 -0.001438 -0.001473
# 2 -0.002299 0.010058 -0.003533 0.005479 -0.000758 0.007426
# 3 -0.001177 -0.003533 0.010476 0.002067 -0.003962 -0.000536
# 4 0.000527 0.005479 0.002067 0.065143 -0.012912 0.018058
# 5 -0.001438 -0.000758 -0.003962 -0.012912 0.033537 -0.007249
# 6 -0.001473 0.007426 -0.000536 0.018058 -0.007249 0.042430
#
#
# Mechanical properties :
#
#
# Convention : Reuss Voigt Hill
#
# Bulk Modulus (GPa) = 59.81995 69.71405 64.76700
# Shear Modulus (GPa) = 26.11893 34.02416 30.07155
#
# Velocity S-wave (km/s) = 3.43369 3.91901 3.68435
# Velocity P-wave (km/s) = 6.53631 7.20746 6.88007
#
# Compressibility (1/GPa) = 0.01671683
#
# Stress axis : x y z
#
# Youngs Moduli (GPa) = 98.04687 99.42236 95.45392
#
# Poissons Ratio (x) = 0.22854 0.11236
# Poissons Ratio (y) = 0.22538 0.33720
# Poissons Ratio (z) = 0.11541 0.35122
#
# Static dielectric constant tensor:
#      x y z
#    x 1.536370 0.076010 -0.309520 
#    y 0.076010 1.828200 0.021000 
#    z -0.309520 0.021000 1.699600 
# 
# From -- ./inp_files/483015.got.cif
#   From: 2010.05.17/outbox.cif.g08.bks.cpg/sg2_242_cif.got.tgz:483015.got - 2010.06.03 11:33:40.
