data_PCOD9027310
_publ_section_title
;
Structure prediction by ZEFSAII (Michael W. Deem and Ramdas Pophale) SiO2 
 PCOD9027310
Probable space group: P -1
;
_chemical_formula_sum "Si O2"
_cell_formula_units_Z 13
_cell_length_a 13.743368
_cell_length_b 10.090849
_cell_length_c 12.551293
_cell_angle_alpha 118.031640
_cell_angle_beta 158.402045
_cell_angle_gamma 66.977014
_cell_volume 559.889104
_symmetry_space_group_name_H-M "P -1"
_symmetry_group_IT_number 2
_symmetry_cell_setting 'triclinic'
loop_
_space_group_symop_operation_xyz
x,y,z
-x,-y,-z
loop_
_atom_site_type_symbol
_atom_site_label
_atom_site_fract_x
_atom_site_fract_y
_atom_site_fract_z
Si Si1 0.708214 0.302723 0.177970
Si Si2 0.317242 0.649304 0.207656
Si Si3 0.000000 0.500000 0.000000
Si Si4 0.424228 0.036891 0.057280
Si Si5 0.870161 0.841564 0.855542
Si Si6 0.012685 0.800663 0.231631
Si Si7 0.757811 0.551096 0.139020
O O1 0.761067 0.406309 0.166254
O O2 0.946319 0.357645 0.523181
O O3 0.435707 0.341826 0.965774
O O4 0.687338 0.125596 0.066352
O O5 0.280733 0.589990 0.268384
O O6 0.560499 0.785614 0.497803
O O7 0.354421 0.522196 0.112299
O O8 0.036389 0.713576 0.929856
O O9 0.016053 0.621734 0.160514
O O10 0.695417 0.111723 0.416767
O O11 0.197885 0.144764 0.880267
O O12 0.500000 0.000000 0.000000
O O13 0.915015 0.838246 0.027090
O O14 0.000000 0.000000 0.000000
#
# Coordination Sequence:
#
# PCOD9027310 Si02
#       7
#     2   2   1   2   2   2   2
#     4  10  23  41  63  99 132 169 230 270 343 401
#     4  11  24  41  70  98 131 182 223 283 344 402
#     4  10  26  46  70  98 138 180 238 274 340 408
#     4  12  27  43  71 100 137 182 224 280 354 402
#     4  11  25  43  68 102 133 173 228 280 355 406
#     4  11  26  46  69  99 137 180 226 289 334 411
#     4  10  22  41  67  95 131 176 218 286 330 403
#
# _framework density 23.218883000000002
#
# number of rings (size 3 to 8) (size 9 to 14) (size 15 to 20)
#    0.000    1.231    0.000    4.615    8.615    5.538 
#    0.000    0.000    0.000    0.000    0.000    0.000 
#    0.000    0.000    0.000    0.000    0.000    0.000 
#
# Total GULP energy -72509.533142 kJ/mol
# GULP energy per Si atom -5577.656396 kJ/mol
# Density = 2.316604 g / cm^3
# Si number density = 23.218883 Si / 1000 Ang^3
#
#
#
# Elastic Constant Matrix: (Units=GPa)
#
#
# Indices 1 2 3 4 5 6 
#
# 1 45.8503 1.1517 23.3668 9.1592 1.5150 -8.6750
# 2 1.1517 83.7518 31.3111 12.1453 0.2499 -27.8078
# 3 23.3668 31.3111 126.7024 17.1138 9.8708 -6.3929
# 4 9.1592 12.1453 17.1138 37.1296 -4.9176 -3.5252
# 5 1.5150 0.2499 9.8708 -4.9176 30.3191 3.4242
# 6 -8.6750 -27.8078 -6.3929 -3.5252 3.4242 27.7795
#
#
#
# Elastic Compliance Matrix: (Units=1/GPa)
#
#
# Indices 1 2 3 4 5 6 
#
# 1 0.028302 0.007231 -0.005311 -0.005839 -0.002318 0.014399
# 2 0.007231 0.021885 -0.004748 -0.004908 -0.002360 0.022741
# 3 -0.005311 -0.004748 0.010457 -0.002744 -0.003096 -0.003971
# 4 -0.005839 -0.004908 -0.002744 0.031753 0.006848 -0.004182
# 5 -0.002318 -0.002360 -0.003096 0.006848 0.036070 -0.007376
# 6 0.014399 0.022741 -0.003971 -0.004182 -0.007376 0.062723
#
#
# Mechanical properties :
#
#
# Convention : Reuss Voigt Hill
#
# Bulk Modulus (GPa) = 18.18559 40.88484 29.53521
# Shear Modulus (GPa) = 23.23705 32.41063 27.82384
#
# Velocity S-wave (km/s) = 3.16695 3.74019 3.46544
# Velocity P-wave (km/s) = 4.60673 6.02484 5.36287
#
# Compressibility (1/GPa) = 0.05498860
#
# Stress axis : x y z
#
# Youngs Moduli (GPa) = 35.33281 45.69397 95.63312
#
# Poissons Ratio (x) = -0.33040 0.50788
# Poissons Ratio (y) = -0.25548 0.45403
# Poissons Ratio (z) = 0.18764 0.21694
#
# Static dielectric constant tensor:
#      x y z
#    x 1.915270 0.084010 0.009340 
#    y 0.084010 1.957210 -0.021180 
#    z 0.009340 -0.021180 1.821270 
# 
# From -- ./inp_files/425864.got.cif
#   From: 2010.05.17/outbox.cif.g08.bks.cpg/sg2_213_cif.got.tgz:425864.got - 2010.06.03 11:33:40.
