data_PCOD9027001
_publ_section_title
;
Structure prediction by ZEFSAII (Michael W. Deem and Ramdas Pophale) SiO2 
 PCOD9027001
Probable space group: P -1
;
_chemical_formula_sum "Si O2"
_cell_formula_units_Z 15
_cell_length_a 7.027229
_cell_length_b 8.211729
_cell_length_c 20.332931
_cell_angle_alpha 38.023393
_cell_angle_beta 119.405828
_cell_angle_gamma 118.188097
_cell_volume 621.573673
_symmetry_space_group_name_H-M "P -1"
_symmetry_group_IT_number 2
_symmetry_cell_setting 'triclinic'
loop_
_space_group_symop_operation_xyz
x,y,z
-x,-y,-z
loop_
_atom_site_type_symbol
_atom_site_label
_atom_site_fract_x
_atom_site_fract_y
_atom_site_fract_z
Si Si1 0.602101 0.835051 0.674937
Si Si2 0.573101 0.682630 0.252380
Si Si3 0.555143 0.617289 0.543390
Si Si4 0.066319 0.717180 0.728717
Si Si5 0.264129 0.305345 0.119586
Si Si6 0.876347 0.127732 0.880602
Si Si7 0.202698 0.753308 0.882559
Si Si8 0.000000 0.000000 0.500000
O O1 0.417415 0.597578 0.691809
O O2 0.834419 0.786887 0.697664
O O3 0.604621 0.803666 0.763807
O O4 0.562699 0.121795 0.552122
O O5 0.535200 0.601833 0.347736
O O6 0.352161 0.791309 0.157255
O O7 0.761996 0.932545 0.194845
O O8 0.500000 0.500000 0.500000
O O9 0.812717 0.729405 0.563425
O O10 0.025398 0.408125 0.797985
O O11 0.227019 0.735040 0.814176
O O12 0.122868 0.926132 0.613170
O O13 0.048153 0.364417 0.104375
O O14 0.190025 0.078609 0.124454
O O15 0.346416 0.579561 0.006249
O O16 0.000000 0.000000 0.000000
#
# Coordination Sequence:
#
# PCOD9027001 Si02
#       8
#     2   2   2   2   2   2   2   1
#     4  10  23  44  67  93 135 172 215 271 329 396
#     4  11  24  43  63  95 134 172 215 273 331 391
#     4  12  25  46  69  98 135 173 226 278 331 397
#     4  10  22  43  66  97 132 173 218 270 331 396
#     4  10  22  41  66  94 128 172 221 268 327 395
#     4  11  21  42  66  91 133 171 215 273 328 386
#     4  10  22  43  65  94 132 170 219 272 328 395
#     4  12  24  42  72  94 134 172 224 272 332 390
#
# _framework density 24.132294999999999
#
# number of rings (size 3 to 8) (size 9 to 14) (size 15 to 20)
#    0.000    1.333    4.000    2.000    1.867    2.133 
#    4.800    2.000    0.000    0.000    0.000    0.000 
#    0.000    0.000    0.000    0.000    0.000    0.000 
#
# Total GULP energy -83666.660376 kJ/mol
# GULP energy per Si atom -5577.777358 kJ/mol
# Density = 2.407737 g / cm^3
# Si number density = 24.132295 Si / 1000 Ang^3
#
#
#
# Elastic Constant Matrix: (Units=GPa)
#
#
# Indices 1 2 3 4 5 6 
#
# 1 49.8312 -8.3414 16.5528 3.1228 -8.2132 -7.7090
# 2 -8.3414 112.2925 49.9263 9.3105 -4.4670 -19.2258
# 3 16.5528 49.9263 204.1378 5.0936 -19.4267 -1.1395
# 4 3.1228 9.3105 5.0936 45.3880 -2.0622 4.9041
# 5 -8.2132 -4.4670 -19.4267 -2.0622 33.3962 -2.1749
# 6 -7.7090 -19.2258 -1.1395 4.9041 -2.1749 22.6505
#
#
#
# Elastic Compliance Matrix: (Units=1/GPa)
#
#
# Indices 1 2 3 4 5 6 
#
# 1 0.025837 0.006484 -0.002889 -0.004190 0.006302 0.015664
# 2 0.006484 0.014002 -0.003554 -0.004453 0.002107 0.015079
# 3 -0.002889 -0.003554 0.006174 0.000728 0.002214 -0.003635
# 4 -0.004190 -0.004453 0.000728 0.024265 -0.000385 -0.010460
# 5 0.006302 0.002107 0.002214 -0.000385 0.033518 0.007346
# 6 0.015664 0.015079 -0.003635 -0.010460 0.007346 0.065067
#
#
# Mechanical properties :
#
#
# Convention : Reuss Voigt Hill
#
# Bulk Modulus (GPa) = 21.69467 53.61519 37.65493
# Shear Modulus (GPa) = 27.15209 40.82854 33.99031
#
# Velocity S-wave (km/s) = 3.35794 4.11769 3.75707
# Velocity P-wave (km/s) = 4.90344 6.69870 5.87011
#
# Compressibility (1/GPa) = 0.04609427
#
# Stress axis : x y z
#
# Youngs Moduli (GPa) = 38.70369 71.41787 161.95715
#
# Poissons Ratio (x) = -0.46305 0.46790
# Poissons Ratio (y) = -0.25094 0.57567
# Poissons Ratio (z) = 0.11182 0.25385
#
# Static dielectric constant tensor:
#      x y z
#    x 1.946410 -0.010890 0.021840 
#    y -0.010890 1.915600 0.025630 
#    z 0.021840 0.025630 1.910210 
# 
# From -- ./inp_files/177357.got.cif
#   From: 2010.05.17/outbox.cif.g08.bks.cpg/sg2_89_cif.got.tgz:177357.got - 2010.06.03 11:33:40.
