data_PCOD9027227
_publ_section_title
;
Structure prediction by ZEFSAII (Michael W. Deem and Ramdas Pophale) SiO2 
 PCOD9027227
Probable space group: P -1
;
_chemical_formula_sum "Si O2"
_cell_formula_units_Z 12
_cell_length_a 11.997627
_cell_length_b 9.558074
_cell_length_c 8.068533
_cell_angle_alpha 107.105768
_cell_angle_beta 115.027463
_cell_angle_gamma 37.123019
_cell_volume 504.403935
_symmetry_space_group_name_H-M "P -1"
_symmetry_group_IT_number 2
_symmetry_cell_setting 'triclinic'
loop_
_space_group_symop_operation_xyz
x,y,z
-x,-y,-z
loop_
_atom_site_type_symbol
_atom_site_label
_atom_site_fract_x
_atom_site_fract_y
_atom_site_fract_z
Si Si1 0.097514 0.222435 0.186506
Si Si2 0.316939 0.451344 0.909272
Si Si3 0.301794 0.270444 0.504418
Si Si4 0.025907 0.921154 0.755341
Si Si5 0.342352 0.020895 0.943281
Si Si6 0.034721 0.738651 0.351984
O O1 0.141342 0.290602 0.390030
O O2 0.869203 0.443647 0.073159
O O3 0.119572 0.035794 0.202330
O O4 0.236720 0.133436 0.093032
O O5 0.326279 0.339094 0.712422
O O6 0.235924 0.684153 0.883445
O O7 0.520483 0.250157 0.059452
O O8 0.224426 0.461189 0.388194
O O9 0.500000 0.000000 0.500000
O O10 0.025044 0.838727 0.550471
O O11 0.974862 0.134491 0.759028
O O12 0.164148 0.170052 0.757398
O O13 0.500000 0.000000 0.000000
#
# Coordination Sequence:
#
# PCOD9027227 Si02
#       6
#     2   2   2   2   2   2
#     4  10  22  41  67  91 135 171 211 263 326 380
#     4   9  21  41  64  92 131 168 214 252 333 381
#     4  11  20  38  69  93 126 175 213 265 315 385
#     4   8  21  44  68  87 125 187 204 262 321 382
#     4  12  25  38  65 104 130 166 212 277 322 373
#     4  10  22  41  68  95 133 160 228 265 309 389
#
# _framework density 23.790457
#
# number of rings (size 3 to 8) (size 9 to 14) (size 15 to 20)
#    1.000    1.000    1.667    1.500    2.333    4.000 
#    0.000    0.833    3.667    0.000    0.000    0.000 
#    0.000    0.000    0.000    0.000    0.000    0.000 
#
# Total GULP energy -66972.862541 kJ/mol
# GULP energy per Si atom -5581.071878 kJ/mol
# Density = 2.373631 g / cm^3
# Si number density = 23.790457 Si / 1000 Ang^3
#
#
#
# Elastic Constant Matrix: (Units=GPa)
#
#
# Indices 1 2 3 4 5 6 
#
# 1 109.7029 58.1335 -0.1320 -0.9646 -19.4520 15.0598
# 2 58.1335 168.4143 51.5299 -19.6088 -10.0262 14.9278
# 3 -0.1320 51.5299 56.4294 -8.5034 -7.1803 5.8782
# 4 -0.9646 -19.6088 -8.5034 43.5361 3.4623 -3.7250
# 5 -19.4520 -10.0262 -7.1803 3.4623 29.9320 0.1134
# 6 15.0598 14.9278 5.8782 -3.7250 0.1134 38.4512
#
#
#
# Elastic Compliance Matrix: (Units=1/GPa)
#
#
# Indices 1 2 3 4 5 6 
#
# 1 0.015071 -0.006827 0.007618 -0.002419 0.009633 -0.004680
# 2 -0.006827 0.011737 -0.010680 0.003331 -0.003453 0.000083
# 3 0.007618 -0.010680 0.028899 0.000062 0.008311 -0.003274
# 4 -0.002419 0.003331 0.000062 0.024869 -0.003326 0.002064
# 5 0.009633 -0.003453 0.008311 -0.003326 0.040907 -0.004146
# 6 -0.004680 0.000083 -0.003274 0.002064 -0.004146 0.028521
#
#
# Mechanical properties :
#
#
# Convention : Reuss Voigt Hill
#
# Bulk Modulus (GPa) = 27.83135 61.51216 44.67175
# Shear Modulus (GPa) = 27.50904 37.38488 32.44696
#
# Velocity S-wave (km/s) = 3.40414 3.96842 3.69706
# Velocity P-wave (km/s) = 5.21295 6.84907 6.08624
#
# Compressibility (1/GPa) = 0.03593070
#
# Stress axis : x y z
#
# Youngs Moduli (GPa) = 66.35041 85.20222 34.60270
#
# Poissons Ratio (x) = 0.58164 -0.26360
# Poissons Ratio (y) = 0.45295 0.36955
# Poissons Ratio (z) = -0.50545 0.90994
#
# Static dielectric constant tensor:
#      x y z
#    x 1.952710 0.045780 -0.027320 
#    y 0.045780 1.940320 -0.021500 
#    z -0.027320 -0.021500 1.934720 
# 
# From -- ./inp_files/303710.got.cif
#   From: 2010.05.17/outbox.cif.g08.bks.cpg/sg2_152_cif.got.tgz:303710.got - 2010.06.03 11:33:40.
