data_PCOD9027264
_publ_section_title
;
Structure prediction by ZEFSAII (Michael W. Deem and Ramdas Pophale) SiO2 
 PCOD9027264
Probable space group: P -1
;
_chemical_formula_sum "Si O2"
_cell_formula_units_Z 14
_cell_length_a 11.345558
_cell_length_b 10.558236
_cell_length_c 14.348040
_cell_angle_alpha 31.036787
_cell_angle_beta 47.432537
_cell_angle_gamma 68.546804
_cell_volume 539.274996
_symmetry_space_group_name_H-M "P -1"
_symmetry_group_IT_number 2
_symmetry_cell_setting 'triclinic'
loop_
_space_group_symop_operation_xyz
x,y,z
-x,-y,-z
loop_
_atom_site_type_symbol
_atom_site_label
_atom_site_fract_x
_atom_site_fract_y
_atom_site_fract_z
Si Si1 0.684595 0.439511 0.353403
Si Si2 0.946105 0.024989 0.198589
Si Si3 0.561456 0.911171 0.116304
Si Si4 0.094781 0.733650 0.171605
Si Si5 0.073938 0.893821 0.402782
Si Si6 0.675964 0.605787 0.912337
Si Si7 0.623818 0.013407 0.318973
O O1 0.624202 0.675501 0.222521
O O2 0.592791 0.254859 0.613254
O O3 0.588657 0.215821 0.460575
O O4 0.915153 0.622398 0.118740
O O5 0.722730 0.901064 0.403425
O O6 0.990163 0.873490 0.187031
O O7 0.029875 0.007125 0.262161
O O8 0.500000 0.000000 0.000000
O O9 0.748680 0.214250 0.867225
O O10 0.939803 0.396527 0.441551
O O11 0.235976 0.901313 0.901894
O O12 0.878568 0.762176 0.649896
O O13 0.266260 0.149683 0.192399
O O14 0.500000 0.500000 0.000000
O O15 0.643988 0.306041 0.158751
#
# Coordination Sequence:
#
# PCOD9027264 Si02
#       7
#     2   2   2   2   2   2   2
#     4   9  21  39  56  95 137 174 223 274 326 395
#     4  11  22  40  64 102 141 171 214 273 352 411
#     4   9  18  36  61  90 136 189 227 257 321 407
#     4   9  20  40  60 102 137 177 212 266 340 413
#     4  10  23  43  68 100 130 172 233 277 333 409
#     4  10  24  49  70  92 128 178 235 290 334 392
#     4  10  22  41  67  93 135 178 222 276 336 398
#
# _framework density 25.960781999999998
#
# number of rings (size 3 to 8) (size 9 to 14) (size 15 to 20)
#    0.000    2.286    0.000    1.714    2.000    5.143 
#   23.143    4.286    0.000    0.000    0.000    0.000 
#    0.000    0.000    0.000    0.000    0.000    0.000 
#
# Total GULP energy -78336.621165 kJ/mol
# GULP energy per Si atom -5595.472940 kJ/mol
# Density = 2.590169 g / cm^3
# Si number density = 25.960782 Si / 1000 Ang^3
#
#
#
# Elastic Constant Matrix: (Units=GPa)
#
#
# Indices 1 2 3 4 5 6 
#
# 1 183.7909 46.9582 43.7890 -22.8509 -8.4224 29.8028
# 2 46.9582 105.1018 52.3906 -20.2077 -14.4000 22.4762
# 3 43.7890 52.3906 69.9870 -22.4285 -13.7267 20.9760
# 4 -22.8509 -20.2077 -22.4285 52.0711 14.3843 -11.4502
# 5 -8.4224 -14.4000 -13.7267 14.3843 44.9376 -2.6862
# 6 29.8028 22.4762 20.9760 -11.4502 -2.6862 35.1130
#
#
#
# Elastic Compliance Matrix: (Units=1/GPa)
#
#
# Indices 1 2 3 4 5 6 
#
# 1 0.006929 -0.001088 -0.002187 0.000954 -0.000238 -0.003585
# 2 -0.001088 0.015849 -0.009837 0.000312 0.001583 -0.003122
# 3 -0.002187 -0.009837 0.026926 0.004688 0.002792 -0.006189
# 4 0.000954 0.000312 0.004688 0.024165 -0.005808 0.003626
# 5 -0.000238 0.001583 0.002792 -0.005808 0.025282 -0.002439
# 6 -0.003585 -0.003122 -0.006189 0.003626 -0.002439 0.038214
#
#
# Mechanical properties :
#
#
# Convention : Reuss Voigt Hill
#
# Bulk Modulus (GPa) = 42.59141 71.68392 57.13767
# Shear Modulus (GPa) = 29.16879 40.80712 34.98796
#
# Velocity S-wave (km/s) = 3.35561 3.96899 3.67512
# Velocity P-wave (km/s) = 5.60849 6.97683 6.32974
#
# Compressibility (1/GPa) = 0.02347891
#
# Stress axis : x y z
#
# Youngs Moduli (GPa) = 144.31767 63.09624 37.13925
#
# Poissons Ratio (x) = 0.06865 0.08124
# Poissons Ratio (y) = 0.15702 0.36534
# Poissons Ratio (z) = 0.31568 0.62068
#
# Static dielectric constant tensor:
#      x y z
#    x 2.076170 0.012970 0.032140 
#    y 0.012970 2.064340 0.044280 
#    z 0.032140 0.044280 2.100020 
# 
# From -- ./inp_files/519473.got.cif
#   From: 2010.05.17/outbox.cif.g08.bks.cpg/sg2_260_cif.got.tgz:519473.got - 2010.06.03 11:33:40.
