data_PCOD9027051
_publ_section_title
;
Structure prediction by ZEFSAII (Michael W. Deem and Ramdas Pophale) SiO2 
 PCOD9027051
Probable space group: P -1
;
_chemical_formula_sum "Si O2"
_cell_formula_units_Z 16
_cell_length_a 9.004515
_cell_length_b 9.588472
_cell_length_c 15.892444
_cell_angle_alpha 100.446552
_cell_angle_beta 111.586822
_cell_angle_gamma 133.179622
_cell_volume 715.912577
_symmetry_space_group_name_H-M "P -1"
_symmetry_group_IT_number 2
_symmetry_cell_setting 'triclinic'
loop_
_space_group_symop_operation_xyz
x,y,z
-x,-y,-z
loop_
_atom_site_type_symbol
_atom_site_label
_atom_site_fract_x
_atom_site_fract_y
_atom_site_fract_z
Si Si1 0.547457 0.497592 0.106922
Si Si2 0.220879 0.544070 0.516842
Si Si3 0.093087 0.907243 0.505720
Si Si4 0.181753 0.898641 0.331621
Si Si5 0.688563 0.302265 0.749903
Si Si6 0.420909 0.709221 0.100447
Si Si7 0.413967 0.779951 0.924005
Si Si8 0.941113 0.285436 0.252929
O O1 0.422680 0.552341 0.123364
O O2 0.430896 0.253633 0.073906
O O3 0.500000 0.500000 0.000000
O O4 0.877392 0.731772 0.222183
O O5 0.542154 0.823255 0.614937
O O6 0.000000 0.500000 0.500000
O O7 0.166049 0.371236 0.545411
O O8 0.128257 0.437954 0.391007
O O9 0.184182 0.917397 0.434665
O O10 0.359983 0.081399 0.640265
O O11 0.000000 0.000000 0.500000
O O12 0.217706 0.765723 0.291271
O O13 0.716792 0.301379 0.855186
O O14 0.865978 0.559623 0.773160
O O15 0.738538 0.001243 0.185100
O O16 0.290163 0.631265 0.971611
O O17 0.257642 0.720819 0.801237
O O18 0.500000 0.000000 0.000000
#
# Coordination Sequence:
#
# PCOD9027051 Si02
#       8
#     2   2   2   2   2   2   2   2
#     4  10  22  44  69  97 134 177 218 287 341 388
#     4  12  24  41  67 101 137 178 229 276 332 410
#     4  12  26  42  66 101 139 179 221 280 341 399
#     4  12  24  42  71  98 138 181 226 275 338 407
#     4  12  22  40  67  99 132 180 226 272 332 405
#     4  10  22  41  66  95 136 171 226 280 336 390
#     4   9  20  39  69  95 123 179 219 270 335 392
#     4  11  21  39  65  94 134 172 225 272 325 399
#
# _framework density 22.349098000000001
#
# number of rings (size 3 to 8) (size 9 to 14) (size 15 to 20)
#    0.000    1.000    5.000    1.875    0.000    2.000 
#    0.000    0.000    0.000    5.250    0.000    0.000 
#    0.000    0.000    0.000    0.000    0.000    0.000 
#
# Total GULP energy -89144.008860 kJ/mol
# GULP energy per Si atom -5571.500554 kJ/mol
# Density = 2.229823 g / cm^3
# Si number density = 22.349098 Si / 1000 Ang^3
#
#
#
# Elastic Constant Matrix: (Units=GPa)
#
#
# Indices 1 2 3 4 5 6 
#
# 1 67.2346 32.2295 7.4579 -8.2548 -10.2147 -24.3888
# 2 32.2295 130.5461 1.0068 10.9003 -15.9422 -10.7879
# 3 7.4579 1.0068 51.6452 2.4810 -6.1037 5.9252
# 4 -8.2548 10.9003 2.4810 31.3719 2.7091 -4.3718
# 5 -10.2147 -15.9422 -6.1037 2.7091 32.2195 -6.0677
# 6 -24.3888 -10.7879 5.9252 -4.3718 -6.0677 49.2777
#
#
#
# Elastic Compliance Matrix: (Units=1/GPa)
#
#
# Indices 1 2 3 4 5 6 
#
# 1 0.024874 -0.005081 -0.004788 0.010028 0.006149 0.013421
# 2 -0.005081 0.009763 0.001306 -0.005235 0.003807 -0.000530
# 3 -0.004788 0.001306 0.021077 -0.004256 0.002598 -0.004676
# 4 0.010028 -0.005235 -0.004256 0.037880 -0.002001 0.007443
# 5 0.006149 0.003807 0.002598 -0.002001 0.037027 0.007946
# 6 0.013421 -0.000530 -0.004676 0.007443 0.007946 0.029020
#
#
# Mechanical properties :
#
#
# Convention : Reuss Voigt Hill
#
# Bulk Modulus (GPa) = 25.91560 36.75716 31.33638
# Shear Modulus (GPa) = 26.36714 36.48927 31.42820
#
# Velocity S-wave (km/s) = 3.43853 4.04505 3.75406
# Velocity P-wave (km/s) = 5.23313 6.18862 5.73082
#
# Compressibility (1/GPa) = 0.03858679
#
# Stress axis : x y z
#
# Youngs Moduli (GPa) = 40.20289 102.42947 47.44552
#
# Poissons Ratio (x) = 0.52048 0.22716
# Poissons Ratio (y) = 0.20429 -0.06195
# Poissons Ratio (z) = 0.19248 -0.13375
#
# Static dielectric constant tensor:
#      x y z
#    x 1.983270 -0.048580 -0.040440 
#    y -0.048580 1.962850 0.173740 
#    z -0.040440 0.173740 2.020890 
# 
# From -- ./inp_files/493411.got.cif
#   From: 2010.05.17/outbox.cif.g08.bks.cpg/sg2_247_cif.got.tgz:493411.got - 2010.06.03 11:33:40.
