data_PCOD9027587
_publ_section_title
;
Structure prediction by ZEFSAII (Michael W. Deem and Ramdas Pophale) SiO2 
 PCOD9027587
Probable space group: P -1
;
_chemical_formula_sum "Si O2"
_cell_formula_units_Z 16
_cell_length_a 11.661470
_cell_length_b 9.045572
_cell_length_c 7.772375
_cell_angle_alpha 129.361606
_cell_angle_beta 93.663362
_cell_angle_gamma 88.458063
_cell_volume 632.493147
_symmetry_space_group_name_H-M "P -1"
_symmetry_group_IT_number 2
_symmetry_cell_setting 'triclinic'
loop_
_space_group_symop_operation_xyz
x,y,z
-x,-y,-z
loop_
_atom_site_type_symbol
_atom_site_label
_atom_site_fract_x
_atom_site_fract_y
_atom_site_fract_z
Si Si1 0.718599 0.226540 0.475163
Si Si2 0.818237 0.615465 0.123344
Si Si3 0.083037 0.841226 0.955479
Si Si4 0.616376 0.827282 0.061959
Si Si5 0.726104 0.890672 0.786385
Si Si6 0.413407 0.859732 0.288679
Si Si7 0.190625 0.498174 0.595150
Si Si8 0.934894 0.256417 0.719692
O O1 0.653065 0.277518 0.685677
O O2 0.734146 0.392660 0.460779
O O3 0.847368 0.166335 0.505847
O O4 0.642463 0.050632 0.268617
O O5 0.721712 0.725176 0.092605
O O6 0.764155 0.512727 0.210895
O O7 0.929269 0.734681 0.297615
O O8 0.882837 0.469700 0.894258
O O9 0.075427 0.825831 0.149255
O O10 0.205909 0.934912 0.989463
O O11 0.080216 0.632398 0.714926
O O12 0.000000 0.000000 0.000000
O O13 0.492985 0.767624 0.082649
O O14 0.629702 0.809393 0.845715
O O15 0.811731 0.720036 0.627396
O O16 0.674910 0.990971 0.689857
O O17 0.500000 0.000000 0.500000
#
# Coordination Sequence:
#
# PCOD9027587 Si02
#       8
#     2   2   2   2   2   2   2   2
#     4  11  22  41  67 102 136 179 233 284 339 419
#     4  10  23  43  65  99 137 181 226 289 344 416
#     4  11  24  43  69 105 138 181 231 282 343 423
#     4  11  23  44  70  99 138 181 235 286 349 410
#     4  12  23  46  71  98 139 187 223 290 352 399
#     4  10  23  44  72 101 135 182 237 289 347 409
#     4  11  25  43  67 102 143 176 234 281 340 421
#     4  10  22  41  68  95 138 178 232 281 350 413
#
# _framework density 25.296714999999999
#
# number of rings (size 3 to 8) (size 9 to 14) (size 15 to 20)
#    0.000    1.250    2.500    3.375    0.000    4.500 
#    0.000    8.125    5.500    0.000    0.000    0.000 
#    0.000    0.000    0.000    0.000    0.000    0.000 
#
# Total GULP energy -89433.575584 kJ/mol
# GULP energy per Si atom -5589.598474 kJ/mol
# Density = 2.523914 g / cm^3
# Si number density = 25.296715 Si / 1000 Ang^3
#
#
#
# Elastic Constant Matrix: (Units=GPa)
#
#
# Indices 1 2 3 4 5 6 
#
# 1 94.0725 43.7293 8.1011 -1.0355 -6.7621 14.4950
# 2 43.7293 113.2319 22.2161 -15.9218 -30.2645 23.7496
# 3 8.1011 22.2161 78.4426 7.5771 -9.1559 3.5908
# 4 -1.0355 -15.9218 7.5771 35.9301 5.0269 -21.6309
# 5 -6.7621 -30.2645 -9.1559 5.0269 31.8756 -12.9897
# 6 14.4950 23.7496 3.5908 -21.6309 -12.9897 32.6197
#
#
#
# Elastic Compliance Matrix: (Units=1/GPa)
#
#
# Indices 1 2 3 4 5 6 
#
# 1 0.014327 -0.006209 0.000752 -0.006923 -0.005019 -0.008518
# 2 -0.006209 0.015805 -0.003026 0.005986 0.012013 0.000338
# 3 0.000752 -0.003026 0.014476 -0.006845 0.000939 -0.003890
# 4 -0.006923 0.005986 -0.006845 0.053889 0.009665 0.039056
# 5 -0.005019 0.012013 0.000939 0.009665 0.048194 0.018981
# 6 -0.008518 0.000338 -0.003890 0.039056 0.018981 0.068081
#
#
# Mechanical properties :
#
#
# Convention : Reuss Voigt Hill
#
# Bulk Modulus (GPa) = 36.17816 48.20443 42.19129
# Shear Modulus (GPa) = 20.75100 34.19844 27.47472
#
# Velocity S-wave (km/s) = 2.86720 3.68080 3.29918
# Velocity P-wave (km/s) = 5.02928 6.09601 5.58816
#
# Compressibility (1/GPa) = 0.02764098
#
# Stress axis : x y z
#
# Youngs Moduli (GPa) = 69.79818 63.27278 69.07749
#
# Poissons Ratio (x) = 0.39285 -0.05192
# Poissons Ratio (y) = 0.43336 0.20905
# Poissons Ratio (z) = -0.05246 0.19149
#
# Static dielectric constant tensor:
#      x y z
#    x 1.981920 0.051910 -0.032470 
#    y 0.051910 1.973620 -0.025270 
#    z -0.032470 -0.025270 2.079580 
# 
# From -- ./inp_files/187894.got.cif
#   From: 2010.05.17/outbox.cif.g08.bks.cpg/sg2_94_cif.got.tgz:187894.got - 2010.06.03 11:33:40.
