data_PCOD9027262
_publ_section_title
;
Structure prediction by ZEFSAII (Michael W. Deem and Ramdas Pophale) SiO2 
 PCOD9027262
Probable space group: P -1
;
_chemical_formula_sum "Si O2"
_cell_formula_units_Z 16
_cell_length_a 8.967385
_cell_length_b 23.674678
_cell_length_c 9.084382
_cell_angle_alpha 135.068592
_cell_angle_beta 87.958605
_cell_angle_gamma 128.413366
_cell_volume 728.853093
_symmetry_space_group_name_H-M "P -1"
_symmetry_group_IT_number 2
_symmetry_cell_setting 'triclinic'
loop_
_space_group_symop_operation_xyz
x,y,z
-x,-y,-z
loop_
_atom_site_type_symbol
_atom_site_label
_atom_site_fract_x
_atom_site_fract_y
_atom_site_fract_z
Si Si1 0.767632 0.719189 0.297503
Si Si2 0.962172 0.458785 0.252193
Si Si3 0.632848 0.481432 0.807130
Si Si4 0.116053 0.177604 0.834445
Si Si5 0.735368 0.256195 0.318264
Si Si6 0.430868 0.166685 0.862065
Si Si7 0.166016 0.992183 0.993425
Si Si8 0.053830 0.239073 0.220043
O O1 0.506815 0.620432 0.230500
O O2 0.740688 0.740145 0.173911
O O3 0.040250 0.880147 0.660367
O O4 0.788660 0.632716 0.128233
O O5 0.181537 0.493777 0.248983
O O6 0.027568 0.568527 0.361248
O O7 0.000000 0.500000 0.500000
O O8 0.657577 0.282126 0.938970
O O9 0.361158 0.384166 0.544332
O O10 0.298307 0.194307 0.945139
O O11 0.818030 0.003224 0.490971
O O12 0.080391 0.240769 0.047854
O O13 0.873591 0.232382 0.263543
O O14 0.575066 0.199935 0.065606
O O15 0.493994 0.153125 0.257957
O O16 0.085920 0.905727 0.981069
O O17 0.000000 0.000000 0.000000
#
# Coordination Sequence:
#
# PCOD9027262 Si02
#       8
#     2   2   2   2   2   2   2   2
#     4  10  23  41  74  92 133 175 224 276 329 403
#     4  10  22  41  67  93 134 175 221 277 332 396
#     4  10  23  46  66 100 133 180 224 270 344 401
#     4  11  23  42  69  96 130 175 227 277 338 400
#     4  11  22  41  63  97 134 174 222 279 331 392
#     4  10  23  41  63  93 131 170 224 276 334 397
#     4  11  22  44  71  94 134 181 224 273 334 406
#     4  11  25  38  68 102 130 176 228 275 331 398
#
# _framework density 21.952297000000002
#
# number of rings (size 3 to 8) (size 9 to 14) (size 15 to 20)
#    0.000    1.500    1.250    4.125    7.000    2.000 
#    0.000    1.875    0.000    0.000    0.000    0.000 
#    0.000    0.000    0.000    0.000    0.000    0.000 
#
# Total GULP energy -89469.075004 kJ/mol
# GULP energy per Si atom -5591.817188 kJ/mol
# Density = 2.190233 g / cm^3
# Si number density = 21.952297 Si / 1000 Ang^3
#
#
#
# Elastic Constant Matrix: (Units=GPa)
#
#
# Indices 1 2 3 4 5 6 
#
# 1 101.3537 43.5820 9.4043 9.0493 -2.0804 24.6238
# 2 43.5820 108.6803 37.9816 13.1900 -2.9240 22.2364
# 3 9.4043 37.9816 53.4247 16.1247 -8.6220 7.4604
# 4 9.0493 13.1900 16.1247 36.9403 2.2833 -1.8543
# 5 -2.0804 -2.9240 -8.6220 2.2833 22.8243 -4.0256
# 6 24.6238 22.2364 7.4604 -1.8543 -4.0256 37.5248
#
#
#
# Elastic Compliance Matrix: (Units=1/GPa)
#
#
# Indices 1 2 3 4 5 6 
#
# 1 0.013572 -0.004685 0.003066 -0.003390 0.000934 -0.006807
# 2 -0.004685 0.015386 -0.009978 -0.000026 -0.002995 -0.004382
# 3 0.003066 -0.009978 0.030790 -0.011417 0.011501 -0.001551
# 4 -0.003390 -0.000026 -0.011417 0.033600 -0.007031 0.005415
# 5 0.000934 -0.002995 0.011501 -0.007031 0.049234 0.003810
# 6 -0.006807 -0.004382 -0.001551 0.005415 0.003810 0.034697
#
#
# Mechanical properties :
#
#
# Convention : Reuss Voigt Hill
#
# Bulk Modulus (GPa) = 27.35592 49.48829 38.42210
# Shear Modulus (GPa) = 23.51190 30.95728 27.23459
#
# Velocity S-wave (km/s) = 3.27623 3.75935 3.52607
# Velocity P-wave (km/s) = 5.17689 6.43709 5.84107
#
# Compressibility (1/GPa) = 0.03655516
#
# Stress axis : x y z
#
# Youngs Moduli (GPa) = 73.68181 64.99396 32.47770
#
# Poissons Ratio (x) = 0.30448 -0.09957
# Poissons Ratio (y) = 0.34518 0.32405
# Poissons Ratio (z) = -0.22589 0.64848
#
# Static dielectric constant tensor:
#      x y z
#    x 1.769280 -0.014100 -0.001260 
#    y -0.014100 1.855550 -0.008950 
#    z -0.001260 -0.008950 1.815950 
# 
# From -- ./inp_files/226652.got.cif
#   From: 2010.05.17/outbox.cif.g08.bks.cpg/sg2_114_cif.got.tgz:226652.got - 2010.06.03 11:33:40.
