data_PCOD9027599
_publ_section_title
;
Structure prediction by ZEFSAII (Michael W. Deem and Ramdas Pophale) SiO2 
 PCOD9027599
Probable space group: P -1
;
_chemical_formula_sum "Si O2"
_cell_formula_units_Z 16
_cell_length_a 11.788558
_cell_length_b 9.264378
_cell_length_c 19.964849
_cell_angle_alpha 48.788877
_cell_angle_beta 150.529124
_cell_angle_gamma 142.432810
_cell_volume 650.478736
_symmetry_space_group_name_H-M "P -1"
_symmetry_group_IT_number 2
_symmetry_cell_setting 'triclinic'
loop_
_space_group_symop_operation_xyz
x,y,z
-x,-y,-z
loop_
_atom_site_type_symbol
_atom_site_label
_atom_site_fract_x
_atom_site_fract_y
_atom_site_fract_z
Si Si1 0.721486 0.793534 0.462401
Si Si2 0.451862 0.215175 0.991086
Si Si3 0.582474 0.230944 0.913033
Si Si4 0.028671 0.455281 0.357898
Si Si5 0.531702 0.094570 0.302782
Si Si6 0.483317 0.785701 0.592381
Si Si7 0.075599 0.256471 0.879008
Si Si8 0.771068 0.559466 0.784814
O O1 0.431972 0.618050 0.324376
O O2 0.832460 0.639635 0.589097
O O3 0.647277 0.936668 0.426589
O O4 0.000000 0.000000 0.500000
O O5 0.216282 0.149713 0.945076
O O6 0.525338 0.025843 0.092927
O O7 0.388524 0.203821 0.882992
O O8 0.695021 0.494195 0.043963
O O9 0.900704 0.346634 0.072272
O O10 0.623809 0.402948 0.823809
O O11 0.712335 0.257830 0.282683
O O12 0.040374 0.662793 0.264427
O O13 0.214040 0.548484 0.492166
O O14 0.550985 0.217750 0.344514
O O15 0.199088 0.930086 0.162257
O O16 0.744026 0.775155 0.709659
O O17 0.500000 0.000000 0.500000
#
# Coordination Sequence:
#
# PCOD9027599 Si02
#       8
#     2   2   2   2   2   2   2   2
#     4   9  21  40  61  96 130 164 216 262 321 394
#     4  10  24  43  61  94 128 171 220 278 329 376
#     4  10  22  43  66  94 127 175 224 269 324 385
#     4  10  23  41  63  95 132 172 213 265 330 398
#     4  11  22  40  66  92 127 175 212 261 330 393
#     4  11  22  42  64 100 136 168 215 271 326 397
#     4  11  23  43  64  94 135 166 218 278 329 386
#     4  10  22  41  68  96 130 171 222 268 323 397
#
# _framework density 24.597266000000001
#
# number of rings (size 3 to 8) (size 9 to 14) (size 15 to 20)
#    0.000    1.750    1.250    1.875    5.250    0.500 
#    2.250    1.250    0.000    0.000    0.000    0.000 
#    0.000    0.000    0.000    0.000    0.000    0.000 
#
# Total GULP energy -89487.091223 kJ/mol
# GULP energy per Si atom -5592.943201 kJ/mol
# Density = 2.454128 g / cm^3
# Si number density = 24.597266 Si / 1000 Ang^3
#
#
#
# Elastic Constant Matrix: (Units=GPa)
#
#
# Indices 1 2 3 4 5 6 
#
# 1 105.5808 34.9664 26.6951 8.6126 23.7979 -6.0832
# 2 34.9664 76.6775 16.4355 10.3016 7.3437 -2.2543
# 3 26.6951 16.4355 55.2286 4.1254 4.3211 1.4709
# 4 8.6126 10.3016 4.1254 35.9778 9.0854 5.0342
# 5 23.7979 7.3437 4.3211 9.0854 24.8955 -0.7122
# 6 -6.0832 -2.2543 1.4709 5.0342 -0.7122 49.7662
#
#
#
# Elastic Compliance Matrix: (Units=1/GPa)
#
#
# Indices 1 2 3 4 5 6 
#
# 1 0.015149 -0.004745 -0.005058 0.001296 -0.012634 0.001474
# 2 -0.004745 0.016072 -0.002353 -0.003676 0.001562 0.000612
# 3 -0.005058 -0.002353 0.021184 -0.000916 0.002151 -0.001228
# 4 0.001296 -0.003676 -0.000916 0.032099 -0.011807 -0.003397
# 5 -0.012634 0.001562 0.002151 -0.011807 0.055733 0.000455
# 6 0.001474 0.000612 -0.001228 -0.003397 0.000455 0.020688
#
#
# Mechanical properties :
#
#
# Convention : Reuss Voigt Hill
#
# Bulk Modulus (GPa) = 35.59577 43.74233 39.66905
# Shear Modulus (GPa) = 25.69353 32.75390 29.22372
#
# Velocity S-wave (km/s) = 3.23549 3.65308 3.45060
# Velocity P-wave (km/s) = 5.33485 5.96786 5.66021
#
# Compressibility (1/GPa) = 0.02809323
#
# Stress axis : x y z
#
# Youngs Moduli (GPa) = 66.01309 62.21988 47.20450
#
# Poissons Ratio (x) = 0.29521 0.23875
# Poissons Ratio (y) = 0.31321 0.11109
# Poissons Ratio (z) = 0.33388 0.14643
#
# Static dielectric constant tensor:
#      x y z
#    x 1.907290 -0.010340 0.013000 
#    y -0.010340 1.991970 0.042740 
#    z 0.013000 0.042740 1.997370 
# 
# From -- ./inp_files/399720.got.cif
#   From: 2010.05.17/outbox.cif.g08.bks.cpg/sg2_200_cif.got.tgz:399720.got - 2010.06.03 11:33:40.
