data_PCOD9027132
_publ_section_title
;
Structure prediction by ZEFSAII (Michael W. Deem and Ramdas Pophale) SiO2 
 PCOD9027132
Probable space group: P -1
;
_chemical_formula_sum "Si O2"
_cell_formula_units_Z 16
_cell_length_a 11.917723
_cell_length_b 9.026001
_cell_length_c 11.506058
_cell_angle_alpha 63.568368
_cell_angle_beta 126.790792
_cell_angle_gamma 80.543126
_cell_volume 709.478729
_symmetry_space_group_name_H-M "P -1"
_symmetry_group_IT_number 2
_symmetry_cell_setting 'triclinic'
loop_
_space_group_symop_operation_xyz
x,y,z
-x,-y,-z
loop_
_atom_site_type_symbol
_atom_site_label
_atom_site_fract_x
_atom_site_fract_y
_atom_site_fract_z
Si Si1 0.579316 0.761051 0.648378
Si Si2 0.600700 0.592080 0.486476
Si Si3 0.684976 0.123827 0.962630
Si Si4 0.118442 0.366464 0.735230
Si Si5 0.017510 0.883669 0.935882
Si Si6 0.583456 0.576567 0.110958
Si Si7 0.911107 0.604532 0.032613
Si Si8 0.258519 0.738166 0.493777
O O1 0.666467 0.644829 0.620105
O O2 0.718372 0.665791 0.871401
O O3 0.427139 0.736352 0.584264
O O4 0.500000 0.000000 0.500000
O O5 0.500000 0.500000 0.500000
O O6 0.738745 0.411658 0.547632
O O7 0.461777 0.799645 0.255353
O O8 0.787035 0.218590 0.951742
O O9 0.814647 0.874155 0.143510
O O10 0.573695 0.248804 0.963724
O O11 0.298854 0.344636 0.865951
O O12 0.000000 0.500000 0.500000
O O13 0.029846 0.467377 0.772284
O O14 0.920486 0.792021 0.953699
O O15 0.905286 0.031736 0.708368
O O16 0.000000 0.000000 0.000000
O O17 0.725032 0.364084 0.340618
O O18 0.500000 0.500000 0.000000
O O19 0.000000 0.500000 0.000000
#
# Coordination Sequence:
#
# PCOD9027132 Si02
#       8
#     2   2   2   2   2   2   2   2
#     4  11  20  39  60 102 142 171 225 292 362 413
#     4   9  20  35  66  97 132 175 224 283 351 420
#     4  11  24  45  75 100 143 192 246 291 353 444
#     4  12  27  53  73 103 147 202 248 284 354 448
#     4  12  23  42  69 104 142 180 232 297 369 424
#     4  11  26  47  74 101 141 193 244 300 355 428
#     4  12  29  42  71 108 146 180 233 313 364 412
#     4  10  22  41  66  98 133 186 231 285 351 435
#
# _framework density 22.551770000000001
#
# number of rings (size 3 to 8) (size 9 to 14) (size 15 to 20)
#    0.000    1.000    2.500    4.125    8.750    1.000 
#    2.250    1.250    0.000    0.000    0.000    0.000 
#    0.000    0.000    0.000    0.000    0.000    0.000 
#
# Total GULP energy -89168.183512 kJ/mol
# GULP energy per Si atom -5573.011469 kJ/mol
# Density = 2.250044 g / cm^3
# Si number density = 22.551770 Si / 1000 Ang^3
#
#
#
# Elastic Constant Matrix: (Units=GPa)
#
#
# Indices 1 2 3 4 5 6 
#
# 1 88.3091 21.6767 16.3066 16.3494 8.5310 -3.5344
# 2 21.6767 108.7608 35.8957 31.5029 -6.4768 7.1244
# 3 16.3066 35.8957 124.1839 17.4861 -16.5006 -8.0194
# 4 16.3494 31.5029 17.4861 39.2339 5.0473 -2.0473
# 5 8.5310 -6.4768 -16.5006 5.0473 35.8147 9.6463
# 6 -3.5344 7.1244 -8.0194 -2.0473 9.6463 33.9688
#
#
#
# Elastic Compliance Matrix: (Units=1/GPa)
#
#
# Indices 1 2 3 4 5 6 
#
# 1 0.013013 -0.001819 -0.001202 -0.002747 -0.004268 0.002498
# 2 -0.001819 0.013919 -0.002008 -0.010463 0.005018 -0.005638
# 3 -0.001202 -0.002008 0.009866 -0.002808 0.004551 0.001164
# 4 -0.002747 -0.010463 -0.002808 0.037839 -0.009544 0.006236
# 5 -0.004268 0.005018 0.004551 -0.009544 0.036335 -0.011316
# 6 0.002498 -0.005638 0.001164 0.006236 -0.011316 0.034745
#
#
# Mechanical properties :
#
#
# Convention : Reuss Voigt Hill
#
# Bulk Modulus (GPa) = 37.39839 52.11242 44.75541
# Shear Modulus (GPa) = 30.36025 38.29514 34.32769
#
# Velocity S-wave (km/s) = 3.67310 4.12527 3.90574
# Velocity P-wave (km/s) = 5.88288 6.77116 6.34259
#
# Compressibility (1/GPa) = 0.02673912
#
# Stress axis : x y z
#
# Youngs Moduli (GPa) = 76.84490 71.84648 101.35547
#
# Poissons Ratio (x) = 0.13069 0.12183
# Poissons Ratio (y) = 0.13978 0.20357
# Poissons Ratio (z) = 0.09236 0.14430
#
# Static dielectric constant tensor:
#      x y z
#    x 1.980230 -0.041330 0.043710 
#    y -0.041330 1.808050 -0.023220 
#    z 0.043710 -0.023220 1.899430 
# 
# From -- ./inp_files/419212.got.cif
#   From: 2010.05.17/outbox.cif.g08.bks.cpg/sg2_210_cif.got.tgz:419212.got - 2010.06.03 11:33:40.
