data_PCOD9027163
_publ_section_title
;
Structure prediction by ZEFSAII (Michael W. Deem and Ramdas Pophale) SiO2 
 PCOD9027163
Probable space group: P -1
;
_chemical_formula_sum "Si O2"
_cell_formula_units_Z 16
_cell_length_a 14.717903
_cell_length_b 16.842718
_cell_length_c 5.214885
_cell_angle_alpha 62.660752
_cell_angle_beta 64.462293
_cell_angle_gamma 28.261708
_cell_volume 542.642505
_symmetry_space_group_name_H-M "P -1"
_symmetry_group_IT_number 2
_symmetry_cell_setting 'triclinic'
loop_
_space_group_symop_operation_xyz
x,y,z
-x,-y,-z
loop_
_atom_site_type_symbol
_atom_site_label
_atom_site_fract_x
_atom_site_fract_y
_atom_site_fract_z
Si Si1 0.113816 0.808720 0.121828
Si Si2 0.809010 0.582067 0.189775
Si Si3 0.710290 0.040735 0.452088
Si Si4 0.419562 0.962010 0.898021
Si Si5 0.570649 0.597142 0.620703
Si Si6 0.250698 0.735977 0.557074
Si Si7 0.103990 0.334036 0.749696
Si Si8 0.804852 0.408489 0.993293
O O1 0.221779 0.786946 0.228539
O O2 0.234643 0.626436 0.168774
O O3 0.914326 0.921497 0.285516
O O4 0.108520 0.863498 0.776373
O O5 0.720695 0.549627 0.354055
O O6 0.001404 0.420173 0.030210
O O7 0.642038 0.771912 0.990505
O O8 0.863305 0.579570 0.413338
O O9 0.622236 0.060095 0.278517
O O10 0.616755 0.194470 0.485183
O O11 0.701256 0.976306 0.791837
O O12 0.322072 0.134202 0.724159
O O13 0.459050 0.596791 0.624295
O O14 0.604331 0.602818 0.881699
O O15 0.192785 0.673256 0.692804
O O16 0.982049 0.336522 0.819349
#
# Coordination Sequence:
#
# PCOD9027163 Si02
#       8
#     2   2   2   2   2   2   2   2
#     4  10  22  41  67 100 133 177 246 271 348 425
#     4  10  26  43  72 111 141 186 242 284 365 418
#     4  11  23  43  69 105 139 188 233 288 358 419
#     4  11  23  46  73 103 145 187 235 292 351 419
#     4  11  25  43  66 102 150 179 231 307 340 424
#     4  10  24  42  70 102 132 190 233 285 354 415
#     4  11  22  46  75 104 144 190 232 299 349 425
#     4  10  23  41  68 100 132 186 234 283 349 416
#
# _framework density 29.485344000000001
#
# number of rings (size 3 to 8) (size 9 to 14) (size 15 to 20)
#    0.750    0.750    1.250    3.000    3.500    5.000 
#    0.000    8.125    0.000    0.000    0.000    0.000 
#    0.000    0.000    0.000    0.000    0.000    0.000 
#
# Total GULP energy -89089.369680 kJ/mol
# GULP energy per Si atom -5568.085605 kJ/mol
# Density = 2.941823 g / cm^3
# Si number density = 29.485344 Si / 1000 Ang^3
#
#
#
# Elastic Constant Matrix: (Units=GPa)
#
#
# Indices 1 2 3 4 5 6 
#
# 1 188.4488 33.2503 28.1792 -3.3996 17.2287 -11.5293
# 2 33.2503 267.1439 56.1853 -76.0933 -13.3139 23.9563
# 3 28.1792 56.1853 130.1997 -24.1503 19.4478 -2.7596
# 4 -3.3996 -76.0933 -24.1503 96.1221 -4.0438 -19.4811
# 5 17.2287 -13.3139 19.4478 -4.0438 55.8164 -1.6093
# 6 -11.5293 23.9563 -2.7596 -19.4811 -1.6093 54.8024
#
#
#
# Elastic Compliance Matrix: (Units=1/GPa)
#
#
# Indices 1 2 3 4 5 6 
#
# 1 0.005808 -0.000941 -0.000647 -0.000500 -0.001788 0.001370
# 2 -0.000941 0.005570 -0.001912 0.003733 0.002517 -0.001328
# 3 -0.000647 -0.001912 0.009362 0.000959 -0.003408 0.001412
# 4 -0.000500 0.003733 0.000959 0.014363 0.001851 0.003472
# 5 -0.001788 0.002517 -0.003408 0.001851 0.020379 -0.000392
# 6 0.001370 -0.001328 0.001412 0.003472 -0.000392 0.020410
#
#
# Mechanical properties :
#
#
# Convention : Reuss Voigt Hill
#
# Bulk Modulus (GPa) = 72.78161 91.22467 82.00314
# Shear Modulus (GPa) = 57.16058 72.56002 64.86030
#
# Velocity S-wave (km/s) = 4.40774 4.96611 4.69523
# Velocity P-wave (km/s) = 7.11631 7.99307 7.56740
#
# Compressibility (1/GPa) = 0.01373973
#
# Stress axis : x y z
#
# Youngs Moduli (GPa) = 172.18696 179.52145 106.80912
#
# Poissons Ratio (x) = 0.16894 0.06915
# Poissons Ratio (y) = 0.16204 0.20421
# Poissons Ratio (z) = 0.11147 0.34323
#
# Static dielectric constant tensor:
#      x y z
#    x 2.793900 -0.188720 0.376960 
#    y -0.188720 3.124700 -0.762140 
#    z 0.376960 -0.762140 3.419170 
# 
# From -- ./inp_files/99567.got.cif
#   From: 2010.05.17/outbox.cif.g08.bks.cpg/sg2_50_cif.got.tgz:99567.got - 2010.06.03 11:33:40.
