data_PCOD9027980
_publ_section_title
;
Structure prediction by ZEFSAII (Michael W. Deem and Ramdas Pophale) SiO2 
 PCOD9027980
Probable space group: P -1
;
_chemical_formula_sum "Si O2"
_cell_formula_units_Z 14
_cell_length_a 7.381391
_cell_length_b 7.191196
_cell_length_c 24.895727
_cell_angle_alpha 63.687328
_cell_angle_beta 28.688338
_cell_angle_gamma 57.693776
_cell_volume 535.110458
_symmetry_space_group_name_H-M "P -1"
_symmetry_group_IT_number 2
_symmetry_cell_setting 'triclinic'
loop_
_space_group_symop_operation_xyz
x,y,z
-x,-y,-z
loop_
_atom_site_type_symbol
_atom_site_label
_atom_site_fract_x
_atom_site_fract_y
_atom_site_fract_z
Si Si1 0.747301 0.592076 0.478124
Si Si2 0.505817 0.355813 0.868193
Si Si3 0.402884 0.161968 0.331059
Si Si4 0.934672 0.173911 0.090996
Si Si5 0.294002 0.211202 0.832883
Si Si6 0.838018 0.929502 0.337991
Si Si7 0.560477 0.318608 0.645103
O O1 0.604105 0.806002 0.450218
O O2 0.058200 0.652278 0.428115
O O3 0.469702 0.495446 0.598090
O O4 0.027916 0.385411 0.396485
O O5 0.393643 0.609921 0.877894
O O6 0.250187 0.352173 0.880066
O O7 0.945829 0.228195 0.748597
O O8 0.348118 0.222299 0.970025
O O9 0.314782 0.935116 0.374338
O O10 0.571147 0.146412 0.349980
O O11 0.745372 0.163737 0.199642
O O12 0.044934 0.048496 0.915914
O O13 0.772507 0.061056 0.732211
O O14 0.247004 0.342608 0.772432
#
# Coordination Sequence:
#
# PCOD9027980 Si02
#       7
#     2   2   2   2   2   2   2
#     4  10  19  39  53  73 108 136 165 221 244 303
#     4   9  18  33  52  77  99 134 171 210 247 306
#     4  11  20  35  53  80 103 136 168 213 254 305
#     4  10  17  31  60  70  98 143 169 197 267 294
#     4   8  17  34  49  76 102 132 167 213 244 305
#     4   9  20  35  51  77 111 127 171 213 254 295
#     4   9  19  34  58  75  99 140 176 198 263 301
#
# _framework density 26.162821000000001
#
# number of rings (size 3 to 8) (size 9 to 14) (size 15 to 20)
#    0.857    1.714    1.429    0.857    0.000    1.143 
#    2.571    6.429    0.000    1.714    0.000    0.000 
#    0.000    0.000    0.000    0.000    0.000    0.000 
#
# Total GULP energy -78221.198859 kJ/mol
# GULP energy per Si atom -5587.228490 kJ/mol
# Density = 2.610327 g / cm^3
# Si number density = 26.162821 Si / 1000 Ang^3
#
#
#
# Elastic Constant Matrix: (Units=GPa)
#
#
# Indices 1 2 3 4 5 6 
#
# 1 59.1050 18.9502 17.6771 -13.6490 -1.2545 -3.1171
# 2 18.9502 75.1945 43.5038 -21.0153 -1.7627 8.9666
# 3 17.6771 43.5038 137.1424 -37.8222 13.4485 4.9965
# 4 -13.6490 -21.0153 -37.8222 55.5631 2.8204 7.2607
# 5 -1.2545 -1.7627 13.4485 2.8204 34.9843 -10.9601
# 6 -3.1171 8.9666 4.9965 7.2607 -10.9601 33.1963
#
#
#
# Elastic Compliance Matrix: (Units=1/GPa)
#
#
# Indices 1 2 3 4 5 6 
#
# 1 0.019167 -0.004075 -0.000877 0.002080 0.001627 0.003115
# 2 -0.004075 0.018438 -0.004079 0.003899 0.000314 -0.005498
# 3 -0.000877 -0.004079 0.011405 0.006909 -0.006547 -0.004370
# 4 0.002080 0.003899 0.006909 0.026414 -0.007717 -0.010223
# 5 0.001627 0.000314 -0.006547 -0.007717 0.036424 0.014767
# 6 0.003115 -0.005498 -0.004370 -0.010223 0.014767 0.039670
#
#
# Mechanical properties :
#
#
# Convention : Reuss Voigt Hill
#
# Bulk Modulus (GPa) = 32.31146 47.96712 40.13929
# Shear Modulus (GPa) = 27.79372 37.50278 32.64825
#
# Velocity S-wave (km/s) = 3.26289 3.79018 3.53638
# Velocity P-wave (km/s) = 5.15482 6.12600 5.66127
#
# Compressibility (1/GPa) = 0.03094877
#
# Stress axis : x y z
#
# Youngs Moduli (GPa) = 52.17278 54.23519 87.67828
#
# Poissons Ratio (x) = 0.22099 0.07692
# Poissons Ratio (y) = 0.21259 0.35764
# Poissons Ratio (z) = 0.04577 0.22122
#
# Static dielectric constant tensor:
#      x y z
#    x 2.130480 -0.007590 0.024590 
#    y -0.007590 1.997630 0.012810 
#    z 0.024590 0.012810 2.046490 
# 
# From -- ./inp_files/606645.got.cif
#   From: 2010.05.17/outbox.cif.g08.bks.cpg/sg2_304_cif.got.tgz:606645.got - 2010.06.03 11:33:40.
