data_PCOD9027702
_publ_section_title
;
Structure prediction by ZEFSAII (Michael W. Deem and Ramdas Pophale) SiO2 
 PCOD9027702
Probable space group: P -1
;
_chemical_formula_sum "Si O2"
_cell_formula_units_Z 16
_cell_length_a 13.643652
_cell_length_b 8.395649
_cell_length_c 13.816929
_cell_angle_alpha 109.840331
_cell_angle_beta 126.745949
_cell_angle_gamma 113.996424
_cell_volume 701.295663
_symmetry_space_group_name_H-M "P -1"
_symmetry_group_IT_number 2
_symmetry_cell_setting 'triclinic'
loop_
_space_group_symop_operation_xyz
x,y,z
-x,-y,-z
loop_
_atom_site_type_symbol
_atom_site_label
_atom_site_fract_x
_atom_site_fract_y
_atom_site_fract_z
Si Si1 0.617383 0.343087 0.549662
Si Si2 0.775171 0.651249 0.242842
Si Si3 0.657163 0.236049 0.226150
Si Si4 0.434130 0.105272 0.589595
Si Si5 0.641105 0.876014 0.234189
Si Si6 0.956729 0.021688 0.085183
Si Si7 0.510990 0.668170 0.718650
Si Si8 0.107531 0.979224 0.339775
O O1 0.584339 0.346052 0.644038
O O2 0.856052 0.633697 0.718585
O O3 0.482624 0.304491 0.388229
O O4 0.544083 0.070410 0.434755
O O5 0.793818 0.533459 0.314961
O O6 0.767215 0.841159 0.304663
O O7 0.054267 0.187672 0.704485
O O8 0.551984 0.370384 0.002378
O O9 0.538787 0.208721 0.234378
O O10 0.747691 0.167017 0.315104
O O11 0.500000 0.000000 0.000000
O O12 0.445999 0.183635 0.722208
O O13 0.203960 0.900669 0.374917
O O14 0.997943 0.922590 0.167251
O O15 0.000000 0.000000 0.000000
O O16 0.728743 0.844567 0.923362
O O17 0.312970 0.325430 0.550116
#
# Coordination Sequence:
#
# PCOD9027702 Si02
#       8
#     2   2   2   2   2   2   2   2
#     4  10  24  44  66 103 134 177 231 276 341 413
#     4  10  24  42  64 106 137 175 240 276 340 422
#     4  10  22  41  69 101 134 182 228 281 346 405
#     4  11  22  44  66  97 142 173 225 287 337 412
#     4  10  22  42  73  97 139 186 220 288 348 403
#     4  11  25  43  70  98 133 183 226 280 346 404
#     4  11  23  46  68  95 140 175 228 287 336 410
#     4  11  26  42  68 102 134 177 228 282 344 412
#
# _framework density 22.814912
#
# number of rings (size 3 to 8) (size 9 to 14) (size 15 to 20)
#    0.000    1.500    1.250    2.250    8.750    6.000 
#    2.250    3.125    0.000    0.000    0.000    0.000 
#    0.000    0.000    0.000    0.000    0.000    0.000 
#
# Total GULP energy -89440.209398 kJ/mol
# GULP energy per Si atom -5590.013087 kJ/mol
# Density = 2.276298 g / cm^3
# Si number density = 22.814912 Si / 1000 Ang^3
#
#
#
# Elastic Constant Matrix: (Units=GPa)
#
#
# Indices 1 2 3 4 5 6 
#
# 1 89.2204 50.6235 -1.4300 -12.3923 -1.3314 7.1312
# 2 50.6235 126.4539 28.1338 -39.9463 0.3142 5.0686
# 3 -1.4300 28.1338 72.2885 -18.1529 3.5767 3.4507
# 4 -12.3923 -39.9463 -18.1529 36.3288 3.8200 -4.7244
# 5 -1.3314 0.3142 3.5767 3.8200 39.6896 -4.9825
# 6 7.1312 5.0686 3.4507 -4.7244 -4.9825 34.6933
#
#
#
# Elastic Compliance Matrix: (Units=1/GPa)
#
#
# Indices 1 2 3 4 5 6 
#
# 1 0.015294 -0.007145 0.002799 -0.001591 0.000147 -0.002574
# 2 -0.007145 0.015669 -0.002795 0.013678 -0.001286 0.001136
# 3 0.002799 -0.002795 0.016727 0.006299 -0.002159 -0.001283
# 4 -0.001591 0.013678 0.006299 0.046100 -0.004752 0.003297
# 5 0.000147 -0.001286 -0.002159 -0.004752 0.026302 0.003502
# 6 -0.002574 0.001136 -0.001283 0.003297 0.003502 0.030267
#
#
# Mechanical properties :
#
#
# Convention : Reuss Voigt Hill
#
# Bulk Modulus (GPa) = 29.93369 49.17970 39.55669
# Shear Modulus (GPa) = 28.44512 36.18471 32.31491
#
# Velocity S-wave (km/s) = 3.53480 3.98680 3.76758
# Velocity P-wave (km/s) = 5.45972 6.54182 6.02511
#
# Compressibility (1/GPa) = 0.03340718
#
# Stress axis : x y z
#
# Youngs Moduli (GPa) = 65.38383 63.82044 59.78460
#
# Poissons Ratio (x) = 0.45603 -0.16737
# Poissons Ratio (y) = 0.46720 0.16712
# Poissons Ratio (z) = -0.18304 0.17840
#
# Static dielectric constant tensor:
#      x y z
#    x 1.824020 -0.006590 -0.019670 
#    y -0.006590 1.882470 0.003890 
#    z -0.019670 0.003890 1.843090 
# 
# From -- ./inp_files/306034.got.cif
#   From: 2010.05.17/outbox.cif.g08.bks.cpg/sg2_154_cif.got.tgz:306034.got - 2010.06.03 11:33:40.
