data_PCOD9027111
_publ_section_title
;
Structure prediction by ZEFSAII (Michael W. Deem and Ramdas Pophale) SiO2 
 PCOD9027111
Probable space group: P -1
;
_chemical_formula_sum "Si O2"
_cell_formula_units_Z 13
_cell_length_a 5.605557
_cell_length_b 11.160430
_cell_length_c 8.935991
_cell_angle_alpha 106.850244
_cell_angle_beta 70.439388
_cell_angle_gamma 99.654820
_cell_volume 502.609272
_symmetry_space_group_name_H-M "P -1"
_symmetry_group_IT_number 2
_symmetry_cell_setting 'triclinic'
loop_
_space_group_symop_operation_xyz
x,y,z
-x,-y,-z
loop_
_atom_site_type_symbol
_atom_site_label
_atom_site_fract_x
_atom_site_fract_y
_atom_site_fract_z
Si Si1 0.500000 0.500000 0.500000
Si Si2 0.084967 0.794150 0.374270
Si Si3 0.334903 0.056992 0.372749
Si Si4 0.156267 0.111255 0.095328
Si Si5 0.772516 0.253400 0.353859
Si Si6 0.742987 0.533639 0.148893
Si Si7 0.459137 0.702698 0.056005
O O1 0.583725 0.358610 0.407383
O O2 0.711982 0.548022 0.338169
O O3 0.110342 0.721370 0.497674
O O4 0.179600 0.720156 0.187133
O O5 0.823475 0.858915 0.452596
O O6 0.292491 0.914743 0.380575
O O7 0.210704 0.070379 0.238986
O O8 0.616736 0.118576 0.329478
O O9 0.996361 0.235371 0.183977
O O10 0.418274 0.166225 0.986457
O O11 0.000000 0.000000 0.000000
O O12 0.624875 0.651146 0.136765
O O13 0.555209 0.409273 0.101592
O O14 0.000000 0.500000 0.000000
#
# Coordination Sequence:
#
# PCOD9027111 Si02
#       7
#     1   2   2   2   2   2   2
#     4  12  24  44  72 102 142 190 236 292 358 430
#     4  10  22  41  66  97 136 175 231 297 346 429
#     4  10  23  41  66 100 131 187 231 283 366 418
#     4  11  25  44  69 103 142 184 240 303 360 433
#     4  11  23  43  65 101 137 184 236 288 358 430
#     4  11  26  46  70 106 141 192 241 292 358 433
#     4  11  24  45  67 102 143 180 235 296 357 425
#
# _framework density 25.865022
#
# number of rings (size 3 to 8) (size 9 to 14) (size 15 to 20)
#    0.000    1.231    1.538    3.231    2.154    7.385 
#    0.000    3.846    0.000    0.000    0.000    0.000 
#    0.000    0.000    0.000    0.000    0.000    0.000 
#
# Total GULP energy -72530.928751 kJ/mol
# GULP energy per Si atom -5579.302212 kJ/mol
# Density = 2.580615 g / cm^3
# Si number density = 25.865022 Si / 1000 Ang^3
#
#
#
# Elastic Constant Matrix: (Units=GPa)
#
#
# Indices 1 2 3 4 5 6 
#
# 1 59.1624 -0.7191 44.5576 0.9637 -5.3693 8.6911
# 2 -0.7191 76.7608 34.1338 3.2303 12.1062 -0.3264
# 3 44.5576 34.1338 156.7582 0.1349 -24.9965 -8.9713
# 4 0.9637 3.2303 0.1349 44.8201 5.3854 -5.7995
# 5 -5.3693 12.1062 -24.9965 5.3854 50.6533 11.0573
# 6 8.6911 -0.3264 -8.9713 -5.7995 11.0573 23.6126
#
#
#
# Elastic Compliance Matrix: (Units=1/GPa)
#
#
# Indices 1 2 3 4 5 6 
#
# 1 0.025804 0.004167 -0.008929 -0.002688 0.000628 -0.013787
# 2 0.004167 0.016664 -0.005844 -0.000631 -0.006187 -0.000781
# 3 -0.008929 -0.005844 0.011256 0.000713 0.004743 0.005437
# 4 -0.002688 -0.000631 0.000713 0.024129 -0.004360 0.009220
# 5 0.000628 -0.006187 0.004743 -0.004360 0.026734 -0.012105
# 6 -0.013787 -0.000781 0.005437 0.009220 -0.012105 0.057412
#
#
# Mechanical properties :
#
#
# Convention : Reuss Voigt Hill
#
# Bulk Modulus (GPa) = 30.75567 49.84732 40.30150
# Shear Modulus (GPa) = 25.76679 38.13115 31.94897
#
# Velocity S-wave (km/s) = 3.15969 3.84374 3.51838
# Velocity P-wave (km/s) = 5.02277 6.24605 5.66751
#
# Compressibility (1/GPa) = 0.03251433
#
# Stress axis : x y z
#
# Youngs Moduli (GPa) = 38.75391 60.00873 88.83822
#
# Poissons Ratio (x) = -0.25008 0.79320
# Poissons Ratio (y) = -0.16150 0.51917
# Poissons Ratio (z) = 0.34602 0.35069
#
# Static dielectric constant tensor:
#      x y z
#    x 1.957240 -0.025080 0.047790 
#    y -0.025080 1.986330 0.009620 
#    z 0.047790 0.009620 2.042200 
# 
# From -- ./inp_files/24063.got.cif
#   From: 2010.05.17/outbox.cif.g08.bks.cpg/sg2_13_cif.got.tgz:24063.got - 2010.06.03 11:33:40.
