data_PCOD9027892
_publ_section_title
;
Structure prediction by ZEFSAII (Michael W. Deem and Ramdas Pophale) SiO2 
 PCOD9027892
Probable space group: P -1
;
_chemical_formula_sum "Si O2"
_cell_formula_units_Z 16
_cell_length_a 12.982082
_cell_length_b 9.166987
_cell_length_c 9.303773
_cell_angle_alpha 125.326715
_cell_angle_beta 124.605857
_cell_angle_gamma 66.070087
_cell_volume 738.585073
_symmetry_space_group_name_H-M "P -1"
_symmetry_group_IT_number 2
_symmetry_cell_setting 'triclinic'
loop_
_space_group_symop_operation_xyz
x,y,z
-x,-y,-z
loop_
_atom_site_type_symbol
_atom_site_label
_atom_site_fract_x
_atom_site_fract_y
_atom_site_fract_z
Si Si1 0.678033 0.981210 0.057666
Si Si2 0.912847 0.161306 0.948230
Si Si3 0.965559 0.872946 0.271357
Si Si4 0.973857 0.558551 0.307391
Si Si5 0.545159 0.638697 0.396280
Si Si6 0.529667 0.245524 0.290449
Si Si7 0.346447 0.748842 0.057914
Si Si8 0.784670 0.547712 0.390198
O O1 0.827220 0.942707 0.141788
O O2 0.636039 0.095200 0.230893
O O3 0.605110 0.805878 0.901330
O O4 0.623676 0.103734 0.950548
O O5 0.956327 0.352169 0.142025
O O6 0.769976 0.167062 0.889285
O O7 0.934328 0.138800 0.783291
O O8 0.000000 0.000000 0.000000
O O9 0.959283 0.677561 0.222976
O O10 0.000000 0.000000 0.500000
O O11 0.110808 0.561661 0.488233
O O12 0.868833 0.631554 0.383962
O O13 0.554156 0.434484 0.347507
O O14 0.483238 0.747767 0.544660
O O15 0.458557 0.674646 0.208850
O O16 0.686072 0.672134 0.479995
O O17 0.296143 0.587669 0.835208
#
# Coordination Sequence:
#
# PCOD9027892 Si02
#       8
#     2   2   2   2   2   2   2   2
#     4  11  24  45  64  95 142 169 225 274 341 389
#     4  11  25  45  68 102 138 174 224 283 339 404
#     4  12  27  43  72 101 136 183 222 284 339 406
#     4  10  25  44  71 100 135 180 228 277 341 409
#     4  11  24  42  73  94 132 178 228 270 338 397
#     4  10  26  43  64  99 133 176 222 285 322 402
#     4  11  23  42  69  98 132 177 218 277 335 405
#     4  10  22  41  70 100 133 172 228 280 334 400
#
# _framework density 21.663042999999998
#
# number of rings (size 3 to 8) (size 9 to 14) (size 15 to 20)
#    0.000    1.250    2.500    1.500   10.500    2.500 
#    0.000    0.000    0.000    0.000    0.000    0.000 
#    0.000    0.000    0.000    0.000    0.000    0.000 
#
# Total GULP energy -89492.827502 kJ/mol
# GULP energy per Si atom -5593.301719 kJ/mol
# Density = 2.161374 g / cm^3
# Si number density = 21.663043 Si / 1000 Ang^3
#
#
#
# Elastic Constant Matrix: (Units=GPa)
#
#
# Indices 1 2 3 4 5 6 
#
# 1 133.2968 10.9298 25.6387 -11.4568 -27.1090 -6.2959
# 2 10.9298 54.6931 15.6491 -9.2902 -5.3480 13.4291
# 3 25.6387 15.6491 65.7632 -7.6077 -16.0263 0.0239
# 4 -11.4568 -9.2902 -7.6077 29.1426 1.4327 -2.0238
# 5 -27.1090 -5.3480 -16.0263 1.4327 39.0533 -7.1578
# 6 -6.2959 13.4291 0.0239 -2.0238 -7.1578 20.2160
#
#
#
# Elastic Compliance Matrix: (Units=1/GPa)
#
#
# Indices 1 2 3 4 5 6 
#
# 1 0.010061 -0.002278 -0.001211 0.003074 0.007454 0.007595
# 2 -0.002278 0.025242 -0.005537 0.004621 -0.003939 -0.018402
# 3 -0.001211 -0.005537 0.019086 0.002810 0.007254 0.006128
# 4 0.003074 0.004621 0.002810 0.037770 0.003036 0.002740
# 5 0.007454 -0.003939 0.007254 0.003036 0.036429 0.018132
# 6 0.007595 -0.018402 0.006128 0.002740 0.018132 0.070742
#
#
# Mechanical properties :
#
#
# Convention : Reuss Voigt Hill
#
# Bulk Modulus (GPa) = 27.52025 39.79870 33.65947
# Shear Modulus (GPa) = 21.78701 31.11808 26.45254
#
# Velocity S-wave (km/s) = 3.17475 3.79418 3.49820
# Velocity P-wave (km/s) = 5.11567 6.13237 5.64695
#
# Compressibility (1/GPa) = 0.03633688
#
# Stress axis : x y z
#
# Youngs Moduli (GPa) = 99.39799 39.61718 52.39338
#
# Poissons Ratio (x) = 0.09024 0.06344
# Poissons Ratio (y) = 0.22641 0.29011
# Poissons Ratio (z) = 0.12036 0.21937
#
# Static dielectric constant tensor:
#      x y z
#    x 1.768510 0.001040 -0.020350 
#    y 0.001040 1.765900 0.035660 
#    z -0.020350 0.035660 1.796560 
# 
# From -- ./inp_files/207593.got.cif
#   From: 2010.05.17/outbox.cif.g08.bks.cpg/sg2_104_cif.got.tgz:207593.got - 2010.06.03 11:33:40.
