data_PCOD9027558
_publ_section_title
;
Structure prediction by ZEFSAII (Michael W. Deem and Ramdas Pophale) SiO2 
 PCOD9027558
Probable space group: P -1
;
_chemical_formula_sum "Si O2"
_cell_formula_units_Z 14
_cell_length_a 9.807299
_cell_length_b 8.020506
_cell_length_c 14.998358
_cell_angle_alpha 128.558351
_cell_angle_beta 50.320673
_cell_angle_gamma 90.927197
_cell_volume 548.851907
_symmetry_space_group_name_H-M "P -1"
_symmetry_group_IT_number 2
_symmetry_cell_setting 'triclinic'
loop_
_space_group_symop_operation_xyz
x,y,z
-x,-y,-z
loop_
_atom_site_type_symbol
_atom_site_label
_atom_site_fract_x
_atom_site_fract_y
_atom_site_fract_z
Si Si1 0.526058 0.231883 0.155877
Si Si2 0.277968 0.390503 0.578031
Si Si3 0.405689 0.835553 0.293271
Si Si4 0.194583 0.901970 0.709495
Si Si5 0.900085 0.194519 0.467195
Si Si6 0.566429 0.166742 0.908806
Si Si7 0.784493 0.445872 0.149383
O O1 0.261076 0.478003 0.370414
O O2 0.567404 0.956525 0.068844
O O3 0.670454 0.299607 0.170348
O O4 0.562059 0.245525 0.039734
O O5 0.148466 0.691328 0.689029
O O6 0.546151 0.245648 0.423552
O O7 0.193655 0.439220 0.731285
O O8 0.284845 0.159591 0.449204
O O9 0.208863 0.825910 0.405953
O O10 0.604887 0.684525 0.234693
O O11 0.518833 0.679745 0.100087
O O12 0.160740 0.924679 0.625642
O O13 0.023634 0.199910 0.924136
O O14 0.163826 0.043736 0.297352
#
# Coordination Sequence:
#
# PCOD9027558 Si02
#       7
#     2   2   2   2   2   2   2
#     4  10  22  41  68  94 131 175 222 276 316 388
#     4  11  24  45  66  97 135 171 229 266 324 398
#     4  11  25  43  67 101 140 173 211 278 335 393
#     4  11  23  42  71  92 131 181 218 273 320 390
#     4  11  22  43  66  95 136 175 216 270 335 389
#     4  11  23  43  66  97 133 171 228 267 327 393
#     4  11  23  44  66  99 136 170 219 272 336 386
#
# _framework density 25.50779
#
# number of rings (size 3 to 8) (size 9 to 14) (size 15 to 20)
#    0.000    1.143    4.286    2.571    2.000    2.857 
#    2.571    0.000    0.000    0.000    0.000    0.000 
#    0.000    0.000    0.000    0.000    0.000    0.000 
#
# Total GULP energy -78337.375158 kJ/mol
# GULP energy per Si atom -5595.526797 kJ/mol
# Density = 2.544973 g / cm^3
# Si number density = 25.507790 Si / 1000 Ang^3
#
#
#
# Elastic Constant Matrix: (Units=GPa)
#
#
# Indices 1 2 3 4 5 6 
#
# 1 56.4882 6.9806 16.0652 -10.0657 19.1918 1.2800
# 2 6.9806 80.1587 25.7133 -22.2336 11.7908 -4.4145
# 3 16.0652 25.7133 140.6197 -13.3325 17.6392 -17.9796
# 4 -10.0657 -22.2336 -13.3325 34.7511 -5.4298 8.8683
# 5 19.1918 11.7908 17.6392 -5.4298 48.0347 -4.8287
# 6 1.2800 -4.4145 -17.9796 8.8683 -4.8287 36.5411
#
#
#
# Elastic Compliance Matrix: (Units=1/GPa)
#
#
# Indices 1 2 3 4 5 6 
#
# 1 0.022020 0.001363 -0.001648 0.006367 -0.008214 -0.004049
# 2 0.001363 0.016078 -0.002043 0.009942 -0.002807 -0.001895
# 3 -0.001648 -0.002043 0.008355 0.000250 -0.001512 0.003661
# 4 0.006367 0.009942 0.000250 0.039027 -0.001527 -0.008572
# 5 -0.008214 -0.002807 -0.001512 -0.001527 0.025467 0.002941
# 6 -0.004049 -0.001895 0.003661 -0.008572 0.002941 0.031550
#
#
# Mechanical properties :
#
#
# Convention : Reuss Voigt Hill
#
# Bulk Modulus (GPa) = 23.92602 41.64276 32.78439
# Shear Modulus (GPa) = 31.03909 39.09922 35.06915
#
# Velocity S-wave (km/s) = 3.49212 3.91939 3.71191
# Velocity P-wave (km/s) = 5.06558 6.06985 5.59031
#
# Compressibility (1/GPa) = 0.04179550
#
# Stress axis : x y z
#
# Youngs Moduli (GPa) = 45.41237 62.19554 119.69215
#
# Poissons Ratio (x) = -0.08475 0.19731
# Poissons Ratio (y) = -0.06188 0.24455
# Poissons Ratio (z) = 0.07486 0.12707
#
# Static dielectric constant tensor:
#      x y z
#    x 1.975770 -0.016710 0.024260 
#    y -0.016710 2.108640 0.007940 
#    z 0.024260 0.007940 1.961180 
# 
# From -- ./inp_files/256587.got.cif
#   From: 2010.05.17/outbox.cif.g08.bks.cpg/sg2_129_cif.got.tgz:256587.got - 2010.06.03 11:33:40.
