data_PCOD9027963
_publ_section_title
;
Structure prediction by ZEFSAII (Michael W. Deem and Ramdas Pophale) SiO2 
 PCOD9027963
Probable space group: P -1
;
_chemical_formula_sum "Si O2"
_cell_formula_units_Z 16
_cell_length_a 15.675435
_cell_length_b 7.809515
_cell_length_c 9.558784
_cell_angle_alpha 87.678712
_cell_angle_beta 61.926444
_cell_angle_gamma 45.594199
_cell_volume 655.642075
_symmetry_space_group_name_H-M "P -1"
_symmetry_group_IT_number 2
_symmetry_cell_setting 'triclinic'
loop_
_space_group_symop_operation_xyz
x,y,z
-x,-y,-z
loop_
_atom_site_type_symbol
_atom_site_label
_atom_site_fract_x
_atom_site_fract_y
_atom_site_fract_z
Si Si1 0.855243 0.532859 0.467298
Si Si2 0.384556 0.352893 0.716837
Si Si3 0.904937 0.798006 0.931114
Si Si4 0.072829 0.644046 0.069320
Si Si5 0.437364 0.251754 0.362670
Si Si6 0.338529 0.895320 0.333832
Si Si7 0.386500 0.787867 0.006100
Si Si8 0.053288 0.091862 0.541707
O O1 0.718635 0.589798 0.595487
O O2 0.772257 0.827213 0.505017
O O3 0.938742 0.379763 0.263675
O O4 0.978527 0.346635 0.499258
O O5 0.396580 0.381227 0.542611
O O6 0.465984 0.055226 0.678824
O O7 0.495589 0.327882 0.718524
O O8 0.215871 0.554716 0.901005
O O9 0.881790 0.622033 0.948126
O O10 0.930932 0.830427 0.065106
O O11 0.770548 0.067240 0.938708
O O12 0.017473 0.795992 0.253656
O O13 0.534113 0.232124 0.184119
O O14 0.235688 0.866250 0.409213
O O15 0.348012 0.956343 0.166139
O O16 0.500000 0.500000 0.000000
O O17 0.000000 0.000000 0.500000
#
# Coordination Sequence:
#
# PCOD9027963 Si02
#       8
#     2   2   2   2   2   2   2   2
#     4  11  22  43  73 102 139 186 249 313 359 430
#     4  10  22  41  70 108 143 177 244 313 365 425
#     4  11  22  44  76 109 143 183 253 304 368 429
#     4  11  23  42  77 112 138 187 243 316 366 427
#     4  10  23  40  68 107 145 183 236 306 376 424
#     4  11  25  43  69 105 142 193 247 303 369 433
#     4  12  27  44  66 101 155 201 234 292 369 458
#     4  12  27  43  67 104 149 188 237 300 376 444
#
# _framework density 24.403561
#
# number of rings (size 3 to 8) (size 9 to 14) (size 15 to 20)
#    0.000    1.000    5.000    1.125    5.250    1.000 
#    0.000    2.500    0.000    0.000    0.000    0.000 
#    0.000    0.000    0.000    0.000    0.000    0.000 
#
# Total GULP energy -89550.944599 kJ/mol
# GULP energy per Si atom -5596.934037 kJ/mol
# Density = 2.434802 g / cm^3
# Si number density = 24.403561 Si / 1000 Ang^3
#
#
#
# Elastic Constant Matrix: (Units=GPa)
#
#
# Indices 1 2 3 4 5 6 
#
# 1 153.8454 24.3846 63.2440 4.5940 8.2896 -15.2647
# 2 24.3846 72.3660 5.0177 -0.9734 8.6687 -11.6334
# 3 63.2440 5.0177 160.3868 -16.4225 6.3118 -5.3642
# 4 4.5940 -0.9734 -16.4225 27.8290 -9.4609 0.7085
# 5 8.2896 8.6687 6.3118 -9.4609 42.9220 -6.1919
# 6 -15.2647 -11.6334 -5.3642 0.7085 -6.1919 38.5672
#
#
#
# Elastic Compliance Matrix: (Units=1/GPa)
#
#
# Indices 1 2 3 4 5 6 
#
# 1 0.008791 -0.002259 -0.003704 -0.004218 -0.001317 0.002149
# 2 -0.002259 0.015357 0.000660 0.000478 -0.002156 0.003475
# 3 -0.003704 0.000660 0.008230 0.005702 0.000610 -0.000129
# 4 -0.004218 0.000478 0.005702 0.043208 0.009401 -0.000017
# 5 -0.001317 -0.002156 0.000610 0.009401 0.026400 0.002979
# 6 0.002149 0.003475 -0.000129 -0.000017 0.002979 0.028288
#
#
# Mechanical properties :
#
#
# Convention : Reuss Voigt Hill
#
# Bulk Modulus (GPa) = 45.92753 63.54346 54.73550
# Shear Modulus (GPa) = 33.75226 41.46043 37.60635
#
# Velocity S-wave (km/s) = 3.72302 4.12630 3.92984
# Velocity P-wave (km/s) = 6.11082 6.98548 6.56274
#
# Compressibility (1/GPa) = 0.02177343
#
# Stress axis : x y z
#
# Youngs Moduli (GPa) = 113.75426 65.11534 121.50104
#
# Poissons Ratio (x) = 0.14709 0.45004
# Poissons Ratio (y) = 0.25696 -0.08023
# Poissons Ratio (z) = 0.42135 -0.04300
#
# Static dielectric constant tensor:
#      x y z
#    x 1.983200 0.073950 0.045020 
#    y 0.073950 2.005720 0.025580 
#    z 0.045020 0.025580 1.946100 
# 
# From -- ./inp_files/298771.got.cif
#   From: 2010.05.17/outbox.cif.g08.bks.cpg/sg2_150_cif.got.tgz:298771.got - 2010.06.03 11:33:40.
