data_PCOD9027338
_publ_section_title
;
Structure prediction by ZEFSAII (Michael W. Deem and Ramdas Pophale) SiO2 
 PCOD9027338
Probable space group: P -1
;
_chemical_formula_sum "Si O2"
_cell_formula_units_Z 14
_cell_length_a 15.417080
_cell_length_b 12.750448
_cell_length_c 8.043044
_cell_angle_alpha 63.578583
_cell_angle_beta 106.691867
_cell_angle_gamma 154.794610
_cell_volume 574.730062
_symmetry_space_group_name_H-M "P -1"
_symmetry_group_IT_number 2
_symmetry_cell_setting 'triclinic'
loop_
_space_group_symop_operation_xyz
x,y,z
-x,-y,-z
loop_
_atom_site_type_symbol
_atom_site_label
_atom_site_fract_x
_atom_site_fract_y
_atom_site_fract_z
Si Si1 0.150456 0.886908 0.391287
Si Si2 0.113789 0.393204 0.019320
Si Si3 0.842470 0.709763 0.175501
Si Si4 0.362868 0.165790 0.965262
Si Si5 0.427723 0.787925 0.170883
Si Si6 0.475293 0.417714 0.362151
Si Si7 0.668285 0.132816 0.374631
O O1 0.260181 0.094165 0.446122
O O2 0.162393 0.765051 0.536401
O O3 0.307056 0.069929 0.189328
O O4 0.952638 0.730155 0.321386
O O5 0.230686 0.434400 0.937290
O O6 0.189877 0.604650 0.829388
O O7 0.186628 0.484892 0.186939
O O8 0.866987 0.076648 0.076973
O O9 0.667606 0.561409 0.303680
O O10 0.000000 0.000000 0.000000
O O11 0.449402 0.162272 0.906063
O O12 0.511280 0.452885 0.838023
O O13 0.509406 0.880343 0.337435
O O14 0.500000 0.000000 0.000000
O O15 0.500000 0.500000 0.500000
O O16 0.500000 0.000000 0.500000
#
# Coordination Sequence:
#
# PCOD9027338 Si02
#       7
#     2   2   2   2   2   2   2
#     4  11  24  43  70  98 140 187 231 287 349 420
#     4  10  23  43  72  96 134 178 231 286 338 414
#     4  11  23  44  71 104 133 189 237 280 352 418
#     4  11  23  41  69  99 126 182 234 275 353 405
#     4  10  22  41  67  96 131 177 223 284 341 406
#     4  12  25  43  66 103 142 180 234 293 347 411
#     4  11  23  44  68 103 141 180 230 284 355 416
#
# _framework density 24.359262999999999
#
# number of rings (size 3 to 8) (size 9 to 14) (size 15 to 20)
#    0.000    1.143    2.857    4.714    2.000    5.143 
#    0.000   14.286    0.000    0.000    0.000    0.000 
#    0.000    0.000    0.000    0.000    0.000    0.000 
#
# Total GULP energy -78284.512340 kJ/mol
# GULP energy per Si atom -5591.750881 kJ/mol
# Density = 2.430382 g / cm^3
# Si number density = 24.359263 Si / 1000 Ang^3
#
#
#
# Elastic Constant Matrix: (Units=GPa)
#
#
# Indices 1 2 3 4 5 6 
#
# 1 173.9038 28.1620 37.5735 6.7828 13.3195 -8.8816
# 2 28.1620 89.3607 14.8550 23.0217 -6.6378 -18.7042
# 3 37.5735 14.8550 72.5772 7.0040 11.6233 -10.0867
# 4 6.7828 23.0217 7.0040 43.3586 -6.6146 -7.8610
# 5 13.3195 -6.6378 11.6233 -6.6146 44.1964 7.2426
# 6 -8.8816 -18.7042 -10.0867 -7.8610 7.2426 44.4215
#
#
#
# Elastic Compliance Matrix: (Units=1/GPa)
#
#
# Indices 1 2 3 4 5 6 
#
# 1 0.006785 -0.001763 -0.002881 0.000144 -0.001570 0.000242
# 2 -0.001763 0.014526 -0.001093 -0.006293 0.001374 0.004178
# 3 -0.002881 -0.001093 0.016836 -0.001797 -0.004518 0.003205
# 4 0.000144 -0.006293 -0.001797 0.027419 0.003379 0.001272
# 5 -0.001570 0.001374 -0.004518 0.003379 0.025713 -0.004356
# 6 0.000242 0.004178 0.003205 0.001272 -0.004356 0.025982
#
#
# Mechanical properties :
#
#
# Convention : Reuss Voigt Hill
#
# Bulk Modulus (GPa) = 37.48870 55.22476 46.35673
# Shear Modulus (GPa) = 36.33072 43.41205 39.87138
#
# Velocity S-wave (km/s) = 3.86612 4.22614 4.05013
# Velocity P-wave (km/s) = 5.94580 6.82157 6.39869
#
# Compressibility (1/GPa) = 0.02667471
#
# Stress axis : x y z
#
# Youngs Moduli (GPa) = 147.38099 68.84424 59.39686
#
# Poissons Ratio (x) = 0.12134 0.17111
# Poissons Ratio (y) = 0.25977 0.06490
# Poissons Ratio (z) = 0.42458 0.07522
#
# Static dielectric constant tensor:
#      x y z
#    x 1.933210 0.070070 0.026840 
#    y 0.070070 1.977140 0.010550 
#    z 0.026840 0.010550 1.953260 
# 
# From -- ./inp_files/307056.got.cif
#   From: 2010.05.17/outbox.cif.g08.bks.cpg/sg2_154_cif.got.tgz:307056.got - 2010.06.03 11:33:40.
