data_PCOD9027865
_publ_section_title
;
Structure prediction by ZEFSAII (Michael W. Deem and Ramdas Pophale) SiO2 
 PCOD9027865
Probable space group: P -1
;
_chemical_formula_sum "Si O2"
_cell_formula_units_Z 12
_cell_length_a 9.981073
_cell_length_b 10.854332
_cell_length_c 14.884576
_cell_angle_alpha 51.388400
_cell_angle_beta 137.443460
_cell_angle_gamma 150.818546
_cell_volume 530.862830
_symmetry_space_group_name_H-M "P -1"
_symmetry_group_IT_number 2
_symmetry_cell_setting 'triclinic'
loop_
_space_group_symop_operation_xyz
x,y,z
-x,-y,-z
loop_
_atom_site_type_symbol
_atom_site_label
_atom_site_fract_x
_atom_site_fract_y
_atom_site_fract_z
Si Si1 0.344938 0.952016 0.852657
Si Si2 0.138262 0.835137 0.394487
Si Si3 0.867569 0.050461 0.846738
Si Si4 0.141298 0.142157 0.601094
Si Si5 0.137688 0.537591 0.717637
Si Si6 0.770288 0.423934 0.733404
O O1 0.106378 0.668998 0.832497
O O2 0.146767 0.991590 0.736877
O O3 0.610063 0.167809 0.812343
O O4 0.500000 0.000000 0.000000
O O5 0.103826 0.948486 0.248323
O O6 0.030187 0.829493 0.440311
O O7 0.924075 0.564195 0.366610
O O8 0.500000 0.000000 0.500000
O O9 0.075339 0.337552 0.834233
O O10 0.485781 0.823289 0.773087
O O11 0.000000 0.000000 0.000000
O O12 0.514489 0.397390 0.646520
O O13 0.000000 0.000000 0.500000
O O14 0.852552 0.465409 0.650188
#
# Coordination Sequence:
#
# PCOD9027865 Si02
#       6
#     2   2   2   2   2   2
#     4  10  23  43  66  99 132 171 217 267 328 389
#     4  10  24  43  67  97 133 174 221 269 327 391
#     4  10  23  43  66  99 132 171 217 267 328 389
#     4  10  24  43  67  97 133 174 221 269 327 391
#     4  10  22  41  69  98 130 169 216 270 329 387
#     4  10  22  41  69  98 130 169 216 270 329 387
#
# _framework density 22.604710000000001
#
# number of rings (size 3 to 8) (size 9 to 14) (size 15 to 20)
#    2.000    0.000    0.000    3.000    0.000    5.333 
#    0.000    0.000    0.000    0.000    0.000    0.000 
#    0.000    0.000    0.000    0.000    0.000    0.000 
#
# Total GULP energy -66809.879936 kJ/mol
# GULP energy per Si atom -5567.489995 kJ/mol
# Density = 2.255326 g / cm^3
# Si number density = 22.604710 Si / 1000 Ang^3
#
#
#
# Elastic Constant Matrix: (Units=GPa)
#
#
# Indices 1 2 3 4 5 6 
#
# 1 182.8173 45.7247 47.9643 14.0777 -20.0174 -10.7808
# 2 45.7247 129.3058 29.9600 19.1626 -10.5723 20.3840
# 3 47.9643 29.9600 139.1044 -6.9532 -18.8802 1.0883
# 4 14.0777 19.1626 -6.9532 36.6486 3.9176 -8.7249
# 5 -20.0174 -10.5723 -18.8802 3.9176 14.5303 0.3179
# 6 -10.7808 20.3840 1.0883 -8.7249 0.3179 34.2922
#
#
#
# Elastic Compliance Matrix: (Units=1/GPa)
#
#
# Indices 1 2 3 4 5 6 
#
# 1 0.007457 -0.001789 -0.001250 -0.002353 0.007921 0.002775
# 2 -0.001789 0.012270 -0.001411 -0.009215 0.007339 -0.010224
# 3 -0.001250 -0.001411 0.009195 0.002194 0.008593 0.000632
# 4 -0.002353 -0.009215 0.002194 0.038840 -0.017889 0.014716
# 5 0.007921 0.007339 0.008593 -0.017889 0.101230 -0.007635
# 6 0.002775 -0.010224 0.000632 0.014716 -0.007635 0.039906
#
#
# Mechanical properties :
#
#
# Convention : Reuss Voigt Hill
#
# Bulk Modulus (GPa) = 49.94090 77.61393 63.77742
# Shear Modulus (GPa) = 22.27449 38.93279 30.60364
#
# Velocity S-wave (km/s) = 3.14250 4.15460 3.68348
# Velocity P-wave (km/s) = 5.94207 7.57787 6.80927
#
# Compressibility (1/GPa) = 0.02002367
#
# Stress axis : x y z
#
# Youngs Moduli (GPa) = 134.09358 81.49781 108.75656
#
# Poissons Ratio (x) = 0.14577 0.13599
# Poissons Ratio (y) = 0.23984 0.15340
# Poissons Ratio (z) = 0.16767 0.11495
#
# Static dielectric constant tensor:
#      x y z
#    x 1.915880 -0.061390 0.009880 
#    y -0.061390 1.917150 -0.075520 
#    z 0.009880 -0.075520 1.854010 
# 
# From -- ./inp_files/492615.got.cif
#   From: 2010.05.17/outbox.cif.g08.bks.cpg/sg2_247_cif.got.tgz:492615.got - 2010.06.03 11:33:40.
