data_PCOD9027688
_publ_section_title
;
Structure prediction by ZEFSAII (Michael W. Deem and Ramdas Pophale) SiO2 
 PCOD9027688
Probable space group: P -1
;
_chemical_formula_sum "Si O2"
_cell_formula_units_Z 12
_cell_length_a 14.531115
_cell_length_b 7.892743
_cell_length_c 8.687525
_cell_angle_alpha 130.553466
_cell_angle_beta 42.396721
_cell_angle_gamma 130.654561
_cell_volume 481.043757
_symmetry_space_group_name_H-M "P -1"
_symmetry_group_IT_number 2
_symmetry_cell_setting 'triclinic'
loop_
_space_group_symop_operation_xyz
x,y,z
-x,-y,-z
loop_
_atom_site_type_symbol
_atom_site_label
_atom_site_fract_x
_atom_site_fract_y
_atom_site_fract_z
Si Si1 0.745498 0.119708 0.245664
Si Si2 0.626901 0.019021 0.738222
Si Si3 0.463371 0.703791 0.257375
Si Si4 0.096207 0.563393 0.265559
Si Si5 0.013559 0.803387 0.249824
Si Si6 0.199154 0.191699 0.762982
O O1 0.673040 0.326094 0.477549
O O2 0.608387 0.876430 0.256790
O O3 0.833219 0.051822 0.240069
O O4 0.833532 0.143576 0.993958
O O5 0.587218 0.153931 0.726239
O O6 0.779770 0.182367 0.715598
O O7 0.652819 0.789153 0.498585
O O8 0.500000 0.000000 0.000000
O O9 0.500000 0.500000 0.000000
O O10 0.999489 0.581346 0.247942
O O11 0.000000 0.500000 0.500000
O O12 0.183208 0.385229 0.015803
O O13 0.906722 0.798974 0.239425
O O14 0.000000 0.000000 0.500000
#
# Coordination Sequence:
#
# PCOD9027688 Si02
#       6
#     2   2   2   2   2   2
#     4  10  23  43  68 100 140 178 233 283 348 408
#     4  11  25  46  70 101 142 184 232 285 347 411
#     4  10  22  41  69 100 133 183 227 283 343 412
#     4  12  27  45  72 108 139 182 235 285 350 417
#     4  12  24  44  70 101 138 188 227 288 350 413
#     4  11  25  45  70 102 144 183 229 294 345 413
#
# _framework density 24.945754999999998
#
# number of rings (size 3 to 8) (size 9 to 14) (size 15 to 20)
#    0.000    1.000    1.667    4.000    4.667    2.000 
#    0.000    0.000    0.000    0.000    0.000    0.000 
#    0.000    0.000    0.000    0.000    0.000    0.000 
#
# Total GULP energy -67076.437645 kJ/mol
# GULP energy per Si atom -5589.703137 kJ/mol
# Density = 2.488898 g / cm^3
# Si number density = 24.945755 Si / 1000 Ang^3
#
#
#
# Elastic Constant Matrix: (Units=GPa)
#
#
# Indices 1 2 3 4 5 6 
#
# 1 119.9356 23.7579 36.3019 -5.2197 -3.1275 -17.8572
# 2 23.7579 50.1501 66.4649 -1.3803 -4.7645 -10.5791
# 3 36.3019 66.4649 311.6102 10.0028 -5.2994 -7.7885
# 4 -5.2197 -1.3803 10.0028 62.7152 -5.4227 -0.8250
# 5 -3.1275 -4.7645 -5.2994 -5.4227 42.5056 4.2541
# 6 -17.8572 -10.5791 -7.7885 -0.8250 4.2541 40.8941
#
#
#
# Elastic Compliance Matrix: (Units=1/GPa)
#
#
# Indices 1 2 3 4 5 6 
#
# 1 0.009639 -0.003391 -0.000343 0.000831 0.000064 0.003277
# 2 -0.003391 0.030968 -0.006096 0.001626 0.002151 0.005178
# 3 -0.000343 -0.006096 0.004554 -0.000915 -0.000171 -0.000860
# 4 0.000831 0.001626 -0.000915 0.016391 0.002149 0.000716
# 5 0.000064 0.002151 -0.000171 0.002149 0.024217 -0.001924
# 6 0.003277 0.005178 -0.000860 0.000716 -0.001924 0.027275
#
#
# Mechanical properties :
#
#
# Convention : Reuss Voigt Hill
#
# Bulk Modulus (GPa) = 39.21648 81.63837 60.42743
# Shear Modulus (GPa) = 35.40914 52.90105 44.15510
#
# Velocity S-wave (km/s) = 3.77164 4.61004 4.21175
# Velocity P-wave (km/s) = 5.89253 7.81883 6.92300
#
# Compressibility (1/GPa) = 0.02549948
#
# Stress axis : x y z
#
# Youngs Moduli (GPa) = 103.74330 32.29157 219.56677
#
# Poissons Ratio (x) = 0.10951 0.07537
# Poissons Ratio (y) = 0.35183 1.33856
# Poissons Ratio (z) = 0.03561 0.19686
#
# Static dielectric constant tensor:
#      x y z
#    x 1.969850 -0.046300 0.133820 
#    y -0.046300 1.960370 0.100900 
#    z 0.133820 0.100900 2.022750 
# 
# From -- ./inp_files/296544.got.cif
#   From: 2010.05.17/outbox.cif.g08.bks.cpg/sg2_149_cif.got.tgz:296544.got - 2010.06.03 11:33:40.
