data_PCOD9027489
_publ_section_title
;
Structure prediction by ZEFSAII (Michael W. Deem and Ramdas Pophale) SiO2 
 PCOD9027489
Probable space group: P -1
;
_chemical_formula_sum "Si O2"
_cell_formula_units_Z 16
_cell_length_a 8.969641
_cell_length_b 10.283531
_cell_length_c 12.964732
_cell_angle_alpha 145.205359
_cell_angle_beta 94.824297
_cell_angle_gamma 74.290086
_cell_volume 635.765295
_symmetry_space_group_name_H-M "P -1"
_symmetry_group_IT_number 2
_symmetry_cell_setting 'triclinic'
loop_
_space_group_symop_operation_xyz
x,y,z
-x,-y,-z
loop_
_atom_site_type_symbol
_atom_site_label
_atom_site_fract_x
_atom_site_fract_y
_atom_site_fract_z
Si Si1 0.456069 0.280865 0.809118
Si Si2 0.571079 0.326034 0.637374
Si Si3 0.716184 0.621149 0.610098
Si Si4 0.084421 0.563392 0.944456
Si Si5 0.241134 0.701020 0.774143
Si Si6 0.110654 0.052362 0.166944
Si Si7 0.385115 0.939932 0.736864
Si Si8 0.202706 0.384072 0.154801
O O1 0.555850 0.188950 0.650942
O O2 0.267682 0.392137 0.845492
O O3 0.476687 0.090662 0.776597
O O4 0.500000 0.500000 0.000000
O O5 0.388967 0.473477 0.682766
O O6 0.660612 0.179556 0.446114
O O7 0.670130 0.492244 0.788807
O O8 0.726896 0.372180 0.392468
O O9 0.528726 0.769289 0.703753
O O10 0.785430 0.604188 0.715533
O O11 0.816246 0.767209 0.653215
O O12 0.981821 0.495172 0.806225
O O13 0.082638 0.839160 0.096898
O O14 0.000000 0.500000 0.000000
O O15 0.239064 0.904057 0.990407
O O16 0.047579 0.787311 0.802199
O O17 0.257952 0.127616 0.927877
#
# Coordination Sequence:
#
# PCOD9027489 Si02
#       8
#     2   2   2   2   2   2   2   2
#     4  12  22  47  76  97 138 186 236 281 345 411
#     4  11  24  43  72 102 139 183 234 286 340 413
#     4  11  25  41  69 107 139 180 234 285 345 418
#     4  12  25  45  73 102 136 181 232 289 343 416
#     4  10  22  41  68 105 138 183 231 284 337 425
#     4  11  22  42  71  95 142 186 222 285 360 398
#     4  11  24  43  70 101 139 187 233 283 342 414
#     4  12  25  44  68 103 146 178 227 286 351 403
#
# _framework density 25.166519000000001
#
# number of rings (size 3 to 8) (size 9 to 14) (size 15 to 20)
#    0.000    0.750    3.750    4.125    0.000    5.000 
#    0.000    0.625    2.750    0.000    0.000    0.000 
#    0.000    0.000    0.000    0.000    0.000    0.000 
#
# Total GULP energy -89172.650465 kJ/mol
# GULP energy per Si atom -5573.290654 kJ/mol
# Density = 2.510924 g / cm^3
# Si number density = 25.166519 Si / 1000 Ang^3
#
#
#
# Elastic Constant Matrix: (Units=GPa)
#
#
# Indices 1 2 3 4 5 6 
#
# 1 116.8359 32.4783 33.8262 -3.4479 18.9346 -11.0354
# 2 32.4783 91.6085 11.0196 -30.2092 -2.4131 6.5498
# 3 33.8262 11.0196 102.8835 -15.5225 17.3436 -4.6378
# 4 -3.4479 -30.2092 -15.5225 34.4704 6.1711 -2.8643
# 5 18.9346 -2.4131 17.3436 6.1711 36.3349 -9.8589
# 6 -11.0354 6.5498 -4.6378 -2.8643 -9.8589 53.7657
#
#
#
# Elastic Compliance Matrix: (Units=1/GPa)
#
#
# Indices 1 2 3 4 5 6 
#
# 1 0.011605 -0.005320 -0.003160 -0.004109 -0.003690 0.001862
# 2 -0.005320 0.018013 0.002231 0.016149 -0.000468 -0.002319
# 3 -0.003160 0.002231 0.012749 0.008388 -0.005836 -0.000444
# 4 -0.004109 0.016149 0.008388 0.048091 -0.009291 -0.001229
# 5 -0.003690 -0.000468 -0.005836 -0.009291 0.035060 0.004730
# 6 0.001862 -0.002319 -0.000444 -0.001229 0.004730 0.020028
#
#
# Mechanical properties :
#
#
# Convention : Reuss Voigt Hill
#
# Bulk Modulus (GPa) = 33.47923 51.77513 42.62718
# Shear Modulus (GPa) = 29.76202 40.51444 35.13823
#
# Velocity S-wave (km/s) = 3.44263 4.01665 3.74067
# Velocity P-wave (km/s) = 5.39761 6.49069 5.96922
#
# Compressibility (1/GPa) = 0.02986927
#
# Stress axis : x y z
#
# Youngs Moduli (GPa) = 86.16871 55.51652 78.43802
#
# Poissons Ratio (x) = 0.29532 0.24785
# Poissons Ratio (y) = 0.45838 -0.17497
# Poissons Ratio (z) = 0.27228 -0.12384
#
# Static dielectric constant tensor:
#      x y z
#    x 2.217070 0.428830 -0.080520 
#    y 0.428830 2.443930 -0.078520 
#    z -0.080520 -0.078520 2.060990 
# 
# From -- ./inp_files/501225.got.cif
#   From: 2010.05.17/outbox.cif.g08.bks.cpg/sg2_251_cif.got.tgz:501225.got - 2010.06.03 11:33:40.
