data_PCOD9027097
_publ_section_title
;
Structure prediction by ZEFSAII (Michael W. Deem and Ramdas Pophale) SiO2 
 PCOD9027097
Probable space group: P -1
;
_chemical_formula_sum "Si O2"
_cell_formula_units_Z 16
_cell_length_a 8.568378
_cell_length_b 9.399177
_cell_length_c 14.251371
_cell_angle_alpha 116.523721
_cell_angle_beta 86.838909
_cell_angle_gamma 50.050819
_cell_volume 682.506597
_symmetry_space_group_name_H-M "P -1"
_symmetry_group_IT_number 2
_symmetry_cell_setting 'triclinic'
loop_
_space_group_symop_operation_xyz
x,y,z
-x,-y,-z
loop_
_atom_site_type_symbol
_atom_site_label
_atom_site_fract_x
_atom_site_fract_y
_atom_site_fract_z
Si Si1 0.727802 0.736431 0.876972
Si Si2 0.042924 0.925190 0.193785
Si Si3 0.664347 0.791649 0.565113
Si Si4 0.300864 0.034976 0.225710
Si Si5 0.210509 0.467521 0.999154
Si Si6 0.862966 0.223767 0.639377
Si Si7 0.498739 0.385443 0.376880
Si Si8 0.169765 0.309952 0.673505
O O1 0.719898 0.598843 0.911586
O O2 0.012457 0.548141 0.810962
O O3 0.688099 0.813205 0.792302
O O4 0.500000 0.000000 0.000000
O O5 0.133501 0.027310 0.186583
O O6 0.130329 0.710543 0.065373
O O7 0.139270 0.839016 0.272844
O O8 0.762676 0.132468 0.270734
O O9 0.645888 0.652367 0.588679
O O10 0.765733 0.673898 0.425884
O O11 0.786336 0.840442 0.633164
O O12 0.403992 0.061331 0.637014
O O13 0.560621 0.759844 0.133030
O O14 0.000000 0.500000 0.000000
O O15 0.619149 0.446380 0.660817
O O16 0.002671 0.284303 0.655983
O O17 0.000000 0.000000 0.500000
O O18 0.500000 0.500000 0.500000
#
# Coordination Sequence:
#
# PCOD9027097 Si02
#       8
#     2   2   2   2   2   2   2   2
#     4  10  22  41  66  97 130 180 230 279 341 415
#     4  12  25  47  68 105 142 184 236 290 352 421
#     4  11  24  41  69 102 138 183 236 289 357 418
#     4  11  25  43  70 104 140 182 233 294 353 411
#     4  11  23  47  75  96 139 187 236 291 350 418
#     4  12  23  42  67  96 143 183 226 288 356 414
#     4  12  25  42  67 100 140 192 234 283 354 425
#     4  11  22  41  67 101 138 181 236 289 346 424
#
# _framework density 23.442996000000001
#
# number of rings (size 3 to 8) (size 9 to 14) (size 15 to 20)
#    0.000    0.750    3.750    3.375    1.750    3.000 
#    2.250    0.625    0.000    0.000    0.000    0.000 
#    0.000    0.000    0.000    0.000    0.000    0.000 
#
# Total GULP energy -89227.380142 kJ/mol
# GULP energy per Si atom -5576.711259 kJ/mol
# Density = 2.338964 g / cm^3
# Si number density = 23.442996 Si / 1000 Ang^3
#
#
#
# Elastic Constant Matrix: (Units=GPa)
#
#
# Indices 1 2 3 4 5 6 
#
# 1 73.4748 -0.5322 9.2252 2.8652 16.6022 11.9572
# 2 -0.5322 94.1141 29.8918 8.3163 3.6396 -8.4537
# 3 9.2252 29.8918 99.3184 5.1731 -10.4739 2.3452
# 4 2.8652 8.3163 5.1731 32.8275 -8.1513 -2.0207
# 5 16.6022 3.6396 -10.4739 -8.1513 36.3698 7.4878
# 6 11.9572 -8.4537 2.3452 -2.0207 7.4878 31.1991
#
#
#
# Elastic Compliance Matrix: (Units=1/GPa)
#
#
# Indices 1 2 3 4 5 6 
#
# 1 0.016645 0.001172 -0.002498 -0.003699 -0.008422 -0.004092
# 2 0.001172 0.012926 -0.004419 -0.003607 -0.004795 0.004303
# 3 -0.002498 -0.004419 0.012264 0.000687 0.005784 -0.002506
# 4 -0.003699 -0.003607 0.000687 0.034046 0.009829 0.000235
# 5 -0.008422 -0.004795 0.005784 0.009829 0.037082 -0.006770
# 6 -0.004092 0.004303 -0.002506 0.000235 -0.006770 0.036615
#
#
# Mechanical properties :
#
#
# Convention : Reuss Voigt Hill
#
# Bulk Modulus (GPa) = 32.95199 38.23078 35.59139
# Shear Modulus (GPa) = 29.20873 35.30076 32.25475
#
# Velocity S-wave (km/s) = 3.53363 3.88469 3.71331
# Velocity P-wave (km/s) = 5.54395 6.03858 5.79655
#
# Compressibility (1/GPa) = 0.03034718
#
# Stress axis : x y z
#
# Youngs Moduli (GPa) = 60.07677 77.36297 81.54022
#
# Poissons Ratio (x) = -0.09070 0.20367
# Poissons Ratio (y) = -0.07043 0.36030
# Poissons Ratio (z) = 0.15006 0.34184
#
# Static dielectric constant tensor:
#      x y z
#    x 1.872330 -0.025950 0.032420 
#    y -0.025950 1.933550 0.016340 
#    z 0.032420 0.016340 1.907860 
# 
# From -- ./inp_files/495430.got.cif
#   From: 2010.05.17/outbox.cif.g08.bks.cpg/sg2_248_cif.got.tgz:495430.got - 2010.06.03 11:33:40.
