data_PCOD9027542
_publ_section_title
;
Structure prediction by ZEFSAII (Michael W. Deem and Ramdas Pophale) SiO2 
 PCOD9027542
Probable space group: P -1
;
_chemical_formula_sum "Si O2"
_cell_formula_units_Z 13
_cell_length_a 6.964984
_cell_length_b 11.687318
_cell_length_c 13.535837
_cell_angle_alpha 133.839531
_cell_angle_beta 135.466249
_cell_angle_gamma 60.457630
_cell_volume 557.374504
_symmetry_space_group_name_H-M "P -1"
_symmetry_group_IT_number 2
_symmetry_cell_setting 'triclinic'
loop_
_space_group_symop_operation_xyz
x,y,z
-x,-y,-z
loop_
_atom_site_type_symbol
_atom_site_label
_atom_site_fract_x
_atom_site_fract_y
_atom_site_fract_z
Si Si1 0.708033 0.879600 0.555707
Si Si2 0.000000 0.500000 0.500000
Si Si3 0.460408 0.835257 0.650522
Si Si4 0.940798 0.414930 0.824288
Si Si5 0.536990 0.685454 0.792352
Si Si6 0.927157 0.616143 0.343521
Si Si7 0.823247 0.891418 0.188660
O O1 0.621815 0.830714 0.604697
O O2 0.724613 0.724064 0.399130
O O3 0.500000 0.000000 0.500000
O O4 0.994308 0.973924 0.715865
O O5 0.782789 0.352405 0.341575
O O6 0.993867 0.517832 0.630364
O O7 0.602140 0.767807 0.760958
O O8 0.184927 0.729016 0.478515
O O9 0.364278 0.014767 0.746084
O O10 0.673671 0.511001 0.747287
O O11 0.156339 0.442442 0.830289
O O12 0.972947 0.230981 0.755412
O O13 0.000000 0.500000 0.000000
O O14 0.648115 0.794782 0.986631
#
# Coordination Sequence:
#
# PCOD9027542 Si02
#       7
#     2   1   2   2   2   2   2
#     4  11  23  38  68  98 128 176 222 265 334 398
#     4  10  24  40  66  98 126 176 220 266 332 390
#     4  10  22  41  68  93 131 177 217 278 325 388
#     4  10  22  42  66  93 136 175 208 274 336 386
#     4  10  23  43  67  95 136 172 222 274 329 394
#     4  10  23  40  64  98 131 167 222 272 321 394
#     4  10  22  44  63  98 136 169 218 278 329 390
#
# _framework density 23.323637000000002
#
# number of rings (size 3 to 8) (size 9 to 14) (size 15 to 20)
#    0.000    1.846    0.000    2.308    6.462    4.308 
#    5.538    1.538    0.000    0.000    0.000    0.000 
#    0.000    0.000    0.000    0.000    0.000    0.000 
#
# Total GULP energy -72376.980077 kJ/mol
# GULP energy per Si atom -5567.460006 kJ/mol
# Density = 2.327055 g / cm^3
# Si number density = 23.323637 Si / 1000 Ang^3
#
#
#
# Elastic Constant Matrix: (Units=GPa)
#
#
# Indices 1 2 3 4 5 6 
#
# 1 135.9401 44.3158 48.0539 4.2416 -48.3205 33.7195
# 2 44.3158 133.2968 31.0163 2.4599 -22.2124 12.4967
# 3 48.0539 31.0163 84.9728 2.1364 -31.5756 9.1184
# 4 4.2416 2.4599 2.1364 30.7101 2.9259 -14.4149
# 5 -48.3205 -22.2124 -31.5756 2.9259 49.1064 -5.8355
# 6 33.7195 12.4967 9.1184 -14.4149 -5.8355 46.5166
#
#
#
# Elastic Compliance Matrix: (Units=1/GPa)
#
#
# Indices 1 2 3 4 5 6 
#
# 1 0.016853 -0.001457 -0.002440 -0.009193 0.013416 -0.012513
# 2 -0.001457 0.008732 -0.001722 -0.001023 0.001339 -0.001101
# 3 -0.002440 -0.001722 0.016706 -0.001701 0.007591 -0.000619
# 4 -0.009193 -0.001023 -0.001701 0.044284 -0.010908 0.019627
# 5 0.013416 0.001339 0.007591 -0.010908 0.038499 -0.010124
# 6 -0.012513 -0.001101 -0.000619 0.019627 -0.010124 0.035797
#
#
# Mechanical properties :
#
#
# Convention : Reuss Voigt Hill
#
# Bulk Modulus (GPa) = 32.20103 66.77576 49.48839
# Shear Modulus (GPa) = 27.40315 40.65487 34.02901
#
# Velocity S-wave (km/s) = 3.43141 4.17955 3.82382
# Velocity P-wave (km/s) = 5.43467 7.20997 6.38433
#
# Compressibility (1/GPa) = 0.03105491
#
# Stress axis : x y z
#
# Youngs Moduli (GPa) = 59.33691 114.51623 59.85697
#
# Poissons Ratio (x) = 0.16683 0.14603
# Poissons Ratio (y) = 0.08645 0.10307
# Poissons Ratio (z) = 0.14476 0.19720
#
# Static dielectric constant tensor:
#      x y z
#    x 1.900110 -0.074850 -0.030380 
#    y -0.074850 1.980760 -0.041350 
#    z -0.030380 -0.041350 1.947690 
# 
# From -- ./inp_files/63305.got.cif
#   From: 2010.05.17/outbox.cif.g08.bks.cpg/sg2_32_cif.got.tgz:63305.got - 2010.06.03 11:33:40.
