data_PCOD9027424
_publ_section_title
;
Structure prediction by ZEFSAII (Michael W. Deem and Ramdas Pophale) SiO2 
 PCOD9027424
Probable space group: P -1
;
_chemical_formula_sum "Si O2"
_cell_formula_units_Z 14
_cell_length_a 8.508357
_cell_length_b 7.557307
_cell_length_c 9.672753
_cell_angle_alpha 84.912952
_cell_angle_beta 60.058487
_cell_angle_gamma 87.115798
_cell_volume 536.814744
_symmetry_space_group_name_H-M "P -1"
_symmetry_group_IT_number 2
_symmetry_cell_setting 'triclinic'
loop_
_space_group_symop_operation_xyz
x,y,z
-x,-y,-z
loop_
_atom_site_type_symbol
_atom_site_label
_atom_site_fract_x
_atom_site_fract_y
_atom_site_fract_z
Si Si1 0.790042 0.917447 0.249878
Si Si2 0.248893 0.407949 0.876931
Si Si3 0.274895 0.106682 0.416717
Si Si4 0.582088 0.112254 0.082056
Si Si5 0.376683 0.604584 0.156413
Si Si6 0.883232 0.274153 0.540361
Si Si7 0.943196 0.287325 0.201201
O O1 0.687556 0.997544 0.156158
O O2 0.934882 0.072988 0.206160
O O3 0.839991 0.721425 0.190290
O O4 0.675442 0.900358 0.442583
O O5 0.460261 0.365440 0.805038
O O6 0.199593 0.608177 0.840891
O O7 0.139727 0.356496 0.066885
O O8 0.417076 0.191908 0.242338
O O9 0.082376 0.205632 0.495150
O O10 0.239594 0.905876 0.391889
O O11 0.695777 0.247671 0.931335
O O12 0.500000 0.000000 0.000000
O O13 0.203945 0.580621 0.330944
O O14 0.500000 0.500000 0.000000
O O15 0.887601 0.332812 0.376666
#
# Coordination Sequence:
#
# PCOD9027424 Si02
#       7
#     2   2   2   2   2   2   2
#     4  11  23  40  71 100 136 177 226 273 345 403
#     4  11  23  44  65  99 136 176 225 283 333 406
#     4  10  22  41  68 100 133 177 227 278 334 403
#     4  12  22  41  68  96 132 175 224 273 334 401
#     4  12  26  42  66  97 137 181 226 277 342 404
#     4  10  22  42  65  97 136 176 227 281 332 399
#     4  10  24  42  68  99 135 177 226 279 342 401
#
# _framework density 26.079763
#
# number of rings (size 3 to 8) (size 9 to 14) (size 15 to 20)
#    0.000    1.143    2.857    2.571    0.000    7.429 
#    0.000    2.143    0.000    0.000    0.000    0.000 
#    0.000    0.000    0.000    0.000    0.000    0.000 
#
# Total GULP energy -78263.928241 kJ/mol
# GULP energy per Si atom -5590.280589 kJ/mol
# Density = 2.602040 g / cm^3
# Si number density = 26.079763 Si / 1000 Ang^3
#
#
#
# Elastic Constant Matrix: (Units=GPa)
#
#
# Indices 1 2 3 4 5 6 
#
# 1 71.5184 3.9958 35.6873 -3.6314 1.9251 -14.9935
# 2 3.9958 81.3838 21.4880 10.1400 2.6114 7.2205
# 3 35.6873 21.4880 186.4345 6.1432 6.8531 -5.0901
# 4 -3.6314 10.1400 6.1432 41.9299 -8.4888 2.3665
# 5 1.9251 2.6114 6.8531 -8.4888 45.8099 2.7054
# 6 -14.9935 7.2205 -5.0901 2.3665 2.7054 34.1079
#
#
#
# Elastic Compliance Matrix: (Units=1/GPa)
#
#
# Indices 1 2 3 4 5 6 
#
# 1 0.017140 -0.000876 -0.003027 0.001667 -0.000333 0.007179
# 2 -0.000876 0.013376 -0.001322 -0.003127 -0.000923 -0.003124
# 3 -0.003027 -0.001322 0.006163 -0.001031 -0.000911 0.000013
# 4 0.001667 -0.003127 -0.001031 0.025996 0.005137 -0.000970
# 5 -0.000333 -0.000923 -0.000911 0.005137 0.023119 -0.002277
# 6 0.007179 -0.003124 0.000013 -0.000970 -0.002277 0.033386
#
#
# Mechanical properties :
#
#
# Convention : Reuss Voigt Hill
#
# Bulk Modulus (GPa) = 38.12561 51.29766 44.71163
# Shear Modulus (GPa) = 36.13395 42.91388 39.52392
#
# Velocity S-wave (km/s) = 3.72629 4.06086 3.89717
# Velocity P-wave (km/s) = 5.75884 6.45753 6.11817
#
# Compressibility (1/GPa) = 0.02622909
#
# Stress axis : x y z
#
# Youngs Moduli (GPa) = 58.34158 74.76038 162.24826
#
# Poissons Ratio (x) = 0.06552 0.49108
# Poissons Ratio (y) = 0.05113 0.21453
# Poissons Ratio (z) = 0.17658 0.09885
#
# Static dielectric constant tensor:
#      x y z
#    x 2.095320 0.030480 0.023090 
#    y 0.030480 2.168590 0.052720 
#    z 0.023090 0.052720 1.966110 
# 
# From -- ./inp_files/158379.got.cif
#   From: 2010.05.17/outbox.cif.g08.bks.cpg/sg2_80_cif.got.tgz:158379.got - 2010.06.03 11:33:40.
