data_PCOD9027235
_publ_section_title
;
Structure prediction by ZEFSAII (Michael W. Deem and Ramdas Pophale) SiO2 
 PCOD9027235
Probable space group: P -1
;
_chemical_formula_sum "Si O2"
_cell_formula_units_Z 16
_cell_length_a 8.204583
_cell_length_b 10.803541
_cell_length_c 8.993966
_cell_angle_alpha 72.375221
_cell_angle_beta 72.632206
_cell_angle_gamma 56.675434
_cell_volume 626.055998
_symmetry_space_group_name_H-M "P -1"
_symmetry_group_IT_number 2
_symmetry_cell_setting 'triclinic'
loop_
_space_group_symop_operation_xyz
x,y,z
-x,-y,-z
loop_
_atom_site_type_symbol
_atom_site_label
_atom_site_fract_x
_atom_site_fract_y
_atom_site_fract_z
Si Si1 0.164826 0.004673 0.580747
Si Si2 0.017452 0.698674 0.921510
Si Si3 0.414087 0.837742 0.857175
Si Si4 0.675794 0.977937 0.778376
Si Si5 0.831721 0.552754 0.809832
Si Si6 0.731661 0.309599 0.381101
Si Si7 0.713605 0.493113 0.582178
Si Si8 0.766493 0.199991 0.801683
O O1 0.334052 0.907924 0.692363
O O2 0.139742 0.868958 0.567238
O O3 0.250254 0.057439 0.401872
O O4 0.982297 0.116885 0.695076
O O5 0.223138 0.664116 0.806986
O O6 0.855588 0.871956 0.880049
O O7 0.933523 0.623863 0.855728
O O8 0.061120 0.617571 0.095577
O O9 0.505095 0.937991 0.858849
O O10 0.599163 0.667070 0.864327
O O11 0.249948 0.839335 0.009708
O O12 0.634387 0.143045 0.770305
O O13 0.834204 0.544454 0.634029
O O14 0.794904 0.399660 0.442966
O O15 0.502531 0.370319 0.446499
O O16 0.681690 0.375530 0.733531
#
# Coordination Sequence:
#
# PCOD9027235 Si02
#       8
#     2   2   2   2   2   2   2   2
#     4  12  23  44  69  99 134 175 223 272 333 398
#     4  10  22  41  67  92 130 179 216 271 335 390
#     4  11  25  42  66 101 134 175 221 273 336 395
#     4  11  23  44  67  94 138 177 217 273 334 398
#     4  10  23  43  64  95 136 174 219 271 335 395
#     4  11  22  41  67  97 131 175 224 272 329 393
#     4  11  24  40  67  98 132 172 223 277 325 397
#     4  12  24  40  67 102 132 172 221 275 333 393
#
# _framework density 25.556820999999999
#
# number of rings (size 3 to 8) (size 9 to 14) (size 15 to 20)
#    0.000    1.000    3.750    3.000    1.750    2.500 
#    0.000    2.500    0.000    0.000    0.000    0.000 
#    0.000    0.000    0.000    0.000    0.000    0.000 
#
# Total GULP energy -89436.204665 kJ/mol
# GULP energy per Si atom -5589.762792 kJ/mol
# Density = 2.549865 g / cm^3
# Si number density = 25.556821 Si / 1000 Ang^3
#
#
#
# Elastic Constant Matrix: (Units=GPa)
#
#
# Indices 1 2 3 4 5 6 
#
# 1 57.6394 12.1500 12.8922 8.8613 11.0092 -5.4516
# 2 12.1500 107.9438 15.4746 3.6175 0.6091 -12.8989
# 3 12.8922 15.4746 102.5460 11.6684 10.0289 -24.9489
# 4 8.8613 3.6175 11.6684 34.9392 3.2223 10.2349
# 5 11.0092 0.6091 10.0289 3.2223 39.7353 6.8739
# 6 -5.4516 -12.8989 -24.9489 10.2349 6.8739 29.6482
#
#
#
# Elastic Compliance Matrix: (Units=1/GPa)
#
#
# Indices 1 2 3 4 5 6 
#
# 1 0.020549 -0.001203 0.001094 -0.007243 -0.006791 0.008250
# 2 -0.001203 0.010081 0.000248 -0.002323 -0.000616 0.005318
# 3 0.001094 0.000248 0.016109 -0.010656 -0.006817 0.019123
# 4 -0.007243 -0.002323 -0.010656 0.041633 0.006041 -0.027082
# 5 -0.006791 -0.000616 -0.006817 0.006041 0.031153 -0.016561
# 6 0.008250 0.005318 0.019123 -0.027082 -0.016561 0.066840
#
#
# Mechanical properties :
#
#
# Convention : Reuss Voigt Hill
#
# Bulk Modulus (GPa) = 21.26913 38.79587 30.03250
# Shear Modulus (GPa) = 24.78205 36.03872 30.41038
#
# Velocity S-wave (km/s) = 3.11735 3.75926 3.45325
# Velocity P-wave (km/s) = 4.61493 5.83574 5.26087
#
# Compressibility (1/GPa) = 0.04701649
#
# Stress axis : x y z
#
# Youngs Moduli (GPa) = 48.66400 99.19970 62.07894
#
# Poissons Ratio (x) = 0.11932 -0.06789
# Poissons Ratio (y) = 0.05853 -0.01542
# Poissons Ratio (z) = -0.05322 -0.02464
#
# Static dielectric constant tensor:
#      x y z
#    x 2.054770 0.051460 0.043280 
#    y 0.051460 2.013290 0.017650 
#    z 0.043280 0.017650 2.016830 
# 
# From -- ./inp_files/186633.got.cif
#   From: 2010.05.17/outbox.cif.g08.bks.cpg/sg2_94_cif.got.tgz:186633.got - 2010.06.03 11:33:40.
