data_PCOD9027888
_publ_section_title
;
Structure prediction by ZEFSAII (Michael W. Deem and Ramdas Pophale) SiO2 
 PCOD9027888
Probable space group: P -1
;
_chemical_formula_sum "Si O2"
_cell_formula_units_Z 14
_cell_length_a 17.868921
_cell_length_b 4.971160
_cell_length_c 9.574380
_cell_angle_alpha 87.512065
_cell_angle_beta 129.265963
_cell_angle_gamma 66.724228
_cell_volume 550.956849
_symmetry_space_group_name_H-M "P -1"
_symmetry_group_IT_number 2
_symmetry_cell_setting 'triclinic'
loop_
_space_group_symop_operation_xyz
x,y,z
-x,-y,-z
loop_
_atom_site_type_symbol
_atom_site_label
_atom_site_fract_x
_atom_site_fract_y
_atom_site_fract_z
Si Si1 0.225809 0.074693 0.432147
Si Si2 0.906195 0.503715 0.491283
Si Si3 0.079686 0.867049 0.824998
Si Si4 0.591664 0.447083 0.727409
Si Si5 0.473642 0.796990 0.866559
Si Si6 0.220924 0.162130 0.909748
Si Si7 0.788579 0.387492 0.768773
O O1 0.120395 0.291353 0.406276
O O2 0.211459 0.304142 0.282531
O O3 0.342939 0.975259 0.651818
O O4 0.230483 0.767675 0.385853
O O5 0.789738 0.687073 0.258040
O O6 0.000000 0.500000 0.500000
O O7 0.958996 0.138953 0.609463
O O8 0.134270 0.489699 0.882657
O O9 0.165968 0.946492 0.848049
O O10 0.097412 0.889240 0.009263
O O11 0.500000 0.500000 0.500000
O O12 0.544615 0.665957 0.806280
O O13 0.684327 0.480623 0.749553
O O14 0.656932 0.081584 0.871825
O O15 0.500000 0.500000 0.000000
O O16 0.500000 0.000000 0.000000
#
# Coordination Sequence:
#
# PCOD9027888 Si02
#       7
#     2   2   2   2   2   2   2
#     4  12  26  45  70 104 152 186 251 314 360 450
#     4  10  24  46  74 102 145 199 244 306 384 441
#     4  10  22  41  69  99 139 182 238 304 359 440
#     4  11  24  47  79 105 150 203 247 302 378 449
#     4  12  28  48  73 111 151 198 251 310 372 438
#     4  10  22  42  68 105 135 181 252 294 357 444
#     4  11  25  44  68 109 144 190 247 303 372 444
#
# _framework density 25.410336999999998
#
# number of rings (size 3 to 8) (size 9 to 14) (size 15 to 20)
#    0.000    1.143    1.429    3.857    0.000   12.000 
#    0.000    0.000    0.000    0.000    0.000    0.000 
#    0.000    0.000    0.000    0.000    0.000    0.000 
#
# Total GULP energy -78298.238843 kJ/mol
# GULP energy per Si atom -5592.731346 kJ/mol
# Density = 2.535250 g / cm^3
# Si number density = 25.410337 Si / 1000 Ang^3
#
#
#
# Elastic Constant Matrix: (Units=GPa)
#
#
# Indices 1 2 3 4 5 6 
#
# 1 102.6647 47.7614 22.1842 -4.6708 -22.2049 -25.3374
# 2 47.7614 147.8954 36.4623 8.7764 -1.3470 -13.2215
# 3 22.1842 36.4623 207.0170 -19.1887 -13.7828 2.0729
# 4 -4.6708 8.7764 -19.1887 51.2670 -0.6649 -12.5397
# 5 -22.2049 -1.3470 -13.7828 -0.6649 17.2723 6.0267
# 6 -25.3374 -13.2215 2.0729 -12.5397 6.0267 53.8234
#
#
#
# Elastic Compliance Matrix: (Units=1/GPa)
#
#
# Indices 1 2 3 4 5 6 
#
# 1 0.018856 -0.005856 0.000902 0.004817 0.022598 0.005995
# 2 -0.005856 0.009182 -0.001813 -0.002937 -0.008307 -0.000185
# 3 0.000902 -0.001813 0.005672 0.002518 0.005744 -0.000296
# 4 0.004817 -0.002937 0.002518 0.022955 0.006749 0.006042
# 5 0.022598 -0.008307 0.005744 0.006749 0.091236 -0.000268
# 6 0.005995 -0.000185 -0.000296 0.006042 -0.000268 0.022805
#
#
# Mechanical properties :
#
#
# Convention : Reuss Voigt Hill
#
# Bulk Modulus (GPa) = 49.56517 74.48810 62.02664
# Shear Modulus (GPa) = 26.18270 47.88381 37.03326
#
# Velocity S-wave (km/s) = 3.21346 4.34570 3.82174
# Velocity P-wave (km/s) = 5.77206 7.38633 6.62852
#
# Compressibility (1/GPa) = 0.02017546
#
# Stress axis : x y z
#
# Youngs Moduli (GPa) = 53.03295 108.91241 176.30456
#
# Poissons Ratio (x) = 0.63777 -0.15898
# Poissons Ratio (y) = 0.31055 0.31967
# Poissons Ratio (z) = -0.04782 0.19747
#
# Static dielectric constant tensor:
#      x y z
#    x 2.034990 -0.027830 0.106260 
#    y -0.027830 2.041620 0.101840 
#    z 0.106260 0.101840 2.235110 
# 
# From -- ./inp_files/339382.got.cif
#   From: 2010.05.17/outbox.cif.g08.bks.cpg/sg2_170_cif.got.tgz:339382.got - 2010.06.03 11:33:40.
