data_PCOD9027889
_publ_section_title
;
Structure prediction by ZEFSAII (Michael W. Deem and Ramdas Pophale) SiO2 
 PCOD9027889
Probable space group: P -1
;
_chemical_formula_sum "Si O2"
_cell_formula_units_Z 14
_cell_length_a 7.737944
_cell_length_b 8.167664
_cell_length_c 8.824440
_cell_angle_alpha 107.283921
_cell_angle_beta 102.424214
_cell_angle_gamma 93.597031
_cell_volume 515.237834
_symmetry_space_group_name_H-M "P -1"
_symmetry_group_IT_number 2
_symmetry_cell_setting 'triclinic'
loop_
_space_group_symop_operation_xyz
x,y,z
-x,-y,-z
loop_
_atom_site_type_symbol
_atom_site_label
_atom_site_fract_x
_atom_site_fract_y
_atom_site_fract_z
Si Si1 0.149964 0.488209 0.818199
Si Si2 0.609303 0.269325 0.885564
Si Si3 0.889079 0.738832 0.814866
Si Si4 0.259146 0.987794 0.944661
Si Si5 0.760082 0.844350 0.320198
Si Si6 0.300405 0.533702 0.517409
Si Si7 0.299968 0.884956 0.424600
O O1 0.105424 0.282999 0.740020
O O2 0.228175 0.544385 0.679344
O O3 0.982570 0.581856 0.859326
O O4 0.302119 0.547911 0.986281
O O5 0.433136 0.278600 0.753618
O O6 0.731513 0.178812 0.768473
O O7 0.614384 0.141683 0.995870
O O8 0.810679 0.640145 0.622828
O O9 0.060466 0.881901 0.871354
O O10 0.751002 0.835971 0.911906
O O11 0.287824 0.030878 0.786954
O O12 0.811226 0.964519 0.504266
O O13 0.500000 0.500000 0.500000
O O14 0.280197 0.715329 0.480163
O O15 0.500000 0.000000 0.500000
#
# Coordination Sequence:
#
# PCOD9027889 Si02
#       7
#     2   2   2   2   2   2   2
#     4  11  25  45  67 103 139 183 224 282 341 410
#     4  10  22  41  69  99 140 175 234 284 332 403
#     4  10  25  46  67  99 141 182 229 273 351 406
#     4  10  23  44  71  97 138 185 226 283 338 402
#     4  11  23  40  70 103 138 178 236 276 342 395
#     4  12  26  44  74  99 139 179 230 285 342 400
#     4  10  23  42  63 106 135 173 223 282 343 395
#
# _framework density 27.171917000000001
#
# number of rings (size 3 to 8) (size 9 to 14) (size 15 to 20)
#    0.000    1.429    0.000    4.714   10.000    0.571 
#    5.143    1.429    0.000    0.000    0.000    0.000 
#    0.000    0.000    0.000    0.000    0.000    0.000 
#
# Total GULP energy -78258.682406 kJ/mol
# GULP energy per Si atom -5589.905886 kJ/mol
# Density = 2.711007 g / cm^3
# Si number density = 27.171917 Si / 1000 Ang^3
#
#
#
# Elastic Constant Matrix: (Units=GPa)
#
#
# Indices 1 2 3 4 5 6 
#
# 1 81.0131 4.8696 3.0316 9.7290 0.0116 -13.7398
# 2 4.8696 130.2217 35.4579 20.0066 -5.8514 -3.2064
# 3 3.0316 35.4579 152.3086 53.9748 -11.7805 5.1211
# 4 9.7290 20.0066 53.9748 64.0457 -6.7657 -17.4183
# 5 0.0116 -5.8514 -11.7805 -6.7657 23.4869 3.8215
# 6 -13.7398 -3.2064 5.1211 -17.4183 3.8215 35.5144
#
#
#
# Elastic Compliance Matrix: (Units=1/GPa)
#
#
# Indices 1 2 3 4 5 6 
#
# 1 0.013284 -0.000275 -0.000320 -0.000402 -0.001180 0.005090
# 2 -0.000275 0.008312 -0.001434 -0.001200 0.000981 0.000156
# 3 -0.000320 -0.001434 0.011163 -0.010568 0.003404 -0.007412
# 4 -0.000402 -0.001200 -0.010568 0.029218 0.000286 0.015559
# 5 -0.001180 0.000981 0.003404 0.000286 0.045525 -0.005617
# 6 0.005090 0.000156 -0.007412 0.015559 -0.005617 0.039445
#
#
# Mechanical properties :
#
#
# Convention : Reuss Voigt Hill
#
# Bulk Modulus (GPa) = 34.84187 50.02907 42.43547
# Shear Modulus (GPa) = 31.13844 45.95503 38.54673
#
# Velocity S-wave (km/s) = 3.38890 4.11697 3.77055
# Velocity P-wave (km/s) = 5.30693 6.40712 5.88280
#
# Compressibility (1/GPa) = 0.02870110
#
# Stress axis : x y z
#
# Youngs Moduli (GPa) = 75.27849 120.30494 89.57994
#
# Poissons Ratio (x) = 0.03314 0.02867
# Poissons Ratio (y) = 0.02074 0.12842
# Poissons Ratio (z) = 0.02409 0.17247
#
# Static dielectric constant tensor:
#      x y z
#    x 2.310150 0.013090 0.016480 
#    y 0.013090 2.153000 -0.023270 
#    z 0.016480 -0.023270 2.093460 
# 
# From -- ./inp_files/160253.got.cif
#   From: 2010.05.17/outbox.cif.g08.bks.cpg/sg2_81_cif.got.tgz:160253.got - 2010.06.03 11:33:40.
