data_PCOD9027455
_publ_section_title
;
Structure prediction by ZEFSAII (Michael W. Deem and Ramdas Pophale) SiO2 
 PCOD9027455
Probable space group: P -1
;
_chemical_formula_sum "Si O2"
_cell_formula_units_Z 12
_cell_length_a 5.363079
_cell_length_b 17.219245
_cell_length_c 9.321022
_cell_angle_alpha 133.800270
_cell_angle_beta 67.945599
_cell_angle_gamma 87.524844
_cell_volume 513.323564
_symmetry_space_group_name_H-M "P -1"
_symmetry_group_IT_number 2
_symmetry_cell_setting 'triclinic'
loop_
_space_group_symop_operation_xyz
x,y,z
-x,-y,-z
loop_
_atom_site_type_symbol
_atom_site_label
_atom_site_fract_x
_atom_site_fract_y
_atom_site_fract_z
Si Si1 0.666022 0.013598 0.623977
Si Si2 0.385835 0.619355 0.016935
Si Si3 0.214603 0.202561 0.463290
Si Si4 0.664658 0.606257 0.198285
Si Si5 0.402248 0.640352 0.716355
Si Si6 0.191394 0.236125 0.187690
O O1 0.500000 0.000000 0.500000
O O2 0.692627 0.912584 0.604513
O O3 0.450955 0.139622 0.907509
O O4 0.000000 0.000000 0.500000
O O5 0.637272 0.637764 0.075072
O O6 0.105552 0.697908 0.280365
O O7 0.496559 0.474598 0.816660
O O8 0.306849 0.668032 0.938479
O O9 0.412020 0.273951 0.543650
O O10 0.191102 0.180083 0.272314
O O11 0.000000 0.500000 0.000000
O O12 0.500000 0.500000 0.500000
O O13 0.695360 0.663662 0.671029
O O14 0.122895 0.714189 0.766005
#
# Coordination Sequence:
#
# PCOD9027455 Si02
#       6
#     2   2   2   2   2   2
#     4  12  28  51  77 105 140 193 246 302 362 428
#     4  10  22  41  68 101 144 189 243 285 358 426
#     4  11  25  43  74 100 145 185 240 296 364 420
#     4   9  21  37  67 101 139 187 240 288 353 423
#     4  12  28  46  74 107 153 191 237 295 362 429
#     4  12  28  48  71 111 145 189 243 299 360 429
#
# _framework density 23.377068000000001
#
# number of rings (size 3 to 8) (size 9 to 14) (size 15 to 20)
#    0.000    1.000    0.000    5.000   18.667    0.000 
#    0.000    3.333    0.000    0.000    0.000    0.000 
#    0.000    0.000    0.000    0.000    0.000    0.000 
#
# Total GULP energy -67039.357874 kJ/mol
# GULP energy per Si atom -5586.613156 kJ/mol
# Density = 2.332386 g / cm^3
# Si number density = 23.377068 Si / 1000 Ang^3
#
#
#
# Elastic Constant Matrix: (Units=GPa)
#
#
# Indices 1 2 3 4 5 6 
#
# 1 118.0015 67.9559 26.8328 -16.8792 9.2536 -30.4754
# 2 67.9559 163.9076 46.4041 -23.6617 16.7390 -34.9354
# 3 26.8328 46.4041 96.4851 -16.5192 6.6620 -11.7852
# 4 -16.8792 -23.6617 -16.5192 51.4195 -1.3818 11.4708
# 5 9.2536 16.7390 6.6620 -1.3818 33.9657 -5.2391
# 6 -30.4754 -34.9354 -11.7852 11.4708 -5.2391 40.3492
#
#
#
# Elastic Compliance Matrix: (Units=1/GPa)
#
#
# Indices 1 2 3 4 5 6 
#
# 1 0.012311 -0.003450 -0.000875 0.000878 -0.000562 0.005733
# 2 -0.003450 0.009684 -0.002759 0.001424 -0.002580 0.004233
# 3 -0.000875 -0.002759 0.012379 0.002451 -0.000766 -0.000230
# 4 0.000878 0.001424 0.002451 0.021993 -0.001111 -0.003785
# 5 -0.000562 -0.002580 -0.000766 -0.001111 0.031200 0.001485
# 6 0.005733 0.004233 -0.000230 -0.003785 0.001485 0.033980
#
#
# Mechanical properties :
#
#
# Convention : Reuss Voigt Hill
#
# Bulk Modulus (GPa) = 49.49200 73.41997 61.45599
# Shear Modulus (GPa) = 35.10012 40.96031 38.03021
#
# Velocity S-wave (km/s) = 3.87909 4.19042 4.03776
# Velocity P-wave (km/s) = 6.42497 7.40863 6.93427
#
# Compressibility (1/GPa) = 0.02020529
#
# Stress axis : x y z
#
# Youngs Moduli (GPa) = 81.23091 103.26531 80.78289
#
# Poissons Ratio (x) = 0.35629 0.07067
# Poissons Ratio (y) = 0.28027 0.22287
# Poissons Ratio (z) = 0.07106 0.28490
#
# Static dielectric constant tensor:
#      x y z
#    x 2.310410 0.043610 0.029770 
#    y 0.043610 1.928680 -0.039060 
#    z 0.029770 -0.039060 1.900260 
# 
# From -- ./inp_files/59222.got.cif
#   From: 2010.05.17/outbox.cif.g08.bks.cpg/sg2_30_cif.got.tgz:59222.got - 2010.06.03 11:33:40.
