data_PCOD9027649
_publ_section_title
;
Structure prediction by ZEFSAII (Michael W. Deem and Ramdas Pophale) SiO2 
 PCOD9027649
Probable space group: P -1
;
_chemical_formula_sum "Si O2"
_cell_formula_units_Z 16
_cell_length_a 16.259329
_cell_length_b 10.018757
_cell_length_c 6.165896
_cell_angle_alpha 61.969609
_cell_angle_beta 104.742335
_cell_angle_gamma 129.754368
_cell_volume 680.036345
_symmetry_space_group_name_H-M "P -1"
_symmetry_group_IT_number 2
_symmetry_cell_setting 'triclinic'
loop_
_space_group_symop_operation_xyz
x,y,z
-x,-y,-z
loop_
_atom_site_type_symbol
_atom_site_label
_atom_site_fract_x
_atom_site_fract_y
_atom_site_fract_z
Si Si1 0.274984 0.875640 0.787808
Si Si2 0.366198 0.659782 0.176266
Si Si3 0.801397 0.523676 0.428952
Si Si4 0.116764 0.694838 0.479747
Si Si5 0.637704 0.530873 0.067395
Si Si6 0.521936 0.863797 0.498465
Si Si7 0.953526 0.928307 0.275679
Si Si8 0.767699 0.943108 0.005358
O O1 0.153345 0.741036 0.719629
O O2 0.352897 0.026898 0.538773
O O3 0.321847 0.759332 0.947531
O O4 0.279363 0.982460 0.921915
O O5 0.273392 0.518652 0.389012
O O6 0.469191 0.818390 0.260905
O O7 0.389419 0.537360 0.144268
O O8 0.804814 0.350722 0.527283
O O9 0.745985 0.549349 0.172400
O O10 0.917485 0.715141 0.405887
O O11 0.000000 0.500000 0.500000
O O12 0.153848 0.888106 0.241407
O O13 0.542742 0.344093 0.276491
O O14 0.673937 0.736341 0.001680
O O15 0.500000 0.000000 0.500000
O O16 0.847332 0.917862 0.208815
O O17 0.000000 0.000000 0.500000
O O18 0.000000 0.000000 0.000000
#
# Coordination Sequence:
#
# PCOD9027649 Si02
#       8
#     2   2   2   2   2   2   2   2
#     4  12  25  43  72 104 149 185 246 311 372 442
#     4  11  21  42  75 102 138 194 244 294 362 452
#     4  10  22  41  68  98 136 189 242 299 361 450
#     4  12  26  44  68 101 143 184 244 309 380 443
#     4  10  23  44  69 104 140 186 243 292 368 450
#     4  11  23  41  75 109 139 189 250 294 365 459
#     4  11  27  47  73 103 145 199 258 313 376 454
#     4  11  28  45  69 106 149 189 238 319 381 431
#
# _framework density 23.528153
#
# number of rings (size 3 to 8) (size 9 to 14) (size 15 to 20)
#    0.000    1.000    3.750    1.875    7.000    4.000 
#    0.000    1.250    0.000    0.000    0.000    0.000 
#    0.000    0.000    0.000    0.000    0.000    0.000 
#
# Total GULP energy -89299.264655 kJ/mol
# GULP energy per Si atom -5581.204041 kJ/mol
# Density = 2.347460 g / cm^3
# Si number density = 23.528153 Si / 1000 Ang^3
#
#
#
# Elastic Constant Matrix: (Units=GPa)
#
#
# Indices 1 2 3 4 5 6 
#
# 1 53.1055 33.0077 9.7561 8.5400 -0.0986 4.4663
# 2 33.0077 204.4576 63.9553 13.2563 -2.1359 0.5770
# 3 9.7561 63.9553 70.9906 11.7437 -5.2572 3.8331
# 4 8.5400 13.2563 11.7437 42.1039 -0.8876 -1.4560
# 5 -0.0986 -2.1359 -5.2572 -0.8876 40.1381 1.4471
# 6 4.4663 0.5770 3.8331 -1.4560 1.4471 39.1745
#
#
#
# Elastic Compliance Matrix: (Units=1/GPa)
#
#
# Indices 1 2 3 4 5 6 
#
# 1 0.021672 -0.003560 0.000974 -0.003638 0.000006 -0.002649
# 2 -0.003560 0.007421 -0.006309 0.000168 -0.000470 0.000938
# 3 0.000974 -0.006309 0.020593 -0.003984 0.002358 -0.002268
# 4 -0.003638 0.000168 -0.003984 0.025607 -0.000019 0.001755
# 5 0.000006 -0.000470 0.002358 -0.000019 0.025239 -0.001158
# 6 -0.002649 0.000938 -0.002268 0.001755 -0.001158 0.026145
#
#
# Mechanical properties :
#
#
# Convention : Reuss Voigt Hill
#
# Bulk Modulus (GPa) = 31.35273 60.22132 45.78702
# Shear Modulus (GPa) = 32.23743 39.07226 35.65484
#
# Velocity S-wave (km/s) = 3.70559 4.07954 3.89705
# Velocity P-wave (km/s) = 5.62699 6.91673 6.30493
#
# Compressibility (1/GPa) = 0.03189515
#
# Stress axis : x y z
#
# Youngs Moduli (GPa) = 46.14232 134.75432 48.56089
#
# Poissons Ratio (x) = 0.47974 -0.04731
# Poissons Ratio (y) = 0.16427 0.30639
# Poissons Ratio (z) = -0.04496 0.85023
#
# Static dielectric constant tensor:
#      x y z
#    x 1.976380 0.026050 0.055910 
#    y 0.026050 1.914400 0.005340 
#    z 0.055910 0.005340 2.032430 
# 
# From -- ./inp_files/99667.got.cif
#   From: 2010.05.17/outbox.cif.g08.bks.cpg/sg2_50_cif.got.tgz:99667.got - 2010.06.03 11:33:40.
