data_PCOD9027782
_publ_section_title
;
Structure prediction by ZEFSAII (Michael W. Deem and Ramdas Pophale) SiO2 
 PCOD9027782
Probable space group: P -1
;
_chemical_formula_sum "Si O2"
_cell_formula_units_Z 16
_cell_length_a 30.377836
_cell_length_b 7.938353
_cell_length_c 9.449307
_cell_angle_alpha 46.724171
_cell_angle_beta 149.771648
_cell_angle_gamma 140.185272
_cell_volume 732.876993
_symmetry_space_group_name_H-M "P -1"
_symmetry_group_IT_number 2
_symmetry_cell_setting 'triclinic'
loop_
_space_group_symop_operation_xyz
x,y,z
-x,-y,-z
loop_
_atom_site_type_symbol
_atom_site_label
_atom_site_fract_x
_atom_site_fract_y
_atom_site_fract_z
Si Si1 0.063823 0.691889 0.193948
Si Si2 0.121709 0.246197 0.273717
Si Si3 0.523419 0.119828 0.226456
Si Si4 0.741991 0.448619 0.772821
Si Si5 0.563206 0.760475 0.336787
Si Si6 0.360273 0.641512 0.163938
Si Si7 0.246012 0.742440 0.534753
Si Si8 0.895634 0.303602 0.392516
O O1 0.172078 0.841710 0.337104
O O2 0.091540 0.587108 0.474009
O O3 0.000000 0.500000 0.000000
O O4 0.990668 0.795801 0.994792
O O5 0.178370 0.313447 0.240666
O O6 0.187395 0.505334 0.400101
O O7 0.122076 0.991135 0.482515
O O8 0.635776 0.289098 0.492829
O O9 0.514166 0.877994 0.241963
O O10 0.441564 0.956062 0.213593
O O11 0.495035 0.296134 0.942439
O O12 0.709600 0.478726 0.823398
O O13 0.803360 0.292428 0.059524
O O14 0.581731 0.529491 0.580110
O O15 0.667944 0.012670 0.446584
O O16 0.293046 0.636921 0.847119
O O17 0.000000 0.500000 0.500000
#
# Coordination Sequence:
#
# PCOD9027782 Si02
#       8
#     2   2   2   2   2   2   2   2
#     4  10  22  45  67  92 133 166 211 267 316 381
#     4  11  25  42  68  92 134 176 209 261 328 382
#     4  10  23  43  62  96 133 168 215 269 320 378
#     4  12  25  42  66  97 133 169 216 268 320 383
#     4  10  22  41  69  91 133 169 215 265 321 384
#     4  11  24  39  69  97 130 168 219 267 317 383
#     4  10  22  43  63 100 128 169 217 264 316 384
#     4  12  26  44  67  98 130 170 216 265 320 385
#
# _framework density 21.831768
#
# number of rings (size 3 to 8) (size 9 to 14) (size 15 to 20)
#    0.000    1.250    3.750    1.125    3.500    1.500 
#    0.000    1.250    0.000    0.000    0.000    0.000 
#    0.000    0.000    0.000    0.000    0.000    0.000 
#
# Total GULP energy -89214.689313 kJ/mol
# GULP energy per Si atom -5575.918082 kJ/mol
# Density = 2.178208 g / cm^3
# Si number density = 21.831768 Si / 1000 Ang^3
#
#
#
# Elastic Constant Matrix: (Units=GPa)
#
#
# Indices 1 2 3 4 5 6 
#
# 1 95.5040 26.3680 -2.9555 -3.7333 5.9772 28.0067
# 2 26.3680 76.6734 46.8358 -4.4627 -1.7415 25.3422
# 3 -2.9555 46.8358 114.1864 1.3448 14.3887 8.0556
# 4 -3.7333 -4.4627 1.3448 40.5308 1.5624 -0.0868
# 5 5.9772 -1.7415 14.3887 1.5624 33.0039 3.1344
# 6 28.0067 25.3422 8.0556 -0.0868 3.1344 37.4578
#
#
#
# Elastic Compliance Matrix: (Units=1/GPa)
#
#
# Indices 1 2 3 4 5 6 
#
# 1 0.014393 -0.004069 0.003050 0.000889 -0.003398 -0.008378
# 2 -0.004069 0.025398 -0.010652 0.002448 0.007792 -0.012496
# 3 0.003050 -0.010652 0.013971 -0.001065 -0.007396 0.002538
# 4 0.000889 0.002448 -0.001065 0.025077 -0.000566 -0.001987
# 5 -0.003398 0.007792 -0.007396 -0.000566 0.034964 -0.004068
# 6 -0.008378 -0.012496 0.002538 -0.001987 -0.004068 0.041205
#
#
# Mechanical properties :
#
#
# Convention : Reuss Voigt Hill
#
# Bulk Modulus (GPa) = 32.87271 47.42892 40.15082
# Shear Modulus (GPa) = 26.52650 36.60620 31.56635
#
# Velocity S-wave (km/s) = 3.48953 4.09924 3.80661
# Velocity P-wave (km/s) = 5.59694 6.64657 6.14421
#
# Compressibility (1/GPa) = 0.03042037
#
# Stress axis : x y z
#
# Youngs Moduli (GPa) = 69.47845 39.37253 71.57550
#
# Poissons Ratio (x) = 0.16022 -0.21833
# Poissons Ratio (y) = 0.28274 0.76243
# Poissons Ratio (z) = -0.21194 0.41940
#
# Static dielectric constant tensor:
#      x y z
#    x 2.125090 -0.088190 0.028150 
#    y -0.088190 1.778540 0.015770 
#    z 0.028150 0.015770 1.804550 
# 
# From -- ./inp_files/46762.got.cif
#   From: 2010.05.17/outbox.cif.g08.bks.cpg/sg2_24_cif.got.tgz:46762.got - 2010.06.03 11:33:40.
