data_PCOD9027149
_publ_section_title
;
Structure prediction by ZEFSAII (Michael W. Deem and Ramdas Pophale) SiO2 
 PCOD9027149
Probable space group: P -1
;
_chemical_formula_sum "Si O2"
_cell_formula_units_Z 16
_cell_length_a 9.199924
_cell_length_b 13.665380
_cell_length_c 10.670932
_cell_angle_alpha 78.265655
_cell_angle_beta 134.696435
_cell_angle_gamma 120.417712
_cell_volume 796.439178
_symmetry_space_group_name_H-M "P -1"
_symmetry_group_IT_number 2
_symmetry_cell_setting 'triclinic'
loop_
_space_group_symop_operation_xyz
x,y,z
-x,-y,-z
loop_
_atom_site_type_symbol
_atom_site_label
_atom_site_fract_x
_atom_site_fract_y
_atom_site_fract_z
Si Si1 0.902837 0.365564 0.728439
Si Si2 0.878060 0.753560 0.276625
Si Si3 0.575619 0.477904 0.913947
Si Si4 0.677250 0.128740 0.794173
Si Si5 0.921132 0.034827 0.816992
Si Si6 0.953369 0.837734 0.773747
Si Si7 0.846795 0.061833 0.389901
Si Si8 0.502927 0.418600 0.413036
O O1 0.736181 0.253555 0.745160
O O2 0.744316 0.414681 0.566649
O O3 0.004176 0.314695 0.697530
O O4 0.139332 0.466242 0.917470
O O5 0.610013 0.660194 0.183242
O O6 0.875836 0.841048 0.148869
O O7 0.048509 0.838546 0.466343
O O8 0.528842 0.541078 0.754141
O O9 0.500000 0.500000 0.000000
O O10 0.712751 0.058090 0.721263
O O11 0.423001 0.041121 0.722572
O O12 0.882214 0.155323 0.012947
O O13 0.869042 0.931067 0.719306
O O14 0.000000 0.000000 0.000000
O O15 0.721210 0.710333 0.662747
O O16 0.109807 0.875421 0.733539
O O17 0.000000 0.000000 0.500000
O O18 0.500000 0.500000 0.500000
#
# Coordination Sequence:
#
# PCOD9027149 Si02
#       8
#     2   2   2   2   2   2   2   2
#     4  10  23  45  73  96 130 185 227 283 336 405
#     4  10  22  41  66  99 136 173 224 278 337 402
#     4  10  23  46  69  99 140 176 235 283 336 403
#     4  10  22  41  67  98 133 176 228 270 341 414
#     4   9  20  38  66  97 125 173 219 268 335 399
#     4  11  22  43  65  96 141 175 218 283 340 408
#     4  12  23  38  60 100 139 172 216 278 338 400
#     4  12  26  45  70 100 136 180 236 281 345 407
#
# _framework density 20.089417999999998
#
# number of rings (size 3 to 8) (size 9 to 14) (size 15 to 20)
#    0.000    1.500    2.500    1.875    3.500    3.500 
#    2.250    2.500    0.000    0.000    0.000    0.000 
#    0.000    0.000    0.000    0.000    0.000    0.000 
#
# Total GULP energy -89337.003799 kJ/mol
# GULP energy per Si atom -5583.562737 kJ/mol
# Density = 2.004369 g / cm^3
# Si number density = 20.089418 Si / 1000 Ang^3
#
#
#
# Elastic Constant Matrix: (Units=GPa)
#
#
# Indices 1 2 3 4 5 6 
#
# 1 68.5077 54.0705 42.7302 7.1488 -2.0508 13.7246
# 2 54.0705 119.3174 57.9330 18.3879 19.6670 15.1357
# 3 42.7302 57.9330 126.9992 11.4996 10.1833 2.8822
# 4 7.1488 18.3879 11.4996 35.7647 12.1354 -0.4890
# 5 -2.0508 19.6670 10.1833 12.1354 28.7853 2.6651
# 6 13.7246 15.1357 2.8822 -0.4890 2.6651 39.5429
#
#
#
# Elastic Compliance Matrix: (Units=1/GPa)
#
#
# Indices 1 2 3 4 5 6 
#
# 1 0.028907 -0.011640 -0.005109 -0.002846 0.013589 -0.006157
# 2 -0.011640 0.017364 -0.002926 -0.002079 -0.010624 -0.001703
# 3 -0.005109 -0.002926 0.011087 -0.000189 -0.002415 0.002245
# 4 -0.002846 -0.002079 -0.000189 0.034266 -0.013451 0.003128
# 5 0.013589 -0.010624 -0.002415 -0.013451 0.049862 -0.004001
# 6 -0.006157 -0.001703 0.002245 0.003128 -0.004001 0.028222
#
#
# Mechanical properties :
#
#
# Convention : Reuss Voigt Hill
#
# Bulk Modulus (GPa) = 55.52415 69.36575 62.44495
# Shear Modulus (GPa) = 23.24928 31.49128 27.37028
#
# Velocity S-wave (km/s) = 3.40559 3.96353 3.69511
# Velocity P-wave (km/s) = 6.56982 7.45316 7.02539
#
# Compressibility (1/GPa) = 0.01801018
#
# Stress axis : x y z
#
# Youngs Moduli (GPa) = 34.59339 57.59157 90.19194
#
# Poissons Ratio (x) = 0.67034 0.46077
# Poissons Ratio (y) = 0.40265 0.26388
# Poissons Ratio (z) = 0.17673 0.16850
#
# Static dielectric constant tensor:
#      x y z
#    x 1.567900 -0.051310 0.104650 
#    y -0.051310 1.691800 0.045520 
#    z 0.104650 0.045520 1.615220 
# 
# From -- ./inp_files/399075.got.cif
#   From: 2010.05.17/outbox.cif.g08.bks.cpg/sg2_200_cif.got.tgz:399075.got - 2010.06.03 11:33:40.
