data_PCOD9027429
_publ_section_title
;
Structure prediction by ZEFSAII (Michael W. Deem and Ramdas Pophale) SiO2 
 PCOD9027429
Probable space group: P -1
;
_chemical_formula_sum "Si O2"
_cell_formula_units_Z 16
_cell_length_a 11.094084
_cell_length_b 19.970833
_cell_length_c 7.737499
_cell_angle_alpha 44.926086
_cell_angle_beta 40.150026
_cell_angle_gamma 40.058717
_cell_volume 679.422202
_symmetry_space_group_name_H-M "P -1"
_symmetry_group_IT_number 2
_symmetry_cell_setting 'triclinic'
loop_
_space_group_symop_operation_xyz
x,y,z
-x,-y,-z
loop_
_atom_site_type_symbol
_atom_site_label
_atom_site_fract_x
_atom_site_fract_y
_atom_site_fract_z
Si Si1 0.272248 0.506353 0.758492
Si Si2 0.156573 0.876387 0.994272
Si Si3 0.374078 0.456675 0.100709
Si Si4 0.330628 0.146987 0.052430
Si Si5 0.389975 0.261573 0.097939
Si Si6 0.780811 0.031769 0.583561
Si Si7 0.170114 0.315851 0.612335
Si Si8 0.843674 0.327710 0.704564
O O1 0.500000 0.500000 0.500000
O O2 0.223703 0.528124 0.975615
O O3 0.132338 0.599557 0.604789
O O4 0.308961 0.386386 0.900609
O O5 0.352223 0.813236 0.029159
O O6 0.245374 0.886247 0.691113
O O7 0.050308 0.799730 0.221727
O O8 0.000000 0.000000 0.000000
O O9 0.592013 0.362637 0.938558
O O10 0.500000 0.500000 0.000000
O O11 0.248337 0.401052 0.425919
O O12 0.581782 0.079322 0.846880
O O13 0.224296 0.230930 0.858944
O O14 0.315110 0.205824 0.140018
O O15 0.225081 0.070126 0.311318
O O16 0.295034 0.266722 0.383494
O O17 0.000000 0.000000 0.500000
O O18 0.930999 0.355296 0.732490
#
# Coordination Sequence:
#
# PCOD9027429 Si02
#       8
#     2   2   2   2   2   2   2   2
#     4   9  19  42  68  94 139 173 226 283 339 411
#     4  12  24  43  72 103 141 186 233 290 351 414
#     4  10  22  41  68 100 136 183 223 287 352 404
#     4  11  25  43  71 100 140 185 231 291 352 408
#     4  11  23  44  69 104 138 185 230 287 354 412
#     4  11  24  47  67 100 140 180 241 296 337 418
#     4  11  24  44  68  99 148 176 230 294 336 422
#     4  11  23  44  68 101 139 182 233 282 345 420
#
# _framework density 23.549423000000001
#
# number of rings (size 3 to 8) (size 9 to 14) (size 15 to 20)
#    0.000    1.250    5.000    1.500    5.250    4.000 
#    2.250    0.000    0.000    0.000    0.000    0.000 
#    0.000    0.000    0.000    0.000    0.000    0.000 
#
# Total GULP energy -89441.917604 kJ/mol
# GULP energy per Si atom -5590.119850 kJ/mol
# Density = 2.349582 g / cm^3
# Si number density = 23.549423 Si / 1000 Ang^3
#
#
#
# Elastic Constant Matrix: (Units=GPa)
#
#
# Indices 1 2 3 4 5 6 
#
# 1 163.8962 51.5653 61.4475 -35.1988 -18.8272 9.8214
# 2 51.5653 94.4814 41.5806 -27.4726 -11.8002 15.5325
# 3 61.4475 41.5806 122.0314 -35.8958 -12.5966 -8.0189
# 4 -35.1988 -27.4726 -35.8958 46.3607 -7.6494 -5.6170
# 5 -18.8272 -11.8002 -12.5966 -7.6494 42.9110 2.8798
# 6 9.8214 15.5325 -8.0189 -5.6170 2.8798 43.3253
#
#
#
# Elastic Compliance Matrix: (Units=1/GPa)
#
#
# Indices 1 2 3 4 5 6 
#
# 1 0.009014 -0.001955 -0.002334 0.004295 0.003596 -0.001457
# 2 -0.001955 0.015919 -0.002588 0.006000 0.004182 -0.005243
# 3 -0.002334 -0.002588 0.013285 0.008099 0.003289 0.004747
# 4 0.004295 0.006000 0.008099 0.036979 0.012346 0.002348
# 5 0.003596 0.004182 0.003289 0.012346 0.029336 -0.002055
# 6 -0.001457 -0.005243 0.004747 0.002348 -0.002055 0.026611
#
#
# Mechanical properties :
#
#
# Convention : Reuss Voigt Hill
#
# Bulk Modulus (GPa) = 40.87480 76.62175 58.74827
# Shear Modulus (GPa) = 32.66856 41.57377 37.12117
#
# Velocity S-wave (km/s) = 3.72860 4.20621 3.97458
# Velocity P-wave (km/s) = 5.99427 7.49645 6.78705
#
# Compressibility (1/GPa) = 0.02446495
#
# Stress axis : x y z
#
# Youngs Moduli (GPa) = 110.93376 62.81911 75.27061
#
# Poissons Ratio (x) = 0.12282 0.17569
# Poissons Ratio (y) = 0.21689 0.19477
# Poissons Ratio (z) = 0.25893 0.16255
#
# Static dielectric constant tensor:
#      x y z
#    x 1.907460 0.001830 0.071740 
#    y 0.001830 2.043600 0.117100 
#    z 0.071740 0.117100 2.114540 
# 
# From -- ./inp_files/281482.got.cif
#   From: 2010.05.17/outbox.cif.g08.bks.cpg/sg2_141_cif.got.tgz:281482.got - 2010.06.03 11:33:40.
