data_PCOD9027446
_publ_section_title
;
Structure prediction by ZEFSAII (Michael W. Deem and Ramdas Pophale) SiO2 
 PCOD9027446
Probable space group: P -1
;
_chemical_formula_sum "Si O2"
_cell_formula_units_Z 14
_cell_length_a 11.297657
_cell_length_b 7.799485
_cell_length_c 9.866015
_cell_angle_alpha 91.621576
_cell_angle_beta 39.618223
_cell_angle_gamma 86.510532
_cell_volume 549.457781
_symmetry_space_group_name_H-M "P -1"
_symmetry_group_IT_number 2
_symmetry_cell_setting 'triclinic'
loop_
_space_group_symop_operation_xyz
x,y,z
-x,-y,-z
loop_
_atom_site_type_symbol
_atom_site_label
_atom_site_fract_x
_atom_site_fract_y
_atom_site_fract_z
Si Si1 0.290171 0.910645 0.148867
Si Si2 0.689164 0.524696 0.252456
Si Si3 0.764847 0.844618 0.320743
Si Si4 0.531994 0.682798 0.124471
Si Si5 0.908432 0.819011 0.470087
Si Si6 0.330981 0.862961 0.796425
Si Si7 0.218713 0.493533 0.336483
O O1 0.462533 0.848739 0.095671
O O2 0.131914 0.775606 0.292280
O O3 0.169419 0.074978 0.326906
O O4 0.332158 0.913424 0.954301
O O5 0.500000 0.500000 0.500000
O O6 0.817188 0.642161 0.227270
O O7 0.634291 0.654047 0.175823
O O8 0.746066 0.324025 0.153398
O O9 0.875952 0.905651 0.354117
O O10 0.544971 0.853600 0.554923
O O11 0.778084 0.983575 0.193215
O O12 0.329956 0.620434 0.325444
O O13 0.662751 0.561331 0.903762
O O14 0.771912 0.673869 0.577941
O O15 0.000000 0.500000 0.500000
#
# Coordination Sequence:
#
# PCOD9027446 Si02
#       7
#     2   2   2   2   2   2   2
#     4  11  25  43  68 102 137 186 232 292 358 404
#     4  10  22  41  68 101 135 179 236 285 349 424
#     4  10  23  42  68  97 135 187 232 283 355 419
#     4  11  23  41  72 100 137 182 230 293 352 413
#     4  11  25  44  65 101 145 177 237 296 341 421
#     4  10  22  42  67  98 135 177 235 285 350 426
#     4  11  22  41  68 102 139 178 230 290 349 416
#
# _framework density 25.479665000000001
#
# number of rings (size 3 to 8) (size 9 to 14) (size 15 to 20)
#    0.000    1.429    1.429    4.286    8.000    1.714 
#    0.000    0.714    6.286    0.000    0.000    0.000 
#    0.000    0.000    0.000    0.000    0.000    0.000 
#
# Total GULP energy -78101.494552 kJ/mol
# GULP energy per Si atom -5578.678182 kJ/mol
# Density = 2.542167 g / cm^3
# Si number density = 25.479665 Si / 1000 Ang^3
#
#
#
# Elastic Constant Matrix: (Units=GPa)
#
#
# Indices 1 2 3 4 5 6 
#
# 1 77.6186 25.2167 44.2086 3.8332 6.2803 26.2760
# 2 25.2167 79.9719 29.0867 6.4832 12.0998 13.4775
# 3 44.2086 29.0867 102.6838 1.2567 15.1920 0.6337
# 4 3.8332 6.4832 1.2567 30.3052 -0.4889 -0.7615
# 5 6.2803 12.0998 15.1920 -0.4889 51.3993 1.6741
# 6 26.2760 13.4775 0.6337 -0.7615 1.6741 18.2586
#
#
#
# Elastic Compliance Matrix: (Units=1/GPa)
#
#
# Indices 1 2 3 4 5 6 
#
# 1 0.050015 0.005773 -0.022844 -0.008496 0.001675 -0.075954
# 2 0.005773 0.017437 -0.006923 -0.004734 -0.002127 -0.020942
# 3 -0.022844 -0.006923 0.021720 0.004366 -0.003185 0.037705
# 4 -0.008496 -0.004734 0.004366 0.035341 0.000645 0.016984
# 5 0.001675 -0.002127 -0.003185 0.000645 0.020784 -0.002608
# 6 -0.075954 -0.020942 0.037705 0.016984 -0.002608 0.179171
#
#
# Mechanical properties :
#
#
# Convention : Reuss Voigt Hill
#
# Bulk Modulus (GPa) = 24.28056 50.81092 37.54574
# Shear Modulus (GPa) = 12.94727 30.77679 21.86203
#
# Velocity S-wave (km/s) = 2.25664 3.47925 2.93237
# Velocity P-wave (km/s) = 4.04228 6.01043 5.12178
#
# Compressibility (1/GPa) = 0.04118522
#
# Stress axis : x y z
#
# Youngs Moduli (GPa) = 19.99397 57.35028 46.04117
#
# Poissons Ratio (x) = -0.33111 1.05174
# Poissons Ratio (y) = -0.11543 0.31874
# Poissons Ratio (z) = 0.45673 0.39704
#
# Static dielectric constant tensor:
#      x y z
#    x 2.059660 -0.052740 0.009720 
#    y -0.052740 2.432690 -0.086150 
#    z 0.009720 -0.086150 2.007500 
# 
# From -- ./inp_files/243267.got.cif
#   From: 2010.05.17/outbox.cif.g08.bks.cpg/sg2_122_cif.got.tgz:243267.got - 2010.06.03 11:33:40.
