data_PCOD9027817
_publ_section_title
;
Structure prediction by ZEFSAII (Michael W. Deem and Ramdas Pophale) SiO2 
 PCOD9027817
Probable space group: P -1
;
_chemical_formula_sum "Si O2"
_cell_formula_units_Z 15
_cell_length_a 10.964161
_cell_length_b 4.710276
_cell_length_c 11.188499
_cell_angle_alpha 85.338866
_cell_angle_beta 70.960233
_cell_angle_gamma 84.082347
_cell_volume 542.601930
_symmetry_space_group_name_H-M "P -1"
_symmetry_group_IT_number 2
_symmetry_cell_setting 'triclinic'
loop_
_space_group_symop_operation_xyz
x,y,z
-x,-y,-z
loop_
_atom_site_type_symbol
_atom_site_label
_atom_site_fract_x
_atom_site_fract_y
_atom_site_fract_z
Si Si1 0.456424 0.199546 0.622362
Si Si2 0.721641 0.371630 0.562821
Si Si3 0.242535 0.133282 0.243420
Si Si4 0.804376 0.089316 0.999230
Si Si5 0.979728 0.469972 0.785025
Si Si6 0.519710 0.124693 0.124249
Si Si7 0.000000 0.500000 0.000000
Si Si8 0.807093 0.868047 0.399663
O O1 0.568350 0.419073 0.583972
O O2 0.303879 0.230335 0.648766
O O3 0.500000 0.000000 0.500000
O O4 0.471547 0.082636 0.756790
O O5 0.779713 0.674495 0.532184
O O6 0.749096 0.149596 0.668257
O O7 0.786054 0.191799 0.436639
O O8 0.115246 0.348558 0.276222
O O9 0.378428 0.288559 0.192231
O O10 0.229664 0.010891 0.118671
O O11 0.901379 0.339026 0.930642
O O12 0.663658 0.233340 0.081586
O O13 0.879444 0.812707 0.042574
O O14 0.055654 0.230537 0.693116
O O15 0.058228 0.642413 0.848965
O O16 0.500000 0.000000 0.000000
#
# Coordination Sequence:
#
# PCOD9027817 Si02
#       8
#     2   2   2   2   2   2   1   2
#     4   9  20  42  67 102 136 181 240 293 352 418
#     4  10  24  43  69 102 136 184 235 298 347 427
#     4  10  22  41  69  95 141 177 236 291 356 421
#     4   9  21  43  63  94 138 177 234 290 344 425
#     4  10  24  40  61 101 132 185 228 287 354 424
#     4   9  19  40  71 102 133 186 233 292 360 413
#     4   8  22  40  56  92 132 174 224 278 352 402
#     4  11  24  41  69  99 138 186 236 282 362 417
#
# _framework density 27.644575
#
# number of rings (size 3 to 8) (size 9 to 14) (size 15 to 20)
#    0.800    1.600    0.000    0.400    3.733    6.400 
#    0.000    1.333    0.000    0.000    0.000    0.000 
#    0.000    0.000    0.000    0.000    0.000    0.000 
#
# Total GULP energy -83591.201066 kJ/mol
# GULP energy per Si atom -5572.746738 kJ/mol
# Density = 2.758165 g / cm^3
# Si number density = 27.644575 Si / 1000 Ang^3
#
#
#
# Elastic Constant Matrix: (Units=GPa)
#
#
# Indices 1 2 3 4 5 6 
#
# 1 116.8970 40.1429 23.6157 -9.7193 15.7001 -16.9885
# 2 40.1429 119.0477 5.6405 -16.2351 7.4054 -10.5184
# 3 23.6157 5.6405 85.3495 -21.2845 23.1531 -18.7929
# 4 -9.7193 -16.2351 -21.2845 28.0100 -12.6023 7.2490
# 5 15.7001 7.4054 23.1531 -12.6023 57.0250 -8.4579
# 6 -16.9885 -10.5184 -18.7929 7.2490 -8.4579 52.0543
#
#
#
# Elastic Compliance Matrix: (Units=1/GPa)
#
#
# Indices 1 2 3 4 5 6 
#
# 1 0.010522 -0.003331 -0.002121 -0.001084 -0.001562 0.001892
# 2 -0.003331 0.010335 0.001890 0.006181 0.000303 0.000872
# 3 -0.002121 0.001890 0.016529 0.010387 -0.003538 0.003636
# 4 -0.001084 0.006181 0.010387 0.049889 0.006109 -0.001309
# 5 -0.001562 0.000303 -0.003538 0.006109 0.020833 0.000809
# 6 0.001892 0.000872 0.003636 -0.001309 0.000809 0.021631
#
#
# Mechanical properties :
#
#
# Convention : Reuss Voigt Hill
#
# Bulk Modulus (GPa) = 33.04546 51.12139 42.08342
# Shear Modulus (GPa) = 34.02533 44.21088 39.11810
#
# Velocity S-wave (km/s) = 3.51210 4.00341 3.76578
# Velocity P-wave (km/s) = 5.33161 6.31683 5.84502
#
# Compressibility (1/GPa) = 0.03026134
#
# Stress axis : x y z
#
# Youngs Moduli (GPa) = 95.04346 96.76090 60.49933
#
# Poissons Ratio (x) = 0.32229 0.12832
# Poissons Ratio (y) = 0.31657 -0.11434
# Poissons Ratio (z) = 0.20159 -0.18287
#
# Static dielectric constant tensor:
#      x y z
#    x 2.229920 0.010860 -0.016580 
#    y 0.010860 2.209080 0.032190 
#    z -0.016580 0.032190 2.316810 
# 
# From -- ./inp_files/71834.got.cif
#   From: 2010.05.17/outbox.cif.g08.bks.cpg/sg2_36_cif.got.tgz:71834.got - 2010.06.03 11:33:40.
