data_PCOD9027494
_publ_section_title
;
Structure prediction by ZEFSAII (Michael W. Deem and Ramdas Pophale) SiO2 
 PCOD9027494
Probable space group: P -1
;
_chemical_formula_sum "Si O2"
_cell_formula_units_Z 13
_cell_length_a 13.845891
_cell_length_b 6.893120
_cell_length_c 16.413642
_cell_angle_alpha 116.325282
_cell_angle_beta 148.224432
_cell_angle_gamma 45.996353
_cell_volume 546.785861
_symmetry_space_group_name_H-M "P -1"
_symmetry_group_IT_number 2
_symmetry_cell_setting 'triclinic'
loop_
_space_group_symop_operation_xyz
x,y,z
-x,-y,-z
loop_
_atom_site_type_symbol
_atom_site_label
_atom_site_fract_x
_atom_site_fract_y
_atom_site_fract_z
Si Si1 0.128157 0.288861 0.856159
Si Si2 0.442714 0.337403 0.481828
Si Si3 0.000000 0.500000 0.500000
Si Si4 0.765821 0.315979 0.051389
Si Si5 0.801637 0.219448 0.251922
Si Si6 0.193333 0.158549 0.055281
Si Si7 0.628858 0.784096 0.428417
O O1 0.839747 0.501185 0.711822
O O2 0.170951 0.062190 0.779994
O O3 0.179161 0.486974 0.899539
O O4 0.281926 0.125049 0.019001
O O5 0.500000 0.500000 0.500000
O O6 0.438925 0.348997 0.579720
O O7 0.626848 0.001930 0.522848
O O8 0.010899 0.760113 0.570735
O O9 0.122700 0.435685 0.485240
O O10 0.472907 0.506777 0.861911
O O11 0.909125 0.006691 0.051737
O O12 0.806107 0.263289 0.166595
O O13 0.415536 0.987728 0.246434
O O14 0.000000 0.500000 0.000000
#
# Coordination Sequence:
#
# PCOD9027494 Si02
#       7
#     2   2   1   2   2   2   2
#     4  11  23  43  72 105 141 198 247 303 376 445
#     4  11  25  48  71 103 149 199 246 300 385 447
#     4  12  22  46  76 108 150 194 248 308 378 442
#     4  10  22  43  69 100 153 188 241 314 371 436
#     4  10  22  41  68 105 146 195 242 304 374 448
#     4  11  23  45  70 108 136 193 255 304 359 440
#     4  11  25  46  72 107 150 191 245 314 369 436
#
# _framework density 23.775302
#
# number of rings (size 3 to 8) (size 9 to 14) (size 15 to 20)
#    0.000    1.231    3.077    2.308    0.000    5.538 
#    2.769    3.846    0.000    0.000    0.000    0.000 
#    0.000    0.000    0.000    0.000    0.000    0.000 
#
# Total GULP energy -72419.240660 kJ/mol
# GULP energy per Si atom -5570.710820 kJ/mol
# Density = 2.372119 g / cm^3
# Si number density = 23.775302 Si / 1000 Ang^3
#
#
#
# Elastic Constant Matrix: (Units=GPa)
#
#
# Indices 1 2 3 4 5 6 
#
# 1 144.1044 61.5658 26.9305 1.8269 -6.6865 15.6085
# 2 61.5658 181.3035 17.4774 34.3648 -4.9103 14.2127
# 3 26.9305 17.4774 61.1333 0.8770 -18.5569 11.5465
# 4 1.8269 34.3648 0.8770 31.9581 6.5781 0.3022
# 5 -6.6865 -4.9103 -18.5569 6.5781 27.1761 4.0367
# 6 15.6085 14.2127 11.5465 0.3022 4.0367 55.7583
#
#
#
# Elastic Compliance Matrix: (Units=1/GPa)
#
#
# Indices 1 2 3 4 5 6 
#
# 1 0.008978 -0.003356 -0.003284 0.003471 -0.001347 -0.000899
# 2 -0.003356 0.008718 0.000592 -0.009968 0.003808 -0.001627
# 3 -0.003284 0.000592 0.024118 -0.004707 0.017721 -0.005483
# 4 0.003471 -0.009968 -0.004707 0.045117 -0.015591 0.003428
# 5 -0.001347 0.003808 0.017721 -0.015591 0.054232 -0.008105
# 6 -0.000899 -0.001627 -0.005483 0.003428 -0.008105 0.020305
#
#
# Mechanical properties :
#
#
# Convention : Reuss Voigt Hill
#
# Bulk Modulus (GPa) = 33.65024 66.49874 50.07449
# Shear Modulus (GPa) = 27.25259 41.68299 34.46779
#
# Velocity S-wave (km/s) = 3.38931 4.19167 3.81166
# Velocity P-wave (km/s) = 5.43146 7.17337 6.36231
#
# Compressibility (1/GPa) = 0.02971747
#
# Stress axis : x y z
#
# Youngs Moduli (GPa) = 111.38520 114.70389 41.46349
#
# Poissons Ratio (x) = 0.38495 0.13618
# Poissons Ratio (y) = 0.37381 -0.02456
# Poissons Ratio (z) = 0.36583 -0.06794
#
# Static dielectric constant tensor:
#      x y z
#    x 1.910860 -0.017420 -0.005170 
#    y -0.017420 1.969830 -0.029190 
#    z -0.005170 -0.029190 1.946510 
# 
# From -- ./inp_files/511195.got.cif
#   From: 2010.05.17/outbox.cif.g08.bks.cpg/sg2_256_cif.got.tgz:511195.got - 2010.06.03 11:33:40.
