data_PCOD9027792
_publ_section_title
;
Structure prediction by ZEFSAII (Michael W. Deem and Ramdas Pophale) SiO2 
 PCOD9027792
Probable space group: P -1
;
_chemical_formula_sum "Si O2"
_cell_formula_units_Z 16
_cell_length_a 8.128198
_cell_length_b 11.599787
_cell_length_c 21.154987
_cell_angle_alpha 37.953283
_cell_angle_beta 132.304665
_cell_angle_gamma 105.641189
_cell_volume 742.869313
_symmetry_space_group_name_H-M "P -1"
_symmetry_group_IT_number 2
_symmetry_cell_setting 'triclinic'
loop_
_space_group_symop_operation_xyz
x,y,z
-x,-y,-z
loop_
_atom_site_type_symbol
_atom_site_label
_atom_site_fract_x
_atom_site_fract_y
_atom_site_fract_z
Si Si1 0.774281 0.177821 0.953658
Si Si2 0.167721 0.900909 0.858705
Si Si3 0.092388 0.272741 0.582576
Si Si4 0.258776 0.430761 0.878908
Si Si5 0.663727 0.044143 0.864165
Si Si6 0.056837 0.489426 0.122871
Si Si7 0.039514 0.183708 0.466611
Si Si8 0.324492 0.139791 0.234092
O O1 0.587609 0.196662 0.841017
O O2 0.786373 0.396443 0.866859
O O3 0.723313 0.110702 0.037265
O O4 0.080780 0.985953 0.091425
O O5 0.894786 0.919355 0.792663
O O6 0.094109 0.106761 0.706205
O O7 0.422638 0.668995 0.992799
O O8 0.412988 0.154864 0.704636
O O9 0.970515 0.253890 0.493003
O O10 0.000000 0.500000 0.500000
O O11 0.057639 0.579396 0.820028
O O12 0.131178 0.582428 0.718329
O O13 0.264403 0.200363 0.986734
O O14 0.258076 0.289391 0.214730
O O15 0.788060 0.685051 0.929943
O O16 0.362684 0.061023 0.598957
O O17 0.000000 0.000000 0.500000
#
# Coordination Sequence:
#
# PCOD9027792 Si02
#       8
#     2   2   2   2   2   2   2   2
#     4   9  18  36  68  97 117 165 228 270 315 383
#     4  10  22  41  69  93 127 175 223 266 322 405
#     4  11  26  45  64  96 136 177 213 273 333 387
#     4  10  23  40  64  94 128 172 216 269 329 387
#     4   9  20  42  66  90 130 168 221 270 324 401
#     4   9  20  39  69  93 125 174 220 269 324 402
#     4  12  29  45  63  98 141 173 215 281 332 381
#     4  10  22  43  67  94 130 168 225 268 329 391
#
# _framework density 21.538108999999999
#
# number of rings (size 3 to 8) (size 9 to 14) (size 15 to 20)
#    0.000    2.000    0.000    3.000   10.500    2.000 
#    6.750    1.250    0.000    0.000    0.000    0.000 
#    0.000    0.000    0.000    0.000    0.000    0.000 
#
# Total GULP energy -89207.149348 kJ/mol
# GULP energy per Si atom -5575.446834 kJ/mol
# Density = 2.148909 g / cm^3
# Si number density = 21.538109 Si / 1000 Ang^3
#
#
#
# Elastic Constant Matrix: (Units=GPa)
#
#
# Indices 1 2 3 4 5 6 
#
# 1 81.0411 18.7816 39.8146 13.0819 -8.7855 -9.0397
# 2 18.7816 124.1699 36.0939 14.2898 -8.1101 -22.9036
# 3 39.8146 36.0939 104.1096 1.3387 -7.3104 -2.3734
# 4 13.0819 14.2898 1.3387 24.9948 -9.3986 5.3700
# 5 -8.7855 -8.1101 -7.3104 -9.3986 29.2963 10.6129
# 6 -9.0397 -22.9036 -2.3734 5.3700 10.6129 23.8442
#
#
#
# Elastic Compliance Matrix: (Units=1/GPa)
#
#
# Indices 1 2 3 4 5 6 
#
# 1 0.020593 0.005383 -0.009633 -0.021247 -0.009111 0.020859
# 2 0.005383 0.016440 -0.007756 -0.022835 -0.013280 0.028114
# 3 -0.009633 -0.007756 0.016115 0.016568 0.010841 -0.018055
# 4 -0.021247 -0.022835 0.016568 0.096982 0.048564 -0.071796
# 5 -0.009111 -0.013280 0.010841 0.048564 0.066114 -0.055495
# 6 0.020859 0.028114 -0.018055 -0.071796 -0.055495 0.115924
#
#
# Mechanical properties :
#
#
# Convention : Reuss Voigt Hill
#
# Bulk Modulus (GPa) = 34.32199 55.41119 44.86659
# Shear Modulus (GPa) = 13.66523 29.93577 21.80050
#
# Velocity S-wave (km/s) = 2.52160 3.73218 3.18493
# Velocity P-wave (km/s) = 4.94449 6.65996 5.86528
#
# Compressibility (1/GPa) = 0.02913584
#
# Stress axis : x y z
#
# Youngs Moduli (GPa) = 48.56000 60.82731 62.05547
#
# Poissons Ratio (x) = -0.32742 0.59775
# Poissons Ratio (y) = -0.26138 0.48131
# Poissons Ratio (z) = 0.46776 0.47178
#
# Static dielectric constant tensor:
#      x y z
#    x 1.819010 -0.032410 0.023070 
#    y -0.032410 1.898610 0.004470 
#    z 0.023070 0.004470 1.760600 
# 
# From -- ./inp_files/588969.got.cif
#   From: 2010.05.17/outbox.cif.g08.bks.cpg/sg2_295_cif.got.tgz:588969.got - 2010.06.03 11:33:40.
