data_PCOD9027696
_publ_section_title
;
Structure prediction by ZEFSAII (Michael W. Deem and Ramdas Pophale) SiO2 
 PCOD9027696
Probable space group: P -1
;
_chemical_formula_sum "Si O2"
_cell_formula_units_Z 15
_cell_length_a 14.922603
_cell_length_b 8.903582
_cell_length_c 9.156738
_cell_angle_alpha 111.455092
_cell_angle_beta 35.443428
_cell_angle_gamma 103.729528
_cell_volume 652.460916
_symmetry_space_group_name_H-M "P -1"
_symmetry_group_IT_number 2
_symmetry_cell_setting 'triclinic'
loop_
_space_group_symop_operation_xyz
x,y,z
-x,-y,-z
loop_
_atom_site_type_symbol
_atom_site_label
_atom_site_fract_x
_atom_site_fract_y
_atom_site_fract_z
Si Si1 0.012933 0.807688 0.899680
Si Si2 0.000000 0.000000 0.500000
Si Si3 0.747062 0.431896 0.397527
Si Si4 0.804023 0.708285 0.597248
Si Si5 0.603086 0.561732 0.058317
Si Si6 0.318757 0.323847 0.684298
Si Si7 0.614166 0.931481 0.698196
Si Si8 0.783582 0.208018 0.639549
O O1 0.142883 0.735124 0.818103
O O2 0.072044 0.758358 0.640938
O O3 0.846712 0.747070 0.122271
O O4 0.000000 0.000000 0.000000
O O5 0.072919 0.176184 0.472329
O O6 0.846305 0.092486 0.648498
O O7 0.856285 0.536328 0.389187
O O8 0.584579 0.426477 0.698052
O O9 0.698452 0.518826 0.341417
O O10 0.720818 0.797249 0.600277
O O11 0.685492 0.668068 0.867959
O O12 0.637338 0.628249 0.196089
O O13 0.679347 0.373578 0.878990
O O14 0.436259 0.175532 0.406841
O O15 0.695188 0.090224 0.608975
O O16 0.500000 0.000000 0.000000
#
# Coordination Sequence:
#
# PCOD9027696 Si02
#       8
#     2   1   2   2   2   2   2   2
#     4  12  25  43  70 102 141 186 241 287 346 430
#     4  10  24  40  62 108 142 184 232 296 346 414
#     4  11  25  45  71 101 144 189 236 285 364 423
#     4  10  22  41  69 100 139 185 237 280 352 420
#     4  12  25  44  75 109 139 182 243 299 347 418
#     4  11  25  44  68 106 140 183 237 293 354 414
#     4  10  22  43  70  93 140 188 231 279 354 427
#     4  11  23  42  69 100 143 186 233 285 354 419
#
# _framework density 22.989881
#
# number of rings (size 3 to 8) (size 9 to 14) (size 15 to 20)
#    0.000    1.067    2.667    3.600    3.733    2.133 
#    0.000    4.000    0.000    0.000    0.000    0.000 
#    0.000    0.000    0.000    0.000    0.000    0.000 
#
# Total GULP energy -83518.847714 kJ/mol
# GULP energy per Si atom -5567.923181 kJ/mol
# Density = 2.293756 g / cm^3
# Si number density = 22.989881 Si / 1000 Ang^3
#
#
#
# Elastic Constant Matrix: (Units=GPa)
#
#
# Indices 1 2 3 4 5 6 
#
# 1 85.4124 42.1767 19.8348 9.3138 19.3012 14.2595
# 2 42.1767 126.5311 34.5171 10.0442 4.8497 6.1801
# 3 19.8348 34.5171 76.3735 13.6798 10.9677 0.8375
# 4 9.3138 10.0442 13.6798 42.7534 -1.8906 1.7677
# 5 19.3012 4.8497 10.9677 -1.8906 36.2819 4.6349
# 6 14.2595 6.1801 0.8375 1.7677 4.6349 12.0924
#
#
#
# Elastic Compliance Matrix: (Units=1/GPa)
#
#
# Indices 1 2 3 4 5 6 
#
# 1 0.018972 -0.004728 -0.001186 -0.002259 -0.007070 -0.016834
# 2 -0.004728 0.010455 -0.003809 -0.000090 0.002313 -0.000378
# 3 -0.001186 -0.003809 0.016561 -0.004546 -0.004699 0.004664
# 4 -0.002259 -0.000090 -0.004546 0.025642 0.004224 -0.002342
# 5 -0.007070 0.002313 -0.004699 0.004224 0.033414 -0.005945
# 6 -0.016834 -0.000378 0.004664 -0.002342 -0.005945 0.105038
#
#
# Mechanical properties :
#
#
# Convention : Reuss Voigt Hill
#
# Bulk Modulus (GPa) = 37.67566 53.48603 45.58084
# Shear Modulus (GPa) = 20.97525 31.01143 25.99334
#
# Velocity S-wave (km/s) = 3.02382 3.67674 3.36615
# Velocity P-wave (km/s) = 5.34928 6.42963 5.91418
#
# Compressibility (1/GPa) = 0.02654234
#
# Stress axis : x y z
#
# Youngs Moduli (GPa) = 52.70831 95.64558 60.38226
#
# Poissons Ratio (x) = 0.45221 0.07161
# Poissons Ratio (y) = 0.24921 0.23001
# Poissons Ratio (z) = 0.06251 0.36434
#
# Static dielectric constant tensor:
#      x y z
#    x 1.879800 0.079860 0.019910 
#    y 0.079860 2.081120 0.007730 
#    z 0.019910 0.007730 1.981190 
# 
# From -- ./inp_files/242452.got.cif
#   From: 2010.05.17/outbox.cif.g08.bks.cpg/sg2_122_cif.got.tgz:242452.got - 2010.06.03 11:33:40.
