data_PCOD9027915
_publ_section_title
;
Structure prediction by ZEFSAII (Michael W. Deem and Ramdas Pophale) SiO2 
 PCOD9027915
Probable space group: P -1
;
_chemical_formula_sum "Si O2"
_cell_formula_units_Z 12
_cell_length_a 11.488207
_cell_length_b 7.332907
_cell_length_c 8.641105
_cell_angle_alpha 105.290573
_cell_angle_beta 140.930959
_cell_angle_gamma 72.962622
_cell_volume 437.862670
_symmetry_space_group_name_H-M "P -1"
_symmetry_group_IT_number 2
_symmetry_cell_setting 'triclinic'
loop_
_space_group_symop_operation_xyz
x,y,z
-x,-y,-z
loop_
_atom_site_type_symbol
_atom_site_label
_atom_site_fract_x
_atom_site_fract_y
_atom_site_fract_z
Si Si1 0.206595 0.658987 0.150207
Si Si2 0.292153 0.693517 0.919356
Si Si3 0.590813 0.739990 0.467848
Si Si4 0.182794 0.373339 0.589097
Si Si5 0.277634 0.016719 0.785297
Si Si6 0.850669 0.783982 0.982639
O O1 0.424897 0.681813 0.390977
O O2 0.188524 0.435790 0.097273
O O3 0.155312 0.718790 0.932464
O O4 0.061083 0.777463 0.140562
O O5 0.328096 0.468415 0.870974
O O6 0.233694 0.804032 0.725856
O O7 0.466949 0.780316 0.193405
O O8 0.760091 0.601451 0.524641
O O9 0.703447 0.871853 0.716977
O O10 0.190272 0.151344 0.587857
O O11 0.000000 0.500000 0.500000
O O12 0.198363 0.121721 0.883779
O O13 0.500000 0.000000 0.000000
#
# Coordination Sequence:
#
# PCOD9027915 Si02
#       6
#     2   2   2   2   2   2
#     4   9  21  40  66 100 135 184 229 283 343 405
#     4  10  23  44  69  99 139 183 228 282 348 412
#     4  10  22  41  70 101 133 186 228 287 346 406
#     4  12  25  46  73 100 144 185 237 287 348 421
#     4  12  25  45  71 103 140 188 227 292 354 416
#     4  11  22  41  71 100 139 182 238 279 349 421
#
# _framework density 27.405849
#
# number of rings (size 3 to 8) (size 9 to 14) (size 15 to 20)
#    1.000    0.333    3.333    2.000    4.667    2.000 
#    0.000    1.667    0.000    0.000    0.000    0.000 
#    0.000    0.000    0.000    0.000    0.000    0.000 
#
# Total GULP energy -66964.472462 kJ/mol
# GULP energy per Si atom -5580.372705 kJ/mol
# Density = 2.734347 g / cm^3
# Si number density = 27.405849 Si / 1000 Ang^3
#
#
#
# Elastic Constant Matrix: (Units=GPa)
#
#
# Indices 1 2 3 4 5 6 
#
# 1 213.1372 31.6879 39.6736 1.6724 31.9675 -20.4210
# 2 31.6879 95.9219 11.4204 -10.6502 -7.3069 1.7873
# 3 39.6736 11.4204 85.6246 -12.7738 5.2805 0.7647
# 4 1.6724 -10.6502 -12.7738 35.7701 -4.1078 -17.1640
# 5 31.9675 -7.3069 5.2805 -4.1078 52.4453 -1.9072
# 6 -20.4210 1.7873 0.7647 -17.1640 -1.9072 46.4060
#
#
#
# Elastic Compliance Matrix: (Units=1/GPa)
#
#
# Indices 1 2 3 4 5 6 
#
# 1 0.006330 -0.002262 -0.002595 -0.001247 -0.003926 0.002293
# 2 -0.002262 0.011896 -0.000140 0.004080 0.003377 0.000196
# 3 -0.002595 -0.000140 0.013651 0.005332 0.000629 0.000636
# 4 -0.001247 0.004080 0.005332 0.038086 0.004265 0.013468
# 5 -0.003926 0.003377 0.000629 0.004265 0.022225 0.000623
# 6 0.002293 0.000196 0.000636 0.013468 0.000623 0.027547
#
#
# Mechanical properties :
#
#
# Convention : Reuss Voigt Hill
#
# Bulk Modulus (GPa) = 45.70088 62.24973 53.97531
# Shear Modulus (GPa) = 36.49038 47.71772 42.10405
#
# Velocity S-wave (km/s) = 3.65291 4.17724 3.92384
# Velocity P-wave (km/s) = 5.87396 6.78447 6.34557
#
# Compressibility (1/GPa) = 0.02188142
#
# Stress axis : x y z
#
# Youngs Moduli (GPa) = 157.98774 84.06406 73.25395
#
# Poissons Ratio (x) = 0.19017 0.19013
# Poissons Ratio (y) = 0.35741 0.01024
# Poissons Ratio (z) = 0.41005 0.01175
#
# Static dielectric constant tensor:
#      x y z
#    x 2.155890 0.056280 0.127980 
#    y 0.056280 2.178460 -0.094350 
#    z 0.127980 -0.094350 2.399210 
# 
# From -- ./inp_files/240066.got.cif
#   From: 2010.05.17/outbox.cif.g08.bks.cpg/sg2_121_cif.got.tgz:240066.got - 2010.06.03 11:33:40.
