data_PCOD9027127
_publ_section_title
;
Structure prediction by ZEFSAII (Michael W. Deem and Ramdas Pophale) SiO2 
 PCOD9027127
Probable space group: P -1
;
_chemical_formula_sum "Si O2"
_cell_formula_units_Z 14
_cell_length_a 8.460260
_cell_length_b 8.555481
_cell_length_c 10.336656
_cell_angle_alpha 94.236376
_cell_angle_beta 48.804307
_cell_angle_gamma 100.679914
_cell_volume 552.053469
_symmetry_space_group_name_H-M "P -1"
_symmetry_group_IT_number 2
_symmetry_cell_setting 'triclinic'
loop_
_space_group_symop_operation_xyz
x,y,z
-x,-y,-z
loop_
_atom_site_type_symbol
_atom_site_label
_atom_site_fract_x
_atom_site_fract_y
_atom_site_fract_z
Si Si1 0.618185 0.957684 0.307072
Si Si2 0.686577 0.595859 0.309181
Si Si3 0.959921 0.675042 0.566014
Si Si4 0.515498 0.187971 0.865631
Si Si5 0.075048 0.795716 0.239202
Si Si6 0.514543 0.517106 0.836556
Si Si7 0.018879 0.135075 0.189213
O O1 0.654087 0.777075 0.306130
O O2 0.485334 0.950466 0.246257
O O3 0.500000 0.000000 0.500000
O O4 0.834119 0.089924 0.179927
O O5 0.500000 0.500000 0.500000
O O6 0.668550 0.500101 0.175739
O O7 0.923068 0.640979 0.249592
O O8 0.702959 0.660523 0.712209
O O9 0.043947 0.745163 0.663108
O O10 0.000000 0.500000 0.500000
O O11 0.036179 0.786113 0.412239
O O12 0.667431 0.189530 0.907640
O O13 0.602127 0.352990 0.756247
O O14 0.264186 0.191100 0.020833
O O15 0.018182 0.960885 0.236714
O O16 0.500000 0.500000 0.000000
#
# Coordination Sequence:
#
# PCOD9027127 Si02
#       7
#     2   2   2   2   2   2   2
#     4  10  23  41  66  96 129 174 225 268 324 399
#     4  10  22  41  66  98 132 169 220 281 325 385
#     4  12  23  39  71  94 130 176 228 267 325 399
#     4  11  22  42  67  93 136 176 221 267 333 399
#     4  11  23  41  66  99 132 173 218 277 332 389
#     4  11  22  42  67  95 132 176 221 272 330 393
#     4  11  24  41  65  97 136 171 219 278 332 384
#
# _framework density 25.359860999999999
#
# number of rings (size 3 to 8) (size 9 to 14) (size 15 to 20)
#    0.000    1.143    4.286    2.143    2.000    1.143 
#    0.000    0.714    0.000    0.000    0.000    0.000 
#    0.000    0.000    0.000    0.000    0.000    0.000 
#
# Total GULP energy -78056.996797 kJ/mol
# GULP energy per Si atom -5575.499771 kJ/mol
# Density = 2.530214 g / cm^3
# Si number density = 25.359861 Si / 1000 Ang^3
#
#
#
# Elastic Constant Matrix: (Units=GPa)
#
#
# Indices 1 2 3 4 5 6 
#
# 1 138.5448 38.6074 37.4680 -4.6360 -4.4847 66.8857
# 2 38.6074 75.6267 21.6230 -20.2786 -6.7182 36.2165
# 3 37.4680 21.6230 109.2823 -15.6098 -0.8252 31.2530
# 4 -4.6360 -20.2786 -15.6098 33.4661 7.6116 -0.5585
# 5 -4.4847 -6.7182 -0.8252 7.6116 31.7888 -6.4380
# 6 66.8857 36.2165 31.2530 -0.5585 -6.4380 59.9442
#
#
#
# Elastic Compliance Matrix: (Units=1/GPa)
#
#
# Indices 1 2 3 4 5 6 
#
# 1 0.015994 0.001706 0.000131 0.003465 -0.002085 -0.019137
# 2 0.001706 0.024435 0.001939 0.016104 -0.001994 -0.017741
# 3 0.000131 0.001939 0.011953 0.007222 -0.002562 -0.007757
# 4 0.003465 0.016104 0.007222 0.045572 -0.010490 -0.018063
# 5 -0.002085 -0.001994 -0.002562 -0.010490 0.034913 0.008519
# 6 -0.019137 -0.017741 -0.007757 -0.018063 0.008519 0.053545
#
#
# Mechanical properties :
#
#
# Convention : Reuss Voigt Hill
#
# Bulk Modulus (GPa) = 16.68506 57.65007 37.16757
# Shear Modulus (GPa) = 25.14616 40.09019 32.61818
#
# Velocity S-wave (km/s) = 3.15234 3.98031 3.59027
# Velocity P-wave (km/s) = 4.45458 6.62616 5.64576
#
# Compressibility (1/GPa) = 0.05993385
#
# Stress axis : x y z
#
# Youngs Moduli (GPa) = 62.52153 40.92548 83.66345
#
# Poissons Ratio (x) = -0.06981 -0.01094
# Poissons Ratio (y) = -0.10665 -0.16226
# Poissons Ratio (z) = -0.00818 -0.07937
#
# Static dielectric constant tensor:
#      x y z
#    x 2.208150 0.045840 -0.090430 
#    y 0.045840 2.014150 0.028020 
#    z -0.090430 0.028020 2.088390 
# 
# From -- ./inp_files/239220.got.cif
#   From: 2010.05.17/outbox.cif.g08.bks.cpg/sg2_120_cif.got.tgz:239220.got - 2010.06.03 11:33:40.
