data_PCOD9027906
_publ_section_title
;
Structure prediction by ZEFSAII (Michael W. Deem and Ramdas Pophale) SiO2 
 PCOD9027906
Probable space group: P -1
;
_chemical_formula_sum "Si O2"
_cell_formula_units_Z 15
_cell_length_a 5.496019
_cell_length_b 13.980021
_cell_length_c 8.285179
_cell_angle_alpha 80.669449
_cell_angle_beta 96.079634
_cell_angle_gamma 101.440402
_cell_volume 613.891455
_symmetry_space_group_name_H-M "P -1"
_symmetry_group_IT_number 2
_symmetry_cell_setting 'triclinic'
loop_
_space_group_symop_operation_xyz
x,y,z
-x,-y,-z
loop_
_atom_site_type_symbol
_atom_site_label
_atom_site_fract_x
_atom_site_fract_y
_atom_site_fract_z
Si Si1 0.309088 0.457963 0.141487
Si Si2 0.798452 0.166459 0.319099
Si Si3 0.000000 0.000000 0.500000
Si Si4 0.955269 0.370777 0.863609
Si Si5 0.228045 0.244835 0.745572
Si Si6 0.387038 0.836389 0.045794
Si Si7 0.121670 0.960554 0.181073
Si Si8 0.627815 0.723711 0.607280
O O1 0.409911 0.385766 0.291026
O O2 0.207062 0.546189 0.198566
O O3 0.500000 0.500000 0.000000
O O4 0.080497 0.396066 0.039491
O O5 0.591415 0.226334 0.351720
O O6 0.081339 0.228294 0.345671
O O7 0.788565 0.065509 0.440558
O O8 0.712821 0.141368 0.138403
O O9 0.112888 0.031203 0.311849
O O10 0.154158 0.349681 0.752380
O O11 0.798224 0.261648 0.885234
O O12 0.359766 0.205626 0.920995
O O13 0.035221 0.142702 0.728651
O O14 0.388430 0.264168 0.589979
O O15 0.370054 0.924996 0.143325
O O16 0.000000 0.000000 0.000000
#
# Coordination Sequence:
#
# PCOD9027906 Si02
#       8
#     2   2   1   2   2   2   2   2
#     4  11  23  43  72 108 140 191 251 301 369 453
#     4  12  26  47  75 109 150 198 248 311 376 443
#     4  12  24  48  72 114 148 196 258 314 366 462
#     4  10  22  41  70 100 142 185 246 297 368 447
#     4  11  25  44  70 104 147 195 244 311 377 447
#     4  11  23  45  71 103 147 198 245 304 378 448
#     4  11  24  44  69 104 146 191 249 310 376 442
#     4  12  27  47  74 111 151 197 244 313 378 443
#
# _framework density 24.434286
#
# number of rings (size 3 to 8) (size 9 to 14) (size 15 to 20)
#    0.000    0.800    4.000    3.200    5.600    1.600 
#    2.400    2.667    0.000    0.000    0.000    0.000 
#    0.000    0.000    0.000    0.000    0.000    0.000 
#
# Total GULP energy -83519.593247 kJ/mol
# GULP energy per Si atom -5567.972883 kJ/mol
# Density = 2.437867 g / cm^3
# Si number density = 24.434286 Si / 1000 Ang^3
#
#
#
# Elastic Constant Matrix: (Units=GPa)
#
#
# Indices 1 2 3 4 5 6 
#
# 1 89.9669 46.6823 28.3900 -7.5653 7.8977 -32.2904
# 2 46.6823 102.5890 42.3890 -18.2984 -3.9501 -38.1718
# 3 28.3900 42.3890 143.0598 -25.3218 6.3885 -18.2984
# 4 -7.5653 -18.2984 -25.3218 43.3518 -9.1719 9.3928
# 5 7.8977 -3.9501 6.3885 -9.1719 30.9205 -3.2628
# 6 -32.2904 -38.1718 -18.2984 9.3928 -3.2628 49.8477
#
#
#
# Elastic Compliance Matrix: (Units=1/GPa)
#
#
# Indices 1 2 3 4 5 6 
#
# 1 0.016811 -0.005382 -0.001124 -0.002414 -0.004780 0.006498
# 2 -0.005382 0.017443 -0.002504 0.004455 0.006342 0.008527
# 3 -0.001124 -0.002504 0.008609 0.003666 -0.000748 -0.000226
# 4 -0.002414 0.004455 0.003666 0.028897 0.008823 -0.001674
# 5 -0.004780 0.006342 -0.000748 0.008823 0.037383 0.002270
# 6 0.006498 0.008527 -0.000226 -0.001674 0.002270 0.031182
#
#
# Mechanical properties :
#
#
# Convention : Reuss Voigt Hill
#
# Bulk Modulus (GPa) = 40.25466 63.39316 51.82391
# Shear Modulus (GPa) = 30.00718 39.36764 34.68741
#
# Velocity S-wave (km/s) = 3.50819 4.01829 3.77187
# Velocity P-wave (km/s) = 5.73762 6.89416 6.34231
#
# Compressibility (1/GPa) = 0.02484184
#
# Stress axis : x y z
#
# Youngs Moduli (GPa) = 59.48321 57.32893 116.16301
#
# Poissons Ratio (x) = 0.30856 0.13058
# Poissons Ratio (y) = 0.32015 0.29091
# Poissons Ratio (z) = 0.06687 0.14357
#
# Static dielectric constant tensor:
#      x y z
#    x 2.321630 -0.002220 -0.014360 
#    y -0.002220 2.012070 0.072500 
#    z -0.014360 0.072500 1.948160 
# 
# From -- ./inp_files/36192.got.cif
#   From: 2010.05.17/outbox.cif.g08.bks.cpg/sg2_19_cif.got.tgz:36192.got - 2010.06.03 11:33:40.
