data_PCOD9027943
_publ_section_title
;
Structure prediction by ZEFSAII (Michael W. Deem and Ramdas Pophale) SiO2 
 PCOD9027943
Probable space group: P -1
;
_chemical_formula_sum "Si O2"
_cell_formula_units_Z 16
_cell_length_a 19.979561
_cell_length_b 8.454744
_cell_length_c 9.363278
_cell_angle_alpha 114.873608
_cell_angle_beta 64.017006
_cell_angle_gamma 148.383288
_cell_volume 741.551974
_symmetry_space_group_name_H-M "P -1"
_symmetry_group_IT_number 2
_symmetry_cell_setting 'triclinic'
loop_
_space_group_symop_operation_xyz
x,y,z
-x,-y,-z
loop_
_atom_site_type_symbol
_atom_site_label
_atom_site_fract_x
_atom_site_fract_y
_atom_site_fract_z
Si Si1 0.873106 0.849510 0.114938
Si Si2 0.407455 0.311277 0.877857
Si Si3 0.727188 0.356293 0.633075
Si Si4 0.036736 0.413372 0.537212
Si Si5 0.372629 0.644812 0.005206
Si Si6 0.796141 0.738915 0.461823
Si Si7 0.496180 0.789647 0.476235
Si Si8 0.119107 0.749551 0.876004
O O1 0.866218 0.831826 0.284174
O O2 0.876245 0.048183 0.119224
O O3 0.740237 0.511413 0.054588
O O4 0.000000 0.000000 0.000000
O O5 0.459276 0.262718 0.704126
O O6 0.255295 0.977033 0.914934
O O7 0.500000 0.500000 0.000000
O O8 0.404939 0.504654 0.895795
O O9 0.854705 0.494532 0.609649
O O10 0.683580 0.421454 0.809638
O O11 0.768717 0.526534 0.511018
O O12 0.602273 0.994981 0.581541
O O13 0.100782 0.594409 0.694904
O O14 0.000000 0.500000 0.500000
O O15 0.900315 0.059814 0.564670
O O16 0.500000 0.000000 0.000000
O O17 0.654127 0.540066 0.477473
O O18 0.500000 0.000000 0.500000
O O19 0.000000 0.500000 0.000000
#
# Coordination Sequence:
#
# PCOD9027943 Si02
#       8
#     2   2   2   2   2   2   2   2
#     4  11  25  45  67 101 141 185 231 288 352 420
#     4  11  24  46  71 104 140 182 236 291 352 420
#     4  11  24  46  72 100 139 187 236 292 348 426
#     4  12  25  45  68 103 142 181 239 289 352 416
#     4  11  26  46  69 104 144 182 236 290 358 419
#     4  11  24  42  72 100 135 184 235 282 353 421
#     4  10  22  41  70 103 138 177 234 290 348 416
#     4  11  27  44  69 104 141 183 235 292 352 425
#
# _framework density 21.576370000000001
#
# number of rings (size 3 to 8) (size 9 to 14) (size 15 to 20)
#    0.000    1.000    2.500    3.375    7.000    3.000 
#    0.000    2.500    0.000    0.000    0.000    0.000 
#    0.000    0.000    0.000    0.000    0.000    0.000 
#
# Total GULP energy -89405.570550 kJ/mol
# GULP energy per Si atom -5587.848159 kJ/mol
# Density = 2.152726 g / cm^3
# Si number density = 21.576370 Si / 1000 Ang^3
#
#
#
# Elastic Constant Matrix: (Units=GPa)
#
#
# Indices 1 2 3 4 5 6 
#
# 1 90.5101 43.8184 34.5918 -4.8988 -13.4385 18.8961
# 2 43.8184 145.6119 26.2343 10.3208 -12.8108 33.9059
# 3 34.5918 26.2343 108.1057 -1.8345 -17.4117 0.2610
# 4 -4.8988 10.3208 -1.8345 43.9330 6.5622 6.9772
# 5 -13.4385 -12.8108 -17.4117 6.5622 40.8998 1.1770
# 6 18.8961 33.9059 0.2610 6.9772 1.1770 33.5798
#
#
#
# Elastic Compliance Matrix: (Units=1/GPa)
#
#
# Indices 1 2 3 4 5 6 
#
# 1 0.015724 -0.002334 -0.004000 0.002901 0.002473 -0.007150
# 2 -0.002334 0.010157 -0.001345 -0.001679 0.002360 -0.008665
# 3 -0.004000 -0.001345 0.011335 -0.000684 0.003097 0.003555
# 4 0.002901 -0.001679 -0.000684 0.024790 -0.003699 -0.004953
# 5 0.002473 0.002360 0.003097 -0.003699 0.028029 -0.004013
# 6 -0.007150 -0.008665 0.003555 -0.004953 -0.004013 0.043695
#
#
# Mechanical properties :
#
#
# Convention : Reuss Voigt Hill
#
# Bulk Modulus (GPa) = 45.75260 61.50187 53.62723
# Shear Modulus (GPa) = 31.97425 39.65474 35.81449
#
# Velocity S-wave (km/s) = 3.85374 4.29170 4.07860
# Velocity P-wave (km/s) = 6.40724 7.28865 6.86211
#
# Compressibility (1/GPa) = 0.02185668
#
# Stress axis : x y z
#
# Youngs Moduli (GPa) = 63.59593 98.45638 88.21979
#
# Poissons Ratio (x) = 0.22984 0.35290
# Poissons Ratio (y) = 0.14846 0.11867
# Poissons Ratio (z) = 0.25440 0.13244
#
# Static dielectric constant tensor:
#      x y z
#    x 1.789010 0.048060 0.008270 
#    y 0.048060 1.759500 0.051570 
#    z 0.008270 0.051570 1.806730 
# 
# From -- ./inp_files/343761.got.cif
#   From: 2010.05.17/outbox.cif.g08.bks.cpg/sg2_172_cif.got.tgz:343761.got - 2010.06.03 11:33:40.
