data_PCOD9027442
_publ_section_title
;
Structure prediction by ZEFSAII (Michael W. Deem and Ramdas Pophale) SiO2 
 PCOD9027442
Probable space group: P -1
;
_chemical_formula_sum "Si O2"
_cell_formula_units_Z 16
_cell_length_a 9.479278
_cell_length_b 15.629347
_cell_length_c 10.976595
_cell_angle_alpha 36.509876
_cell_angle_beta 60.009254
_cell_angle_gamma 50.604775
_cell_volume 747.521906
_symmetry_space_group_name_H-M "P -1"
_symmetry_group_IT_number 2
_symmetry_cell_setting 'triclinic'
loop_
_space_group_symop_operation_xyz
x,y,z
-x,-y,-z
loop_
_atom_site_type_symbol
_atom_site_label
_atom_site_fract_x
_atom_site_fract_y
_atom_site_fract_z
Si Si1 0.944691 0.073612 0.574862
Si Si2 0.304334 0.003518 0.056782
Si Si3 0.322739 0.875941 0.768775
Si Si4 0.367455 0.719626 0.174903
Si Si5 0.364472 0.183622 0.457683
Si Si6 0.728845 0.509444 0.396929
Si Si7 0.183321 0.331145 0.622603
Si Si8 0.014847 0.375309 0.238539
O O1 0.928305 0.254404 0.379447
O O2 0.000000 0.000000 0.500000
O O3 0.114768 0.971615 0.707619
O O4 0.775403 0.052755 0.729063
O O5 0.166218 0.183626 0.864878
O O6 0.500000 0.000000 0.000000
O O7 0.330848 0.882359 0.073451
O O8 0.449374 0.813795 0.665827
O O9 0.385768 0.002515 0.657145
O O10 0.349328 0.746099 0.009035
O O11 0.565055 0.581090 0.289141
O O12 0.234086 0.658397 0.365238
O O13 0.277672 0.269702 0.522458
O O14 0.221485 0.268025 0.313556
O O15 0.685564 0.631780 0.386184
O O16 0.907872 0.480161 0.280776
O O17 0.000000 0.500000 0.500000
O O18 0.000000 0.500000 0.000000
#
# Coordination Sequence:
#
# PCOD9027442 Si02
#       8
#     2   2   2   2   2   2   2   2
#     4  11  28  44  68 104 139 181 244 292 351 427
#     4  12  26  45  74 101 139 193 239 295 349 425
#     4  10  23  43  69  96 137 183 234 286 350 418
#     4  11  23  44  68  98 134 186 234 284 356 421
#     4  10  22  41  68 101 132 184 234 281 344 432
#     4  11  24  41  66 103 141 174 231 292 350 419
#     4  12  25  41  70 106 141 179 237 293 354 415
#     4  11  23  43  68  96 142 185 222 286 362 417
#
# _framework density 21.404056000000001
#
# number of rings (size 3 to 8) (size 9 to 14) (size 15 to 20)
#    0.000    1.000    5.000    0.750    5.250    1.500 
#    0.000    0.625    0.000    0.000    0.000    0.000 
#    0.000    0.000    0.000    0.000    0.000    0.000 
#
# Total GULP energy -89399.635662 kJ/mol
# GULP energy per Si atom -5587.477229 kJ/mol
# Density = 2.135534 g / cm^3
# Si number density = 21.404056 Si / 1000 Ang^3
#
#
#
# Elastic Constant Matrix: (Units=GPa)
#
#
# Indices 1 2 3 4 5 6 
#
# 1 48.6536 18.6279 37.6218 12.8182 -5.7691 2.7053
# 2 18.6279 104.3272 43.3134 16.2408 -4.6516 5.3287
# 3 37.6218 43.3134 170.0679 11.5497 5.1873 -2.1616
# 4 12.8182 16.2408 11.5497 38.5257 -1.5780 -2.6314
# 5 -5.7691 -4.6516 5.1873 -1.5780 28.6829 1.0489
# 6 2.7053 5.3287 -2.1616 -2.6314 1.0489 37.9842
#
#
#
# Elastic Compliance Matrix: (Units=1/GPa)
#
#
# Indices 1 2 3 4 5 6 
#
# 1 0.028153 -0.001138 -0.005680 -0.007123 0.006217 -0.002834
# 2 -0.001138 0.011627 -0.002536 -0.003819 0.001979 -0.002014
# 3 -0.005680 -0.002536 0.007852 0.000573 -0.002991 0.001329
# 4 -0.007123 -0.003819 0.000573 0.029956 -0.000624 0.003168
# 5 0.006217 0.001979 -0.002991 -0.000624 0.037013 -0.001956
# 6 -0.002834 -0.002014 0.001329 0.003168 -0.001956 0.027160
#
#
# Mechanical properties :
#
#
# Convention : Reuss Voigt Hill
#
# Bulk Modulus (GPa) = 34.57396 58.01943 46.29669
# Shear Modulus (GPa) = 29.39296 35.93762 32.66529
#
# Velocity S-wave (km/s) = 3.70975 4.10202 3.91080
# Velocity P-wave (km/s) = 5.87688 7.04280 6.48609
#
# Compressibility (1/GPa) = 0.02892350
#
# Stress axis : x y z
#
# Youngs Moduli (GPa) = 35.52078 86.00763 127.36313
#
# Poissons Ratio (x) = 0.09786 0.72341
# Poissons Ratio (y) = 0.04041 0.32300
# Poissons Ratio (z) = 0.20175 0.21812
#
# Static dielectric constant tensor:
#      x y z
#    x 1.832510 -0.006800 -0.015900 
#    y -0.006800 1.778290 -0.019770 
#    z -0.015900 -0.019770 1.773540 
# 
# From -- ./inp_files/436330.got.cif
#   From: 2010.05.17/outbox.cif.g08.bks.cpg/sg2_219_cif.got.tgz:436330.got - 2010.06.03 11:33:40.
