data_PCOD9027482
_publ_section_title
;
Structure prediction by ZEFSAII (Michael W. Deem and Ramdas Pophale) SiO2 
 PCOD9027482
Probable space group: P -1
;
_chemical_formula_sum "Si O2"
_cell_formula_units_Z 16
_cell_length_a 14.395771
_cell_length_b 12.408399
_cell_length_c 10.029898
_cell_angle_alpha 145.034793
_cell_angle_beta 66.758504
_cell_angle_gamma 129.861034
_cell_volume 752.575586
_symmetry_space_group_name_H-M "P -1"
_symmetry_group_IT_number 2
_symmetry_cell_setting 'triclinic'
loop_
_space_group_symop_operation_xyz
x,y,z
-x,-y,-z
loop_
_atom_site_type_symbol
_atom_site_label
_atom_site_fract_x
_atom_site_fract_y
_atom_site_fract_z
Si Si1 0.069451 0.487281 0.320886
Si Si2 0.774847 0.643373 0.476067
Si Si3 0.149898 0.843762 0.103018
Si Si4 0.965368 0.134748 0.561854
Si Si5 0.523228 0.875024 0.476051
Si Si6 0.763048 0.970881 0.307138
Si Si7 0.739191 0.603831 0.770578
Si Si8 0.387410 0.849851 0.016767
O O1 0.147681 0.392737 0.227026
O O2 0.000000 0.500000 0.500000
O O3 0.168306 0.753482 0.479993
O O4 0.962944 0.318697 0.101570
O O5 0.745886 0.591454 0.595585
O O6 0.663278 0.420653 0.230021
O O7 0.905935 0.683247 0.405922
O O8 0.796356 0.885479 0.676261
O O9 0.091276 0.773832 0.214269
O O10 0.268286 0.838304 0.021435
O O11 0.856524 0.964644 0.346696
O O12 0.000000 0.000000 0.500000
O O13 0.631004 0.857875 0.341044
O O14 0.393227 0.624858 0.331891
O O15 0.500000 0.000000 0.500000
O O16 0.572376 0.032221 0.741542
O O17 0.750330 0.832403 0.041808
O O18 0.500000 0.000000 0.000000
#
# Coordination Sequence:
#
# PCOD9027482 Si02
#       8
#     2   2   2   2   2   2   2   2
#     4  12  26  43  72 106 144 184 236 294 361 424
#     4  11  25  44  72 104 140 184 233 296 352 423
#     4  11  25  44  70 104 140 183 236 289 359 424
#     4  10  22  41  68 104 136 178 232 284 354 419
#     4  12  27  49  73 105 143 194 241 297 361 424
#     4  12  25  45  73 101 143 188 232 297 354 423
#     4  12  25  47  70 106 144 187 241 291 359 430
#     4  12  26  48  73 100 143 185 243 296 353 423
#
# _framework density 21.260321999999999
#
# number of rings (size 3 to 8) (size 9 to 14) (size 15 to 20)
#    0.000    0.500    3.750    4.875    1.750    6.000 
#    2.250    0.000    0.000    0.000    0.000    0.000 
#    0.000    0.000    0.000    0.000    0.000    0.000 
#
# Total GULP energy -89565.028160 kJ/mol
# GULP energy per Si atom -5597.814260 kJ/mol
# Density = 2.121193 g / cm^3
# Si number density = 21.260322 Si / 1000 Ang^3
#
#
#
# Elastic Constant Matrix: (Units=GPa)
#
#
# Indices 1 2 3 4 5 6 
#
# 1 68.2656 28.4246 17.7665 4.2998 -1.3585 16.4847
# 2 28.4246 105.8263 15.5587 -3.8256 -15.4607 31.2462
# 3 17.7665 15.5587 110.7155 3.2035 -2.9707 15.9432
# 4 4.2998 -3.8256 3.2035 45.4123 -0.7356 -7.3607
# 5 -1.3585 -15.4607 -2.9707 -0.7356 28.6026 -0.9712
# 6 16.4847 31.2462 15.9432 -7.3607 -0.9712 40.1952
#
#
#
# Elastic Compliance Matrix: (Units=1/GPa)
#
#
# Indices 1 2 3 4 5 6 
#
# 1 0.017750 -0.003535 -0.001686 -0.002592 -0.001458 -0.004372
# 2 -0.003535 0.014236 0.000121 0.000107 0.007221 -0.009471
# 3 -0.001686 0.000121 0.009841 -0.001075 0.000862 -0.003482
# 4 -0.002592 0.000107 -0.001075 0.023282 0.000615 0.005684
# 5 -0.001458 0.007221 0.000862 0.000615 0.038755 -0.004308
# 6 -0.004372 -0.009471 -0.003482 0.005684 -0.004308 0.036352
#
#
# Mechanical properties :
#
#
# Convention : Reuss Voigt Hill
#
# Bulk Modulus (GPa) = 31.61859 45.36743 38.49301
# Shear Modulus (GPa) = 31.06379 37.71251 34.38815
#
# Velocity S-wave (km/s) = 3.82660 4.21627 4.02615
# Velocity P-wave (km/s) = 5.86756 6.71476 6.30540
#
# Compressibility (1/GPa) = 0.03162696
#
# Stress axis : x y z
#
# Youngs Moduli (GPa) = 56.33952 70.24228 101.61199
#
# Poissons Ratio (x) = 0.24833 0.17131
# Poissons Ratio (y) = 0.19918 -0.01231
# Poissons Ratio (z) = 0.09499 -0.00851
#
# Static dielectric constant tensor:
#      x y z
#    x 1.763300 -0.003100 -0.031810 
#    y -0.003100 1.753790 0.014530 
#    z -0.031810 0.014530 1.750890 
# 
# From -- ./inp_files/308759.got.cif
#   From: 2010.05.17/outbox.cif.g08.bks.cpg/sg2_155_cif.got.tgz:308759.got - 2010.06.03 11:33:40.
