data_PCOD9027981
_publ_section_title
;
Structure prediction by ZEFSAII (Michael W. Deem and Ramdas Pophale) SiO2 
 PCOD9027981
Probable space group: P -1
;
_chemical_formula_sum "Si O2"
_cell_formula_units_Z 14
_cell_length_a 12.376014
_cell_length_b 8.339762
_cell_length_c 8.908382
_cell_angle_alpha 55.141040
_cell_angle_beta 100.723661
_cell_angle_gamma 105.732671
_cell_volume 725.646566
_symmetry_space_group_name_H-M "P -1"
_symmetry_group_IT_number 2
_symmetry_cell_setting 'triclinic'
loop_
_space_group_symop_operation_xyz
x,y,z
-x,-y,-z
loop_
_atom_site_type_symbol
_atom_site_label
_atom_site_fract_x
_atom_site_fract_y
_atom_site_fract_z
Si Si1 0.800857 0.994973 0.102793
Si Si2 0.590675 0.157987 0.031200
Si Si3 0.779430 0.135247 0.690722
Si Si4 0.211100 0.401879 0.561069
Si Si5 0.546193 0.850023 0.699894
Si Si6 0.593046 0.541710 0.634536
Si Si7 0.005321 0.091501 0.616013
O O1 0.768895 0.750520 0.219513
O O2 0.920821 0.029254 0.197704
O O3 0.702958 0.070799 0.127586
O O4 0.808584 0.104156 0.888155
O O5 0.534682 0.202239 0.149374
O O6 0.614341 0.344124 0.825915
O O7 0.500000 0.000000 0.000000
O O8 0.764602 0.361690 0.533021
O O9 0.882717 0.092279 0.644266
O O10 0.666854 0.972344 0.719283
O O11 0.292234 0.358574 0.471978
O O12 0.082750 0.314916 0.525522
O O13 0.556730 0.668694 0.691680
O O14 0.500000 0.000000 0.500000
O O15 0.500000 0.500000 0.500000
O O16 0.000000 0.000000 0.500000
#
# Coordination Sequence:
#
# PCOD9027981 Si02
#       7
#     2   2   2   2   2   2   2
#     4  10  23  41  69  93 134 174 220 272 333 391
#     4  12  22  43  66  99 136 174 224 274 338 406
#     4  12  22  46  69  97 130 177 228 271 338 398
#     4  10  22  41  70  93 131 174 222 270 342 381
#     4  12  26  40  67 100 134 175 224 279 335 405
#     4  12  24  43  66  97 138 178 220 276 343 400
#     4  10  24  43  68  97 135 174 225 279 331 395
#
# _framework density 19.293137999999999
#
# number of rings (size 3 to 8) (size 9 to 14) (size 15 to 20)
#    0.857    0.000    2.857    5.571    2.000    0.000 
#    2.571    0.714    0.000    0.000    0.000    0.000 
#    0.000    0.000    0.000    0.000    0.000    0.000 
#
# Total GULP energy -78107.607646 kJ/mol
# GULP energy per Si atom -5579.114832 kJ/mol
# Density = 1.924923 g / cm^3
# Si number density = 19.293138 Si / 1000 Ang^3
#
#
#
# Elastic Constant Matrix: (Units=GPa)
#
#
# Indices 1 2 3 4 5 6 
#
# 1 99.5320 9.9961 22.0159 11.0638 -6.5996 -26.7197
# 2 9.9961 67.7792 16.1953 1.6844 6.7407 -21.3031
# 3 22.0159 16.1953 90.0942 -11.1974 8.3203 -9.7729
# 4 11.0638 1.6844 -11.1974 36.5782 -4.5976 -0.6112
# 5 -6.5996 6.7407 8.3203 -4.5976 36.2687 1.6492
# 6 -26.7197 -21.3031 -9.7729 -0.6112 1.6492 32.4850
#
#
#
# Elastic Compliance Matrix: (Units=1/GPa)
#
#
# Indices 1 2 3 4 5 6 
#
# 1 0.014590 0.002541 -0.003478 -0.005166 0.001760 0.012434
# 2 0.002541 0.020016 -0.002639 -0.002715 -0.003658 0.014557
# 3 -0.003478 -0.002639 0.013224 0.004896 -0.002538 -0.000392
# 4 -0.005166 -0.002715 0.004896 0.030774 0.002529 -0.004106
# 5 0.001760 -0.003658 -0.002538 0.002529 0.029619 -0.003171
# 6 0.012434 0.014557 -0.000392 -0.004106 -0.003171 0.050522
#
#
# Mechanical properties :
#
#
# Convention : Reuss Voigt Hill
#
# Bulk Modulus (GPa) = 24.58399 39.31335 31.94867
# Shear Modulus (GPa) = 27.86161 35.01292 31.43727
#
# Velocity S-wave (km/s) = 3.80428 4.26465 4.04103
# Velocity P-wave (km/s) = 5.66275 6.68362 6.19425
#
# Compressibility (1/GPa) = 0.04067688
#
# Stress axis : x y z
#
# Youngs Moduli (GPa) = 68.54034 49.95943 75.61930
#
# Poissons Ratio (x) = -0.12692 0.26299
# Poissons Ratio (y) = -0.17413 0.19959
# Poissons Ratio (z) = 0.23837 0.13187
#
# Static dielectric constant tensor:
#      x y z
#    x 4.027310 -0.140200 0.645220 
#    y -0.140200 1.635710 -0.005760 
#    z 0.645220 -0.005760 1.820660 
# 
# From -- ./inp_files/221658.got.cif
#   From: 2010.05.17/outbox.cif.g08.bks.cpg/sg2_111_cif.got.tgz:221658.got - 2010.06.03 11:33:40.
