data_PCOD9027284
_publ_section_title
;
Structure prediction by ZEFSAII (Michael W. Deem and Ramdas Pophale) SiO2 
 PCOD9027284
Probable space group: P -1
;
_chemical_formula_sum "Si O2"
_cell_formula_units_Z 14
_cell_length_a 12.152534
_cell_length_b 9.268292
_cell_length_c 8.886105
_cell_angle_alpha 45.161968
_cell_angle_beta 108.171929
_cell_angle_gamma 80.481017
_cell_volume 553.187088
_symmetry_space_group_name_H-M "P -1"
_symmetry_group_IT_number 2
_symmetry_cell_setting 'triclinic'
loop_
_space_group_symop_operation_xyz
x,y,z
-x,-y,-z
loop_
_atom_site_type_symbol
_atom_site_label
_atom_site_fract_x
_atom_site_fract_y
_atom_site_fract_z
Si Si1 0.950900 0.180739 0.988417
Si Si2 0.825509 0.016323 0.512195
Si Si3 0.502766 0.550715 0.285089
Si Si4 0.298973 0.455845 0.863444
Si Si5 0.980060 0.621442 0.604377
Si Si6 0.623538 0.036529 0.641881
Si Si7 0.753201 0.045058 0.007811
O O1 0.953389 0.415717 0.787045
O O2 0.799433 0.233084 0.912340
O O3 0.056782 0.035245 0.277669
O O4 0.000000 0.000000 0.000000
O O5 0.909764 0.829629 0.551775
O O6 0.723878 0.961647 0.596093
O O7 0.731936 0.310202 0.224800
O O8 0.500000 0.500000 0.500000
O O9 0.635418 0.527494 0.277811
O O10 0.376088 0.842002 0.013790
O O11 0.501368 0.329535 0.369480
O O12 0.144489 0.509675 0.742740
O O13 0.399308 0.177359 0.176503
O O14 0.886421 0.776101 0.307759
O O15 0.708899 0.033849 0.828371
#
# Coordination Sequence:
#
# PCOD9027284 Si02
#       7
#     2   2   2   2   2   2   2
#     4  12  24  40  67  99 139 164 216 276 327 380
#     4  11  23  42  63 100 136 174 209 266 332 398
#     4   9  23  43  62  92 134 177 219 264 325 389
#     4  11  22  39  69  92 129 172 223 263 324 385
#     4  12  26  39  70 103 132 169 218 269 336 382
#     4  10  22  41  67  94 132 177 219 262 330 388
#     4  11  24  40  64  99 132 168 222 277 319 384
#
# _framework density 25.307893
#
# number of rings (size 3 to 8) (size 9 to 14) (size 15 to 20)
#    0.000    1.143    4.286    0.857    2.000    4.571 
#    0.000    2.857    0.000    5.143    0.000    0.000 
#    0.000    0.000    0.000    0.000    0.000    0.000 
#
# Total GULP energy -78326.730168 kJ/mol
# GULP energy per Si atom -5594.766441 kJ/mol
# Density = 2.525029 g / cm^3
# Si number density = 25.307893 Si / 1000 Ang^3
#
#
#
# Elastic Constant Matrix: (Units=GPa)
#
#
# Indices 1 2 3 4 5 6 
#
# 1 103.1158 59.1409 35.6647 -18.8220 -22.6472 -21.6287
# 2 59.1409 117.4406 22.9040 -8.8427 -14.2164 -12.7582
# 3 35.6647 22.9040 111.7951 -26.9727 -18.3821 9.0904
# 4 -18.8220 -8.8427 -26.9727 41.0383 10.0929 3.7277
# 5 -22.6472 -14.2164 -18.3821 10.0929 47.7720 -11.3600
# 6 -21.6287 -12.7582 9.0904 3.7277 -11.3600 44.6187
#
#
#
# Elastic Compliance Matrix: (Units=1/GPa)
#
#
# Indices 1 2 3 4 5 6 
#
# 1 0.018834 -0.006657 -0.003721 0.002061 0.007385 0.009692
# 2 -0.006657 0.012023 -0.000533 -0.001000 0.000558 0.000545
# 3 -0.003721 -0.000533 0.012285 0.006649 0.000220 -0.004959
# 4 0.002061 -0.001000 0.006649 0.030924 -0.004324 -0.004326
# 5 0.007385 0.000558 0.000220 -0.004324 0.028274 0.011254
# 6 0.009692 0.000545 -0.004959 -0.004326 0.011254 0.031503
#
#
# Mechanical properties :
#
#
# Convention : Reuss Voigt Hill
#
# Bulk Modulus (GPa) = 46.90569 63.08563 54.99566
# Shear Modulus (GPa) = 30.71795 40.99530 35.85662
#
# Velocity S-wave (km/s) = 3.48770 4.02912 3.76814
# Velocity P-wave (km/s) = 5.89856 6.82835 6.38042
#
# Compressibility (1/GPa) = 0.02131938
#
# Stress axis : x y z
#
# Youngs Moduli (GPa) = 53.09587 83.17711 81.40059
#
# Poissons Ratio (x) = 0.55367 0.30290
# Poissons Ratio (y) = 0.35344 0.04342
# Poissons Ratio (z) = 0.19757 0.04436
#
# Static dielectric constant tensor:
#      x y z
#    x 2.037510 -0.010140 0.045860 
#    y -0.010140 1.983680 0.009250 
#    z 0.045860 0.009250 2.121650 
# 
# From -- ./inp_files/297467.got.cif
#   From: 2010.05.17/outbox.cif.g08.bks.cpg/sg2_149_cif.got.tgz:297467.got - 2010.06.03 11:33:40.
