data_PCOD9027358
_publ_section_title
;
Structure prediction by ZEFSAII (Michael W. Deem and Ramdas Pophale) SiO2 
 PCOD9027358
Probable space group: P -1
;
_chemical_formula_sum "Si O2"
_cell_formula_units_Z 13
_cell_length_a 7.202605
_cell_length_b 14.570402
_cell_length_c 8.162287
_cell_angle_alpha 135.248532
_cell_angle_beta 89.934826
_cell_angle_gamma 109.603376
_cell_volume 530.559223
_symmetry_space_group_name_H-M "P -1"
_symmetry_group_IT_number 2
_symmetry_cell_setting 'triclinic'
loop_
_space_group_symop_operation_xyz
x,y,z
-x,-y,-z
loop_
_atom_site_type_symbol
_atom_site_label
_atom_site_fract_x
_atom_site_fract_y
_atom_site_fract_z
Si Si1 0.459240 0.806949 0.865721
Si Si2 0.500000 0.500000 0.000000
Si Si3 0.220291 0.110144 0.555473
Si Si4 0.610190 0.630885 0.853918
Si Si5 0.403336 0.892171 0.613095
Si Si6 0.995412 0.652918 0.684716
Si Si7 0.933236 0.699298 0.367198
O O1 0.455338 0.827478 0.696895
O O2 0.228900 0.777849 0.884915
O O3 0.492633 0.673282 0.766834
O O4 0.616823 0.963926 0.146662
O O5 0.502566 0.484029 0.776825
O O6 0.759790 0.559959 0.089270
O O7 0.351864 0.253719 0.852120
O O8 0.395163 0.063931 0.446948
O O9 0.147916 0.178874 0.494883
O O10 0.000000 0.000000 0.500000
O O11 0.826207 0.657609 0.810076
O O12 0.175048 0.773153 0.394472
O O13 0.949919 0.670866 0.520202
O O14 0.000000 0.500000 0.500000
#
# Coordination Sequence:
#
# PCOD9027358 Si02
#       7
#     2   1   2   2   2   2   2
#     4  10  22  41  67  97 128 166 217 265 314 385
#     4  10  24  42  62  92 128 170 214 262 320 384
#     4  11  23  40  65  97 135 171 207 260 327 390
#     4  11  24  41  62  92 129 168 213 265 320 379
#     4  10  22  41  67  98 130 170 214 262 322 385
#     4  11  24  42  67  93 123 170 221 268 318 378
#     4  10  23  43  65  91 127 171 216 267 320 376
#
# _framework density 24.502448999999999
#
# number of rings (size 3 to 8) (size 9 to 14) (size 15 to 20)
#    0.000    1.538    0.000    3.692    0.000   12.308 
#    0.000   13.077    0.000    0.000    0.000    0.000 
#    0.000    0.000    0.000    0.000    0.000    0.000 
#
# Total GULP energy -72421.134065 kJ/mol
# GULP energy per Si atom -5570.856467 kJ/mol
# Density = 2.444668 g / cm^3
# Si number density = 24.502449 Si / 1000 Ang^3
#
#
#
# Elastic Constant Matrix: (Units=GPa)
#
#
# Indices 1 2 3 4 5 6 
#
# 1 152.9408 36.0527 29.6775 -8.6857 19.3803 23.9517
# 2 36.0527 103.8770 -14.8822 -24.3687 0.9428 -7.3618
# 3 29.6775 -14.8822 70.8576 3.5875 21.1393 4.2969
# 4 -8.6857 -24.3687 3.5875 19.2050 3.4723 6.6705
# 5 19.3803 0.9428 21.1393 3.4723 40.6624 3.6999
# 6 23.9517 -7.3618 4.2969 6.6705 3.6999 42.0044
#
#
#
# Elastic Compliance Matrix: (Units=1/GPa)
#
#
# Indices 1 2 3 4 5 6 
#
# 1 0.009496 -0.003560 -0.003876 0.002945 -0.002141 -0.005921
# 2 -0.003560 0.015755 0.004622 0.017385 -0.002720 0.001797
# 3 -0.003876 0.004622 0.019052 0.001533 -0.008438 0.001571
# 4 0.002945 0.017385 0.001533 0.080468 -0.008490 -0.010820
# 5 -0.002141 -0.002720 -0.008438 -0.008490 0.030765 0.000246
# 6 -0.005921 0.001797 0.001571 -0.010820 0.000246 0.029034
#
#
# Mechanical properties :
#
#
# Convention : Reuss Voigt Hill
#
# Bulk Modulus (GPa) = 25.85721 47.70792 36.78256
# Shear Modulus (GPa) = 24.61959 38.82953 31.72456
#
# Velocity S-wave (km/s) = 3.17327 3.98517 3.60217
# Velocity P-wave (km/s) = 4.89918 6.37875 5.68728
#
# Compressibility (1/GPa) = 0.03867393
#
# Stress axis : x y z
#
# Youngs Moduli (GPa) = 105.31005 63.47098 52.48898
#
# Poissons Ratio (x) = 0.22599 0.20346
# Poissons Ratio (y) = 0.37495 -0.24263
# Poissons Ratio (z) = 0.40821 -0.29339
#
# Static dielectric constant tensor:
#      x y z
#    x 1.982230 0.102900 0.054810 
#    y 0.102900 1.998410 0.052890 
#    z 0.054810 0.052890 1.971400 
# 
# From -- ./inp_files/18622.got.cif
#   From: 2010.05.17/outbox.cif.g08.bks.cpg/sg2_10_cif.got.tgz:18622.got - 2010.06.03 11:33:40.
