data_PCOD9027801
_publ_section_title
;
Structure prediction by ZEFSAII (Michael W. Deem and Ramdas Pophale) SiO2 
 PCOD9027801
Probable space group: P -1
;
_chemical_formula_sum "Si O2"
_cell_formula_units_Z 14
_cell_length_a 7.523893
_cell_length_b 12.295476
_cell_length_c 12.493936
_cell_angle_alpha 67.905526
_cell_angle_beta 68.556822
_cell_angle_gamma 126.065258
_cell_volume 537.667212
_symmetry_space_group_name_H-M "P -1"
_symmetry_group_IT_number 2
_symmetry_cell_setting 'triclinic'
loop_
_space_group_symop_operation_xyz
x,y,z
-x,-y,-z
loop_
_atom_site_type_symbol
_atom_site_label
_atom_site_fract_x
_atom_site_fract_y
_atom_site_fract_z
Si Si1 0.556926 0.007603 0.747908
Si Si2 0.737001 0.653915 0.285357
Si Si3 0.186062 0.040248 0.781911
Si Si4 0.523209 0.544316 0.125664
Si Si5 0.939838 0.401065 0.440732
Si Si6 0.245143 0.707682 0.094011
Si Si7 0.976473 0.616741 0.865678
O O1 0.340165 0.841221 0.758342
O O2 0.331003 0.006190 0.835268
O O3 0.904437 0.247795 0.539269
O O4 0.569651 0.927069 0.873735
O O5 0.500000 0.500000 0.500000
O O6 0.837500 0.843571 0.206761
O O7 0.037816 0.709119 0.190930
O O8 0.577433 0.565159 0.232857
O O9 0.533618 0.222026 0.558126
O O10 0.806926 0.790020 0.926414
O O11 0.674922 0.502755 0.056778
O O12 0.141540 0.370797 0.219059
O O13 0.000000 0.500000 0.500000
O O14 0.247509 0.612918 0.221787
O O15 0.039387 0.525565 0.115576
#
# Coordination Sequence:
#
# PCOD9027801 Si02
#       7
#     2   2   2   2   2   2   2
#     4   9  21  43  64  92 127 176 210 266 328 368
#     4  12  21  38  64  94 134 168 212 269 327 380
#     4   9  20  40  62  88 131 173 207 259 342 366
#     4  10  22  42  68  91 127 176 213 265 324 388
#     4  10  23  42  61  96 134 164 217 267 325 382
#     4  12  23  39  70  96 128 168 221 269 317 387
#     4  10  22  41  69  94 127 171 225 258 319 390
#
# _framework density 26.038409000000001
#
# number of rings (size 3 to 8) (size 9 to 14) (size 15 to 20)
#    0.857    0.857    4.286    0.857    2.000    1.143 
#    2.571    0.000    3.143    4.286    0.000    0.000 
#    0.000    0.000    0.000    0.000    0.000    0.000 
#
# Total GULP energy -78026.099601 kJ/mol
# GULP energy per Si atom -5573.292829 kJ/mol
# Density = 2.597914 g / cm^3
# Si number density = 26.038409 Si / 1000 Ang^3
#
#
#
# Elastic Constant Matrix: (Units=GPa)
#
#
# Indices 1 2 3 4 5 6 
#
# 1 71.4117 10.0579 35.1737 0.8195 13.8405 5.6537
# 2 10.0579 142.4493 44.2316 14.1110 10.5269 -4.9936
# 3 35.1737 44.2316 139.4730 -10.2188 34.7059 11.5351
# 4 0.8195 14.1110 -10.2188 40.2351 -3.9765 -2.5004
# 5 13.8405 10.5269 34.7059 -3.9765 56.6223 4.6451
# 6 5.6537 -4.9936 11.5351 -2.5004 4.6451 43.4144
#
#
#
# Elastic Compliance Matrix: (Units=1/GPa)
#
#
# Indices 1 2 3 4 5 6 
#
# 1 0.016267 0.000286 -0.003800 -0.001629 -0.001734 -0.000984
# 2 0.000286 0.008386 -0.003100 -0.003649 -0.000113 0.001553
# 3 -0.003800 -0.003100 0.010673 0.003292 -0.004641 -0.002011
# 4 -0.001629 -0.003649 0.003292 0.027119 0.000932 0.000380
# 5 -0.001734 -0.000113 -0.004641 0.000932 0.021078 -0.000756
# 6 -0.000984 0.001553 -0.002011 0.000380 -0.000756 0.023978
#
#
# Mechanical properties :
#
#
# Convention : Reuss Voigt Hill
#
# Bulk Modulus (GPa) = 45.24599 59.14005 52.19302
# Shear Modulus (GPa) = 39.03374 45.64574 42.33974
#
# Velocity S-wave (km/s) = 3.87600 4.19145 4.03681
# Velocity P-wave (km/s) = 6.11927 6.79604 6.46652
#
# Compressibility (1/GPa) = 0.02210141
#
# Stress axis : x y z
#
# Youngs Moduli (GPa) = 61.47319 119.23931 93.69092
#
# Poissons Ratio (x) = -0.03414 0.35599
# Poissons Ratio (y) = -0.01760 0.29040
# Poissons Ratio (z) = 0.23358 0.36958
#
# Static dielectric constant tensor:
#      x y z
#    x 2.124240 0.011610 -0.043800 
#    y 0.011610 2.107590 -0.004990 
#    z -0.043800 -0.004990 2.177190 
# 
# From -- ./inp_files/387057.got.cif
#   From: 2010.05.17/outbox.cif.g08.bks.cpg/sg2_194_cif.got.tgz:387057.got - 2010.06.03 11:33:40.
