data_PCOD9027452
_publ_section_title
;
Structure prediction by ZEFSAII (Michael W. Deem and Ramdas Pophale) SiO2 
 PCOD9027452
Probable space group: P -1
;
_chemical_formula_sum "Si O2"
_cell_formula_units_Z 12
_cell_length_a 14.154707
_cell_length_b 5.266833
_cell_length_c 18.907451
_cell_angle_alpha 72.029189
_cell_angle_beta 19.543575
_cell_angle_gamma 72.653523
_cell_volume 448.405772
_symmetry_space_group_name_H-M "P -1"
_symmetry_group_IT_number 2
_symmetry_cell_setting 'triclinic'
loop_
_space_group_symop_operation_xyz
x,y,z
-x,-y,-z
loop_
_atom_site_type_symbol
_atom_site_label
_atom_site_fract_x
_atom_site_fract_y
_atom_site_fract_z
Si Si1 0.668567 0.767978 0.517285
Si Si2 0.440861 0.198428 0.088854
Si Si3 0.180547 0.401674 0.720200
Si Si4 0.269363 0.167956 0.979662
Si Si5 0.702118 0.748798 0.204488
Si Si6 0.887315 0.411830 0.511706
O O1 0.794220 0.796720 0.347170
O O2 0.526466 0.034175 0.624946
O O3 0.874021 0.647272 0.442576
O O4 0.443196 0.533127 0.684722
O O5 0.111134 0.193554 0.343179
O O6 0.500000 0.500000 0.000000
O O7 0.500000 0.000000 0.000000
O O8 0.362240 0.898955 0.977105
O O9 0.500000 0.500000 0.500000
O O10 0.964435 0.643978 0.833606
O O11 0.096123 0.295327 0.866564
O O12 0.184893 0.150197 0.958619
O O13 0.570027 0.316602 0.753559
O O14 0.000000 0.500000 0.500000
#
# Coordination Sequence:
#
# PCOD9027452 Si02
#       6
#     2   2   2   2   2   2
#     4  10  22  41  68 101 141 187 235 293 357 425
#     4  12  27  46  71 103 142 190 241 297 360 428
#     4  10  22  44  72 107 146 189 240 301 365 434
#     4  11  24  46  73 108 146 193 244 301 365 437
#     4  10  22  43  69 102 140 186 236 293 358 428
#     4  11  24  46  72 105 147 195 245 301 362 434
#
# _framework density 26.761474
#
# number of rings (size 3 to 8) (size 9 to 14) (size 15 to 20)
#    0.000    1.333    0.000    4.500    0.000    8.000 
#    0.000   26.667    0.000    0.000    0.000    0.000 
#    0.000    0.000    0.000    0.000    0.000    0.000 
#
# Total GULP energy -67334.751514 kJ/mol
# GULP energy per Si atom -5611.229293 kJ/mol
# Density = 2.670056 g / cm^3
# Si number density = 26.761474 Si / 1000 Ang^3
#
#
#
# Elastic Constant Matrix: (Units=GPa)
#
#
# Indices 1 2 3 4 5 6 
#
# 1 154.3349 32.1650 31.8445 6.4446 25.2365 -23.4511
# 2 32.1650 117.3419 67.6657 21.7192 1.6366 -4.8290
# 3 31.8445 67.6657 149.3001 31.3544 -9.2941 -6.1087
# 4 6.4446 21.7192 31.3544 64.0054 -2.8662 -7.8867
# 5 25.2365 1.6366 -9.2941 -2.8662 66.4394 5.7766
# 6 -23.4511 -4.8290 -6.1087 -7.8867 5.7766 56.3963
#
#
#
# Elastic Compliance Matrix: (Units=1/GPa)
#
#
# Indices 1 2 3 4 5 6 
#
# 1 0.008130 -0.001390 -0.001297 0.000570 -0.003520 0.003561
# 2 -0.001390 0.011989 -0.004840 -0.001610 -0.000492 -0.000251
# 3 -0.001297 -0.004840 0.009908 -0.003058 0.001910 -0.000504
# 4 0.000570 -0.001610 -0.003058 0.017889 -0.000030 0.002273
# 5 -0.003520 -0.000492 0.001910 -0.000030 0.016931 -0.003037
# 6 0.003561 -0.000251 -0.000504 0.002273 -0.003037 0.019765
#
#
# Mechanical properties :
#
#
# Convention : Reuss Voigt Hill
#
# Bulk Modulus (GPa) = 66.78771 76.03639 71.41205
# Shear Modulus (GPa) = 47.77525 56.65498 52.21511
#
# Velocity S-wave (km/s) = 4.22978 4.60612 4.42195
# Velocity P-wave (km/s) = 6.99039 7.53410 7.26733
#
# Compressibility (1/GPa) = 0.01497281
#
# Stress axis : x y z
#
# Youngs Moduli (GPa) = 123.00491 83.41257 100.92515
#
# Poissons Ratio (x) = 0.11598 0.13089
# Poissons Ratio (y) = 0.17102 0.48844
# Poissons Ratio (z) = 0.15953 0.40368
#
# Static dielectric constant tensor:
#      x y z
#    x 2.080890 -0.016720 0.041560 
#    y -0.016720 2.076070 -0.109820 
#    z 0.041560 -0.109820 2.156800 
# 
# From -- ./inp_files/571743.got.cif
#   From: 2010.05.17/outbox.cif.g08.bks.cpg/sg2_286_cif.got.tgz:571743.got - 2010.06.03 11:33:40.
