data_PCOD9027064
_publ_section_title
;
Structure prediction by ZEFSAII (Michael W. Deem and Ramdas Pophale) SiO2 
 PCOD9027064
Probable space group: P -1
;
_chemical_formula_sum "Si O2"
_cell_formula_units_Z 14
_cell_length_a 9.315198
_cell_length_b 11.748013
_cell_length_c 7.816473
_cell_angle_alpha 76.772763
_cell_angle_beta 105.230642
_cell_angle_gamma 143.437501
_cell_volume 491.425257
_symmetry_space_group_name_H-M "P -1"
_symmetry_group_IT_number 2
_symmetry_cell_setting 'triclinic'
loop_
_space_group_symop_operation_xyz
x,y,z
-x,-y,-z
loop_
_atom_site_type_symbol
_atom_site_label
_atom_site_fract_x
_atom_site_fract_y
_atom_site_fract_z
Si Si1 0.107612 0.078128 0.234167
Si Si2 0.393663 0.186949 0.975240
Si Si3 0.480384 0.646770 0.494589
Si Si4 0.892787 0.572705 0.283259
Si Si5 0.776779 0.590558 0.828779
Si Si6 0.187921 0.750048 0.661793
Si Si7 0.621913 0.168748 0.780799
O O1 0.242211 0.155920 0.431200
O O2 0.157637 0.243182 0.135308
O O3 0.252534 0.086641 0.143684
O O4 0.818879 0.888730 0.185911
O O5 0.623011 0.418301 0.973293
O O6 0.501730 0.140722 0.929581
O O7 0.349717 0.526074 0.672143
O O8 0.398204 0.515026 0.357245
O O9 0.375285 0.708134 0.372768
O O10 0.809219 0.386986 0.294688
O O11 0.066255 0.706308 0.458361
O O12 0.107538 0.716359 0.159713
O O13 0.012509 0.681747 0.783124
O O14 0.440318 0.969940 0.696753
#
# Coordination Sequence:
#
# PCOD9027064 Si02
#       7
#     2   2   2   2   2   2   2
#     4  11  22  39  53  79 116 141 180 224 269 316
#     4  10  22  37  57  78 105 153 183 213 264 331
#     4  10  21  35  55  86 113 135 175 233 270 313
#     4  10  18  34  53  85 110 131 182 219 272 320
#     4  10  19  37  58  81 105 143 185 220 269 316
#     4  10  17  31  57  82 106 138 174 224 263 316
#     4  11  18  34  58  81 106 143 180 217 268 318
#
# _framework density 28.488562999999999
#
# number of rings (size 3 to 8) (size 9 to 14) (size 15 to 20)
#    0.000    1.714    7.143    1.286    0.000    2.286 
#    5.143    0.714    0.000    0.857    0.000    0.000 
#    0.000    0.000    0.000    0.000    0.000    0.000 
#
# Total GULP energy -78366.102911 kJ/mol
# GULP energy per Si atom -5597.578779 kJ/mol
# Density = 2.842372 g / cm^3
# Si number density = 28.488563 Si / 1000 Ang^3
#
#
#
# Elastic Constant Matrix: (Units=GPa)
#
#
# Indices 1 2 3 4 5 6 
#
# 1 137.3024 52.9255 26.3012 -7.1122 -41.5607 26.6416
# 2 52.9255 166.5062 -12.8129 11.4429 -32.0379 16.4206
# 3 26.3012 -12.8129 110.8674 -10.7614 -32.3831 1.7461
# 4 -7.1122 11.4429 -10.7614 28.1082 4.6517 -13.7200
# 5 -41.5607 -32.0379 -32.3831 4.6517 52.1103 5.5787
# 6 26.6416 16.4206 1.7461 -13.7200 5.5787 55.0949
#
#
#
# Elastic Compliance Matrix: (Units=1/GPa)
#
#
# Indices 1 2 3 4 5 6 
#
# 1 0.011869 -0.001230 -0.000244 -0.001397 0.009397 -0.006664
# 2 -0.001230 0.008897 0.002933 -0.006189 0.007339 -0.004434
# 3 -0.000244 0.002933 0.012271 0.000997 0.009342 -0.001843
# 4 -0.001397 -0.006189 0.000997 0.047268 -0.010156 0.015288
# 5 0.009397 0.007339 0.009342 -0.010156 0.039358 -0.013542
# 6 -0.006664 -0.004434 -0.001843 0.015288 -0.013542 0.027931
#
#
# Mechanical properties :
#
#
# Convention : Reuss Voigt Hill
#
# Bulk Modulus (GPa) = 27.81291 60.83374 44.32333
# Shear Modulus (GPa) = 31.91567 50.28017 41.09792
#
# Velocity S-wave (km/s) = 3.35072 4.20566 3.80229
# Velocity P-wave (km/s) = 4.97532 6.70697 5.90497
#
# Compressibility (1/GPa) = 0.03595452
#
# Stress axis : x y z
#
# Youngs Moduli (GPa) = 84.25187 112.39527 81.49158
#
# Poissons Ratio (x) = 0.13827 0.01988
# Poissons Ratio (y) = 0.10365 -0.23899
# Poissons Ratio (z) = 0.02056 -0.32962
#
# Static dielectric constant tensor:
#      x y z
#    x 2.240110 0.035280 0.110780 
#    y 0.035280 2.123810 -0.036090 
#    z 0.110780 -0.036090 2.426920 
# 
# From -- ./inp_files/267875.got.cif
#   From: 2010.05.17/outbox.cif.g08.bks.cpg/sg2_134_cif.got.tgz:267875.got - 2010.06.03 11:33:40.
