data_PCOD9027194
_publ_section_title
;
Structure prediction by ZEFSAII (Michael W. Deem and Ramdas Pophale) SiO2 
 PCOD9027194
Probable space group: P -1
;
_chemical_formula_sum "Si O2"
_cell_formula_units_Z 12
_cell_length_a 5.150733
_cell_length_b 16.310660
_cell_length_c 7.679672
_cell_angle_alpha 137.524819
_cell_angle_beta 93.622803
_cell_angle_gamma 81.013805
_cell_volume 429.015379
_symmetry_space_group_name_H-M "P -1"
_symmetry_group_IT_number 2
_symmetry_cell_setting 'triclinic'
loop_
_space_group_symop_operation_xyz
x,y,z
-x,-y,-z
loop_
_atom_site_type_symbol
_atom_site_label
_atom_site_fract_x
_atom_site_fract_y
_atom_site_fract_z
Si Si1 0.375572 0.551571 0.875656
Si Si2 0.325161 0.299576 0.466900
Si Si3 0.199782 0.052392 0.219633
Si Si4 0.956172 0.206026 0.760553
Si Si5 0.496505 0.120381 0.807342
Si Si6 0.770159 0.399293 0.451301
O O1 0.335524 0.425609 0.773813
O O2 0.674684 0.516827 0.758795
O O3 0.240934 0.559951 0.686124
O O4 0.207745 0.671530 0.142219
O O5 0.321693 0.175797 0.376965
O O6 0.554197 0.312375 0.357875
O O7 0.046641 0.325399 0.400674
O O8 0.019772 0.098748 0.453085
O O9 0.441838 0.944392 0.106016
O O10 0.000000 0.000000 0.000000
O O11 0.229938 0.207274 0.875085
O O12 0.748823 0.175691 0.845105
O O13 0.500000 0.000000 0.500000
#
# Coordination Sequence:
#
# PCOD9027194 Si02
#       6
#     2   2   2   2   2   2
#     4   9  22  41  73 101 142 177 245 280 364 417
#     4  10  22  41  67 104 141 183 227 291 363 413
#     4  11  26  49  71 107 151 187 237 296 361 418
#     4  11  25  46  78 104 137 192 241 297 342 432
#     4  10  24  49  70 100 141 193 246 281 350 422
#     4   9  21  40  65 105 138 184 225 290 354 427
#
# _framework density 27.971022999999999
#
# number of rings (size 3 to 8) (size 9 to 14) (size 15 to 20)
#    1.000    1.000    0.000    2.500    4.667    4.667 
#    3.000    9.167    0.000    0.000    0.000    0.000 
#    0.000    0.000    0.000    0.000    0.000    0.000 
#
# Total GULP energy -67114.222533 kJ/mol
# GULP energy per Si atom -5592.851878 kJ/mol
# Density = 2.790736 g / cm^3
# Si number density = 27.971023 Si / 1000 Ang^3
#
#
#
# Elastic Constant Matrix: (Units=GPa)
#
#
# Indices 1 2 3 4 5 6 
#
# 1 169.6561 49.7141 16.8937 7.6559 0.0548 -2.2159
# 2 49.7141 140.9877 17.2095 47.2560 10.1191 -10.0530
# 3 16.8937 17.2095 106.2701 13.5338 -24.3431 -6.2974
# 4 7.6559 47.2560 13.5338 59.1386 8.3000 5.7091
# 5 0.0548 10.1191 -24.3431 8.3000 40.1425 9.8268
# 6 -2.2159 -10.0530 -6.2974 5.7091 9.8268 42.1768
#
#
#
# Elastic Compliance Matrix: (Units=1/GPa)
#
#
# Indices 1 2 3 4 5 6 
#
# 1 0.006742 -0.002894 -0.000856 0.001700 0.000020 -0.000698
# 2 -0.002894 0.011646 -0.000624 -0.008849 -0.002538 0.004320
# 3 -0.000856 -0.000624 0.011907 -0.003255 0.008013 0.000158
# 4 0.001700 -0.008849 -0.003255 0.025526 -0.003780 -0.005080
# 5 0.000020 -0.002538 0.008013 -0.003780 0.032792 -0.006536
# 6 -0.000698 0.004320 0.000158 -0.005080 -0.006536 0.026937
#
#
# Mechanical properties :
#
#
# Convention : Reuss Voigt Hill
#
# Bulk Modulus (GPa) = 46.41432 64.94983 55.68207
# Shear Modulus (GPa) = 38.02881 50.49803 44.26342
#
# Velocity S-wave (km/s) = 3.69125 4.25357 3.98235
# Velocity P-wave (km/s) = 5.89888 6.88438 6.41060
#
# Compressibility (1/GPa) = 0.02154508
#
# Stress axis : x y z
#
# Youngs Moduli (GPa) = 148.33161 85.86981 83.98615
#
# Poissons Ratio (x) = 0.24849 0.07192
# Poissons Ratio (y) = 0.42923 0.05244
# Poissons Ratio (z) = 0.12702 0.05361
#
# Static dielectric constant tensor:
#      x y z
#    x 2.182970 -0.015540 0.040110 
#    y -0.015540 2.262020 0.003200 
#    z 0.040110 0.003200 2.414010 
# 
# From -- ./inp_files/139719.got.cif
#   From: 2010.05.17/outbox.cif.g08.bks.cpg/sg2_70_cif.got.tgz:139719.got - 2010.06.03 11:33:40.
