data_PCOD9027381
_publ_section_title
;
Structure prediction by ZEFSAII (Michael W. Deem and Ramdas Pophale) SiO2 
 PCOD9027381
Probable space group: P -1
;
_chemical_formula_sum "Si O2"
_cell_formula_units_Z 14
_cell_length_a 13.099691
_cell_length_b 11.442837
_cell_length_c 21.341565
_cell_angle_alpha 150.799029
_cell_angle_beta 22.435479
_cell_angle_gamma 147.357826
_cell_volume 584.894354
_symmetry_space_group_name_H-M "P -1"
_symmetry_group_IT_number 2
_symmetry_cell_setting 'triclinic'
loop_
_space_group_symop_operation_xyz
x,y,z
-x,-y,-z
loop_
_atom_site_type_symbol
_atom_site_label
_atom_site_fract_x
_atom_site_fract_y
_atom_site_fract_z
Si Si1 0.938058 0.923161 0.850135
Si Si2 0.995830 0.885659 0.319713
Si Si3 0.816268 0.526729 0.057480
Si Si4 0.796937 0.680532 0.686111
Si Si5 0.648128 0.254544 0.390729
Si Si6 0.093523 0.648826 0.275324
Si Si7 0.361966 0.190854 0.902320
O O1 0.186474 0.782975 0.658092
O O2 0.805044 0.843319 0.821334
O O3 0.072178 0.206096 0.906987
O O4 0.732061 0.863219 0.997522
O O5 0.065263 0.856772 0.339381
O O6 0.674889 0.794402 0.445240
O O7 0.104375 0.140637 0.343898
O O8 0.143609 0.685765 0.111050
O O9 0.500240 0.476454 0.229906
O O10 0.000000 0.500000 0.000000
O O11 0.000000 0.500000 0.500000
O O12 0.793533 0.515949 0.404362
O O13 0.716371 0.044576 0.206655
O O14 0.308928 0.742097 0.251649
O O15 0.232238 0.423323 0.064729
#
# Coordination Sequence:
#
# PCOD9027381 Si02
#       7
#     2   2   2   2   2   2   2
#     4  11  24  46  74  97 144 186 236 285 351 420
#     4  12  25  44  70 103 146 178 235 293 351 413
#     4  12  26  45  71 102 140 182 233 287 349 410
#     4  12  29  48  71 105 141 189 238 285 354 418
#     4  11  24  42  68 104 138 184 231 288 345 420
#     4  10  22  41  67  97 138 180 233 283 347 409
#     4  10  22  43  70 100 134 187 232 282 350 420
#
# _framework density 23.935946000000001
#
# number of rings (size 3 to 8) (size 9 to 14) (size 15 to 20)
#    0.000    0.857    1.429    6.000    4.000    7.429 
#    0.000    0.000    0.000    0.000    0.000    0.000 
#    0.000    0.000    0.000    0.000    0.000    0.000 
#
# Total GULP energy -78447.361813 kJ/mol
# GULP energy per Si atom -5603.382987 kJ/mol
# Density = 2.388147 g / cm^3
# Si number density = 23.935946 Si / 1000 Ang^3
#
#
#
# Elastic Constant Matrix: (Units=GPa)
#
#
# Indices 1 2 3 4 5 6 
#
# 1 95.1853 42.3608 13.7047 -1.7374 -8.7539 -7.9322
# 2 42.3608 159.3933 41.7907 -0.2523 -4.6509 -17.6888
# 3 13.7047 41.7907 93.6868 -19.9212 -14.9246 -5.8001
# 4 -1.7374 -0.2523 -19.9212 31.9874 9.7601 -13.6249
# 5 -8.7539 -4.6509 -14.9246 9.7601 33.8995 -0.8209
# 6 -7.9322 -17.6888 -5.8001 -13.6249 -0.8209 51.3738
#
#
#
# Elastic Compliance Matrix: (Units=1/GPa)
#
#
# Indices 1 2 3 4 5 6 
#
# 1 0.012198 -0.003096 0.000158 0.000314 0.002727 0.000962
# 2 -0.003096 0.008165 -0.003514 -0.001389 -0.000789 0.001556
# 3 0.000158 -0.003514 0.015003 0.009586 0.003479 0.003106
# 4 0.000314 -0.001389 0.009586 0.045185 -0.008596 0.012499
# 5 0.002727 -0.000789 0.003479 -0.008596 0.034073 -0.001193
# 6 0.000962 0.001556 0.003106 0.012499 -0.001193 0.023796
#
#
# Mechanical properties :
#
#
# Convention : Reuss Voigt Hill
#
# Bulk Modulus (GPa) = 44.52182 60.44198 52.48190
# Shear Modulus (GPa) = 31.48369 40.14610 35.81489
#
# Velocity S-wave (km/s) = 3.63068 4.09984 3.87238
# Velocity P-wave (km/s) = 6.01802 6.90782 6.47822
#
# Compressibility (1/GPa) = 0.02246090
#
# Stress axis : x y z
#
# Youngs Moduli (GPa) = 81.98223 122.46760 66.65232
#
# Poissons Ratio (x) = 0.37918 -0.01050
# Poissons Ratio (y) = 0.25383 0.23422
# Poissons Ratio (z) = -0.01292 0.43036
#
# Static dielectric constant tensor:
#      x y z
#    x 1.852440 0.002640 0.010380 
#    y 0.002640 1.889120 0.003660 
#    z 0.010380 0.003660 1.937190 
# 
# From -- ./inp_files/611978.got.cif
#   From: 2010.05.17/outbox.cif.g08.bks.cpg/sg2_306_cif.got.tgz:611978.got - 2010.06.03 11:33:40.
