data_PCOD9027356
_publ_section_title
;
Structure prediction by ZEFSAII (Michael W. Deem and Ramdas Pophale) SiO2 
 PCOD9027356
Probable space group: P -1
;
_chemical_formula_sum "Si O2"
_cell_formula_units_Z 14
_cell_length_a 13.005864
_cell_length_b 6.477933
_cell_length_c 17.027884
_cell_angle_alpha 47.921675
_cell_angle_beta 34.986179
_cell_angle_gamma 61.327945
_cell_volume 602.406115
_symmetry_space_group_name_H-M "P -1"
_symmetry_group_IT_number 2
_symmetry_cell_setting 'triclinic'
loop_
_space_group_symop_operation_xyz
x,y,z
-x,-y,-z
loop_
_atom_site_type_symbol
_atom_site_label
_atom_site_fract_x
_atom_site_fract_y
_atom_site_fract_z
Si Si1 0.121738 0.776123 0.176086
Si Si2 0.564884 0.479949 0.612220
Si Si3 0.831740 0.509724 0.308054
Si Si4 0.512598 0.742621 0.002222
Si Si5 0.162103 0.134675 0.543995
Si Si6 0.848436 0.661888 0.088707
Si Si7 0.643795 0.846065 0.733969
O O1 0.318865 0.711236 0.087170
O O2 0.991224 0.550926 0.262737
O O3 0.022855 0.823265 0.308239
O O4 0.142311 0.057607 0.039473
O O5 0.659428 0.587902 0.443304
O O6 0.684996 0.643611 0.564255
O O7 0.356556 0.506526 0.746069
O O8 0.579131 0.146281 0.685944
O O9 0.877038 0.697473 0.155086
O O10 0.805656 0.185186 0.379754
O O11 0.503335 0.433821 0.124232
O O12 0.664715 0.830538 0.818819
O O13 0.500000 0.000000 0.000000
O O14 0.188071 0.171749 0.424566
O O15 0.000000 0.500000 0.000000
#
# Coordination Sequence:
#
# PCOD9027356 Si02
#       7
#     2   2   2   2   2   2   2
#     4  11  24  44  65  96 138 165 219 278 315 392
#     4  10  22  43  67  95 137 171 221 267 318 394
#     4  10  23  43  63  96 135 179 215 260 332 384
#     4  11  24  43  69 101 128 170 219 270 332 388
#     4  10  22  43  67  97 134 174 215 267 325 389
#     4  12  23  42  67 100 130 177 218 270 326 381
#     4  10  22  41  67  97 126 172 214 263 332 385
#
# _framework density 23.240137000000001
#
# number of rings (size 3 to 8) (size 9 to 14) (size 15 to 20)
#    0.000    1.429    2.857    1.714    0.000    4.571 
#    5.143    7.143    0.000    0.000    0.000    0.000 
#    0.000    0.000    0.000    0.000    0.000    0.000 
#
# Total GULP energy -78201.712126 kJ/mol
# GULP energy per Si atom -5585.836580 kJ/mol
# Density = 2.318724 g / cm^3
# Si number density = 23.240137 Si / 1000 Ang^3
#
#
#
# Elastic Constant Matrix: (Units=GPa)
#
#
# Indices 1 2 3 4 5 6 
#
# 1 54.7046 30.4267 39.2650 12.4089 1.3689 9.3683
# 2 30.4267 104.1346 52.6823 9.7941 2.3306 17.1912
# 3 39.2650 52.6823 135.6862 27.0393 27.8399 9.9469
# 4 12.4089 9.7941 27.0393 39.7471 10.0206 0.5301
# 5 1.3689 2.3306 27.8399 10.0206 45.5395 9.4626
# 6 9.3683 17.1912 9.9469 0.5301 9.4626 31.3501
#
#
#
# Elastic Compliance Matrix: (Units=1/GPa)
#
#
# Indices 1 2 3 4 5 6 
#
# 1 0.026391 -0.003401 -0.006086 -0.004512 0.005258 -0.005601
# 2 -0.003401 0.013913 -0.004694 0.000016 0.003543 -0.006193
# 3 -0.006086 -0.004694 0.013051 -0.004044 -0.007182 0.002488
# 4 -0.004512 0.000016 -0.004044 0.030488 -0.004843 0.003569
# 5 0.005258 0.003543 -0.007182 -0.004843 0.029144 -0.009950
# 6 -0.005601 -0.006193 0.002488 0.003569 -0.009950 0.039121
#
#
# Mechanical properties :
#
#
# Convention : Reuss Voigt Hill
#
# Bulk Modulus (GPa) = 40.01024 59.91925 49.96475
# Shear Modulus (GPa) = 26.48311 34.80408 30.64359
#
# Velocity S-wave (km/s) = 3.37937 3.87406 3.63514
# Velocity P-wave (km/s) = 5.69915 6.77125 6.25820
#
# Compressibility (1/GPa) = 0.02499360
#
# Stress axis : x y z
#
# Youngs Moduli (GPa) = 37.89215 71.87527 76.62464
#
# Poissons Ratio (x) = 0.24444 0.46630
# Poissons Ratio (y) = 0.12887 0.35967
# Poissons Ratio (z) = 0.23059 0.33738
#
# Static dielectric constant tensor:
#      x y z
#    x 1.891130 0.012290 0.028610 
#    y 0.012290 1.892560 -0.040140 
#    z 0.028610 -0.040140 1.936160 
# 
# From -- ./inp_files/27096.got.cif
#   From: 2010.05.17/outbox.cif.g08.bks.cpg/sg2_14_cif.got.tgz:27096.got - 2010.06.03 11:33:40.
