data_PCOD9027142
_publ_section_title
;
Structure prediction by ZEFSAII (Michael W. Deem and Ramdas Pophale) SiO2 
 PCOD9027142
Probable space group: P -1
;
_chemical_formula_sum "Si O2"
_cell_formula_units_Z 16
_cell_length_a 12.119039
_cell_length_b 8.109650
_cell_length_c 8.577952
_cell_angle_alpha 112.564999
_cell_angle_beta 56.052208
_cell_angle_gamma 107.210171
_cell_volume 642.138099
_symmetry_space_group_name_H-M "P -1"
_symmetry_group_IT_number 2
_symmetry_cell_setting 'triclinic'
loop_
_space_group_symop_operation_xyz
x,y,z
-x,-y,-z
loop_
_atom_site_type_symbol
_atom_site_label
_atom_site_fract_x
_atom_site_fract_y
_atom_site_fract_z
Si Si1 0.477272 0.251745 0.004951
Si Si2 0.926438 0.587523 0.734210
Si Si3 0.081356 0.715458 0.104988
Si Si4 0.824757 0.214228 0.274797
Si Si5 0.704717 0.520883 0.651113
Si Si6 0.218564 0.228548 0.612590
Si Si7 0.615377 0.881803 0.306552
Si Si8 0.281180 0.949728 0.229353
O O1 0.431676 0.201949 0.849005
O O2 0.631484 0.216833 0.882054
O O3 0.443676 0.437771 0.174289
O O4 0.385415 0.103865 0.127490
O O5 0.917984 0.450925 0.836572
O O6 0.785105 0.599126 0.769364
O O7 0.000000 0.500000 0.500000
O O8 0.024684 0.762702 0.766888
O O9 0.156619 0.886150 0.196467
O O10 0.929164 0.750381 0.203305
O O11 0.158916 0.692761 0.874843
O O12 0.736678 0.325563 0.500455
O O13 0.750048 0.019517 0.233188
O O14 0.757466 0.639798 0.505151
O O15 0.337698 0.256315 0.653508
O O16 0.230268 0.031166 0.458050
O O17 0.500000 0.000000 0.500000
#
# Coordination Sequence:
#
# PCOD9027142 Si02
#       8
#     2   2   2   2   2   2   2   2
#     4  10  22  45  68  97 135 186 232 280 340 412
#     4  10  22  41  66  98 145 175 225 287 347 407
#     4  12  23  41  72 104 140 182 228 289 348 405
#     4  11  25  44  67 103 143 183 225 289 347 404
#     4  10  24  45  71 101 140 184 233 281 350 419
#     4  11  24  40  71 102 140 176 235 276 350 411
#     4  12  26  46  71 101 142 182 231 294 341 405
#     4  10  22  42  68  97 138 176 232 284 339 401
#
# _framework density 24.916758000000002
#
# number of rings (size 3 to 8) (size 9 to 14) (size 15 to 20)
#    0.000    1.250    5.000    0.750    5.250    2.500 
#    0.000    5.000    0.000    0.000    0.000    0.000 
#    0.000    0.000    0.000    0.000    0.000    0.000 
#
# Total GULP energy -89562.210401 kJ/mol
# GULP energy per Si atom -5597.638150 kJ/mol
# Density = 2.486005 g / cm^3
# Si number density = 24.916758 Si / 1000 Ang^3
#
#
#
# Elastic Constant Matrix: (Units=GPa)
#
#
# Indices 1 2 3 4 5 6 
#
# 1 89.5000 15.7489 18.0820 -3.9322 5.5169 -16.3658
# 2 15.7489 69.2493 17.5952 -9.9163 -8.3460 5.5239
# 3 18.0820 17.5952 135.9169 5.2871 -2.0437 -11.6259
# 4 -3.9322 -9.9163 5.2871 39.1806 -5.2242 -3.1598
# 5 5.5169 -8.3460 -2.0437 -5.2242 34.7558 2.1852
# 6 -16.3658 5.5239 -11.6259 -3.1598 2.1852 40.2911
#
#
#
# Elastic Compliance Matrix: (Units=1/GPa)
#
#
# Indices 1 2 3 4 5 6 
#
# 1 0.013280 -0.003580 -0.000874 0.000577 -0.003301 0.005857
# 2 -0.003580 0.017555 -0.002278 0.004785 0.005649 -0.004449
# 3 -0.000874 -0.002278 0.008011 -0.001613 -0.000315 0.002159
# 4 0.000577 0.004785 -0.001613 0.027768 0.005073 0.001015
# 5 -0.003301 0.005649 -0.000315 0.005073 0.031618 -0.003523
# 6 0.005857 -0.004449 0.002159 0.001015 -0.003523 0.028702
#
#
# Mechanical properties :
#
#
# Convention : Reuss Voigt Hill
#
# Bulk Modulus (GPa) = 39.40059 44.16872 41.78465
# Shear Modulus (GPa) = 33.58885 39.06152 36.32518
#
# Velocity S-wave (km/s) = 3.67555 3.96369 3.82234
# Velocity P-wave (km/s) = 5.81895 6.22196 6.02382
#
# Compressibility (1/GPa) = 0.02538033
#
# Stress axis : x y z
#
# Youngs Moduli (GPa) = 75.30339 56.96508 124.82250
#
# Poissons Ratio (x) = 0.20395 0.10913
# Poissons Ratio (y) = 0.26961 0.28435
# Poissons Ratio (z) = 0.06584 0.12977
#
# Static dielectric constant tensor:
#      x y z
#    x 2.018380 -0.064110 -0.028480 
#    y -0.064110 2.053830 -0.008400 
#    z -0.028480 -0.008400 1.927900 
# 
# From -- ./inp_files/239571.got.cif
#   From: 2010.05.17/outbox.cif.g08.bks.cpg/sg2_120_cif.got.tgz:239571.got - 2010.06.03 11:33:40.
