data_PCOD9027171
_publ_section_title
;
Structure prediction by ZEFSAII (Michael W. Deem and Ramdas Pophale) SiO2 
 PCOD9027171
Probable space group: P -1
;
_chemical_formula_sum "Si O2"
_cell_formula_units_Z 15
_cell_length_a 13.163150
_cell_length_b 5.033080
_cell_length_c 16.461409
_cell_angle_alpha 63.690035
_cell_angle_beta 34.240133
_cell_angle_gamma 72.471379
_cell_volume 545.447130
_symmetry_space_group_name_H-M "P -1"
_symmetry_group_IT_number 2
_symmetry_cell_setting 'triclinic'
loop_
_space_group_symop_operation_xyz
x,y,z
-x,-y,-z
loop_
_atom_site_type_symbol
_atom_site_label
_atom_site_fract_x
_atom_site_fract_y
_atom_site_fract_z
Si Si1 0.831261 0.458483 0.179764
Si Si2 0.715461 0.979841 0.448202
Si Si3 0.331009 0.205474 0.252128
Si Si4 0.095404 0.572594 0.610152
Si Si5 0.640428 0.761718 0.945097
Si Si6 0.000000 0.500000 0.500000
Si Si7 0.869557 0.394781 0.918708
Si Si8 0.566010 0.899729 0.253730
O O1 0.757036 0.145329 0.312831
O O2 0.664408 0.608010 0.235425
O O3 0.937054 0.619639 0.165223
O O4 0.000000 0.500000 0.000000
O O5 0.858420 0.147699 0.397679
O O6 0.528832 0.032447 0.608127
O O7 0.746467 0.640043 0.462351
O O8 0.249945 0.141381 0.223942
O O9 0.197355 0.362998 0.375514
O O10 0.417637 0.942031 0.276217
O O11 0.507562 0.447721 0.081946
O O12 0.058710 0.627258 0.534115
O O13 0.916548 0.373983 0.794972
O O14 0.777494 0.706070 0.935502
O O15 0.500000 0.000000 0.000000
O O16 0.731092 0.152743 0.087381
#
# Coordination Sequence:
#
# PCOD9027171 Si02
#       8
#     2   2   2   2   2   1   2   2
#     4  11  25  44  72 106 141 199 244 311 365 447
#     4  11  26  48  74 106 149 193 246 310 372 440
#     4  10  23  41  66 102 140 186 237 300 368 441
#     4  11  25  47  73 109 147 195 246 302 375 442
#     4  10  22  41  67 100 140 186 235 298 369 438
#     4  12  22  46  70 104 150 192 248 298 372 440
#     4  10  23  45  72 104 145 194 247 303 371 449
#     4  11  23  45  69 105 145 186 250 301 372 433
#
# _framework density 27.500375999999999
#
# number of rings (size 3 to 8) (size 9 to 14) (size 15 to 20)
#    0.000    1.333    2.667    1.600    1.867    5.867 
#    0.000    4.000    0.000    0.000    0.000    0.000 
#    0.000    0.000    0.000    0.000    0.000    0.000 
#
# Total GULP energy -83658.344254 kJ/mol
# GULP energy per Si atom -5577.222950 kJ/mol
# Density = 2.743778 g / cm^3
# Si number density = 27.500376 Si / 1000 Ang^3
#
#
#
# Elastic Constant Matrix: (Units=GPa)
#
#
# Indices 1 2 3 4 5 6 
#
# 1 129.2943 42.7209 30.9086 -6.6241 0.1229 -24.6386
# 2 42.7209 117.9065 32.6204 0.5386 3.5231 -34.7351
# 3 30.9086 32.6204 169.5327 12.4740 8.4406 -15.0943
# 4 -6.6241 0.5386 12.4740 52.9936 -7.1926 2.9645
# 5 0.1229 3.5231 8.4406 -7.1926 47.4562 1.8453
# 6 -24.6386 -34.7351 -15.0943 2.9645 1.8453 46.3781
#
#
#
# Elastic Compliance Matrix: (Units=1/GPa)
#
#
# Indices 1 2 3 4 5 6 
#
# 1 0.009360 -0.002272 -0.001143 0.001367 0.000446 0.002794
# 2 -0.002272 0.011815 -0.001098 -0.000703 -0.001069 0.007372
# 3 -0.001143 -0.001098 0.006611 -0.001931 -0.001419 0.000902
# 4 0.001367 -0.000703 -0.001931 0.020082 0.003508 -0.001852
# 5 0.000446 -0.001069 -0.001419 0.003508 0.022017 -0.002126
# 6 0.002794 0.007372 0.000902 -0.001852 -0.002126 0.029064
#
#
# Mechanical properties :
#
#
# Convention : Reuss Voigt Hill
#
# Bulk Modulus (GPa) = 53.30220 69.91482 61.60851
# Shear Modulus (GPa) = 43.77131 50.06448 46.91789
#
# Velocity S-wave (km/s) = 3.99389 4.27136 4.13496
# Velocity P-wave (km/s) = 6.37908 7.05723 6.72671
#
# Compressibility (1/GPa) = 0.01876095
#
# Stress axis : x y z
#
# Youngs Moduli (GPa) = 106.83484 84.63706 151.25561
#
# Poissons Ratio (x) = 0.19226 0.17295
# Poissons Ratio (y) = 0.24268 0.16606
# Poissons Ratio (z) = 0.12216 0.09292
#
# Static dielectric constant tensor:
#      x y z
#    x 2.217090 0.012310 -0.039550 
#    y 0.012310 2.190100 -0.036680 
#    z -0.039550 -0.036680 2.227040 
# 
# From -- ./inp_files/571501.got.cif
#   From: 2010.05.17/outbox.cif.g08.bks.cpg/sg2_286_cif.got.tgz:571501.got - 2010.06.03 11:33:40.
