data_PCOD9027053
_publ_section_title
;
Structure prediction by ZEFSAII (Michael W. Deem and Ramdas Pophale) SiO2 
 PCOD9027053
Probable space group: P -1
;
_chemical_formula_sum "Si O2"
_cell_formula_units_Z 14
_cell_length_a 8.358289
_cell_length_b 20.122764
_cell_length_c 6.516012
_cell_angle_alpha 64.117240
_cell_angle_beta 106.217323
_cell_angle_gamma 139.028365
_cell_volume 644.153554
_symmetry_space_group_name_H-M "P -1"
_symmetry_group_IT_number 2
_symmetry_cell_setting 'triclinic'
loop_
_space_group_symop_operation_xyz
x,y,z
-x,-y,-z
loop_
_atom_site_type_symbol
_atom_site_label
_atom_site_fract_x
_atom_site_fract_y
_atom_site_fract_z
Si Si1 0.728114 0.010600 0.818951
Si Si2 0.234824 0.262312 0.060270
Si Si3 0.444103 0.567742 0.370820
Si Si4 0.804458 0.170977 0.327310
Si Si5 0.968684 0.388229 0.173192
Si Si6 0.708698 0.431396 0.245449
Si Si7 0.986317 0.959558 0.771949
O O1 0.456994 0.906498 0.776729
O O2 0.910206 0.008069 0.800159
O O3 0.790252 0.108796 0.597624
O O4 0.785027 0.012045 0.079749
O O5 0.447901 0.365836 0.138900
O O6 0.223103 0.170756 0.144853
O O7 0.990577 0.203487 0.174511
O O8 0.310454 0.317674 0.790818
O O9 0.500000 0.500000 0.500000
O O10 0.213850 0.491535 0.239930
O O11 0.349005 0.578772 0.522983
O O12 0.896268 0.280043 0.291220
O O13 0.768632 0.372140 0.241826
O O14 0.056822 0.442046 0.904233
O O15 0.000000 0.000000 0.500000
#
# Coordination Sequence:
#
# PCOD9027053 Si02
#       7
#     2   2   2   2   2   2   2
#     4  10  25  43  69  96 137 177 236 284 344 407
#     4  11  24  39  68  96 137 174 224 281 341 405
#     4  11  23  39  65 100 131 178 224 275 343 409
#     4  11  22  45  66 104 138 178 226 292 345 404
#     4  10  22  41  66  95 140 175 227 275 337 411
#     4  10  22  42  64  97 135 181 223 275 334 422
#     4  11  23  46  67  96 132 185 231 282 339 410
#
# _framework density 21.733948999999999
#
# number of rings (size 3 to 8) (size 9 to 14) (size 15 to 20)
#    0.000    1.429    1.429    3.000    4.000    2.857 
#    0.000    4.286    0.000    0.000    0.000    0.000 
#    0.000    0.000    0.000    0.000    0.000    0.000 
#
# Total GULP energy -77958.183909 kJ/mol
# GULP energy per Si atom -5568.441708 kJ/mol
# Density = 2.168448 g / cm^3
# Si number density = 21.733949 Si / 1000 Ang^3
#
#
#
# Elastic Constant Matrix: (Units=GPa)
#
#
# Indices 1 2 3 4 5 6 
#
# 1 371.9617 219.0321 195.5728 -101.7118 -122.2181 30.2345
# 2 219.0321 228.2509 151.4233 -74.7757 -74.6952 13.4414
# 3 195.5728 151.4233 222.7259 -60.4777 -56.5149 13.9480
# 4 -101.7118 -74.7757 -60.4777 70.2310 37.0561 6.7361
# 5 -122.2181 -74.6952 -56.5149 37.0561 88.2361 -11.7657
# 6 30.2345 13.4414 13.9480 6.7361 -11.7657 45.3662
#
#
#
# Elastic Compliance Matrix: (Units=1/GPa)
#
#
# Indices 1 2 3 4 5 6 
#
# 1 0.010727 -0.003883 -0.003389 0.005391 0.006598 -0.004046
# 2 -0.003883 0.011889 -0.003451 0.003576 0.000954 -0.000158
# 3 -0.003389 -0.003451 0.009530 0.000585 -0.001783 -0.000199
# 4 0.005391 0.003576 0.000585 0.028565 -0.002421 -0.009701
# 5 0.006598 0.000954 -0.001783 -0.002421 0.021392 0.001776
# 6 -0.004046 -0.000158 -0.000199 -0.009701 0.001776 0.026748
#
#
# Mechanical properties :
#
#
# Convention : Reuss Voigt Hill
#
# Bulk Modulus (GPa) = 93.43434 217.22166 155.32800
# Shear Modulus (GPa) = 37.35162 57.89402 47.62282
#
# Velocity S-wave (km/s) = 4.15008 5.16676 4.68607
# Velocity P-wave (km/s) = 8.12697 11.65147 10.04500
#
# Compressibility (1/GPa) = 0.01070270
#
# Stress axis : x y z
#
# Youngs Moduli (GPa) = 93.21913 84.11105 104.92876
#
# Poissons Ratio (x) = 0.32656 0.35556
# Poissons Ratio (y) = 0.36192 0.36210
# Poissons Ratio (z) = 0.31588 0.29026
#
# Static dielectric constant tensor:
#      x y z
#    x -8.336990 -3.209810 -3.198220 
#    y -3.209810 0.725360 -0.910080 
#    z -3.198220 -0.910080 1.123370 
# 
# From -- ./inp_files/52540.got.cif
#   From: 2010.05.17/outbox.cif.g08.bks.cpg/sg2_27_cif.got.tgz:52540.got - 2010.06.03 11:33:40.
