data_PCOD9027162
_publ_section_title
;
Structure prediction by ZEFSAII (Michael W. Deem and Ramdas Pophale) SiO2 
 PCOD9027162
Probable space group: P -1
;
_chemical_formula_sum "Si O2"
_cell_formula_units_Z 14
_cell_length_a 7.212142
_cell_length_b 11.748501
_cell_length_c 7.073969
_cell_angle_alpha 77.014914
_cell_angle_beta 107.454326
_cell_angle_gamma 121.052972
_cell_volume 488.050284
_symmetry_space_group_name_H-M "P -1"
_symmetry_group_IT_number 2
_symmetry_cell_setting 'triclinic'
loop_
_space_group_symop_operation_xyz
x,y,z
-x,-y,-z
loop_
_atom_site_type_symbol
_atom_site_label
_atom_site_fract_x
_atom_site_fract_y
_atom_site_fract_z
Si Si1 0.070303 0.394993 0.473145
Si Si2 0.734942 0.334597 0.087883
Si Si3 0.399785 0.942600 0.785245
Si Si4 0.469618 0.594711 0.700703
Si Si5 0.087767 0.151784 0.188205
Si Si6 0.038255 0.138258 0.726621
Si Si7 0.529639 0.217648 0.680637
O O1 0.328383 0.456018 0.597809
O O2 0.973726 0.246119 0.584140
O O3 0.000000 0.500000 0.500000
O O4 0.975639 0.388147 0.234625
O O5 0.576376 0.187534 0.185097
O O6 0.633940 0.422435 0.113923
O O7 0.701623 0.300437 0.870404
O O8 0.138517 0.885860 0.757031
O O9 0.517298 0.080111 0.660432
O O10 0.500000 0.000000 0.000000
O O11 0.728500 0.698822 0.759342
O O12 0.414124 0.686892 0.512106
O O13 0.053682 0.151223 0.953272
O O14 0.115796 0.021307 0.293813
O O15 0.283112 0.176066 0.704167
#
# Coordination Sequence:
#
# PCOD9027162 Si02
#       7
#     2   2   2   2   2   2   2
#     4  10  25  44  63 100 140 180 228 272 341 408
#     4  10  22  45  63  95 145 179 215 289 338 389
#     4   9  21  38  65 100 135 165 223 281 338 394
#     4  11  24  42  67 100 133 178 235 267 335 410
#     4  10  22  42  72 106 126 178 236 275 339 399
#     4  10  22  43  72  96 137 178 223 288 335 397
#     4  10  22  41  67 100 133 173 233 279 329 407
#
# _framework density 28.685566000000001
#
# number of rings (size 3 to 8) (size 9 to 14) (size 15 to 20)
#    0.000    2.000    1.429    0.000    6.000    8.000 
#    0.000    0.000    0.000    0.000    0.000    0.000 
#    0.000    0.000    0.000    0.000    0.000    0.000 
#
# Total GULP energy -78258.827068 kJ/mol
# GULP energy per Si atom -5589.916219 kJ/mol
# Density = 2.862028 g / cm^3
# Si number density = 28.685566 Si / 1000 Ang^3
#
#
#
# Elastic Constant Matrix: (Units=GPa)
#
#
# Indices 1 2 3 4 5 6 
#
# 1 102.0997 56.5494 14.6744 11.5650 8.4020 2.4750
# 2 56.5494 134.3180 27.5714 19.9832 8.4855 11.1991
# 3 14.6744 27.5714 121.8483 38.6267 -6.2621 -18.5628
# 4 11.5650 19.9832 38.6267 67.4270 5.3063 13.8392
# 5 8.4020 8.4855 -6.2621 5.3063 34.8399 -0.9425
# 6 2.4750 11.1991 -18.5628 13.8392 -0.9425 52.6620
#
#
#
# Elastic Compliance Matrix: (Units=1/GPa)
#
#
# Indices 1 2 3 4 5 6 
#
# 1 0.012927 -0.005254 -0.000219 -0.000504 -0.001786 0.000533
# 2 -0.005254 0.010471 -0.002142 -0.000290 -0.001697 -0.002689
# 3 -0.000219 -0.002142 0.012722 -0.008445 0.004343 0.007247
# 4 -0.000504 -0.000290 -0.008445 0.022028 -0.004918 -0.008768
# 5 -0.001786 -0.001697 0.004343 -0.004918 0.031180 0.003826
# 6 0.000533 -0.002689 0.007247 -0.008768 0.003826 0.024463
#
#
# Mechanical properties :
#
#
# Convention : Reuss Voigt Hill
#
# Bulk Modulus (GPa) = 47.86680 61.76180 54.81430
# Shear Modulus (GPa) = 36.76887 48.28385 42.52636
#
# Velocity S-wave (km/s) = 3.58409 4.10715 3.85450
# Velocity P-wave (km/s) = 5.81813 6.63844 6.24177
#
# Compressibility (1/GPa) = 0.02089131
#
# Stress axis : x y z
#
# Youngs Moduli (GPa) = 77.35743 95.50001 78.60158
#
# Poissons Ratio (x) = 0.50177 0.01721
# Poissons Ratio (y) = 0.40645 0.16833
# Poissons Ratio (z) = 0.01693 0.20452
#
# Static dielectric constant tensor:
#      x y z
#    x 2.292390 -0.012300 0.095990 
#    y -0.012300 2.289230 0.010740 
#    z 0.095990 0.010740 2.274250 
# 
# From -- ./inp_files/186198.got.cif
#   From: 2010.05.17/outbox.cif.g08.bks.cpg/sg2_94_cif.got.tgz:186198.got - 2010.06.03 11:33:40.
