data_PCOD9027982
_publ_section_title
;
Structure prediction by ZEFSAII (Michael W. Deem and Ramdas Pophale) SiO2 
 PCOD9027982
Probable space group: P -1
;
_chemical_formula_sum "Si O2"
_cell_formula_units_Z 16
_cell_length_a 9.843012
_cell_length_b 17.514302
_cell_length_c 11.723085
_cell_angle_alpha 28.432203
_cell_angle_beta 54.225161
_cell_angle_gamma 65.476766
_cell_volume 754.587532
_symmetry_space_group_name_H-M "P -1"
_symmetry_group_IT_number 2
_symmetry_cell_setting 'triclinic'
loop_
_space_group_symop_operation_xyz
x,y,z
-x,-y,-z
loop_
_atom_site_type_symbol
_atom_site_label
_atom_site_fract_x
_atom_site_fract_y
_atom_site_fract_z
Si Si1 0.473477 0.331897 0.600055
Si Si2 0.558800 0.159924 0.181650
Si Si3 0.257236 0.166580 0.715230
Si Si4 0.928318 0.659511 0.803845
Si Si5 0.937195 0.326574 0.689686
Si Si6 0.612416 0.652806 0.810522
Si Si7 0.799990 0.205845 0.683918
Si Si8 0.330549 0.284283 0.966097
O O1 0.403582 0.271445 0.590090
O O2 0.627322 0.251051 0.667781
O O3 0.325953 0.274260 0.845063
O O4 0.549161 0.529906 0.311031
O O5 0.514616 0.297977 0.102319
O O6 0.500000 0.000000 0.500000
O O7 0.758818 0.216944 0.975146
O O8 0.433309 0.159011 0.135360
O O9 0.308905 0.206011 0.506717
O O10 0.086644 0.229370 0.742830
O O11 0.231980 0.974388 0.007830
O O12 0.767780 0.613023 0.856792
O O13 0.077425 0.787627 0.493995
O O14 0.849069 0.725664 0.867535
O O15 0.000000 0.500000 0.000000
O O16 0.889663 0.339222 0.562080
O O17 0.000000 0.500000 0.500000
O O18 0.500000 0.500000 0.000000
#
# Coordination Sequence:
#
# PCOD9027982 Si02
#       8
#     2   2   2   2   2   2   2   2
#     4  11  23  45  69  95 135 183 226 275 339 416
#     4  11  24  42  68  99 136 177 220 283 347 398
#     4  12  26  43  69 103 137 174 231 285 341 400
#     4  11  23  41  66  97 130 176 220 276 340 398
#     4  12  25  44  70 102 135 181 233 277 338 412
#     4  11  24  43  67  97 134 172 223 278 334 411
#     4  12  25  44  69  97 137 179 226 283 341 400
#     4  10  22  41  70  93 132 175 230 270 337 402
#
# _framework density 21.203637000000001
#
# number of rings (size 3 to 8) (size 9 to 14) (size 15 to 20)
#    0.000    0.750    3.750    4.500    5.250    0.000 
#    0.000    0.625    0.000    0.000    0.000    0.000 
#    0.000    0.000    0.000    0.000    0.000    0.000 
#
# Total GULP energy -89483.721430 kJ/mol
# GULP energy per Si atom -5592.732589 kJ/mol
# Density = 2.115538 g / cm^3
# Si number density = 21.203637 Si / 1000 Ang^3
#
#
#
# Elastic Constant Matrix: (Units=GPa)
#
#
# Indices 1 2 3 4 5 6 
#
# 1 89.7213 35.5468 -0.4642 4.8519 13.3239 -15.8520
# 2 35.5468 68.8062 19.7628 28.9232 -2.9346 -5.6219
# 3 -0.4642 19.7628 90.1142 23.3193 16.5387 -13.6002
# 4 4.8519 28.9232 23.3193 43.3962 0.0190 0.1479
# 5 13.3239 -2.9346 16.5387 0.0190 28.5050 1.9619
# 6 -15.8520 -5.6219 -13.6002 0.1479 1.9619 38.1263
#
#
#
# Elastic Compliance Matrix: (Units=1/GPa)
#
#
# Indices 1 2 3 4 5 6 
#
# 1 0.020388 -0.013667 0.006513 0.003304 -0.015376 0.009563
# 2 -0.013667 0.029911 -0.005625 -0.015377 0.013009 -0.003888
# 3 0.006513 -0.005625 0.018229 -0.006799 -0.014826 0.009170
# 4 0.003304 -0.015377 -0.006799 0.036588 0.001035 -0.003514
# 5 -0.015376 0.013009 -0.014826 0.001035 0.053070 -0.012498
# 6 0.009563 -0.003888 0.009170 -0.003514 -0.012498 0.033559
#
#
# Mechanical properties :
#
#
# Convention : Reuss Voigt Hill
#
# Bulk Modulus (GPa) = 23.27275 39.81473 31.54374
# Shear Modulus (GPa) = 21.58644 34.92526 28.25585
#
# Velocity S-wave (km/s) = 3.19416 4.06289 3.65443
# Velocity P-wave (km/s) = 4.96016 6.38964 5.71973
#
# Compressibility (1/GPa) = 0.04296870
#
# Stress axis : x y z
#
# Youngs Moduli (GPa) = 49.04751 33.43264 54.85851
#
# Poissons Ratio (x) = 0.45692 -0.35727
# Poissons Ratio (y) = 0.67033 0.30860
# Poissons Ratio (z) = -0.31943 0.18807
#
# Static dielectric constant tensor:
#      x y z
#    x 1.748940 -0.002120 0.013580 
#    y -0.002120 1.773800 0.005490 
#    z 0.013580 0.005490 1.784800 
# 
# From -- ./inp_files/279493.got.cif
#   From: 2010.05.17/outbox.cif.g08.bks.cpg/sg2_140_cif.got.tgz:279493.got - 2010.06.03 11:33:40.
