data_PCOD9027728
_publ_section_title
;
Structure prediction by ZEFSAII (Michael W. Deem and Ramdas Pophale) SiO2 
 PCOD9027728
Probable space group: P -1
;
_chemical_formula_sum "Si O2"
_cell_formula_units_Z 16
_cell_length_a 12.348789
_cell_length_b 13.307088
_cell_length_c 7.101420
_cell_angle_alpha 132.880812
_cell_angle_beta 51.908202
_cell_angle_gamma 134.118776
_cell_volume 590.694136
_symmetry_space_group_name_H-M "P -1"
_symmetry_group_IT_number 2
_symmetry_cell_setting 'triclinic'
loop_
_space_group_symop_operation_xyz
x,y,z
-x,-y,-z
loop_
_atom_site_type_symbol
_atom_site_label
_atom_site_fract_x
_atom_site_fract_y
_atom_site_fract_z
Si Si1 0.641534 0.553813 0.561978
Si Si2 0.628725 0.254636 0.724226
Si Si3 0.840138 0.618348 0.884676
Si Si4 0.025542 0.354012 0.838963
Si Si5 0.680395 0.791618 0.155335
Si Si6 0.758008 0.060650 0.857709
Si Si7 0.866001 0.118651 0.232771
Si Si8 0.550456 0.219931 0.215698
O O1 0.500000 0.500000 0.500000
O O2 0.808764 0.623996 0.374029
O O3 0.645151 0.671701 0.863908
O O4 0.612814 0.387291 0.456136
O O5 0.729577 0.433965 0.777476
O O6 0.736425 0.173431 0.479348
O O7 0.587958 0.243017 0.978503
O O8 0.470940 0.182456 0.676413
O O9 0.729935 0.698554 0.133633
O O10 0.963081 0.727609 0.731360
O O11 0.964175 0.640306 0.940100
O O12 0.887353 0.180444 0.727863
O O13 0.000000 0.500000 0.000000
O O14 0.826494 0.963058 0.191546
O O15 0.643784 0.137544 0.097715
O O16 0.833945 0.056385 0.969417
O O17 0.635841 0.888355 0.700909
#
# Coordination Sequence:
#
# PCOD9027728 Si02
#       8
#     2   2   2   2   2   2   2   2
#     4  12  23  44  71  97 146 181 222 287 348 412
#     4  12  23  45  71  99 135 185 236 282 335 416
#     4  11  25  44  69 107 137 177 232 286 356 408
#     4  11  22  45  72 103 139 179 234 284 345 417
#     4  12  26  45  66 102 144 184 223 284 355 407
#     4  10  22  41  69 103 131 173 237 288 333 406
#     4  11  25  46  70  98 141 181 233 284 343 412
#     4  11  22  42  68 101 133 175 235 282 345 392
#
# _framework density 27.086779
#
# number of rings (size 3 to 8) (size 9 to 14) (size 15 to 20)
#    0.000    0.750    5.000    1.500    1.750    2.000 
#    0.000    8.125    0.000    0.000    0.000    0.000 
#    0.000    0.000    0.000    0.000    0.000    0.000 
#
# Total GULP energy -89622.920304 kJ/mol
# GULP energy per Si atom -5601.432519 kJ/mol
# Density = 2.702513 g / cm^3
# Si number density = 27.086779 Si / 1000 Ang^3
#
#
#
# Elastic Constant Matrix: (Units=GPa)
#
#
# Indices 1 2 3 4 5 6 
#
# 1 105.0705 18.1326 3.5546 -4.3955 3.9651 -9.6737
# 2 18.1326 206.5935 35.2896 15.2767 -0.5206 20.6791
# 3 3.5546 35.2896 86.8528 5.9100 -20.9564 0.6550
# 4 -4.3955 15.2767 5.9100 39.8698 2.2139 -16.5873
# 5 3.9651 -0.5206 -20.9564 2.2139 39.6619 -3.1082
# 6 -9.6737 20.6791 0.6550 -16.5873 -3.1082 53.3787
#
#
#
# Elastic Compliance Matrix: (Units=1/GPa)
#
#
# Indices 1 2 3 4 5 6 
#
# 1 0.010255 -0.001408 -0.000367 0.003173 -0.001154 0.003327
# 2 -0.001408 0.006008 -0.002384 -0.003596 -0.001132 -0.003737
# 3 -0.000367 -0.002384 0.014466 -0.001415 0.007782 0.000693
# 4 0.003173 -0.003596 -0.001415 0.032050 -0.001974 0.011830
# 5 -0.001154 -0.001132 0.007782 -0.001974 0.029633 0.001246
# 6 0.003327 -0.003737 0.000693 0.011830 0.001246 0.024525
#
#
# Mechanical properties :
#
#
# Convention : Reuss Voigt Hill
#
# Bulk Modulus (GPa) = 44.61904 56.94115 50.78009
# Shear Modulus (GPa) = 37.67116 49.35140 43.51128
#
# Velocity S-wave (km/s) = 3.73333 4.27309 4.01230
# Velocity P-wave (km/s) = 5.92386 6.73892 6.34449
#
# Compressibility (1/GPa) = 0.02241196
#
# Stress axis : x y z
#
# Youngs Moduli (GPa) = 97.50918 166.43637 69.12646
#
# Poissons Ratio (x) = 0.23434 0.02538
# Poissons Ratio (y) = 0.13729 0.16479
# Poissons Ratio (z) = 0.03579 0.39677
#
# Static dielectric constant tensor:
#      x y z
#    x 2.108520 0.006740 0.079710 
#    y 0.006740 2.166440 -0.098210 
#    z 0.079710 -0.098210 2.223910 
# 
# From -- ./inp_files/316038.got.cif
#   From: 2010.05.17/outbox.cif.g08.bks.cpg/sg2_159_cif.got.tgz:316038.got - 2010.06.03 11:33:40.
