data_PCOD9027724
_publ_section_title
;
Structure prediction by ZEFSAII (Michael W. Deem and Ramdas Pophale) SiO2 
 PCOD9027724
Probable space group: P -1
;
_chemical_formula_sum "Si O2"
_cell_formula_units_Z 16
_cell_length_a 15.701391
_cell_length_b 17.340005
_cell_length_c 5.373067
_cell_angle_alpha 89.199018
_cell_angle_beta 80.465232
_cell_angle_gamma 152.723980
_cell_volume 617.655535
_symmetry_space_group_name_H-M "P -1"
_symmetry_group_IT_number 2
_symmetry_cell_setting 'triclinic'
loop_
_space_group_symop_operation_xyz
x,y,z
-x,-y,-z
loop_
_atom_site_type_symbol
_atom_site_label
_atom_site_fract_x
_atom_site_fract_y
_atom_site_fract_z
Si Si1 0.695166 0.368030 0.256066
Si Si2 0.552939 0.363564 0.968342
Si Si3 0.050469 0.088667 0.221238
Si Si4 0.355480 0.424479 0.770744
Si Si5 0.890915 0.668607 0.418943
Si Si6 0.634563 0.155346 0.225438
Si Si7 0.723563 0.940186 0.248922
Si Si8 0.254479 0.896608 0.110466
O O1 0.836721 0.546736 0.298534
O O2 0.747319 0.321093 0.270095
O O3 0.475304 0.204907 0.488180
O O4 0.660175 0.369956 0.993524
O O5 0.719983 0.538627 0.710966
O O6 0.353584 0.180816 0.925773
O O7 0.533524 0.407537 0.201612
O O8 0.272793 0.302769 0.036908
O O9 0.000000 0.000000 0.500000
O O10 0.900145 0.040798 0.306036
O O11 0.000000 0.000000 0.000000
O O12 0.500000 0.500000 0.500000
O O13 0.152405 0.292731 0.736054
O O14 0.110712 0.819065 0.392786
O O15 0.500000 0.000000 0.500000
O O16 0.473877 0.062577 0.115352
O O17 0.773946 0.208380 0.006854
O O18 0.769098 0.057299 0.089050
#
# Coordination Sequence:
#
# PCOD9027724 Si02
#       8
#     2   2   2   2   2   2   2   2
#     4  10  22  41  69 102 140 187 244 298 367 448
#     4  10  24  45  74 100 146 197 241 303 384 452
#     4  12  32  50  76 116 154 198 263 327 389 463
#     4  11  27  49  75 110 154 196 254 320 391 464
#     4  10  24  44  69 104 142 196 245 297 382 453
#     4  11  23  40  69 105 145 186 242 307 375 440
#     4  11  23  46  74 102 143 195 252 301 374 456
#     4  11  23  42  70 107 142 189 244 302 369 451
#
# _framework density 25.904404
#
# number of rings (size 3 to 8) (size 9 to 14) (size 15 to 20)
#    0.000    1.250    3.750    0.000    8.750    4.000 
#    0.000    1.875    0.000    0.000    0.000    0.000 
#    0.000    0.000    0.000    0.000    0.000    0.000 
#
# Total GULP energy -89513.936432 kJ/mol
# GULP energy per Si atom -5594.621027 kJ/mol
# Density = 2.584544 g / cm^3
# Si number density = 25.904404 Si / 1000 Ang^3
#
#
#
# Elastic Constant Matrix: (Units=GPa)
#
#
# Indices 1 2 3 4 5 6 
#
# 1 192.8914 45.2685 60.4071 -5.0385 -10.8497 -9.9390
# 2 45.2685 54.5431 19.0305 -7.2839 -11.4570 -16.4933
# 3 60.4071 19.0305 105.0045 -3.6005 8.4084 -9.3709
# 4 -5.0385 -7.2839 -3.6005 27.0671 -3.6577 -4.2859
# 5 -10.8497 -11.4570 8.4084 -3.6577 53.6771 -4.5215
# 6 -9.9390 -16.4933 -9.3709 -4.2859 -4.5215 54.1104
#
#
#
# Elastic Compliance Matrix: (Units=1/GPa)
#
#
# Indices 1 2 3 4 5 6 
#
# 1 0.007483 -0.005073 -0.003538 -0.000440 0.000891 -0.000745
# 2 -0.005073 0.028287 -0.001667 0.008706 0.006595 0.008642
# 3 -0.003538 -0.001667 0.012166 0.000234 -0.002900 0.000725
# 4 -0.000440 0.008706 0.000234 0.040913 0.005049 0.006276
# 5 0.000891 0.006595 -0.002900 0.005049 0.021341 0.003855
# 6 -0.000745 0.008642 0.000725 0.006276 0.003855 0.021923
#
#
# Mechanical properties :
#
#
# Convention : Reuss Voigt Hill
#
# Bulk Modulus (GPa) = 36.52258 66.87236 51.69747
# Shear Modulus (GPa) = 30.90314 42.15312 36.52813
#
# Velocity S-wave (km/s) = 3.45768 4.03830 3.75922
# Velocity P-wave (km/s) = 5.48365 6.90036 6.23239
#
# Compressibility (1/GPa) = 0.02738032
#
# Stress axis : x y z
#
# Youngs Moduli (GPa) = 133.63276 35.35175 82.19625
#
# Poissons Ratio (x) = 0.17934 0.29085
# Poissons Ratio (y) = 0.67792 0.13698
# Poissons Ratio (z) = 0.47286 0.05891
#
# Static dielectric constant tensor:
#      x y z
#    x 2.020580 0.007110 0.001960 
#    y 0.007110 2.160640 0.003640 
#    z 0.001960 0.003640 2.174830 
# 
# From -- ./inp_files/99694.got.cif
#   From: 2010.05.17/outbox.cif.g08.bks.cpg/sg2_50_cif.got.tgz:99694.got - 2010.06.03 11:33:40.
