data_PCOD9027201
_publ_section_title
;
Structure prediction by ZEFSAII (Michael W. Deem and Ramdas Pophale) SiO2 
 PCOD9027201
Probable space group: P -1
;
_chemical_formula_sum "Si O2"
_cell_formula_units_Z 14
_cell_length_a 7.657245
_cell_length_b 11.502026
_cell_length_c 9.324448
_cell_angle_alpha 124.518782
_cell_angle_beta 67.403584
_cell_angle_gamma 128.006098
_cell_volume 532.376181
_symmetry_space_group_name_H-M "P -1"
_symmetry_group_IT_number 2
_symmetry_cell_setting 'triclinic'
loop_
_space_group_symop_operation_xyz
x,y,z
-x,-y,-z
loop_
_atom_site_type_symbol
_atom_site_label
_atom_site_fract_x
_atom_site_fract_y
_atom_site_fract_z
Si Si1 0.093498 0.626817 0.191845
Si Si2 0.334508 0.119375 0.114597
Si Si3 0.450862 0.265056 0.727038
Si Si4 0.520213 0.473004 0.303359
Si Si5 0.835926 0.033002 0.193557
Si Si6 0.774249 0.998462 0.614118
Si Si7 0.940281 0.621852 0.532332
O O1 0.304355 0.637028 0.212372
O O2 0.905028 0.581094 0.343756
O O3 0.173000 0.815800 0.261343
O O4 0.000000 0.500000 0.000000
O O5 0.524080 0.307365 0.156198
O O6 0.314654 0.084427 0.262670
O O7 0.091510 0.088546 0.137175
O O8 0.314901 0.987895 0.912305
O O9 0.381352 0.379878 0.742169
O O10 0.409512 0.124210 0.526569
O O11 0.285011 0.147536 0.821207
O O12 0.500000 0.500000 0.500000
O O13 0.256855 0.406822 0.322421
O O14 0.869341 0.185178 0.385676
O O15 0.000000 0.000000 0.500000
O O16 0.000000 0.500000 0.500000
#
# Coordination Sequence:
#
# PCOD9027201 Si02
#       7
#     2   2   2   2   2   2   2
#     4  12  29  46  70 107 149 188 237 297 366 422
#     4  10  22  41  67 105 138 180 230 294 350 422
#     4  12  24  46  70 106 141 190 238 294 354 433
#     4  11  23  40  71 104 135 178 236 292 355 420
#     4  10  23  41  69 101 138 180 232 287 354 419
#     4  12  23  47  77 102 142 193 241 290 356 433
#     4  11  23  44  67  94 141 189 225 282 363 420
#
# _framework density 26.297194999999999
#
# number of rings (size 3 to 8) (size 9 to 14) (size 15 to 20)
#    0.000    0.857    5.714    1.286    2.000    2.857 
#    0.000    0.714    0.000    0.000    0.000    0.000 
#    0.000    0.000    0.000    0.000    0.000    0.000 
#
# Total GULP energy -78143.354477 kJ/mol
# GULP energy per Si atom -5581.668177 kJ/mol
# Density = 2.623734 g / cm^3
# Si number density = 26.297195 Si / 1000 Ang^3
#
#
#
# Elastic Constant Matrix: (Units=GPa)
#
#
# Indices 1 2 3 4 5 6 
#
# 1 26.4677 -15.0357 2.9953 11.7341 7.3999 -1.8674
# 2 -15.0357 128.7525 38.5856 0.7821 12.7850 -19.4403
# 3 2.9953 38.5856 177.6202 23.4192 37.0474 -3.8967
# 4 11.7341 0.7821 23.4192 37.0441 0.9006 -3.6741
# 5 7.3999 12.7850 37.0474 0.9006 35.6458 -0.7232
# 6 -1.8674 -19.4403 -3.8967 -3.6741 -0.7232 40.4755
#
#
#
# Elastic Compliance Matrix: (Units=1/GPa)
#
#
# Indices 1 2 3 4 5 6 
#
# 1 0.055686 0.007989 0.003638 -0.019213 -0.017626 0.004698
# 2 0.007989 0.010219 -0.001256 -0.001366 -0.003883 0.004963
# 3 0.003638 -0.001256 0.008558 -0.006351 -0.009046 -0.000350
# 4 -0.019213 -0.001366 -0.006351 0.037015 0.010172 0.001388
# 5 -0.017626 -0.003883 -0.009046 0.010172 0.042212 -0.001872
# 6 0.004698 0.004963 -0.000350 0.001388 -0.001872 0.027366
#
#
# Mechanical properties :
#
#
# Convention : Reuss Voigt Hill
#
# Bulk Modulus (GPa) = 10.50360 42.88121 26.69240
# Shear Modulus (GPa) = 26.03508 43.05276 34.54392
#
# Velocity S-wave (km/s) = 3.14989 4.05057 3.62829
# Velocity P-wave (km/s) = 4.15114 6.18207 5.26545
#
# Compressibility (1/GPa) = 0.09520548
#
# Stress axis : x y z
#
# Youngs Moduli (GPa) = 17.95792 97.85346 116.85110
#
# Poissons Ratio (x) = -0.78174 -0.42512
# Poissons Ratio (y) = -0.14346 0.14674
# Poissons Ratio (z) = -0.06533 0.12288
#
# Static dielectric constant tensor:
#      x y z
#    x 2.389700 0.128530 -0.003290 
#    y 0.128530 2.100580 0.065690 
#    z -0.003290 0.065690 2.456790 
# 
# From -- ./inp_files/190042.got.cif
#   From: 2010.05.17/outbox.cif.g08.bks.cpg/sg2_96_cif.got.tgz:190042.got - 2010.06.03 11:33:40.
