data_PCOD9027924
_publ_section_title
;
Structure prediction by ZEFSAII (Michael W. Deem and Ramdas Pophale) SiO2 
 PCOD9027924
Probable space group: P -1
;
_chemical_formula_sum "Si O2"
_cell_formula_units_Z 16
_cell_length_a 13.088442
_cell_length_b 13.353435
_cell_length_c 7.436933
_cell_angle_alpha 69.793858
_cell_angle_beta 67.313216
_cell_angle_gamma 125.770005
_cell_volume 629.456399
_symmetry_space_group_name_H-M "P -1"
_symmetry_group_IT_number 2
_symmetry_cell_setting 'triclinic'
loop_
_space_group_symop_operation_xyz
x,y,z
-x,-y,-z
loop_
_atom_site_type_symbol
_atom_site_label
_atom_site_fract_x
_atom_site_fract_y
_atom_site_fract_z
Si Si1 0.135100 0.434005 0.180498
Si Si2 0.549902 0.788205 0.723119
Si Si3 0.951110 0.084115 0.497794
Si Si4 0.269549 0.796191 0.241249
Si Si5 0.767823 0.129903 0.162603
Si Si6 0.911879 0.032682 0.941239
Si Si7 0.825380 0.473339 0.271157
Si Si8 0.495247 0.373690 0.523207
O O1 0.096594 0.290521 0.190921
O O2 0.920638 0.289627 0.498195
O O3 0.330316 0.595713 0.072540
O O4 0.211716 0.576350 0.884247
O O5 0.547692 0.698221 0.613550
O O6 0.734288 0.923725 0.652284
O O7 0.591847 0.940257 0.517078
O O8 0.017819 0.156808 0.615289
O O9 0.000000 0.000000 0.500000
O O10 0.223880 0.648806 0.463358
O O11 0.267802 0.826077 0.014185
O O12 0.500000 0.000000 0.000000
O O13 0.940926 0.325309 0.026316
O O14 0.872214 0.101974 0.047388
O O15 0.701069 0.830547 0.126177
O O16 0.000000 0.000000 0.000000
O O17 0.684173 0.461322 0.411256
O O18 0.500000 0.500000 0.500000
#
# Coordination Sequence:
#
# PCOD9027924 Si02
#       8
#     2   2   2   2   2   2   2   2
#     4  11  25  48  70 104 144 188 237 299 369 430
#     4  10  24  46  72 103 148 191 240 296 365 434
#     4  12  25  43  72 106 144 193 242 296 361 437
#     4  12  25  47  70 102 142 188 242 303 362 430
#     4  11  22  45  68 102 140 184 239 297 354 427
#     4  11  23  41  66  99 144 186 233 296 360 423
#     4  11  24  43  73 101 141 188 241 294 362 435
#     4  10  22  41  70 101 140 189 233 294 361 426
#
# _framework density 25.418756999999999
#
# number of rings (size 3 to 8) (size 9 to 14) (size 15 to 20)
#    0.000    1.000    2.500    5.250    3.500    1.500 
#    4.500    1.250    0.000    0.000    0.000    0.000 
#    0.000    0.000    0.000    0.000    0.000    0.000 
#
# Total GULP energy -89150.301370 kJ/mol
# GULP energy per Si atom -5571.893836 kJ/mol
# Density = 2.536090 g / cm^3
# Si number density = 25.418757 Si / 1000 Ang^3
#
#
#
# Elastic Constant Matrix: (Units=GPa)
#
#
# Indices 1 2 3 4 5 6 
#
# 1 157.8798 40.2266 60.4072 -4.5535 11.8185 3.4273
# 2 40.2266 61.9825 42.2716 -19.8689 1.7273 10.0374
# 3 60.4072 42.2716 127.0269 -35.8867 -9.7546 10.6373
# 4 -4.5535 -19.8689 -35.8867 54.0428 12.5643 -7.5657
# 5 11.8185 1.7273 -9.7546 12.5643 36.2786 -0.4639
# 6 3.4273 10.0374 10.6373 -7.5657 -0.4639 55.3749
#
#
#
# Elastic Compliance Matrix: (Units=1/GPa)
#
#
# Indices 1 2 3 4 5 6 
#
# 1 0.008988 -0.003974 -0.003948 -0.002574 -0.002902 0.000546
# 2 -0.003974 0.024188 -0.004514 0.005948 -0.003163 -0.002485
# 3 -0.003948 -0.004514 0.013232 0.006016 0.002967 -0.000632
# 4 -0.002574 0.005948 0.006016 0.026279 -0.006910 0.001458
# 5 -0.002902 -0.003163 0.002967 -0.006910 0.031845 -0.000494
# 6 0.000546 -0.002485 -0.000632 0.001458 -0.000494 0.018792
#
#
# Mechanical properties :
#
#
# Convention : Reuss Voigt Hill
#
# Bulk Modulus (GPa) = 46.42971 70.30000 58.36486
# Shear Modulus (GPa) = 32.18034 42.73815 37.45924
#
# Velocity S-wave (km/s) = 3.56196 4.10489 3.84303
# Velocity P-wave (km/s) = 5.93484 7.08404 6.53475
#
# Compressibility (1/GPa) = 0.02153793
#
# Stress axis : x y z
#
# Youngs Moduli (GPa) = 111.26047 41.34244 75.57294
#
# Poissons Ratio (x) = 0.16428 0.29833
# Poissons Ratio (y) = 0.44211 0.34114
# Poissons Ratio (z) = 0.43921 0.18662
#
# Static dielectric constant tensor:
#      x y z
#    x 2.148540 0.323860 -0.068260 
#    y 0.323860 1.216590 0.515190 
#    z -0.068260 0.515190 1.937570 
# 
# From -- ./inp_files/272149.got.cif
#   From: 2010.05.17/outbox.cif.g08.bks.cpg/sg2_137_cif.got.tgz:272149.got - 2010.06.03 11:33:40.
