data_PCOD9027041
_publ_section_title
;
Structure prediction by ZEFSAII (Michael W. Deem and Ramdas Pophale) SiO2 
 PCOD9027041
Probable space group: P -1
;
_chemical_formula_sum "Si O2"
_cell_formula_units_Z 16
_cell_length_a 20.956219
_cell_length_b 17.262219
_cell_length_c 9.076528
_cell_angle_alpha 59.938214
_cell_angle_beta 49.741990
_cell_angle_gamma 17.566900
_cell_volume 654.966046
_symmetry_space_group_name_H-M "P -1"
_symmetry_group_IT_number 2
_symmetry_cell_setting 'triclinic'
loop_
_space_group_symop_operation_xyz
x,y,z
-x,-y,-z
loop_
_atom_site_type_symbol
_atom_site_label
_atom_site_fract_x
_atom_site_fract_y
_atom_site_fract_z
Si Si1 0.326323 0.749473 0.105802
Si Si2 0.665037 0.247845 0.569753
Si Si3 0.077783 0.613686 0.777992
Si Si4 0.106428 0.194019 0.642331
Si Si5 0.889922 0.281213 0.102712
Si Si6 0.687777 0.941742 0.812373
Si Si7 0.894953 0.542202 0.852889
Si Si8 0.772608 0.442174 0.672974
O O1 0.285765 0.775566 0.312710
O O2 0.038175 0.042928 0.169702
O O3 0.500000 0.500000 0.000000
O O4 0.506250 0.656314 0.906285
O O5 0.500000 0.500000 0.500000
O O6 0.419953 0.422741 0.764621
O O7 0.953890 0.904249 0.413543
O O8 0.269853 0.461531 0.509439
O O9 0.080294 0.683116 0.837778
O O10 0.802597 0.880238 0.835875
O O11 0.108110 0.491418 0.942998
O O12 0.102929 0.277890 0.686148
O O13 0.845146 0.443480 0.684527
O O14 0.334136 0.982230 0.381168
O O15 0.079358 0.130923 0.836087
O O16 0.901957 0.641549 0.748563
O O17 0.396261 0.192981 0.034617
#
# Coordination Sequence:
#
# PCOD9027041 Si02
#       8
#     2   2   2   2   2   2   2   2
#     4  12  28  46  68 102 133 172 224 276 335 406
#     4  12  28  48  68  98 139 174 222 282 335 398
#     4  10  23  39  66  94 132 170 218 272 324 385
#     4  10  23  39  66  94 132 170 218 272 324 385
#     4  11  25  43  71  98 135 177 223 275 331 399
#     4  10  22  41  66  95 132 173 218 272 335 393
#     4  10  22  41  66  95 132 173 218 272 335 393
#     4  11  25  43  71  98 135 177 223 275 331 399
#
# _framework density 24.428744999999999
#
# number of rings (size 3 to 8) (size 9 to 14) (size 15 to 20)
#    0.000    1.250    2.500    1.500   14.000    2.000 
#    0.000    0.000    0.000    7.500    0.000    0.000 
#    0.000    0.000    0.000    0.000    0.000    0.000 
#
# Total GULP energy -89318.833481 kJ/mol
# GULP energy per Si atom -5582.427093 kJ/mol
# Density = 2.437314 g / cm^3
# Si number density = 24.428745 Si / 1000 Ang^3
#
#
#
# Elastic Constant Matrix: (Units=GPa)
#
#
# Indices 1 2 3 4 5 6 
#
# 1 89.7312 21.8260 27.5945 -4.1728 13.7672 -6.1735
# 2 21.8260 113.2573 34.2486 -6.6708 10.6990 2.6497
# 3 27.5945 34.2486 90.3082 -22.7999 5.4130 -4.8843
# 4 -4.1728 -6.6708 -22.7999 46.7573 -15.3458 -0.9908
# 5 13.7672 10.6990 5.4130 -15.3458 39.6398 -2.2821
# 6 -6.1735 2.6497 -4.8843 -0.9908 -2.2821 33.4003
#
#
#
# Elastic Compliance Matrix: (Units=1/GPa)
#
#
# Indices 1 2 3 4 5 6 
#
# 1 0.013317 -0.001138 -0.003865 -0.002335 -0.004602 0.001603
# 2 -0.001138 0.010429 -0.003904 -0.001386 -0.002528 -0.001823
# 3 -0.003865 -0.003904 0.015653 0.007916 0.003459 0.002356
# 4 -0.002335 -0.001386 0.007916 0.028609 0.011321 0.002458
# 5 -0.004602 -0.002528 0.003459 0.011321 0.031553 0.002347
# 6 0.001603 -0.001823 0.002356 0.002458 0.002347 0.030958
#
#
# Mechanical properties :
#
#
# Convention : Reuss Voigt Hill
#
# Bulk Modulus (GPa) = 46.32622 51.18167 48.75394
# Shear Modulus (GPa) = 32.14818 37.93466 35.04142
#
# Velocity S-wave (km/s) = 3.63160 3.94492 3.79150
# Velocity P-wave (km/s) = 6.04894 6.46117 6.25845
#
# Compressibility (1/GPa) = 0.02158605
#
# Stress axis : x y z
#
# Youngs Moduli (GPa) = 75.08946 95.88408 63.88390
#
# Poissons Ratio (x) = 0.10912 0.24688
# Poissons Ratio (y) = 0.08546 0.24943
# Poissons Ratio (z) = 0.29019 0.37437
#
# Static dielectric constant tensor:
#      x y z
#    x 1.919060 0.064680 -0.040340 
#    y 0.064680 2.123370 -0.057170 
#    z -0.040340 -0.057170 2.008840 
# 
# From -- ./inp_files/46964.got.cif
#   From: 2010.05.17/outbox.cif.g08.bks.cpg/sg2_24_cif.got.tgz:46964.got - 2010.06.03 11:33:40.
