data_PCOD9027536
_publ_section_title
;
Structure prediction by ZEFSAII (Michael W. Deem and Ramdas Pophale) SiO2 
 PCOD9027536
Probable space group: P -1
;
_chemical_formula_sum "Si O2"
_cell_formula_units_Z 14
_cell_length_a 21.001281
_cell_length_b 9.044061
_cell_length_c 12.026267
_cell_angle_alpha 116.162294
_cell_angle_beta 144.424389
_cell_angle_gamma 37.789735
_cell_volume 671.212432
_symmetry_space_group_name_H-M "P -1"
_symmetry_group_IT_number 2
_symmetry_cell_setting 'triclinic'
loop_
_space_group_symop_operation_xyz
x,y,z
-x,-y,-z
loop_
_atom_site_type_symbol
_atom_site_label
_atom_site_fract_x
_atom_site_fract_y
_atom_site_fract_z
Si Si1 0.428579 0.274495 0.507330
Si Si2 0.033077 0.226598 0.364296
Si Si3 0.818312 0.301586 0.907463
Si Si4 0.297665 0.161069 0.789402
Si Si5 0.293225 0.769311 0.060543
Si Si6 0.862196 0.267841 0.564032
Si Si7 0.558827 0.595902 0.059845
O O1 0.341470 0.447927 0.325010
O O2 0.587158 0.211610 0.751614
O O3 0.260923 0.491044 0.434579
O O4 0.500000 0.000000 0.500000
O O5 0.201955 0.151432 0.564054
O O6 0.873005 0.502502 0.310899
O O7 0.116392 0.951403 0.440256
O O8 0.912521 0.335696 0.119454
O O9 0.738944 0.275486 0.879948
O O10 0.000000 0.000000 0.000000
O O11 0.500000 0.000000 0.000000
O O12 0.373468 0.945897 0.923119
O O13 0.393869 0.511341 0.035669
O O14 0.080306 0.063547 0.803645
O O15 0.745872 0.427367 0.336587
O O16 0.500000 0.500000 0.000000
#
# Coordination Sequence:
#
# PCOD9027536 Si02
#       7
#     2   2   2   2   2   2   2
#     4  12  26  45  71 101 139 175 230 285 337 400
#     4  10  22  41  68  92 137 172 220 274 329 392
#     4  11  23  47  72  94 133 185 230 275 327 414
#     4  11  23  41  64 103 131 170 225 276 331 398
#     4  11  24  45  75  95 132 189 228 268 349 403
#     4  11  23  47  68  99 133 182 225 275 341 405
#     4  12  23  43  74  97 141 176 222 282 343 399
#
# _framework density 20.857778
#
# number of rings (size 3 to 8) (size 9 to 14) (size 15 to 20)
#    0.000    0.857    5.714    2.571    2.000    0.571 
#    5.143    0.000    0.000    0.000    0.000    0.000 
#    0.000    0.000    0.000    0.000    0.000    0.000 
#
# Total GULP energy -78206.410885 kJ/mol
# GULP energy per Si atom -5586.172206 kJ/mol
# Density = 2.081030 g / cm^3
# Si number density = 20.857778 Si / 1000 Ang^3
#
#
#
# Elastic Constant Matrix: (Units=GPa)
#
#
# Indices 1 2 3 4 5 6 
#
# 1 43.8682 9.6690 -7.0207 -3.2076 0.3067 -11.9534
# 2 9.6690 121.5116 24.3666 -9.2675 -1.3397 -6.9535
# 3 -7.0207 24.3666 124.2687 17.0312 11.8978 1.8782
# 4 -3.2076 -9.2675 17.0312 40.5688 4.2504 1.8099
# 5 0.3067 -1.3397 11.8978 4.2504 40.9008 1.4108
# 6 -11.9534 -6.9535 1.8782 1.8099 1.4108 26.5117
#
#
#
# Elastic Compliance Matrix: (Units=1/GPa)
#
#
# Indices 1 2 3 4 5 6 
#
# 1 0.026632 -0.001776 0.001714 0.000597 -0.001213 0.011444
# 2 -0.001776 0.009155 -0.002366 0.002807 0.000657 0.001542
# 3 0.001714 -0.002366 0.009400 -0.004096 -0.002396 -0.000107
# 4 0.000597 0.002807 -0.004096 0.027240 -0.001535 -0.000482
# 5 -0.001213 0.000657 -0.002396 -0.001535 0.025386 -0.001451
# 6 0.011444 0.001542 -0.000107 -0.000482 -0.001451 0.043401
#
#
# Mechanical properties :
#
#
# Convention : Reuss Voigt Hill
#
# Bulk Modulus (GPa) = 24.79478 38.18646 31.49062
# Shear Modulus (GPa) = 31.34528 39.10518 35.22523
#
# Velocity S-wave (km/s) = 3.88081 4.33465 4.11400
# Velocity P-wave (km/s) = 5.65635 6.58787 6.13980
#
# Compressibility (1/GPa) = 0.04033107
#
# Stress axis : x y z
#
# Youngs Moduli (GPa) = 37.54914 109.22980 106.38095
#
# Poissons Ratio (x) = 0.19398 -0.18236
# Poissons Ratio (y) = 0.06668 0.25173
# Poissons Ratio (z) = -0.06437 0.25847
#
# Static dielectric constant tensor:
#      x y z
#    x 1.756500 0.019900 0.012340 
#    y 0.019900 1.811470 0.016670 
#    z 0.012340 0.016670 1.772650 
# 
# From -- ./inp_files/470058.got.cif
#   From: 2010.05.17/outbox.cif.g08.bks.cpg/sg2_236_cif.got.tgz:470058.got - 2010.06.03 11:33:40.
