data_PCOD9027925
_publ_section_title
;
Structure prediction by ZEFSAII (Michael W. Deem and Ramdas Pophale) SiO2 
 PCOD9027925
Probable space group: P -1
;
_chemical_formula_sum "Si O2"
_cell_formula_units_Z 11
_cell_length_a 10.297496
_cell_length_b 9.250472
_cell_length_c 7.589778
_cell_angle_alpha 86.835874
_cell_angle_beta 45.255238
_cell_angle_gamma 106.010288
_cell_volume 459.476591
_symmetry_space_group_name_H-M "P -1"
_symmetry_group_IT_number 2
_symmetry_cell_setting 'triclinic'
loop_
_space_group_symop_operation_xyz
x,y,z
-x,-y,-z
loop_
_atom_site_type_symbol
_atom_site_label
_atom_site_fract_x
_atom_site_fract_y
_atom_site_fract_z
Si Si1 0.944124 0.813974 0.534831
Si Si2 0.000000 0.500000 0.000000
Si Si3 0.722809 0.667114 0.386130
Si Si4 0.559858 0.615134 0.103684
Si Si5 0.438165 0.811709 0.615143
Si Si6 0.631522 0.185932 0.902813
O O1 0.832258 0.758397 0.457560
O O2 0.134469 0.773545 0.348075
O O3 0.798567 0.720262 0.842211
O O4 0.000000 0.000000 0.500000
O O5 0.122298 0.390922 0.845973
O O6 0.223063 0.672086 0.760970
O O7 0.525340 0.507729 0.649835
O O8 0.631239 0.779145 0.375944
O O9 0.440126 0.720142 0.173717
O O10 0.500000 0.500000 0.000000
O O11 0.500000 0.000000 0.500000
O O12 0.412685 0.787561 0.854554
O O13 0.500000 0.000000 0.000000
#
# Coordination Sequence:
#
# PCOD9027925 Si02
#       6
#     2   1   2   2   2   2
#     4  11  21  41  73 109 140 183 238 312 373 424
#     4  12  28  50  76 104 154 206 242 304 372 460
#     4  11  25  50  69 109 147 192 254 297 376 445
#     4  10  22  41  70 101 141 177 231 315 350 427
#     4  12  28  51  72 107 155 198 251 305 370 455
#     4  12  23  44  72 110 142 185 247 304 372 431
#
# _framework density 23.940283999999998
#
# number of rings (size 3 to 8) (size 9 to 14) (size 15 to 20)
#    0.000    0.727    7.273    0.545    2.545    5.091 
#    3.273    0.000    0.000    0.000    0.000    0.000 
#    0.000    0.000    0.000    0.000    0.000    0.000 
#
# Total GULP energy -61295.654447 kJ/mol
# GULP energy per Si atom -5572.332222 kJ/mol
# Density = 2.388579 g / cm^3
# Si number density = 23.940284 Si / 1000 Ang^3
#
#
#
# Elastic Constant Matrix: (Units=GPa)
#
#
# Indices 1 2 3 4 5 6 
#
# 1 110.2810 59.6810 70.1277 3.0152 -9.8058 -21.7886
# 2 59.6810 182.8674 58.7662 -0.0171 -14.9997 -24.7935
# 3 70.1277 58.7662 144.7090 14.8522 -35.1193 -15.3250
# 4 3.0152 -0.0171 14.8522 50.7348 -9.1037 -11.5104
# 5 -9.8058 -14.9997 -35.1193 -9.1037 53.8031 9.6260
# 6 -21.7886 -24.7935 -15.3250 -11.5104 9.6260 48.8275
#
#
#
# Elastic Compliance Matrix: (Units=1/GPa)
#
#
# Indices 1 2 3 4 5 6 
#
# 1 0.015285 -0.002442 -0.006806 0.001564 -0.002856 0.004376
# 2 -0.002442 0.007075 -0.001486 0.001154 0.000352 0.002239
# 3 -0.006806 -0.001486 0.012423 -0.002487 0.006343 -0.001729
# 4 0.001564 0.001154 -0.002487 0.021862 0.001732 0.005315
# 5 -0.002856 0.000352 0.006343 0.001732 0.023182 -0.003267
# 6 0.004376 0.002239 -0.001729 0.005315 -0.003267 0.024924
#
#
# Mechanical properties :
#
#
# Convention : Reuss Voigt Hill
#
# Bulk Modulus (GPa) = 75.09139 90.55636 82.82387
# Shear Modulus (GPa) = 38.26766 47.29192 42.77979
#
# Velocity S-wave (km/s) = 4.00242 4.44938 4.23180
# Velocity P-wave (km/s) = 7.26590 8.01898 7.65171
#
# Compressibility (1/GPa) = 0.01331711
#
# Stress axis : x y z
#
# Youngs Moduli (GPa) = 65.42343 141.33295 80.49321
#
# Poissons Ratio (x) = 0.34516 0.54781
# Poissons Ratio (y) = 0.15977 0.11958
# Poissons Ratio (z) = 0.44525 0.20997
#
# Static dielectric constant tensor:
#      x y z
#    x 2.040110 0.083600 0.111280 
#    y 0.083600 1.909990 0.036830 
#    z 0.111280 0.036830 1.970590 
# 
# From -- ./inp_files/165279.got.cif
#   From: 2010.05.17/outbox.cif.g08.bks.cpg/sg2_83_cif.got.tgz:165279.got - 2010.06.03 11:33:40.
