data_PCOD9027735
_publ_section_title
;
Structure prediction by ZEFSAII (Michael W. Deem and Ramdas Pophale) SiO2 
 PCOD9027735
Probable space group: P -1
;
_chemical_formula_sum "Si O2"
_cell_formula_units_Z 16
_cell_length_a 14.484854
_cell_length_b 13.757470
_cell_length_c 8.086635
_cell_angle_alpha 67.370346
_cell_angle_beta 63.968227
_cell_angle_gamma 29.401637
_cell_volume 710.845080
_symmetry_space_group_name_H-M "P -1"
_symmetry_group_IT_number 2
_symmetry_cell_setting 'triclinic'
loop_
_space_group_symop_operation_xyz
x,y,z
-x,-y,-z
loop_
_atom_site_type_symbol
_atom_site_label
_atom_site_fract_x
_atom_site_fract_y
_atom_site_fract_z
Si Si1 0.355814 0.105530 0.194664
Si Si2 0.047859 0.537692 0.588857
Si Si3 0.440855 0.394119 0.992071
Si Si4 0.430425 0.205967 0.347444
Si Si5 0.384213 0.491951 0.608134
Si Si6 0.797182 0.209522 0.943686
Si Si7 0.950342 0.214872 0.532705
Si Si8 0.357271 0.885946 0.498488
O O1 0.431379 0.104676 0.295165
O O2 0.123135 0.335501 0.224732
O O3 0.366229 0.972617 0.305604
O O4 0.500000 0.000000 0.000000
O O5 0.279765 0.320973 0.543397
O O6 0.033914 0.677051 0.490036
O O7 0.000000 0.500000 0.500000
O O8 0.369181 0.355675 0.176614
O O9 0.311906 0.610767 0.974933
O O10 0.435674 0.386062 0.804703
O O11 0.651991 0.240999 0.995784
O O12 0.631082 0.065798 0.365780
O O13 0.500000 0.500000 0.500000
O O14 0.156017 0.698007 0.616796
O O15 0.467250 0.347262 0.491121
O O16 0.827899 0.247306 0.726471
O O17 0.000000 0.000000 0.000000
O O18 0.167850 0.986246 0.532144
#
# Coordination Sequence:
#
# PCOD9027735 Si02
#       8
#     2   2   2   2   2   2   2   2
#     4  10  22  41  69 103 137 171 222 286 338 405
#     4   9  19  38  70  95 127 176 219 268 333 401
#     4  11  24  40  64  96 130 177 226 277 332 394
#     4  11  20  43  72  95 136 179 228 276 339 407
#     4  12  25  42  65  96 140 183 219 278 340 390
#     4  11  23  39  64  94 130 173 230 275 325 396
#     4  11  22  43  65  95 135 172 225 272 334 407
#     4  11  24  41  71  95 133 181 221 274 340 404
#
# _framework density 22.508421999999999
#
# number of rings (size 3 to 8) (size 9 to 14) (size 15 to 20)
#    0.000    1.250    3.750    1.875    3.500    1.500 
#    0.000    3.125   13.750    0.000    0.000    0.000 
#    0.000    0.000    0.000    0.000    0.000    0.000 
#
# Total GULP energy -89187.763617 kJ/mol
# GULP energy per Si atom -5574.235226 kJ/mol
# Density = 2.245719 g / cm^3
# Si number density = 22.508422 Si / 1000 Ang^3
#
#
#
# Elastic Constant Matrix: (Units=GPa)
#
#
# Indices 1 2 3 4 5 6 
#
# 1 97.9409 32.3515 12.4776 6.2718 -7.1304 -12.2077
# 2 32.3515 97.6841 27.5202 7.1934 3.6705 -27.2809
# 3 12.4776 27.5202 88.5447 20.8531 -12.2133 5.5469
# 4 6.2718 7.1934 20.8531 28.1992 -2.3269 -2.3689
# 5 -7.1304 3.6705 -12.2133 -2.3269 27.5412 -2.1825
# 6 -12.2077 -27.2809 5.5469 -2.3689 -2.1825 32.9461
#
#
#
# Elastic Compliance Matrix: (Units=1/GPa)
#
#
# Indices 1 2 3 4 5 6 
#
# 1 0.011927 -0.003602 0.000185 -0.001439 0.003650 0.001544
# 2 -0.003602 0.017342 -0.007003 0.002319 -0.005041 0.014037
# 3 0.000185 -0.007003 0.017712 -0.011525 0.007143 -0.009068
# 4 -0.001439 0.002319 -0.011525 0.044122 -0.001558 0.006397
# 5 0.003650 -0.005041 0.007143 -0.001558 0.040849 -0.001430
# 6 0.001544 0.014037 -0.009068 0.006397 -0.001430 0.044440
#
#
# Mechanical properties :
#
#
# Convention : Reuss Voigt Hill
#
# Bulk Modulus (GPa) = 38.25656 47.65201 42.95428
# Shear Modulus (GPa) = 24.27822 31.85868 28.06845
#
# Velocity S-wave (km/s) = 3.28781 3.76628 3.53515
# Velocity P-wave (km/s) = 5.60771 6.33481 5.98232
#
# Compressibility (1/GPa) = 0.02613931
#
# Stress axis : x y z
#
# Youngs Moduli (GPa) = 83.84409 57.66385 56.45912
#
# Poissons Ratio (x) = 0.20770 -0.01042
# Poissons Ratio (y) = 0.30201 0.39540
# Poissons Ratio (z) = -0.01548 0.40384
#
# Static dielectric constant tensor:
#      x y z
#    x 1.840860 -0.049240 0.011460 
#    y -0.049240 1.914550 0.054600 
#    z 0.011460 0.054600 1.892070 
# 
# From -- ./inp_files/312945.got.cif
#   From: 2010.05.17/outbox.cif.g08.bks.cpg/sg2_157_cif.got.tgz:312945.got - 2010.06.03 11:33:40.
