data_PCOD9027402
_publ_section_title
;
Structure prediction by ZEFSAII (Michael W. Deem and Ramdas Pophale) SiO2 
 PCOD9027402
Probable space group: P -1
;
_chemical_formula_sum "Si O2"
_cell_formula_units_Z 14
_cell_length_a 5.371468
_cell_length_b 17.677070
_cell_length_c 13.064388
_cell_angle_alpha 28.175264
_cell_angle_beta 110.719990
_cell_angle_gamma 115.849810
_cell_volume 525.750100
_symmetry_space_group_name_H-M "P -1"
_symmetry_group_IT_number 2
_symmetry_cell_setting 'triclinic'
loop_
_space_group_symop_operation_xyz
x,y,z
-x,-y,-z
loop_
_atom_site_type_symbol
_atom_site_label
_atom_site_fract_x
_atom_site_fract_y
_atom_site_fract_z
Si Si1 0.351222 0.446359 0.838598
Si Si2 0.908097 0.155533 0.115760
Si Si3 0.266024 0.290303 0.818135
Si Si4 0.311946 0.987149 0.085646
Si Si5 0.191299 0.240059 0.435286
Si Si6 0.030694 0.343213 0.505565
Si Si7 0.786436 0.110053 0.364878
O O1 0.439028 0.433339 0.747795
O O2 0.561034 0.594040 0.753410
O O3 0.064320 0.496909 0.726812
O O4 0.229489 0.255492 0.083161
O O5 0.751364 0.189169 0.155833
O O6 0.802901 0.953040 0.335240
O O7 0.990178 0.209824 0.943012
O O8 0.806707 0.641332 0.382040
O O9 0.413827 0.146060 0.985853
O O10 0.256836 0.802743 0.340532
O O11 0.500000 0.000000 0.000000
O O12 0.000000 0.000000 0.000000
O O13 0.137639 0.269780 0.510252
O O14 0.940736 0.236019 0.325608
O O15 0.500000 0.000000 0.500000
O O16 0.000000 0.000000 0.500000
#
# Coordination Sequence:
#
# PCOD9027402 Si02
#       7
#     2   2   2   2   2   2   2
#     4  10  24  43  69 110 146 194 246 299 368 434
#     4   9  22  48  70 103 148 187 254 301 372 434
#     4   9  21  45  65 105 150 195 242 299 362 428
#     4  10  22  41  67  98 136 198 244 290 351 420
#     4  11  24  44  74 102 145 191 249 300 374 432
#     4  11  22  39  67 105 147 196 242 300 357 440
#     4  10  24  49  80 106 140 193 242 309 374 436
#
# _framework density 26.628620999999999
#
# number of rings (size 3 to 8) (size 9 to 14) (size 15 to 20)
#    0.857    1.143    1.429    0.429    8.000    1.143 
#   10.286    0.714    0.000    0.000    0.000    0.000 
#    0.000    0.000    0.000    0.000    0.000    0.000 
#
# Total GULP energy -78036.587881 kJ/mol
# GULP energy per Si atom -5574.041992 kJ/mol
# Density = 2.656801 g / cm^3
# Si number density = 26.628621 Si / 1000 Ang^3
#
#
#
# Elastic Constant Matrix: (Units=GPa)
#
#
# Indices 1 2 3 4 5 6 
#
# 1 118.0664 44.5744 37.8318 7.0140 -20.4652 -22.1706
# 2 44.5744 176.3194 53.8922 -7.2158 -24.7941 9.1384
# 3 37.8318 53.8922 98.4339 -4.3740 -16.6332 2.5847
# 4 7.0140 -7.2158 -4.3740 58.7950 -1.3840 -12.5011
# 5 -20.4652 -24.7941 -16.6332 -1.3840 47.4878 8.9052
# 6 -22.1706 9.1384 2.5847 -12.5011 8.9052 32.2930
#
#
#
# Elastic Compliance Matrix: (Units=1/GPa)
#
#
# Indices 1 2 3 4 5 6 
#
# 1 0.012413 -0.002376 -0.003516 -0.000065 0.001164 0.009130
# 2 -0.002376 0.007739 -0.002715 0.000179 0.002883 -0.004330
# 3 -0.003516 -0.002715 0.013510 0.000465 0.002415 -0.003213
# 4 -0.000065 0.000179 0.000465 0.018595 -0.000585 0.007227
# 5 0.001164 0.002883 0.002415 -0.000585 0.025283 -0.007409
# 6 0.009130 -0.004330 -0.003213 0.007227 -0.007409 0.043558
#
#
# Mechanical properties :
#
#
# Convention : Reuss Voigt Hill
#
# Bulk Modulus (GPa) = 60.79630 73.93517 67.36573
# Shear Modulus (GPa) = 34.77133 44.81657 39.79395
#
# Velocity S-wave (km/s) = 3.61749 4.10692 3.86995
# Velocity P-wave (km/s) = 6.35052 7.09328 6.73215
#
# Compressibility (1/GPa) = 0.01644837
#
# Stress axis : x y z
#
# Youngs Moduli (GPa) = 80.55784 129.21309 74.01748
#
# Poissons Ratio (x) = 0.30697 0.26027
# Poissons Ratio (y) = 0.19138 0.20098
# Poissons Ratio (z) = 0.28326 0.35086
#
# Static dielectric constant tensor:
#      x y z
#    x 2.276030 0.160050 0.086360 
#    y 0.160050 2.251770 0.041440 
#    z 0.086360 0.041440 2.225950 
# 
# From -- ./inp_files/485159.got.cif
#   From: 2010.05.17/outbox.cif.g08.bks.cpg/sg2_243_cif.got.tgz:485159.got - 2010.06.03 11:33:40.
