data_PCOD9027986
_publ_section_title
;
Structure prediction by ZEFSAII (Michael W. Deem and Ramdas Pophale) SiO2 
 PCOD9027986
Probable space group: P -1
;
_chemical_formula_sum "Si O2"
_cell_formula_units_Z 14
_cell_length_a 9.218718
_cell_length_b 7.349389
_cell_length_c 15.578228
_cell_angle_alpha 83.755166
_cell_angle_beta 35.673368
_cell_angle_gamma 81.743527
_cell_volume 609.066786
_symmetry_space_group_name_H-M "P -1"
_symmetry_group_IT_number 2
_symmetry_cell_setting 'triclinic'
loop_
_space_group_symop_operation_xyz
x,y,z
-x,-y,-z
loop_
_atom_site_type_symbol
_atom_site_label
_atom_site_fract_x
_atom_site_fract_y
_atom_site_fract_z
Si Si1 0.901286 0.732511 0.793139
Si Si2 0.336189 0.017381 0.958421
Si Si3 0.240890 0.355030 0.889438
Si Si4 0.514774 0.631377 0.857239
Si Si5 0.803294 0.663367 0.551029
Si Si6 0.622273 0.484104 0.348966
Si Si7 0.920103 0.018297 0.637084
O O1 0.709878 0.608337 0.843630
O O2 0.105476 0.619319 0.758362
O O3 0.027387 0.844963 0.651418
O O4 0.750067 0.888479 0.915481
O O5 0.191987 0.152663 0.952262
O O6 0.626588 0.044006 0.797370
O O7 0.312985 0.799624 0.973888
O O8 0.417281 0.451697 0.869672
O O9 0.345473 0.351103 0.742173
O O10 0.000000 0.500000 0.000000
O O11 0.665052 0.723412 0.703307
O O12 0.572396 0.620266 0.606449
O O13 0.000000 0.500000 0.500000
O O14 0.955623 0.795535 0.413744
O O15 0.500000 0.500000 0.500000
O O16 0.000000 0.000000 0.500000
#
# Coordination Sequence:
#
# PCOD9027986 Si02
#       7
#     2   2   2   2   2   2   2
#     4  11  23  43  65 100 137 168 226 285 328 395
#     4  11  23  43  68  98 138 172 227 279 326 400
#     4  11  24  46  66  98 132 183 223 268 346 405
#     4  10  22  41  70  94 130 180 223 272 334 395
#     4  11  22  42  68  99 131 177 224 266 338 408
#     4  11  25  42  65  98 140 166 219 291 328 388
#     4  11  21  39  69  94 124 178 223 267 330 397
#
# _framework density 22.985987000000002
#
# number of rings (size 3 to 8) (size 9 to 14) (size 15 to 20)
#    0.000    1.143    4.286    4.286    2.000    1.714 
#    5.143    0.000    0.000    0.000    0.000    0.000 
#    0.000    0.000    0.000    0.000    0.000    0.000 
#
# Total GULP energy -78086.904665 kJ/mol
# GULP energy per Si atom -5577.636047 kJ/mol
# Density = 2.293367 g / cm^3
# Si number density = 22.985987 Si / 1000 Ang^3
#
#
#
# Elastic Constant Matrix: (Units=GPa)
#
#
# Indices 1 2 3 4 5 6 
#
# 1 144.6530 40.5052 30.3242 14.2387 11.1336 -14.0071
# 2 40.5052 70.6404 -6.7899 -4.0021 -1.6422 -11.4183
# 3 30.3242 -6.7899 83.7783 10.9412 27.5345 6.0095
# 4 14.2387 -4.0021 10.9412 35.6024 -2.2279 4.5332
# 5 11.1336 -1.6422 27.5345 -2.2279 43.4053 1.2324
# 6 -14.0071 -11.4183 6.0095 4.5332 1.2324 24.7168
#
#
#
# Elastic Compliance Matrix: (Units=1/GPa)
#
#
# Indices 1 2 3 4 5 6 
#
# 1 0.010241 -0.005697 -0.003674 -0.004285 -0.000871 0.004894
# 2 -0.005697 0.018528 0.002717 0.003036 0.000479 0.004090
# 3 -0.003674 0.002717 0.017617 -0.003781 -0.010213 -0.003908
# 4 -0.004285 0.003036 -0.003781 0.032452 0.005458 -0.006331
# 5 -0.000871 0.000479 -0.010213 0.005458 0.030047 -0.000288
# 6 0.004894 0.004090 -0.003908 -0.006331 -0.000288 0.047247
#
#
# Mechanical properties :
#
#
# Convention : Reuss Voigt Hill
#
# Bulk Modulus (GPa) = 30.23198 47.46118 38.84658
# Shear Modulus (GPa) = 27.70562 36.41372 32.05967
#
# Velocity S-wave (km/s) = 3.47555 3.98448 3.73868
# Velocity P-wave (km/s) = 5.41173 6.46999 5.96438
#
# Compressibility (1/GPa) = 0.03307756
#
# Stress axis : x y z
#
# Youngs Moduli (GPa) = 97.64288 53.97120 56.76301
#
# Poissons Ratio (x) = 0.30750 0.20855
# Poissons Ratio (y) = 0.55631 -0.15421
# Poissons Ratio (z) = 0.35874 -0.14663
#
# Static dielectric constant tensor:
#      x y z
#    x -2.937140 -0.277320 -0.170520 
#    y -0.277320 1.993610 -0.008370 
#    z -0.170520 -0.008370 1.910180 
# 
# From -- ./inp_files/329185.got.cif
#   From: 2010.05.17/outbox.cif.g08.bks.cpg/sg2_165_cif.got.tgz:329185.got - 2010.06.03 11:33:40.
