data_PCOD9027124
_publ_section_title
;
Structure prediction by ZEFSAII (Michael W. Deem and Ramdas Pophale) SiO2 
 PCOD9027124
Probable space group: P -1
;
_chemical_formula_sum "Si O2"
_cell_formula_units_Z 12
_cell_length_a 4.944595
_cell_length_b 12.449436
_cell_length_c 9.625181
_cell_angle_alpha 74.819090
_cell_angle_beta 76.805567
_cell_angle_gamma 113.396432
_cell_volume 486.491126
_symmetry_space_group_name_H-M "P -1"
_symmetry_group_IT_number 2
_symmetry_cell_setting 'triclinic'
loop_
_space_group_symop_operation_xyz
x,y,z
-x,-y,-z
loop_
_atom_site_type_symbol
_atom_site_label
_atom_site_fract_x
_atom_site_fract_y
_atom_site_fract_z
Si Si1 0.719888 0.441287 0.943880
Si Si2 0.886712 0.794651 0.616302
Si Si3 0.356898 0.827273 0.999495
Si Si4 0.706167 0.197119 0.670315
Si Si5 0.966384 0.047421 0.188579
Si Si6 0.192908 0.634053 0.640109
O O1 0.906931 0.496785 0.757929
O O2 0.500000 0.500000 0.000000
O O3 0.589364 0.290800 0.013730
O O4 0.000000 0.500000 0.000000
O O5 0.536088 0.684708 0.652045
O O6 0.081288 0.845294 0.432945
O O7 0.928268 0.900704 0.684305
O O8 0.068524 0.726257 0.687236
O O9 0.147903 0.863657 0.911746
O O10 0.719522 0.942499 0.922741
O O11 0.213144 0.790291 0.182533
O O12 0.762599 0.325165 0.540279
O O13 0.341660 0.090345 0.730222
#
# Coordination Sequence:
#
# PCOD9027124 Si02
#       6
#     2   2   2   2   2   2
#     4  12  24  45  69  96 130 171 224 276 326 393
#     4  10  22  41  66  98 129 172 223 265 325 387
#     4  12  27  42  69  99 135 176 220 271 334 387
#     4  10  27  42  68  98 141 172 218 271 333 390
#     4  12  24  43  68  99 136 179 220 265 324 398
#     4  10  23  40  68  93 132 169 226 266 327 380
#
# _framework density 24.666432
#
# number of rings (size 3 to 8) (size 9 to 14) (size 15 to 20)
#    1.000    0.000    0.000    7.500    4.667    1.333 
#    0.000    0.833    0.000    0.000    0.000    0.000 
#    0.000    0.000    0.000    0.000    0.000    0.000 
#
# Total GULP energy -67070.200425 kJ/mol
# GULP energy per Si atom -5589.183369 kJ/mol
# Density = 2.461029 g / cm^3
# Si number density = 24.666432 Si / 1000 Ang^3
#
#
#
# Elastic Constant Matrix: (Units=GPa)
#
#
# Indices 1 2 3 4 5 6 
#
# 1 140.7475 12.1200 48.7483 4.1484 -2.5963 8.9695
# 2 12.1200 66.1255 32.1950 -2.4131 2.6544 -9.7360
# 3 48.7483 32.1950 165.8041 2.8777 -6.7409 1.9101
# 4 4.1484 -2.4131 2.8777 39.6017 3.0991 -4.0643
# 5 -2.5963 2.6544 -6.7409 3.0991 31.4229 -7.4856
# 6 8.9695 -9.7360 1.9101 -4.0643 -7.4856 22.6328
#
#
#
# Elastic Compliance Matrix: (Units=1/GPa)
#
#
# Indices 1 2 3 4 5 6 
#
# 1 0.008218 -0.001044 -0.002170 -0.001126 -0.000515 -0.003895
# 2 -0.001044 0.018403 -0.003431 0.002432 -0.000499 0.008891
# 3 -0.002170 -0.003431 0.007422 -0.000732 0.001571 -0.000854
# 4 -0.001126 0.002432 -0.000732 0.026289 -0.001686 0.005717
# 5 -0.000515 -0.000499 0.001571 -0.001686 0.034976 0.011122
# 6 -0.003895 0.008891 -0.000854 0.005717 0.011122 0.054330
#
#
# Mechanical properties :
#
#
# Convention : Reuss Voigt Hill
#
# Bulk Modulus (GPa) = 48.18703 62.08933 55.13818
# Shear Modulus (GPa) = 29.43836 37.37239 33.40537
#
# Velocity S-wave (km/s) = 3.45839 3.89667 3.68405
# Velocity P-wave (km/s) = 5.96030 6.74326 6.36383
#
# Compressibility (1/GPa) = 0.02075247
#
# Stress axis : x y z
#
# Youngs Moduli (GPa) = 121.67844 54.34026 134.73498
#
# Poissons Ratio (x) = 0.05671 0.29240
# Poissons Ratio (y) = 0.12700 0.46232
# Poissons Ratio (z) = 0.26406 0.18646
#
# Static dielectric constant tensor:
#      x y z
#    x 1.891030 -0.050160 0.012180 
#    y -0.050160 1.976330 -0.113500 
#    z 0.012180 -0.113500 2.120420 
# 
# From -- ./inp_files/134062.got.cif
#   From: 2010.05.17/outbox.cif.g08.bks.cpg/sg2_68_cif.got.tgz:134062.got - 2010.06.03 11:33:40.
