data_PCOD9027296
_publ_section_title
;
Structure prediction by ZEFSAII (Michael W. Deem and Ramdas Pophale) SiO2 
 PCOD9027296
Probable space group: P -1
;
_chemical_formula_sum "Si O2"
_cell_formula_units_Z 14
_cell_length_a 9.641661
_cell_length_b 11.852094
_cell_length_c 9.147108
_cell_angle_alpha 68.449837
_cell_angle_beta 111.933558
_cell_angle_gamma 129.403572
_cell_volume 736.750781
_symmetry_space_group_name_H-M "P -1"
_symmetry_group_IT_number 2
_symmetry_cell_setting 'triclinic'
loop_
_space_group_symop_operation_xyz
x,y,z
-x,-y,-z
loop_
_atom_site_type_symbol
_atom_site_label
_atom_site_fract_x
_atom_site_fract_y
_atom_site_fract_z
Si Si1 0.861344 0.230173 0.194131
Si Si2 0.469480 0.627445 0.400811
Si Si3 0.933177 0.504358 0.630543
Si Si4 0.576990 0.310388 0.983713
Si Si5 0.181203 0.068259 0.631674
Si Si6 0.163738 0.147741 0.916395
Si Si7 0.107971 0.374268 0.939079
O O1 0.960748 0.334276 0.326273
O O2 0.788884 0.060936 0.270892
O O3 0.697261 0.244278 0.076342
O O4 0.013909 0.297256 0.093478
O O5 0.500000 0.500000 0.500000
O O6 0.280594 0.571310 0.429116
O O7 0.441430 0.652160 0.208249
O O8 0.645568 0.786154 0.443936
O O9 0.000000 0.500000 0.500000
O O10 0.974457 0.410462 0.797160
O O11 0.370309 0.202413 0.013165
O O12 0.698816 0.468802 0.035861
O O13 0.151683 0.118621 0.752677
O O14 0.000000 0.000000 0.500000
O O15 0.137872 0.273865 0.895258
O O16 0.000000 0.000000 0.000000
#
# Coordination Sequence:
#
# PCOD9027296 Si02
#       7
#     2   2   2   2   2   2   2
#     4  11  21  45  69  91 129 171 208 270 323 384
#     4  11  23  41  67  94 128 173 212 259 322 385
#     4  11  24  41  66  98 126 165 218 267 317 376
#     4  10  22  41  67  95 124 169 218 255 323 379
#     4  11  26  43  64  92 134 171 213 260 330 377
#     4  11  24  40  63  97 125 166 209 272 309 375
#     4  11  21  42  68  94 129 163 216 266 316 384
#
# _framework density 19.002355999999999
#
# number of rings (size 3 to 8) (size 9 to 14) (size 15 to 20)
#    0.000    1.143    4.286    2.143    6.000    3.429 
#    5.143    0.714    0.000    0.000    0.000    0.000 
#    0.000    0.000    0.000    0.000    0.000    0.000 
#
# Total GULP energy -78206.651657 kJ/mol
# GULP energy per Si atom -5586.189404 kJ/mol
# Density = 1.895911 g / cm^3
# Si number density = 19.002356 Si / 1000 Ang^3
#
#
#
# Elastic Constant Matrix: (Units=GPa)
#
#
# Indices 1 2 3 4 5 6 
#
# 1 144.1507 93.3012 36.1294 6.6707 0.6406 14.5833
# 2 93.3012 155.8123 49.5584 -0.2645 13.8340 3.6385
# 3 36.1294 49.5584 51.8229 4.4611 4.3404 2.2547
# 4 6.6707 -0.2645 4.4611 30.8756 0.2827 -1.5928
# 5 0.6406 13.8340 4.3404 0.2827 34.1901 3.5202
# 6 14.5833 3.6385 2.2547 -1.5928 3.5202 50.2486
#
#
#
# Elastic Compliance Matrix: (Units=1/GPa)
#
#
# Indices 1 2 3 4 5 6 
#
# 1 0.012410 -0.007080 -0.001776 -0.002686 0.003222 -0.003320
# 2 -0.007080 0.013564 -0.007987 0.002937 -0.004556 0.001843
# 3 -0.001776 -0.007987 0.028539 -0.003820 -0.000297 -0.000287
# 4 -0.002686 0.002937 -0.003820 0.033653 -0.001125 0.001884
# 5 0.003222 -0.004556 -0.000297 -0.001125 0.031369 -0.002825
# 6 -0.003320 0.001843 -0.000287 0.001884 -0.002825 0.021002
#
#
# Mechanical properties :
#
#
# Convention : Reuss Voigt Hill
#
# Bulk Modulus (GPa) = 48.01230 78.86266 63.43748
# Shear Modulus (GPa) = 27.59897 34.58264 31.09080
#
# Velocity S-wave (km/s) = 3.81517 4.27067 4.04933
# Velocity P-wave (km/s) = 6.68795 8.11848 7.43769
#
# Compressibility (1/GPa) = 0.02082800
#
# Stress axis : x y z
#
# Youngs Moduli (GPa) = 80.57693 73.72366 35.03958
#
# Poissons Ratio (x) = 0.52193 0.06223
# Poissons Ratio (y) = 0.57045 0.27987
# Poissons Ratio (z) = 0.14311 0.58884
#
# Static dielectric constant tensor:
#      x y z
#    x 1.661180 0.011610 -0.048360 
#    y 0.011610 1.674890 -0.074400 
#    z -0.048360 -0.074400 2.194060 
# 
# From -- ./inp_files/154979.got.cif
#   From: 2010.05.17/outbox.cif.g08.bks.cpg/sg2_78_cif.got.tgz:154979.got - 2010.06.03 11:33:40.
