data_PCOD9027732
_publ_section_title
;
Structure prediction by ZEFSAII (Michael W. Deem and Ramdas Pophale) SiO2 
 PCOD9027732
Probable space group: P -1
;
_chemical_formula_sum "Si O2"
_cell_formula_units_Z 14
_cell_length_a 8.575005
_cell_length_b 16.477233
_cell_length_c 6.645772
_cell_angle_alpha 64.391612
_cell_angle_beta 118.947650
_cell_angle_gamma 74.317068
_cell_volume 588.470329
_symmetry_space_group_name_H-M "P -1"
_symmetry_group_IT_number 2
_symmetry_cell_setting 'triclinic'
loop_
_space_group_symop_operation_xyz
x,y,z
-x,-y,-z
loop_
_atom_site_type_symbol
_atom_site_label
_atom_site_fract_x
_atom_site_fract_y
_atom_site_fract_z
Si Si1 0.828125 0.162487 0.653510
Si Si2 0.611782 0.396580 0.025445
Si Si3 0.612253 0.805298 0.766506
Si Si4 0.781050 0.595811 0.386702
Si Si5 0.148981 0.941945 0.852045
Si Si6 0.409317 0.110171 0.952575
Si Si7 0.074780 0.319072 0.284519
O O1 0.724595 0.281659 0.353958
O O2 0.630363 0.148245 0.517080
O O3 0.872178 0.143545 0.941171
O O4 0.050269 0.053456 0.807124
O O5 0.810163 0.385574 0.041254
O O6 0.500000 0.500000 0.000000
O O7 0.416809 0.416368 0.740125
O O8 0.599437 0.895585 0.806788
O O9 0.793617 0.742217 0.771766
O O10 0.685989 0.707789 0.078137
O O11 0.854179 0.609467 0.637405
O O12 0.000000 0.500000 0.500000
O O13 0.402614 0.873872 0.009811
O O14 0.000000 0.000000 0.500000
O O15 0.172227 0.214123 0.609738
O O16 0.500000 0.000000 0.000000
#
# Coordination Sequence:
#
# PCOD9027732 Si02
#       7
#     2   2   2   2   2   2   2
#     4  10  22  41  69 103 135 184 242 281 356 431
#     4  11  23  45  74 104 143 188 237 299 354 422
#     4  10  22  42  67  98 138 188 232 283 359 425
#     4  10  22  44  71  95 136 185 234 292 353 418
#     4  11  21  41  72 100 135 186 232 290 352 425
#     4  11  23  41  66 100 142 179 233 298 354 418
#     4  11  23  45  68 101 143 180 237 294 352 422
#
# _framework density 23.790496999999998
#
# number of rings (size 3 to 8) (size 9 to 14) (size 15 to 20)
#    0.000    1.429    4.286    0.857    0.000    1.143 
#    0.000   15.000    0.000    0.000    0.000    0.000 
#    0.000    0.000    0.000    0.000    0.000    0.000 
#
# Total GULP energy -78223.783538 kJ/mol
# GULP energy per Si atom -5587.413110 kJ/mol
# Density = 2.373635 g / cm^3
# Si number density = 23.790497 Si / 1000 Ang^3
#
#
#
# Elastic Constant Matrix: (Units=GPa)
#
#
# Indices 1 2 3 4 5 6 
#
# 1 132.5153 68.3303 49.4024 23.7753 36.2087 -30.3794
# 2 68.3303 150.9189 37.2135 19.8873 10.8255 -30.2455
# 3 49.4024 37.2135 94.2999 5.1772 8.0400 -6.5688
# 4 23.7753 19.8873 5.1772 48.2155 -6.8909 -1.0687
# 5 36.2087 10.8255 8.0400 -6.8909 42.7703 -4.5148
# 6 -30.3794 -30.2455 -6.5688 -1.0687 -4.5148 40.8628
#
#
#
# Elastic Compliance Matrix: (Units=1/GPa)
#
#
# Indices 1 2 3 4 5 6 
#
# 1 0.019556 -0.003001 -0.006591 -0.009653 -0.015127 0.009334
# 2 -0.003001 0.009586 -0.001828 -0.002090 0.000605 0.004582
# 3 -0.006591 -0.001828 0.014075 0.002914 0.003494 -0.003528
# 4 -0.009653 -0.002090 0.002914 0.027619 0.011947 -0.006212
# 5 -0.015127 0.000605 0.003494 0.011947 0.036682 -0.005871
# 6 0.009334 0.004582 -0.003528 -0.006212 -0.005871 0.033425
#
#
# Mechanical properties :
#
#
# Convention : Reuss Voigt Hill
#
# Bulk Modulus (GPa) = 49.07638 76.40293 62.73965
# Shear Modulus (GPa) = 29.31238 41.22225 35.26731
#
# Velocity S-wave (km/s) = 3.51394 4.16711 3.85439
# Velocity P-wave (km/s) = 6.09402 7.43893 6.79981
#
# Compressibility (1/GPa) = 0.02037640
#
# Stress axis : x y z
#
# Youngs Moduli (GPa) = 51.13488 104.31815 71.04709
#
# Poissons Ratio (x) = 0.31310 0.46826
# Poissons Ratio (y) = 0.15348 0.12989
# Poissons Ratio (z) = 0.33702 0.19072
#
# Static dielectric constant tensor:
#      x y z
#    x 1.926800 0.039210 -0.013530 
#    y 0.039210 2.075410 0.045510 
#    z -0.013530 0.045510 1.942860 
# 
# From -- ./inp_files/47167.got.cif
#   From: 2010.05.17/outbox.cif.g08.bks.cpg/sg2_24_cif.got.tgz:47167.got - 2010.06.03 11:33:40.
