data_PCOD9027174
_publ_section_title
;
Structure prediction by ZEFSAII (Michael W. Deem and Ramdas Pophale) SiO2 
 PCOD9027174
Probable space group: P -1
;
_chemical_formula_sum "Si O2"
_cell_formula_units_Z 16
_cell_length_a 11.975373
_cell_length_b 10.888401
_cell_length_c 10.927414
_cell_angle_alpha 125.145884
_cell_angle_beta 121.600892
_cell_angle_gamma 100.010886
_cell_volume 725.065053
_symmetry_space_group_name_H-M "P -1"
_symmetry_group_IT_number 2
_symmetry_cell_setting 'triclinic'
loop_
_space_group_symop_operation_xyz
x,y,z
-x,-y,-z
loop_
_atom_site_type_symbol
_atom_site_label
_atom_site_fract_x
_atom_site_fract_y
_atom_site_fract_z
Si Si1 0.039090 0.048620 0.401436
Si Si2 0.488072 0.141595 0.994264
Si Si3 0.823787 0.284908 0.532891
Si Si4 0.814578 0.514392 0.243857
Si Si5 0.678073 0.763061 0.873002
Si Si6 0.632931 0.256017 0.774017
Si Si7 0.227148 0.888841 0.356668
Si Si8 0.422635 0.657866 0.478012
O O1 0.144725 0.988021 0.373853
O O2 0.150903 0.288500 0.584871
O O3 0.000000 0.000000 0.500000
O O4 0.865356 0.926627 0.144151
O O5 0.304545 0.956877 0.711986
O O6 0.669042 0.307930 0.118088
O O7 0.458148 0.270304 0.126517
O O8 0.500000 0.000000 0.000000
O O9 0.879827 0.290325 0.706734
O O10 0.707823 0.344957 0.512315
O O11 0.992697 0.415668 0.616233
O O12 0.731009 0.454517 0.025357
O O13 0.618784 0.804667 0.738552
O O14 0.646109 0.564922 0.708075
O O15 0.757783 0.204994 0.807927
O O16 0.588737 0.278320 0.625598
O O17 0.439739 0.067508 0.611579
#
# Coordination Sequence:
#
# PCOD9027174 Si02
#       8
#     2   2   2   2   2   2   2   2
#     4  12  24  43  70 107 148 178 231 301 345 423
#     4  12  25  47  72  98 147 185 233 298 344 424
#     4  11  22  46  68 106 139 180 238 289 349 416
#     4  12  26  41  75 111 133 191 236 283 370 409
#     4  11  24  46  68  99 142 186 231 290 357 410
#     4  10  23  42  71 101 136 187 237 281 352 418
#     4  10  22  41  67 100 144 180 224 296 346 406
#     4  10  24  43  72  95 140 194 230 287 353 420
#
# _framework density 22.066986
#
# number of rings (size 3 to 8) (size 9 to 14) (size 15 to 20)
#    0.000    1.000    5.000    0.750    3.500    2.000 
#    0.000    0.625    0.000    0.000    0.000    0.000 
#    0.000    0.000    0.000    0.000    0.000    0.000 
#
# Total GULP energy -89233.437830 kJ/mol
# GULP energy per Si atom -5577.089864 kJ/mol
# Density = 2.201676 g / cm^3
# Si number density = 22.066986 Si / 1000 Ang^3
#
#
#
# Elastic Constant Matrix: (Units=GPa)
#
#
# Indices 1 2 3 4 5 6 
#
# 1 156.4191 54.9257 50.9970 10.0221 1.7425 -21.9648
# 2 54.9257 86.1924 49.4996 1.9955 12.9105 -7.1858
# 3 50.9970 49.4996 133.2346 1.2050 -4.0485 -2.4290
# 4 10.0221 1.9955 1.2050 32.4486 5.4472 2.5216
# 5 1.7425 12.9105 -4.0485 5.4472 31.0813 10.6089
# 6 -21.9648 -7.1858 -2.4290 2.5216 10.6089 36.3647
#
#
#
# Elastic Compliance Matrix: (Units=1/GPa)
#
#
# Indices 1 2 3 4 5 6 
#
# 1 0.009444 -0.004472 -0.001839 -0.002943 -0.000077 0.004924
# 2 -0.004472 0.019585 -0.005825 0.001823 -0.010202 0.003630
# 3 -0.001839 -0.005825 0.010469 -0.000055 0.004918 -0.002994
# 4 -0.002943 0.001823 -0.000055 0.032722 -0.005636 -0.002046
# 5 -0.000077 -0.010202 0.004918 -0.005636 0.042760 -0.013818
# 6 0.004924 0.003630 -0.002994 -0.002046 -0.013818 0.035164
#
#
# Mechanical properties :
#
#
# Convention : Reuss Voigt Hill
#
# Bulk Modulus (GPa) = 65.67671 76.29896 70.98784
# Shear Modulus (GPa) = 27.85637 34.67383 31.26510
#
# Velocity S-wave (km/s) = 3.55682 3.96826 3.76816
# Velocity P-wave (km/s) = 6.83337 7.45971 7.15340
#
# Compressibility (1/GPa) = 0.01522610
#
# Stress axis : x y z
#
# Youngs Moduli (GPa) = 105.88903 51.05868 95.51890
#
# Poissons Ratio (x) = 0.22831 0.17570
# Poissons Ratio (y) = 0.47349 0.55641
# Poissons Ratio (z) = 0.19477 0.29742
#
# Static dielectric constant tensor:
#      x y z
#    x 1.836140 0.034770 -0.011990 
#    y 0.034770 1.881200 -0.065060 
#    z -0.011990 -0.065060 1.879120 
# 
# From -- ./inp_files/428969.got.cif
#   From: 2010.05.17/outbox.cif.g08.bks.cpg/sg2_215_cif.got.tgz:428969.got - 2010.06.03 11:33:40.
