data_PCOD9027890
_publ_section_title
;
Structure prediction by ZEFSAII (Michael W. Deem and Ramdas Pophale) SiO2 
 PCOD9027890
Probable space group: P -1
;
_chemical_formula_sum "Si O2"
_cell_formula_units_Z 16
_cell_length_a 12.264125
_cell_length_b 22.390000
_cell_length_c 7.372931
_cell_angle_alpha 56.948093
_cell_angle_beta 71.160247
_cell_angle_gamma 26.979623
_cell_volume 695.426337
_symmetry_space_group_name_H-M "P -1"
_symmetry_group_IT_number 2
_symmetry_cell_setting 'triclinic'
loop_
_space_group_symop_operation_xyz
x,y,z
-x,-y,-z
loop_
_atom_site_type_symbol
_atom_site_label
_atom_site_fract_x
_atom_site_fract_y
_atom_site_fract_z
Si Si1 0.168609 0.587799 0.774041
Si Si2 0.598159 0.258904 0.904009
Si Si3 0.313478 0.227860 0.387374
Si Si4 0.330369 0.020225 0.066730
Si Si5 0.730950 0.319332 0.515933
Si Si6 0.726215 0.034184 0.192838
Si Si7 0.910403 0.488736 0.438970
Si Si8 0.158574 0.620192 0.151907
O O1 0.386732 0.403604 0.929665
O O2 0.268663 0.597169 0.578642
O O3 0.870695 0.737066 0.620572
O O4 0.155313 0.613495 0.948847
O O5 0.737894 0.252912 0.771529
O O6 0.399441 0.340579 0.719928
O O7 0.780546 0.088387 0.109524
O O8 0.084630 0.403784 0.306375
O O9 0.528500 0.097884 0.645478
O O10 0.459429 0.170491 0.224718
O O11 0.030228 0.210476 0.963704
O O12 0.500000 0.000000 0.000000
O O13 0.322181 0.975890 0.962441
O O14 0.466764 0.455665 0.314806
O O15 0.020562 0.147284 0.555626
O O16 0.958356 0.385182 0.677280
O O17 0.000000 0.500000 0.500000
#
# Coordination Sequence:
#
# PCOD9027890 Si02
#       8
#     2   2   2   2   2   2   2   2
#     4  11  24  44  75 101 142 181 234 296 343 421
#     4  10  25  43  69 103 133 188 234 284 355 408
#     4  11  25  43  69 112 136 177 237 282 356 415
#     4  12  24  43  69 106 141 182 230 288 356 405
#     4  11  25  48  68  99 140 191 240 280 348 419
#     4  12  27  45  74 101 148 184 229 297 345 417
#     4  10  22  41  69  99 144 181 224 290 350 418
#     4  11  25  43  71 104 136 187 240 284 348 420
#
# _framework density 23.007469
#
# number of rings (size 3 to 8) (size 9 to 14) (size 15 to 20)
#    0.000    1.000    1.250    4.125    8.750    2.500 
#    0.000    0.625    0.000    0.000    0.000    0.000 
#    0.000    0.000    0.000    0.000    0.000    0.000 
#
# Total GULP energy -89323.017067 kJ/mol
# GULP energy per Si atom -5582.688567 kJ/mol
# Density = 2.295510 g / cm^3
# Si number density = 23.007469 Si / 1000 Ang^3
#
#
#
# Elastic Constant Matrix: (Units=GPa)
#
#
# Indices 1 2 3 4 5 6 
#
# 1 108.5922 46.1891 20.5545 6.9433 11.6991 3.6415
# 2 46.1891 112.6281 29.8491 9.5536 7.9444 11.1994
# 3 20.5545 29.8491 80.4475 0.8406 17.0712 7.6165
# 4 6.9433 9.5536 0.8406 42.3622 4.7072 -2.3513
# 5 11.6991 7.9444 17.0712 4.7072 29.3773 -7.5423
# 6 3.6415 11.1994 7.6165 -2.3513 -7.5423 32.3696
#
#
#
# Elastic Compliance Matrix: (Units=1/GPa)
#
#
# Indices 1 2 3 4 5 6 
#
# 1 0.011521 -0.004236 -0.000675 -0.000603 -0.003064 -0.000429
# 2 -0.004236 0.011911 -0.002951 -0.002076 -0.000300 -0.003171
# 3 -0.000675 -0.002951 0.016238 0.001274 -0.009837 -0.004923
# 4 -0.000603 -0.002076 0.001274 0.024618 -0.003509 0.001457
# 5 -0.003064 -0.000300 -0.009837 -0.003509 0.044954 0.012983
# 6 -0.000429 -0.003171 -0.004923 0.001457 0.012983 0.036328
#
#
# Mechanical properties :
#
#
# Convention : Reuss Voigt Hill
#
# Bulk Modulus (GPa) = 41.76084 54.98370 48.37227
# Shear Modulus (GPa) = 29.53741 34.49349 32.01545
#
# Velocity S-wave (km/s) = 3.58693 3.87619 3.73436
# Velocity P-wave (km/s) = 5.94518 6.63198 6.29795
#
# Compressibility (1/GPa) = 0.02394588
#
# Stress axis : x y z
#
# Youngs Moduli (GPa) = 86.79513 83.95769 61.58283
#
# Poissons Ratio (x) = 0.35566 0.04155
# Poissons Ratio (y) = 0.36768 0.18175
# Poissons Ratio (z) = 0.05857 0.24779
#
# Static dielectric constant tensor:
#      x y z
#    x 1.939080 -0.007590 -0.032040 
#    y -0.007590 1.902200 -0.013980 
#    z -0.032040 -0.013980 1.877110 
# 
# From -- ./inp_files/281861.got.cif
#   From: 2010.05.17/outbox.cif.g08.bks.cpg/sg2_141_cif.got.tgz:281861.got - 2010.06.03 11:33:40.
