data_PCOD9027549
_publ_section_title
;
Structure prediction by ZEFSAII (Michael W. Deem and Ramdas Pophale) SiO2 
 PCOD9027549
Probable space group: P -1
;
_chemical_formula_sum "Si O2"
_cell_formula_units_Z 16
_cell_length_a 9.039335
_cell_length_b 15.116557
_cell_length_c 14.778897
_cell_angle_alpha 141.986734
_cell_angle_beta 63.261618
_cell_angle_gamma 87.116419
_cell_volume 751.933220
_symmetry_space_group_name_H-M "P -1"
_symmetry_group_IT_number 2
_symmetry_cell_setting 'triclinic'
loop_
_space_group_symop_operation_xyz
x,y,z
-x,-y,-z
loop_
_atom_site_type_symbol
_atom_site_label
_atom_site_fract_x
_atom_site_fract_y
_atom_site_fract_z
Si Si1 0.616450 0.871132 0.735646
Si Si2 0.504535 0.869269 0.566143
Si Si3 0.661899 0.317016 0.947013
Si Si4 0.156310 0.660141 0.441135
Si Si5 0.343028 0.927822 0.385329
Si Si6 0.064739 0.043287 0.743645
Si Si7 0.290668 0.334808 0.273842
Si Si8 0.761634 0.562674 0.093514
O O1 0.559076 0.830703 0.625018
O O2 0.593047 0.775816 0.749478
O O3 0.896170 0.752055 0.563354
O O4 0.428975 0.125820 0.005822
O O5 0.602912 0.676552 0.321737
O O6 0.647438 0.915689 0.524358
O O7 0.213995 0.058281 0.777308
O O8 0.368754 0.515642 0.190893
O O9 0.773010 0.387890 0.927110
O O10 0.723135 0.134879 0.728472
O O11 0.784330 0.238117 0.949048
O O12 0.281638 0.494916 0.356877
O O13 0.099967 0.863851 0.631704
O O14 0.617970 0.726163 0.183002
O O15 0.190469 0.985071 0.562963
O O16 0.000000 0.500000 0.500000
O O17 0.000000 0.500000 0.000000
#
# Coordination Sequence:
#
# PCOD9027549 Si02
#       8
#     2   2   2   2   2   2   2   2
#     4  10  22  41  68  94 124 162 205 262 314 385
#     4  11  22  41  59  92 130 169 207 258 323 364
#     4  12  23  39  61  91 122 174 219 260 301 366
#     4  11  21  38  63  95 123 160 207 260 311 372
#     4  11  22  38  59  85 126 172 224 258 300 362
#     4  11  23  39  57  87 134 165 208 268 310 362
#     4   9  20  42  68  96 123 153 207 260 320 376
#     4  11  23  38  58  88 134 173 212 259 309 362
#
# _framework density 21.278486000000001
#
# number of rings (size 3 to 8) (size 9 to 14) (size 15 to 20)
#    0.000    1.250    2.500    6.000    1.750    0.000 
#    4.500    0.625    0.000    7.500    0.000    0.000 
#    0.000    0.000    0.000    0.000    0.000    0.000 
#
# Total GULP energy -89227.046361 kJ/mol
# GULP energy per Si atom -5576.690398 kJ/mol
# Density = 2.123006 g / cm^3
# Si number density = 21.278486 Si / 1000 Ang^3
#
#
#
# Elastic Constant Matrix: (Units=GPa)
#
#
# Indices 1 2 3 4 5 6 
#
# 1 96.9302 13.0030 20.6769 -15.8668 -8.5311 -15.9902
# 2 13.0030 77.4837 5.7457 12.3821 11.8013 -11.8069
# 3 20.6769 5.7457 63.3818 11.5548 -13.6729 -6.6371
# 4 -15.8668 12.3821 11.5548 23.1579 7.6307 0.4120
# 5 -8.5311 11.8013 -13.6729 7.6307 37.9623 1.7189
# 6 -15.9902 -11.8069 -6.6371 0.4120 1.7189 29.8691
#
#
#
# Elastic Compliance Matrix: (Units=1/GPa)
#
#
# Indices 1 2 3 4 5 6 
#
# 1 0.016103 -0.003852 -0.007954 0.017567 -0.001815 0.005192
# 2 -0.003852 0.016540 0.001622 -0.011266 -0.003393 0.005187
# 3 -0.007954 0.001622 0.024871 -0.022412 0.011099 0.001580
# 4 0.017567 -0.011266 -0.022412 0.077782 -0.016249 -0.000167
# 5 -0.001815 -0.003393 0.011099 -0.016249 0.034325 -0.001598
# 6 0.005192 0.005187 0.001580 -0.000167 -0.001598 0.038755
#
#
# Mechanical properties :
#
#
# Convention : Reuss Voigt Hill
#
# Bulk Modulus (GPa) = 26.92124 35.18299 31.05211
# Shear Modulus (GPa) = 20.73618 31.42255 26.07936
#
# Velocity S-wave (km/s) = 3.12511 3.84699 3.50469
# Velocity P-wave (km/s) = 5.06962 6.02519 5.56794
#
# Compressibility (1/GPa) = 0.03714540
#
# Stress axis : x y z
#
# Youngs Moduli (GPa) = 62.10169 60.46074 40.20754
#
# Poissons Ratio (x) = 0.23290 0.31982
# Poissons Ratio (y) = 0.23922 -0.06523
# Poissons Ratio (z) = 0.49397 -0.09809
#
# Static dielectric constant tensor:
#      x y z
#    x 1.763330 0.013050 -0.059210 
#    y 0.013050 1.783160 0.010090 
#    z -0.059210 0.010090 1.890570 
# 
# From -- ./inp_files/313525.got.cif
#   From: 2010.05.17/outbox.cif.g08.bks.cpg/sg2_157_cif.got.tgz:313525.got - 2010.06.03 11:33:40.
