data_PCOD9027470
_publ_section_title
;
Structure prediction by ZEFSAII (Michael W. Deem and Ramdas Pophale) SiO2 
 PCOD9027470
Probable space group: P -1
;
_chemical_formula_sum "Si O2"
_cell_formula_units_Z 14
_cell_length_a 11.454816
_cell_length_b 6.164173
_cell_length_c 10.631680
_cell_angle_alpha 64.685182
_cell_angle_beta 114.808070
_cell_angle_gamma 80.112548
_cell_volume 556.741489
_symmetry_space_group_name_H-M "P -1"
_symmetry_group_IT_number 2
_symmetry_cell_setting 'triclinic'
loop_
_space_group_symop_operation_xyz
x,y,z
-x,-y,-z
loop_
_atom_site_type_symbol
_atom_site_label
_atom_site_fract_x
_atom_site_fract_y
_atom_site_fract_z
Si Si1 0.301608 0.662365 0.802009
Si Si2 0.362531 0.276584 0.344838
Si Si3 0.128202 0.129560 0.298614
Si Si4 0.658385 0.207608 0.729333
Si Si5 0.048271 0.558017 0.640988
Si Si6 0.130824 0.961035 0.899534
Si Si7 0.533245 0.827100 0.841165
O O1 0.187970 0.611573 0.680492
O O2 0.228435 0.831131 0.852350
O O3 0.384596 0.821009 0.740863
O O4 0.412169 0.360298 0.966282
O O5 0.202415 0.331308 0.290997
O O6 0.402930 0.482000 0.382500
O O7 0.358785 0.328215 0.181962
O O8 0.500000 0.000000 0.500000
O O9 0.061230 0.186354 0.394435
O O10 0.997797 0.126820 0.158047
O O11 0.264111 0.910784 0.338960
O O12 0.551033 0.097984 0.771628
O O13 0.783435 0.127222 0.910829
O O14 0.000000 0.500000 0.500000
O O15 0.082724 0.280043 0.796609
#
# Coordination Sequence:
#
# PCOD9027470 Si02
#       7
#     2   2   2   2   2   2   2
#     4  10  22  42  68 104 142 184 236 291 340 419
#     4  11  25  44  68 103 144 184 234 290 358 418
#     4  10  25  42  69  98 141 182 236 289 352 414
#     4  11  22  42  71 105 138 186 235 290 355 422
#     4  11  25  44  68 103 143 186 238 289 354 413
#     4  11  22  40  69 102 139 185 235 288 354 415
#     4  10  22  41  68 102 144 182 236 285 348 418
#
# _framework density 25.146324
#
# number of rings (size 3 to 8) (size 9 to 14) (size 15 to 20)
#    0.000    1.429    2.857    1.286    0.000    9.714 
#    0.000    1.429    0.000    2.571    0.000    0.000 
#    0.000    0.000    0.000    0.000    0.000    0.000 
#
# Total GULP energy -78035.589473 kJ/mol
# GULP energy per Si atom -5573.970677 kJ/mol
# Density = 2.508909 g / cm^3
# Si number density = 25.146324 Si / 1000 Ang^3
#
#
#
# Elastic Constant Matrix: (Units=GPa)
#
#
# Indices 1 2 3 4 5 6 
#
# 1 172.6276 37.0909 31.7353 5.4624 25.7004 54.9461
# 2 37.0909 125.4382 52.0964 -5.5046 2.2400 39.7487
# 3 31.7353 52.0964 68.2769 1.1300 8.6159 17.9556
# 4 5.4624 -5.5046 1.1300 49.2802 8.7864 5.7802
# 5 25.7004 2.2400 8.6159 8.7864 24.2040 20.2127
# 6 54.9461 39.7487 17.9556 5.7802 20.2127 53.1966
#
#
#
# Elastic Compliance Matrix: (Units=1/GPa)
#
#
# Indices 1 2 3 4 5 6 
#
# 1 0.009046 0.001301 -0.002675 0.000521 -0.001545 -0.008882
# 2 0.001301 0.016985 -0.011206 0.001427 0.013489 -0.015534
# 3 -0.002675 -0.011206 0.023898 -0.000486 -0.010342 0.007052
# 4 0.000521 0.001427 -0.000486 0.021885 -0.007717 -0.000886
# 5 -0.001545 0.013489 -0.010342 -0.007717 0.075670 -0.032906
# 6 -0.008882 -0.015534 0.007052 -0.000886 -0.032906 0.049799
#
#
# Mechanical properties :
#
#
# Convention : Reuss Voigt Hill
#
# Bulk Modulus (GPa) = 40.37093 67.57644 53.97368
# Shear Modulus (GPa) = 21.67334 41.69749 31.68541
#
# Velocity S-wave (km/s) = 2.93898 4.07651 3.55356
# Velocity P-wave (km/s) = 5.25415 7.00635 6.19253
#
# Compressibility (1/GPa) = 0.02477030
#
# Stress axis : x y z
#
# Youngs Moduli (GPa) = 110.55034 58.87500 41.84401
#
# Poissons Ratio (x) = -0.07662 0.11194
# Poissons Ratio (y) = -0.14388 0.46889
# Poissons Ratio (z) = 0.29575 0.65973
#
# Static dielectric constant tensor:
#      x y z
#    x 1.977050 0.108620 -0.022060 
#    y 0.108620 2.130980 -0.047990 
#    z -0.022060 -0.047990 2.175260 
# 
# From -- ./inp_files/410138.got.cif
#   From: 2010.05.17/outbox.cif.g08.bks.cpg/sg2_206_cif.got.tgz:410138.got - 2010.06.03 11:33:40.
