data_PCOD9027620
_publ_section_title
;
Structure prediction by ZEFSAII (Michael W. Deem and Ramdas Pophale) SiO2 
 PCOD9027620
Probable space group: P -1
;
_chemical_formula_sum "Si O2"
_cell_formula_units_Z 16
_cell_length_a 11.411392
_cell_length_b 18.923309
_cell_length_c 16.827295
_cell_angle_alpha 157.259035
_cell_angle_beta 133.454012
_cell_angle_gamma 35.021815
_cell_volume 767.901953
_symmetry_space_group_name_H-M "P -1"
_symmetry_group_IT_number 2
_symmetry_cell_setting 'triclinic'
loop_
_space_group_symop_operation_xyz
x,y,z
-x,-y,-z
loop_
_atom_site_type_symbol
_atom_site_label
_atom_site_fract_x
_atom_site_fract_y
_atom_site_fract_z
Si Si1 0.435918 0.395570 0.602187
Si Si2 0.155222 0.006663 0.710031
Si Si3 0.750774 0.338116 0.468092
Si Si4 0.750354 0.766065 0.880892
Si Si5 0.104798 0.435128 0.596790
Si Si6 0.437134 0.246493 0.696439
Si Si7 0.919185 0.183464 0.224833
Si Si8 0.677666 0.358516 0.822093
O O1 0.636851 0.129479 0.389573
O O2 0.243158 0.427054 0.585145
O O3 0.321302 0.579426 0.666422
O O4 0.534237 0.455594 0.776937
O O5 0.187550 0.799543 0.562940
O O6 0.930722 0.169372 0.728802
O O7 0.154812 0.169168 0.942389
O O8 0.500000 0.500000 0.500000
O O9 0.786627 0.528828 0.677379
O O10 0.891978 0.138538 0.256468
O O11 0.872545 0.691369 0.775915
O O12 0.500000 0.000000 0.000000
O O13 0.240427 0.365189 0.667530
O O14 0.068436 0.250804 0.369323
O O15 0.614959 0.225598 0.706916
O O16 0.500000 0.000000 0.500000
O O17 0.379666 0.422817 0.925087
O O18 0.000000 0.000000 0.000000
#
# Coordination Sequence:
#
# PCOD9027620 Si02
#       8
#     2   2   2   2   2   2   2   2
#     4  11  24  44  61  94 138 168 215 264 326 395
#     4  12  23  43  67  93 134 171 218 269 318 393
#     4  11  23  41  62  98 125 166 223 263 322 384
#     4  11  22  39  67  94 127 168 214 269 321 381
#     4  10  23  43  63  97 125 171 220 260 330 385
#     4  10  22  41  68  97 129 166 221 271 313 389
#     4  11  25  38  65  96 128 169 208 275 332 379
#     4  10  24  40  68  97 126 178 213 262 332 381
#
# _framework density 20.835995
#
# number of rings (size 3 to 8) (size 9 to 14) (size 15 to 20)
#    0.000    1.250    3.750    1.500    7.000    1.000 
#    0.000    0.000    0.000    3.750    0.000    0.000 
#    0.000    0.000    0.000    0.000    0.000    0.000 
#
# Total GULP energy -89403.904597 kJ/mol
# GULP energy per Si atom -5587.744037 kJ/mol
# Density = 2.078857 g / cm^3
# Si number density = 20.835995 Si / 1000 Ang^3
#
#
#
# Elastic Constant Matrix: (Units=GPa)
#
#
# Indices 1 2 3 4 5 6 
#
# 1 91.8454 25.5618 40.6599 3.1433 -15.7523 -15.3719
# 2 25.5618 53.1672 2.1601 -10.7031 2.5291 -18.3244
# 3 40.6599 2.1601 111.9516 -18.5969 -2.6197 -16.1350
# 4 3.1433 -10.7031 -18.5969 33.7164 -1.6127 -5.9335
# 5 -15.7523 2.5291 -2.6197 -1.6127 38.7760 7.7152
# 6 -15.3719 -18.3244 -16.1350 -5.9335 7.7152 37.2699
#
#
#
# Elastic Compliance Matrix: (Units=1/GPa)
#
#
# Indices 1 2 3 4 5 6 
#
# 1 0.020417 -0.015072 -0.010160 -0.013148 0.009527 -0.007453
# 2 -0.015072 0.039596 0.012068 0.024432 -0.011811 0.024811
# 3 -0.010160 0.012068 0.016743 0.015978 -0.005646 0.012704
# 4 -0.013148 0.024432 0.015978 0.051169 -0.008381 0.023389
# 5 0.009527 -0.011811 -0.005646 -0.008381 0.032149 -0.012311
# 6 -0.007453 0.024811 0.012704 0.023389 -0.012311 0.047728
#
#
# Mechanical properties :
#
#
# Convention : Reuss Voigt Hill
#
# Bulk Modulus (GPa) = 19.83004 43.74753 31.78879
# Shear Modulus (GPa) = 19.92522 34.52462 27.22492
#
# Velocity S-wave (km/s) = 3.09575 4.07501 3.61865
# Velocity P-wave (km/s) = 4.72399 6.57135 5.72270
#
# Compressibility (1/GPa) = 0.05042853
#
# Stress axis : x y z
#
# Youngs Moduli (GPa) = 48.97943 25.25497 59.72797
#
# Poissons Ratio (x) = 0.38064 0.60681
# Poissons Ratio (y) = 0.73821 -0.72080
# Poissons Ratio (z) = 0.49761 -0.30478
#
# Static dielectric constant tensor:
#      x y z
#    x 1.800370 -0.007500 -0.020840 
#    y -0.007500 1.850750 0.023470 
#    z -0.020840 0.023470 1.747390 
# 
# From -- ./inp_files/460949.got.cif
#   From: 2010.05.17/outbox.cif.g08.bks.cpg/sg2_231_cif.got.tgz:460949.got - 2010.06.03 11:33:40.
