data_PCOD9027459
_publ_section_title
;
Structure prediction by ZEFSAII (Michael W. Deem and Ramdas Pophale) SiO2 
 PCOD9027459
Probable space group: P -1
;
_chemical_formula_sum "Si O2"
_cell_formula_units_Z 16
_cell_length_a 14.377882
_cell_length_b 20.468607
_cell_length_c 10.375878
_cell_angle_alpha 150.308052
_cell_angle_beta 136.418674
_cell_angle_gamma 28.793269
_cell_volume 719.751754
_symmetry_space_group_name_H-M "P -1"
_symmetry_group_IT_number 2
_symmetry_cell_setting 'triclinic'
loop_
_space_group_symop_operation_xyz
x,y,z
-x,-y,-z
loop_
_atom_site_type_symbol
_atom_site_label
_atom_site_fract_x
_atom_site_fract_y
_atom_site_fract_z
Si Si1 0.738596 0.374013 0.880342
Si Si2 0.140469 0.321512 0.607757
Si Si3 0.788069 0.413188 0.422087
Si Si4 0.445138 0.076928 0.264943
Si Si5 0.477459 0.610633 0.789026
Si Si6 0.932383 0.658865 0.809887
Si Si7 0.524408 0.290643 0.603417
Si Si8 0.348785 0.287019 0.997566
O O1 0.666492 0.455219 0.803187
O O2 0.710476 0.240352 0.654545
O O3 0.576089 0.562667 0.127149
O O4 0.939163 0.300668 0.994367
O O5 0.317541 0.205512 0.484665
O O6 0.223297 0.289124 0.776423
O O7 0.013500 0.279245 0.383853
O O8 0.988775 0.546132 0.805097
O O9 0.708989 0.320730 0.206499
O O10 0.640948 0.579637 0.452575
O O11 0.763259 0.516451 0.704690
O O12 0.287803 0.157909 0.134920
O O13 0.561471 0.120127 0.403383
O O14 0.563815 0.868107 0.071800
O O15 0.500000 0.500000 0.500000
O O16 0.485589 0.754027 0.991573
O O17 0.000000 0.500000 0.500000
#
# Coordination Sequence:
#
# PCOD9027459 Si02
#       8
#     2   2   2   2   2   2   2   2
#     4  10  17  31  58  81 105 147 194 230 261 326
#     4  11  19  36  57  83 108 146 195 228 269 336
#     4  10  21  36  58  80 110 148 194 231 264 337
#     4  11  21  35  56  85 118 141 180 242 288 320
#     4   9  19  36  56  81 111 149 194 224 273 336
#     4  10  17  32  54  81 109 141 186 226 265 324
#     4  10  18  32  53  83 110 141 187 230 277 323
#     4  11  22  36  56  83 115 150 181 231 292 328
#
# _framework density 22.229886
#
# number of rings (size 3 to 8) (size 9 to 14) (size 15 to 20)
#    0.000    1.750    5.000    1.500    0.000    0.500 
#    0.000    1.875    0.000    6.750    0.000    0.000 
#    0.000    0.000    0.000    0.000    0.000    0.000 
#
# Total GULP energy -89317.941607 kJ/mol
# GULP energy per Si atom -5582.371350 kJ/mol
# Density = 2.217929 g / cm^3
# Si number density = 22.229886 Si / 1000 Ang^3
#
#
#
# Elastic Constant Matrix: (Units=GPa)
#
#
# Indices 1 2 3 4 5 6 
#
# 1 84.7341 15.6834 41.0391 -0.5858 38.4515 2.9155
# 2 15.6834 66.5311 37.5179 -16.0557 15.7970 5.9911
# 3 41.0391 37.5179 68.5933 -20.2180 26.7695 -2.1161
# 4 -0.5858 -16.0557 -20.2180 35.0766 1.8531 5.2481
# 5 38.4515 15.7970 26.7695 1.8531 62.4300 -12.7700
# 6 2.9155 5.9911 -2.1161 5.2481 -12.7700 25.5907
#
#
#
# Elastic Compliance Matrix: (Units=1/GPa)
#
#
# Indices 1 2 3 4 5 6 
#
# 1 0.022766 0.004938 -0.012803 -0.002597 -0.011782 -0.010155
# 2 0.004938 0.025242 -0.012573 0.006573 -0.006732 -0.012219
# 3 -0.012803 -0.012573 0.034726 0.013856 -0.003706 0.002582
# 4 -0.002597 0.006573 0.013856 0.042049 -0.010064 -0.013743
# 5 -0.011782 -0.006732 -0.003706 -0.010064 0.030985 0.020138
# 6 -0.010155 -0.012219 0.002582 -0.013743 0.020138 0.056175
#
#
# Mechanical properties :
#
#
# Convention : Reuss Voigt Hill
#
# Bulk Modulus (GPa) = 23.88980 45.37101 34.63040
# Shear Modulus (GPa) = 18.74268 32.99400 25.86834
#
# Velocity S-wave (km/s) = 2.90682 3.85673 3.41497
# Velocity P-wave (km/s) = 4.69427 6.34719 5.58225
#
# Compressibility (1/GPa) = 0.04185887
#
# Stress axis : x y z
#
# Youngs Moduli (GPa) = 43.92446 39.61723 28.79715
#
# Poissons Ratio (x) = -0.19564 0.36868
# Poissons Ratio (y) = -0.21691 0.36206
# Poissons Ratio (z) = 0.56235 0.49810
#
# Static dielectric constant tensor:
#      x y z
#    x 1.931060 -0.027400 0.036540 
#    y -0.027400 1.804320 -0.003940 
#    z 0.036540 -0.003940 1.856420 
# 
# From -- ./inp_files/319204.got.cif
#   From: 2010.05.17/outbox.cif.g08.bks.cpg/sg2_160_cif.got.tgz:319204.got - 2010.06.03 11:33:40.
