data_PCOD9027594
_publ_section_title
;
Structure prediction by ZEFSAII (Michael W. Deem and Ramdas Pophale) SiO2 
 PCOD9027594
Probable space group: P -1
;
_chemical_formula_sum "Si O2"
_cell_formula_units_Z 11
_cell_length_a 12.326249
_cell_length_b 15.627948
_cell_length_c 14.511292
_cell_angle_alpha 160.623171
_cell_angle_beta 32.496157
_cell_angle_gamma 149.498815
_cell_volume 462.887076
_symmetry_space_group_name_H-M "P -1"
_symmetry_group_IT_number 2
_symmetry_cell_setting 'triclinic'
loop_
_space_group_symop_operation_xyz
x,y,z
-x,-y,-z
loop_
_atom_site_type_symbol
_atom_site_label
_atom_site_fract_x
_atom_site_fract_y
_atom_site_fract_z
Si Si1 0.960001 0.740264 0.327315
Si Si2 0.033701 0.254786 0.167319
Si Si3 0.509034 0.447586 0.812697
Si Si4 0.776038 0.179206 0.595457
Si Si5 0.500000 0.500000 0.500000
Si Si6 0.779079 0.468172 0.452587
O O1 0.713876 0.633725 0.425152
O O2 0.114324 0.827324 0.392404
O O3 0.000000 0.000000 0.500000
O O4 0.000000 0.500000 0.000000
O O5 0.288860 0.382450 0.093789
O O6 0.000000 0.500000 0.500000
O O7 0.863543 0.220067 0.170739
O O8 0.000000 0.000000 0.000000
O O9 0.620654 0.481705 0.664147
O O10 0.408924 0.126739 0.589289
O O11 0.334607 0.593458 0.086725
O O12 0.981781 0.281243 0.480713
O O13 0.650993 0.436466 0.416568
#
# Coordination Sequence:
#
# PCOD9027594 Si02
#       6
#     2   2   2   2   1   2
#     4  11  23  41  63  92 130 171 219 265 314 388
#     4  10  22  41  68  96 127 172 217 264 326 387
#     4  11  23  43  66  93 133 171 209 271 327 376
#     4  11  24  39  65  98 125 170 219 260 328 389
#     4  10  22  42  68  96 130 176 212 270 332 376
#     4  10  23  42  66  97 133 168 221 269 320 393
#
# _framework density 23.763892999999999
#
# number of rings (size 3 to 8) (size 9 to 14) (size 15 to 20)
#    0.000    1.455    0.000    5.455    0.000    6.545 
#    0.000    7.273    0.000    0.000    0.000    0.000 
#    0.000    0.000    0.000    0.000    0.000    0.000 
#
# Total GULP energy -61240.898023 kJ/mol
# GULP energy per Si atom -5567.354366 kJ/mol
# Density = 2.370981 g / cm^3
# Si number density = 23.763893 Si / 1000 Ang^3
#
#
#
# Elastic Constant Matrix: (Units=GPa)
#
#
# Indices 1 2 3 4 5 6 
#
# 1 147.4471 62.5759 36.8113 -9.9971 -46.8471 -17.7784
# 2 62.5759 192.1113 76.5606 -6.1791 -19.7596 -26.0512
# 3 36.8113 76.5606 109.8687 12.4034 -33.6864 -23.8347
# 4 -9.9971 -6.1791 12.4034 39.0398 0.5560 -9.8757
# 5 -46.8471 -19.7596 -33.6864 0.5560 44.3284 -5.6644
# 6 -17.7784 -26.0512 -23.8347 -9.8757 -5.6644 53.0399
#
#
#
# Elastic Compliance Matrix: (Units=1/GPa)
#
#
# Indices 1 2 3 4 5 6 
#
# 1 0.013601 -0.003233 0.004079 0.003260 0.016914 0.007218
# 2 -0.003233 0.008489 -0.006505 0.002692 -0.004587 0.000174
# 3 0.004079 -0.006505 0.019985 -0.004511 0.017703 0.008204
# 4 0.003260 0.002692 -0.004511 0.029833 0.001624 0.006116
# 5 0.016914 -0.004587 0.017703 0.001624 0.054052 0.017447
# 6 0.007218 0.000174 0.008204 0.006116 0.017447 0.028047
#
#
# Mechanical properties :
#
#
# Convention : Reuss Voigt Hill
#
# Bulk Modulus (GPa) = 32.51150 89.03585 60.77368
# Shear Modulus (GPa) = 28.47784 45.51359 36.99571
#
# Velocity S-wave (km/s) = 3.46550 4.38109 3.94992
# Velocity P-wave (km/s) = 5.45194 7.94608 6.81410
#
# Compressibility (1/GPa) = 0.03075834
#
# Stress axis : x y z
#
# Youngs Moduli (GPa) = 73.52507 117.79954 50.03806
#
# Poissons Ratio (x) = 0.38079 -0.20412
# Poissons Ratio (y) = 0.23767 0.32549
# Poissons Ratio (z) = -0.29993 0.76627
#
# Static dielectric constant tensor:
#      x y z
#    x 2.004300 0.019060 0.033310 
#    y 0.019060 1.866340 -0.010250 
#    z 0.033310 -0.010250 1.938350 
# 
# From -- ./inp_files/86150.got.cif
#   From: 2010.05.17/outbox.cif.g08.bks.cpg/sg2_44_cif.got.tgz:86150.got - 2010.06.03 11:33:40.
