data_PCOD9027550
_publ_section_title
;
Structure prediction by ZEFSAII (Michael W. Deem and Ramdas Pophale) SiO2 
 PCOD9027550
Probable space group: P -1
;
_chemical_formula_sum "Si O2"
_cell_formula_units_Z 12
_cell_length_a 5.506779
_cell_length_b 14.879425
_cell_length_c 12.582761
_cell_angle_alpha 37.248327
_cell_angle_beta 64.178291
_cell_angle_gamma 69.525313
_cell_volume 561.719182
_symmetry_space_group_name_H-M "P -1"
_symmetry_group_IT_number 2
_symmetry_cell_setting 'triclinic'
loop_
_space_group_symop_operation_xyz
x,y,z
-x,-y,-z
loop_
_atom_site_type_symbol
_atom_site_label
_atom_site_fract_x
_atom_site_fract_y
_atom_site_fract_z
Si Si1 0.854467 0.871011 0.527693
Si Si2 0.404048 0.957461 0.397070
Si Si3 0.012357 0.320608 0.674994
Si Si4 0.282274 0.421273 0.041486
Si Si5 0.507053 0.178912 0.816428
Si Si6 0.456849 0.744362 0.033481
O O1 0.667660 0.866477 0.464511
O O2 0.794567 0.729970 0.742838
O O3 0.171997 0.887576 0.435163
O O4 0.748460 0.008952 0.492182
O O5 0.501321 0.106716 0.181791
O O6 0.813820 0.243429 0.698243
O O7 0.851368 0.279546 0.852670
O O8 0.000000 0.500000 0.500000
O O9 0.307552 0.246394 0.701890
O O10 0.500000 0.500000 0.000000
O O11 0.423238 0.386712 0.935469
O O12 0.000000 0.500000 0.000000
O O13 0.404234 0.240046 0.893186
O O14 0.500000 0.000000 0.000000
#
# Coordination Sequence:
#
# PCOD9027550 Si02
#       6
#     2   2   2   2   2   2
#     4   9  18  32  52  77 113 148 194 244 284 344
#     4   9  17  32  54  81 106 149 193 242 298 346
#     4  10  22  41  68  94 131 168 209 268 333 389
#     4  11  23  38  58  86 127 169 207 246 299 381
#     4  10  22  41  68  94 124 163 216 268 327 382
#     4   9  24  36  68  84 127 162 212 251 327 366
#
# _framework density 21.362988999999999
#
# number of rings (size 3 to 8) (size 9 to 14) (size 15 to 20)
#    1.000    1.333    0.000    2.000    4.667    2.667 
#    0.000    5.000    0.000    0.000    0.000    0.000 
#    0.000    0.000    0.000    0.000    0.000    0.000 
#
# Total GULP energy -66853.825969 kJ/mol
# GULP energy per Si atom -5571.152164 kJ/mol
# Density = 2.131437 g / cm^3
# Si number density = 21.362989 Si / 1000 Ang^3
#
#
#
# Elastic Constant Matrix: (Units=GPa)
#
#
# Indices 1 2 3 4 5 6 
#
# 1 226.2750 33.6813 45.6222 -18.1576 -7.8820 -6.6259
# 2 33.6813 63.3198 -6.9899 -3.4467 -13.0836 10.0960
# 3 45.6222 -6.9899 73.6140 -12.2250 -17.9201 0.8365
# 4 -18.1576 -3.4467 -12.2250 31.0253 3.5806 -3.5521
# 5 -7.8820 -13.0836 -17.9201 3.5806 27.8732 0.6716
# 6 -6.6259 10.0960 0.8365 -3.5521 0.6716 19.5895
#
#
#
# Elastic Compliance Matrix: (Units=1/GPa)
#
#
# Indices 1 2 3 4 5 6 
#
# 1 0.006638 -0.006043 -0.005594 0.002295 -0.005000 0.006186
# 2 -0.006043 0.026652 0.010848 -0.000343 0.018228 -0.016930
# 3 -0.005594 0.010848 0.023267 0.004047 0.018151 -0.008365
# 4 0.002295 -0.000343 0.004047 0.036179 -0.001736 0.007400
# 5 -0.005000 0.018228 0.018151 -0.001736 0.055251 -0.014069
# 6 0.006186 -0.016930 -0.008365 0.007400 -0.014069 0.064047
#
#
# Mechanical properties :
#
#
# Convention : Reuss Voigt Hill
#
# Bulk Modulus (GPa) = 18.18840 56.42623 37.30732
# Shear Modulus (GPa) = 21.55770 35.09062 28.32416
#
# Velocity S-wave (km/s) = 3.18010 4.05728 3.64518
# Velocity P-wave (km/s) = 4.69218 6.95839 5.93446
#
# Compressibility (1/GPa) = 0.05498009
#
# Stress axis : x y z
#
# Youngs Moduli (GPa) = 150.65132 37.52080 42.97959
#
# Poissons Ratio (x) = 0.22673 0.24042
# Poissons Ratio (y) = 0.91035 -0.46626
# Poissons Ratio (z) = 0.84273 -0.40704
#
# Static dielectric constant tensor:
#      x y z
#    x 1.979010 -0.299010 -0.160470 
#    y -0.299010 2.352730 0.229890 
#    z -0.160470 0.229890 1.838890 
# 
# From -- ./inp_files/483774.got.cif
#   From: 2010.05.17/outbox.cif.g08.bks.cpg/sg2_242_cif.got.tgz:483774.got - 2010.06.03 11:33:40.
