data_PCOD9027956
_publ_section_title
;
Structure prediction by ZEFSAII (Michael W. Deem and Ramdas Pophale) SiO2 
 PCOD9027956
Probable space group: P -1
;
_chemical_formula_sum "Si O2"
_cell_formula_units_Z 14
_cell_length_a 11.294047
_cell_length_b 9.368061
_cell_length_c 9.175910
_cell_angle_alpha 131.559040
_cell_angle_beta 124.074048
_cell_angle_gamma 63.631939
_cell_volume 597.605945
_symmetry_space_group_name_H-M "P -1"
_symmetry_group_IT_number 2
_symmetry_cell_setting 'triclinic'
loop_
_space_group_symop_operation_xyz
x,y,z
-x,-y,-z
loop_
_atom_site_type_symbol
_atom_site_label
_atom_site_fract_x
_atom_site_fract_y
_atom_site_fract_z
Si Si1 0.860103 0.383913 0.314375
Si Si2 0.724074 0.822653 0.197616
Si Si3 0.364864 0.572249 0.058932
Si Si4 0.287480 0.454849 0.413426
Si Si5 0.058581 0.300861 0.982538
Si Si6 0.029949 0.056872 0.390257
Si Si7 0.593469 0.231961 0.483115
O O1 0.781382 0.368834 0.095283
O O2 0.729458 0.480912 0.389532
O O3 0.000000 0.500000 0.500000
O O4 0.913514 0.185802 0.301746
O O5 0.655319 0.626992 0.009542
O O6 0.836952 0.821369 0.409585
O O7 0.624723 0.017894 0.296576
O O8 0.815250 0.813885 0.106143
O O9 0.500000 0.500000 0.000000
O O10 0.390170 0.729172 0.306217
O O11 0.141824 0.361303 0.220096
O O12 0.430275 0.313353 0.389323
O O13 0.301726 0.637339 0.442511
O O14 0.000000 0.500000 0.000000
O O15 0.943962 0.149630 0.809272
O O16 0.000000 0.000000 0.500000
#
# Coordination Sequence:
#
# PCOD9027956 Si02
#       7
#     2   2   2   2   2   2   2
#     4  12  25  46  72 108 153 190 243 313 373 437
#     4  11  23  44  71 103 143 190 245 301 365 442
#     4  12  26  49  71 103 154 199 238 308 383 436
#     4  11  23  44  72 107 143 193 256 302 365 445
#     4  11  22  40  75 107 140 185 244 312 367 428
#     4  10  22  41  70 106 140 188 240 297 362 439
#     4  11  25  46  74 103 144 200 252 304 366 448
#
# _framework density 23.426808999999999
#
# number of rings (size 3 to 8) (size 9 to 14) (size 15 to 20)
#    0.000    0.857    4.286    4.286    0.000    2.286 
#    2.571    1.429    0.000    0.000    0.000    0.000 
#    0.000    0.000    0.000    0.000    0.000    0.000 
#
# Total GULP energy -78152.732812 kJ/mol
# GULP energy per Si atom -5582.338058 kJ/mol
# Density = 2.337349 g / cm^3
# Si number density = 23.426809 Si / 1000 Ang^3
#
#
#
# Elastic Constant Matrix: (Units=GPa)
#
#
# Indices 1 2 3 4 5 6 
#
# 1 68.7595 11.9821 0.5371 -0.9785 -20.0518 -5.2331
# 2 11.9821 113.2160 25.5516 3.8173 -12.5218 -22.5215
# 3 0.5371 25.5516 84.9155 -5.7756 -12.2060 -1.5671
# 4 -0.9785 3.8173 -5.7756 37.5149 -6.3765 -1.2158
# 5 -20.0518 -12.5218 -12.2060 -6.3765 41.2403 2.5019
# 6 -5.2331 -22.5215 -1.5671 -1.2158 2.5019 32.0992
#
#
#
# Elastic Compliance Matrix: (Units=1/GPa)
#
#
# Indices 1 2 3 4 5 6 
#
# 1 0.017474 -0.000992 0.001668 0.002389 0.008959 0.001626
# 2 -0.000992 0.011329 -0.003146 -0.001184 0.001390 0.007480
# 3 0.001668 -0.003146 0.013538 0.003154 0.004442 -0.001501
# 4 0.002389 -0.001184 0.003154 0.028372 0.006104 0.000311
# 5 0.008959 0.001390 0.004442 0.006104 0.031257 0.000447
# 6 0.001626 0.007480 -0.001501 0.000311 0.000447 0.036571
#
#
# Mechanical properties :
#
#
# Convention : Reuss Voigt Hill
#
# Bulk Modulus (GPa) = 26.73620 38.11472 32.42546
# Shear Modulus (GPa) = 32.06228 37.42558 34.74393
#
# Velocity S-wave (km/s) = 3.70349 4.00128 3.85526
# Velocity P-wave (km/s) = 5.45209 6.13612 5.80419
#
# Compressibility (1/GPa) = 0.03740247
#
# Stress axis : x y z
#
# Youngs Moduli (GPa) = 57.22846 88.26730 73.86804
#
# Poissons Ratio (x) = 0.08756 -0.12324
# Poissons Ratio (y) = 0.05677 0.23235
# Poissons Ratio (z) = -0.09548 0.27764
#
# Static dielectric constant tensor:
#      x y z
#    x 1.841330 -0.038660 0.063140 
#    y -0.038660 1.871760 0.024400 
#    z 0.063140 0.024400 1.951820 
# 
# From -- ./inp_files/246178.got.cif
#   From: 2010.05.17/outbox.cif.g08.bks.cpg/sg2_124_cif.got.tgz:246178.got - 2010.06.03 11:33:40.
