data_PCOD9027987
_publ_section_title
;
Structure prediction by ZEFSAII (Michael W. Deem and Ramdas Pophale) SiO2 
 PCOD9027987
Probable space group: P -1
;
_chemical_formula_sum "Si O2"
_cell_formula_units_Z 16
_cell_length_a 14.228050
_cell_length_b 9.150480
_cell_length_c 11.213197
_cell_angle_alpha 76.541397
_cell_angle_beta 30.632222
_cell_angle_gamma 76.743349
_cell_volume 722.177222
_symmetry_space_group_name_H-M "P -1"
_symmetry_group_IT_number 2
_symmetry_cell_setting 'triclinic'
loop_
_space_group_symop_operation_xyz
x,y,z
-x,-y,-z
loop_
_atom_site_type_symbol
_atom_site_label
_atom_site_fract_x
_atom_site_fract_y
_atom_site_fract_z
Si Si1 0.766487 0.165130 0.660807
Si Si2 0.203000 0.025181 0.821995
Si Si3 0.354091 0.324174 0.486849
Si Si4 0.156081 0.172058 0.341271
Si Si5 0.741723 0.788561 0.051661
Si Si6 0.385180 0.716108 0.590635
Si Si7 0.887474 0.383582 0.278525
Si Si8 0.557104 0.667253 0.879460
O O1 0.805542 0.270062 0.486165
O O2 0.936205 0.182655 0.564006
O O3 0.779434 0.990163 0.644629
O O4 0.579042 0.218894 0.919747
O O5 0.279676 0.169351 0.644759
O O6 0.208805 0.070304 0.946354
O O7 0.325148 0.875622 0.686160
O O8 0.000000 0.000000 0.000000
O O9 0.503268 0.376480 0.410695
O O10 0.186007 0.449518 0.638664
O O11 0.447883 0.304361 0.260604
O O12 0.238734 0.303117 0.302135
O O13 0.233864 0.179053 0.119948
O O14 0.537591 0.746104 0.317564
O O15 0.894321 0.656680 0.947832
O O16 0.205792 0.652617 0.738834
O O17 0.500000 0.500000 0.000000
#
# Coordination Sequence:
#
# PCOD9027987 Si02
#       8
#     2   2   2   2   2   2   2   2
#     4  10  23  43  69  99 132 177 234 268 336 404
#     4  11  24  45  68 101 131 174 220 285 331 396
#     4  11  26  43  65  99 137 176 224 269 339 398
#     4  10  24  42  70  98 129 187 222 280 336 394
#     4  10  22  41  70  94 134 166 227 271 332 393
#     4  11  24  43  68  95 131 169 224 271 336 395
#     4  11  22  45  65  98 134 175 219 275 331 404
#     4  12  25  45  66 100 141 175 225 280 335 396
#
# _framework density 22.155227
#
# number of rings (size 3 to 8) (size 9 to 14) (size 15 to 20)
#    0.000    1.250    2.500    3.000    5.250    3.500 
#    2.250    0.000    0.000    0.000    0.000    0.000 
#    0.000    0.000    0.000    0.000    0.000    0.000 
#
# Total GULP energy -89574.466738 kJ/mol
# GULP energy per Si atom -5598.404171 kJ/mol
# Density = 2.210480 g / cm^3
# Si number density = 22.155227 Si / 1000 Ang^3
#
#
#
# Elastic Constant Matrix: (Units=GPa)
#
#
# Indices 1 2 3 4 5 6 
#
# 1 54.5732 9.3364 7.9241 -11.8698 2.4657 2.5817
# 2 9.3364 82.5838 1.5615 7.8276 -11.3200 -6.9888
# 3 7.9241 1.5615 51.2474 9.9199 -5.8372 -10.0879
# 4 -11.8698 7.8276 9.9199 35.1246 -4.0649 -10.8602
# 5 2.4657 -11.3200 -5.8372 -4.0649 39.0905 -3.5033
# 6 2.5817 -6.9888 -10.0879 -10.8602 -3.5033 25.1240
#
#
#
# Elastic Compliance Matrix: (Units=1/GPa)
#
#
# Indices 1 2 3 4 5 6 
#
# 1 0.021952 -0.003751 -0.005714 0.008920 -0.002585 -0.002098
# 2 -0.003751 0.013789 0.002145 -0.003047 0.004628 0.004411
# 3 -0.005714 0.002145 0.023740 -0.005831 0.004714 0.008853
# 4 0.008920 -0.003047 -0.005831 0.038072 0.002785 0.012740
# 5 -0.002585 0.004628 0.004714 0.002785 0.028856 0.008673
# 6 -0.002098 0.004411 0.008853 0.012740 0.008673 0.051516
#
#
# Mechanical properties :
#
#
# Convention : Reuss Voigt Hill
#
# Bulk Modulus (GPa) = 22.30140 25.11650 23.70895
# Shear Modulus (GPa) = 24.09522 31.17330 27.63426
#
# Velocity S-wave (km/s) = 3.30140 3.75512 3.53555
# Velocity P-wave (km/s) = 4.96187 5.49204 5.23367
#
# Compressibility (1/GPa) = 0.04484023
#
# Stress axis : x y z
#
# Youngs Moduli (GPa) = 45.55484 72.52205 42.12383
#
# Poissons Ratio (x) = 0.27203 0.24069
# Poissons Ratio (y) = 0.17087 -0.09036
# Poissons Ratio (z) = 0.26030 -0.15556
#
# Static dielectric constant tensor:
#      x y z
#    x 1.814330 0.001820 -0.014680 
#    y 0.001820 1.798330 0.000290 
#    z -0.014680 0.000290 1.796370 
# 
# From -- ./inp_files/272594.got.cif
#   From: 2010.05.17/outbox.cif.g08.bks.cpg/sg2_137_cif.got.tgz:272594.got - 2010.06.03 11:33:40.
