data_PCOD9027755
_publ_section_title
;
Structure prediction by ZEFSAII (Michael W. Deem and Ramdas Pophale) SiO2 
 PCOD9027755
Probable space group: P -1
;
_chemical_formula_sum "Si O2"
_cell_formula_units_Z 16
_cell_length_a 5.473086
_cell_length_b 17.154458
_cell_length_c 10.300641
_cell_angle_alpha 120.270007
_cell_angle_beta 83.345048
_cell_angle_gamma 127.532824
_cell_volume 636.021824
_symmetry_space_group_name_H-M "P -1"
_symmetry_group_IT_number 2
_symmetry_cell_setting 'triclinic'
loop_
_space_group_symop_operation_xyz
x,y,z
-x,-y,-z
loop_
_atom_site_type_symbol
_atom_site_label
_atom_site_fract_x
_atom_site_fract_y
_atom_site_fract_z
Si Si1 0.778077 0.661050 0.879854
Si Si2 0.807597 0.949131 0.154351
Si Si3 0.309767 0.721946 0.399826
Si Si4 0.834252 0.219223 0.793214
Si Si5 0.524086 0.237580 0.170688
Si Si6 0.715031 0.561211 0.410299
Si Si7 0.831310 0.792432 0.583808
Si Si8 0.242840 0.004635 0.390970
O O1 0.610794 0.706718 0.853942
O O2 0.524424 0.521211 0.758926
O O3 0.110556 0.705964 0.828933
O O4 0.878989 0.708304 0.059763
O O5 0.494070 0.840311 0.157930
O O6 0.098995 0.967344 0.222112
O O7 0.704776 0.898488 0.974315
O O8 0.886323 0.071624 0.285352
O O9 0.151860 0.702752 0.253525
O O10 0.655954 0.756013 0.424887
O O11 0.057205 0.596624 0.386528
O O12 0.450041 0.858317 0.526262
O O13 0.758646 0.098857 0.651601
O O14 0.446443 0.239823 0.326164
O O15 0.500000 0.500000 0.500000
O O16 0.867555 0.696284 0.523655
O O17 0.000000 0.000000 0.500000
#
# Coordination Sequence:
#
# PCOD9027755 Si02
#       8
#     2   2   2   2   2   2   2   2
#     4  11  26  45  76  98 140 198 236 292 353 419
#     4  10  22  41  69 105 139 181 223 296 364 429
#     4  11  26  39  69 103 133 185 229 291 356 420
#     4  11  23  44  67 101 144 177 232 288 363 430
#     4  11  23  48  70 105 141 187 238 292 361 423
#     4  12  26  46  69  98 139 189 246 294 344 416
#     4  11  25  42  70 104 138 183 239 293 355 421
#     4  11  21  38  69 103 142 177 222 286 363 431
#
# _framework density 25.156369000000002
#
# number of rings (size 3 to 8) (size 9 to 14) (size 15 to 20)
#    0.000    1.000    3.750    2.250    5.250    1.500 
#    0.000    2.500    0.000    0.000    0.000    0.000 
#    0.000    0.000    0.000    0.000    0.000    0.000 
#
# Total GULP energy -89211.600493 kJ/mol
# GULP energy per Si atom -5575.725031 kJ/mol
# Density = 2.509911 g / cm^3
# Si number density = 25.156369 Si / 1000 Ang^3
#
#
#
# Elastic Constant Matrix: (Units=GPa)
#
#
# Indices 1 2 3 4 5 6 
#
# 1 64.9374 17.6069 11.4889 8.4096 8.3332 2.2748
# 2 17.6069 110.9276 34.6208 28.3687 23.3643 26.3321
# 3 11.4889 34.6208 115.3790 19.1406 28.1260 13.6588
# 4 8.4096 28.3687 19.1406 33.7404 5.2705 12.7529
# 5 8.3332 23.3643 28.1260 5.2705 38.4665 0.9243
# 6 2.2748 26.3321 13.6588 12.7529 0.9243 44.0908
#
#
#
# Elastic Compliance Matrix: (Units=1/GPa)
#
#
# Indices 1 2 3 4 5 6 
#
# 1 0.016467 -0.001679 -0.000354 -0.002582 -0.001960 0.001051
# 2 -0.001679 0.014294 -0.000446 -0.008090 -0.006744 -0.005831
# 3 -0.000354 -0.000446 0.011593 -0.004211 -0.007506 -0.001932
# 4 -0.002582 -0.008090 -0.004211 0.041149 0.003051 -0.005697
# 5 -0.001960 -0.006744 -0.007506 0.003051 0.035471 0.004828
# 6 0.001051 -0.005831 -0.001932 -0.005697 0.004828 0.028254
#
#
# Mechanical properties :
#
#
# Convention : Reuss Voigt Hill
#
# Bulk Modulus (GPa) = 26.74136 46.51969 36.63052
# Shear Modulus (GPa) = 30.36730 38.42802 34.39766
#
# Velocity S-wave (km/s) = 3.47816 3.91265 3.70179
# Velocity P-wave (km/s) = 5.17526 6.24052 5.73269
#
# Compressibility (1/GPa) = 0.03739526
#
# Stress axis : x y z
#
# Youngs Moduli (GPa) = 60.72920 69.95996 86.25870
#
# Poissons Ratio (x) = 0.11750 0.03054
# Poissons Ratio (y) = 0.10199 0.03844
# Poissons Ratio (z) = 0.02150 0.03117
#
# Static dielectric constant tensor:
#      x y z
#    x 2.611300 0.297030 -0.103550 
#    y 0.297030 2.207220 -0.134950 
#    z -0.103550 -0.134950 2.045750 
# 
# From -- ./inp_files/369448.got.cif
#   From: 2010.05.17/outbox.cif.g08.bks.cpg/sg2_185_cif.got.tgz:369448.got - 2010.06.03 11:33:40.
