data_PCOD9027588
_publ_section_title
;
Structure prediction by ZEFSAII (Michael W. Deem and Ramdas Pophale) SiO2 
 PCOD9027588
Probable space group: P -1
;
_chemical_formula_sum "Si O2"
_cell_formula_units_Z 14
_cell_length_a 5.693854
_cell_length_b 23.619187
_cell_length_c 7.907537
_cell_angle_alpha 44.136895
_cell_angle_beta 132.687789
_cell_angle_gamma 120.551493
_cell_volume 543.859227
_symmetry_space_group_name_H-M "P -1"
_symmetry_group_IT_number 2
_symmetry_cell_setting 'triclinic'
loop_
_space_group_symop_operation_xyz
x,y,z
-x,-y,-z
loop_
_atom_site_type_symbol
_atom_site_label
_atom_site_fract_x
_atom_site_fract_y
_atom_site_fract_z
Si Si1 0.396688 0.236489 0.242765
Si Si2 0.998517 0.522067 0.752038
Si Si3 0.420058 0.054614 0.000625
Si Si4 0.390589 0.333675 0.685624
Si Si5 0.685731 0.095821 0.543867
Si Si6 0.341192 0.372287 0.204413
Si Si7 0.270863 0.812891 0.950250
O O1 0.681633 0.176230 0.489250
O O2 0.409098 0.302634 0.253879
O O3 0.100412 0.174913 0.265673
O O4 0.314175 0.281263 0.929472
O O5 0.314721 0.576910 0.731491
O O6 0.687638 0.576749 0.470964
O O7 0.068335 0.435592 0.882761
O O8 0.000000 0.500000 0.000000
O O9 0.596040 0.142868 0.914092
O O10 0.504477 0.987784 0.327192
O O11 0.049187 0.071749 0.775626
O O12 0.500000 0.000000 0.000000
O O13 0.229564 0.338942 0.407073
O O14 0.686108 0.281752 0.870311
O O15 0.562252 0.134572 0.228511
#
# Coordination Sequence:
#
# PCOD9027588 Si02
#       7
#     2   2   2   2   2   2   2
#     4  11  25  43  67 102 138 177 225 282 333 405
#     4   9  20  41  66 100 131 180 227 275 331 402
#     4  11  25  44  70  96 132 180 221 282 344 400
#     4  10  23  40  65  98 135 175 225 273 333 398
#     4  10  25  44  65  98 132 177 227 273 343 403
#     4  10  22  41  68  95 138 180 222 276 341 393
#     4  11  25  43  65 101 135 173 229 281 331 411
#
# _framework density 25.741955000000001
#
# number of rings (size 3 to 8) (size 9 to 14) (size 15 to 20)
#    0.000    1.714    0.000    2.143    6.000   10.857 
#    0.000    7.143    0.000    0.000    0.000    0.000 
#    0.000    0.000    0.000    0.000    0.000    0.000 
#
# Total GULP energy -77941.473447 kJ/mol
# GULP energy per Si atom -5567.248103 kJ/mol
# Density = 2.568337 g / cm^3
# Si number density = 25.741955 Si / 1000 Ang^3
#
#
#
# Elastic Constant Matrix: (Units=GPa)
#
#
# Indices 1 2 3 4 5 6 
#
# 1 83.7462 43.7447 48.4997 -24.6384 15.9694 -44.4783
# 2 43.7447 128.4957 25.8348 -37.8381 19.0456 -43.3069
# 3 48.4997 25.8348 127.7705 -43.4699 15.7772 -21.9603
# 4 -24.6384 -37.8381 -43.4699 31.5794 -18.5246 15.5107
# 5 15.9694 19.0456 15.7772 -18.5246 64.5047 -12.8799
# 6 -44.4783 -43.3069 -21.9603 15.5107 -12.8799 40.5020
#
#
#
# Elastic Compliance Matrix: (Units=1/GPa)
#
#
# Indices 1 2 3 4 5 6 
#
# 1 0.034071 0.003038 -0.005719 0.005177 0.000703 0.035805
# 2 0.003038 0.019429 0.007548 0.029291 0.003704 0.018164
# 3 -0.005719 0.007548 0.019474 0.033414 0.004197 0.000888
# 4 0.005177 0.029291 0.033414 0.120916 0.019629 0.015059
# 5 0.000703 0.003704 0.004197 0.019629 0.020015 0.005856
# 6 0.035805 0.018164 0.000888 0.015059 0.005856 0.080009
#
#
# Mechanical properties :
#
#
# Convention : Reuss Voigt Hill
#
# Bulk Modulus (GPa) = 12.09055 64.01898 38.05476
# Shear Modulus (GPa) = 16.03871 42.11278 29.07574
#
# Velocity S-wave (km/s) = 2.49882 4.04909 3.36446
# Velocity P-wave (km/s) = 3.61005 6.83986 5.46883
#
# Compressibility (1/GPa) = 0.08270925
#
# Stress axis : x y z
#
# Youngs Moduli (GPa) = 29.35047 51.47061 51.35181
#
# Poissons Ratio (x) = -0.15639 0.29366
# Poissons Ratio (y) = -0.08918 -0.38761
# Poissons Ratio (z) = 0.16784 -0.38851
#
# Static dielectric constant tensor:
#      x y z
#    x 2.159220 -0.069760 -0.075140 
#    y -0.069760 2.107270 0.035940 
#    z -0.075140 0.035940 2.076470 
# 
# From -- ./inp_files/142496.got.cif
#   From: 2010.05.17/outbox.cif.g08.bks.cpg/sg2_72_cif.got.tgz:142496.got - 2010.06.03 11:33:40.
