data_PCOD9027215
_publ_section_title
;
Structure prediction by ZEFSAII (Michael W. Deem and Ramdas Pophale) SiO2 
 PCOD9027215
Probable space group: P -1
;
_chemical_formula_sum "Si O2"
_cell_formula_units_Z 16
_cell_length_a 19.360140
_cell_length_b 8.352193
_cell_length_c 14.700720
_cell_angle_alpha 129.226841
_cell_angle_beta 160.760372
_cell_angle_gamma 52.756813
_cell_volume 606.475710
_symmetry_space_group_name_H-M "P -1"
_symmetry_group_IT_number 2
_symmetry_cell_setting 'triclinic'
loop_
_space_group_symop_operation_xyz
x,y,z
-x,-y,-z
loop_
_atom_site_type_symbol
_atom_site_label
_atom_site_fract_x
_atom_site_fract_y
_atom_site_fract_z
Si Si1 0.997826 0.014003 0.300670
Si Si2 0.834075 0.374508 0.132505
Si Si3 0.612230 0.099647 0.958543
Si Si4 0.425489 0.290245 0.103659
Si Si5 0.758175 0.279764 0.370112
Si Si6 0.185909 0.663984 0.278554
Si Si7 0.630805 0.707677 0.410610
Si Si8 0.215948 0.881767 0.204231
O O1 0.751110 0.004358 0.014670
O O2 0.101405 0.905014 0.478702
O O3 0.086320 0.867254 0.278177
O O4 0.002595 0.255097 0.362526
O O5 0.809954 0.611881 0.157162
O O6 0.601810 0.373768 0.889939
O O7 0.809494 0.243759 0.963842
O O8 0.734033 0.268576 0.228431
O O9 0.580819 0.919342 0.924411
O O10 0.395189 0.193857 0.686185
O O11 0.531563 0.243697 0.121967
O O12 0.604202 0.407350 0.429240
O O13 0.795666 0.514522 0.537187
O O14 0.253328 0.731153 0.284379
O O15 0.000000 0.500000 0.000000
O O16 0.651940 0.910973 0.570694
O O17 0.000000 0.000000 0.000000
#
# Coordination Sequence:
#
# PCOD9027215 Si02
#       8
#     2   2   2   2   2   2   2   2
#     4  10  23  41  60  90 130 160 212 259 307 372
#     4  10  23  40  62  90 132 167 202 257 309 373
#     4  11  21  41  66  93 122 165 212 264 313 365
#     4  10  23  41  62  93 126 161 214 259 309 373
#     4  10  22  41  67  89 125 166 207 262 321 365
#     4  11  25  42  62  92 128 170 206 257 313 375
#     4  10  23  42  64  95 126 162 210 260 309 377
#     4  12  24  39  64  93 128 166 207 249 317 377
#
# _framework density 26.381930000000001
#
# number of rings (size 3 to 8) (size 9 to 14) (size 15 to 20)
#    0.000    1.500    2.500    1.500    7.000    2.500 
#    0.000    0.625    0.000    0.000    0.000    0.000 
#    0.000    0.000    0.000    0.000    0.000    0.000 
#
# Total GULP energy -89249.979460 kJ/mol
# GULP energy per Si atom -5578.123716 kJ/mol
# Density = 2.632188 g / cm^3
# Si number density = 26.381930 Si / 1000 Ang^3
#
#
#
# Elastic Constant Matrix: (Units=GPa)
#
#
# Indices 1 2 3 4 5 6 
#
# 1 56.9745 13.4252 1.8849 -0.3591 -6.7565 -4.4076
# 2 13.4252 137.2659 27.6215 -37.1083 -13.6350 3.4647
# 3 1.8849 27.6215 59.6743 -14.6590 -9.0122 -5.6060
# 4 -0.3591 -37.1083 -14.6590 49.8981 11.0497 2.8892
# 5 -6.7565 -13.6350 -9.0122 11.0497 40.3960 -6.2458
# 6 -4.4076 3.4647 -5.6060 2.8892 -6.2458 21.7057
#
#
#
# Elastic Compliance Matrix: (Units=1/GPa)
#
#
# Indices 1 2 3 4 5 6 
#
# 1 0.019088 -0.002568 0.001139 -0.002745 0.004286 0.006179
# 2 -0.002568 0.010128 -0.003342 0.006814 -0.000235 -0.003976
# 3 0.001139 -0.003342 0.020035 0.002128 0.004003 0.006808
# 4 -0.002745 0.006814 0.002128 0.027467 -0.006208 -0.006538
# 5 0.004286 -0.000235 0.004003 -0.006208 0.029735 0.011324
# 6 0.006179 -0.003976 0.006808 -0.006538 0.011324 0.053847
#
#
# Mechanical properties :
#
#
# Convention : Reuss Voigt Hill
#
# Bulk Modulus (GPa) = 25.18288 37.75310 31.46799
# Shear Modulus (GPa) = 27.31058 36.46550 31.88804
#
# Velocity S-wave (km/s) = 3.22094 3.72185 3.48042
# Velocity P-wave (km/s) = 4.83724 5.72807 5.30140
#
# Compressibility (1/GPa) = 0.03970952
#
# Stress axis : x y z
#
# Youngs Moduli (GPa) = 52.38827 98.73722 49.91159
#
# Poissons Ratio (x) = 0.25360 -0.05687
# Poissons Ratio (y) = 0.13456 0.16680
# Poissons Ratio (z) = -0.05969 0.32998
#
# Static dielectric constant tensor:
#      x y z
#    x 2.269450 0.212540 -0.208240 
#    y 0.212540 2.543770 0.412390 
#    z -0.208240 0.412390 3.027860 
# 
# From -- ./inp_files/178257.got.cif
#   From: 2010.05.17/outbox.cif.g08.bks.cpg/sg2_90_cif.got.tgz:178257.got - 2010.06.03 11:33:40.
