data_PCOD9027862
_publ_section_title
;
Structure prediction by ZEFSAII (Michael W. Deem and Ramdas Pophale) SiO2 
 PCOD9027862
Probable space group: P -1
;
_chemical_formula_sum "Si O2"
_cell_formula_units_Z 16
_cell_length_a 11.385542
_cell_length_b 11.835604
_cell_length_c 18.355475
_cell_angle_alpha 43.840966
_cell_angle_beta 23.720332
_cell_angle_gamma 37.973544
_cell_volume 612.230305
_symmetry_space_group_name_H-M "P -1"
_symmetry_group_IT_number 2
_symmetry_cell_setting 'triclinic'
loop_
_space_group_symop_operation_xyz
x,y,z
-x,-y,-z
loop_
_atom_site_type_symbol
_atom_site_label
_atom_site_fract_x
_atom_site_fract_y
_atom_site_fract_z
Si Si1 0.159727 0.992804 0.817751
Si Si2 0.204650 0.491814 0.001119
Si Si3 0.503382 0.030676 0.823789
Si Si4 0.728156 0.038143 0.459555
Si Si5 0.407259 0.335405 0.630050
Si Si6 0.768853 0.777321 0.669152
Si Si7 0.758123 0.423498 0.823902
Si Si8 0.121997 0.210506 0.080483
O O1 0.480623 0.964578 0.601906
O O2 0.969415 0.212268 0.820294
O O3 0.379584 0.880495 0.815129
O O4 0.872326 0.939076 0.991214
O O5 0.563612 0.444684 0.849042
O O6 0.175246 0.316254 0.069169
O O7 0.963345 0.575451 0.168788
O O8 0.089619 0.630262 0.933005
O O9 0.741287 0.837783 0.740849
O O10 0.568057 0.177573 0.673357
O O11 0.465891 0.079268 0.906811
O O12 0.528200 0.217025 0.542362
O O13 0.929218 0.096270 0.263730
O O14 0.919087 0.876502 0.485289
O O15 0.500000 0.500000 0.500000
O O16 0.917340 0.562735 0.669658
O O17 0.500000 0.500000 0.000000
#
# Coordination Sequence:
#
# PCOD9027862 Si02
#       8
#     2   2   2   2   2   2   2   2
#     4  10  21  37  64  92 122 158 209 260 308 354
#     4  10  22  36  58  96 119 163 216 249 302 380
#     4  10  19  33  58  88 120 160 202 251 303 367
#     4   9  20  35  60  93 121 164 206 255 314 356
#     4  10  17  31  59  87 120 152 209 261 290 353
#     4   9  20  37  62  96 118 155 213 259 303 356
#     4  12  22  37  68  95 123 158 212 266 306 358
#     4  10  20  38  61  86 129 169 203 244 312 384
#
# _framework density 26.133956000000001
#
# number of rings (size 3 to 8) (size 9 to 14) (size 15 to 20)
#    0.750    1.250    2.500    2.625    1.750    0.500 
#    0.000    1.250    0.000    4.500    0.000    0.000 
#    0.000    0.000    0.000    0.000    0.000    0.000 
#
# Total GULP energy -89302.222784 kJ/mol
# GULP energy per Si atom -5581.388924 kJ/mol
# Density = 2.607447 g / cm^3
# Si number density = 26.133956 Si / 1000 Ang^3
#
#
#
# Elastic Constant Matrix: (Units=GPa)
#
#
# Indices 1 2 3 4 5 6 
#
# 1 98.0606 23.1818 36.2759 -0.4738 0.3605 -4.3188
# 2 23.1818 113.5605 15.5212 -45.1709 -0.2846 -17.3258
# 3 36.2759 15.5212 154.9096 -36.8592 10.2684 -0.6497
# 4 -0.4738 -45.1709 -36.8592 43.8140 3.6616 -0.0826
# 5 0.3605 -0.2846 10.2684 3.6616 40.9138 -0.6290
# 6 -4.3188 -17.3258 -0.6497 -0.0826 -0.6290 34.1838
#
#
#
# Elastic Compliance Matrix: (Units=1/GPa)
#
#
# Indices 1 2 3 4 5 6 
#
# 1 0.013792 -0.007169 -0.005551 -0.012105 0.002275 -0.001984
# 2 -0.007169 0.022559 0.006650 0.029119 -0.003891 0.010653
# 3 -0.005551 0.006650 0.011354 0.016704 -0.004206 0.002848
# 4 -0.012105 0.029119 0.016704 0.067605 -0.009726 0.013531
# 5 0.002275 -0.003891 -0.004206 -0.009726 0.026300 -0.001304
# 6 -0.001984 0.010653 0.002848 0.013531 -0.001304 0.034465
#
#
# Mechanical properties :
#
#
# Convention : Reuss Voigt Hill
#
# Bulk Modulus (GPa) = 28.11737 57.38762 42.75250
# Shear Modulus (GPa) = 24.99125 43.21910 34.10517
#
# Velocity S-wave (km/s) = 3.09572 4.07105 3.61642
# Velocity P-wave (km/s) = 4.85390 6.64113 5.81657
#
# Compressibility (1/GPa) = 0.03556520
#
# Stress axis : x y z
#
# Youngs Moduli (GPa) = 72.50757 44.32873 88.07203
#
# Poissons Ratio (x) = 0.31778 0.48887
# Poissons Ratio (y) = 0.51979 -0.58565
# Poissons Ratio (z) = 0.40247 -0.29477
#
# Static dielectric constant tensor:
#      x y z
#    x 2.221710 0.001350 -0.028000 
#    y 0.001350 2.057920 0.005950 
#    z -0.028000 0.005950 2.058680 
# 
# From -- ./inp_files/568641.got.cif
#   From: 2010.05.17/outbox.cif.g08.bks.cpg/sg2_285_cif.got.tgz:568641.got - 2010.06.03 11:33:40.
