data_PCOD9027764
_publ_section_title
;
Structure prediction by ZEFSAII (Michael W. Deem and Ramdas Pophale) SiO2 
 PCOD9027764
Probable space group: P -1
;
_chemical_formula_sum "Si O2"
_cell_formula_units_Z 10
_cell_length_a 10.215575
_cell_length_b 9.854541
_cell_length_c 5.074804
_cell_angle_alpha 63.040537
_cell_angle_beta 118.335564
_cell_angle_gamma 90.698659
_cell_volume 387.152857
_symmetry_space_group_name_H-M "P -1"
_symmetry_group_IT_number 2
_symmetry_cell_setting 'triclinic'
loop_
_space_group_symop_operation_xyz
x,y,z
-x,-y,-z
loop_
_atom_site_type_symbol
_atom_site_label
_atom_site_fract_x
_atom_site_fract_y
_atom_site_fract_z
Si Si1 0.806655 0.622120 0.549662
Si Si2 0.942389 0.892905 0.331770
Si Si3 0.808251 0.302631 0.627583
Si Si4 0.399549 0.070684 0.094325
Si Si5 0.343999 0.577673 0.128747
O O1 0.923165 0.730560 0.595210
O O2 0.863694 0.463215 0.578322
O O3 0.748697 0.558134 0.818123
O O4 0.657803 0.740195 0.165682
O O5 0.058120 0.831604 0.255723
O O6 0.766568 0.966990 0.009954
O O7 0.000000 0.000000 0.500000
O O8 0.742872 0.287402 0.868009
O O9 0.670920 0.350861 0.237731
O O10 0.500000 0.000000 0.500000
O O11 0.500000 0.000000 0.000000
O O12 0.500000 0.500000 0.500000
#
# Coordination Sequence:
#
# PCOD9027764 Si02
#       5
#     2   2   2   2   2
#     4   8  23  40  75  96 139 181 242 276 360 405
#     4  10  23  47  71 107 145 187 236 296 358 419
#     4  10  22  43  72 101 135 184 240 288 347 419
#     4  10  24  44  69 100 141 189 232 286 353 423
#     4  10  22  41  69 106 141 176 237 292 352 410
#
# _framework density 25.82959
#
# number of rings (size 3 to 8) (size 9 to 14) (size 15 to 20)
#    2.400    0.000    0.000    1.200    2.800    4.000 
#    0.000    2.000    0.000    0.000    0.000    0.000 
#    0.000    0.000    0.000    0.000    0.000    0.000 
#
# Total GULP energy -55870.037370 kJ/mol
# GULP energy per Si atom -5587.003737 kJ/mol
# Density = 2.577080 g / cm^3
# Si number density = 25.829590 Si / 1000 Ang^3
#
#
#
# Elastic Constant Matrix: (Units=GPa)
#
#
# Indices 1 2 3 4 5 6 
#
# 1 74.0222 32.4280 21.6798 10.3119 20.4679 -19.6108
# 2 32.4280 163.0273 38.3801 -9.6678 18.1975 -21.0567
# 3 21.6798 38.3801 166.7378 6.9084 19.8998 -16.3013
# 4 10.3119 -9.6678 6.9084 44.2965 -7.6726 2.1194
# 5 20.4679 18.1975 19.8998 -7.6726 54.8190 -1.0459
# 6 -19.6108 -21.0567 -16.3013 2.1194 -1.0459 44.8517
#
#
#
# Elastic Compliance Matrix: (Units=1/GPa)
#
#
# Indices 1 2 3 4 5 6 
#
# 1 0.019542 -0.002487 -0.000096 -0.006687 -0.007229 0.007489
# 2 -0.002487 0.007354 -0.001193 0.002154 -0.000744 0.001813
# 3 -0.000096 -0.001193 0.006814 -0.001782 -0.002255 0.001906
# 4 -0.006687 0.002154 -0.001782 0.026096 0.006011 -0.003653
# 5 -0.007229 -0.000744 -0.002255 0.006011 0.022770 -0.004082
# 6 0.007489 0.001813 0.001906 -0.003653 -0.004082 0.027191
#
#
# Mechanical properties :
#
#
# Convention : Reuss Voigt Hill
#
# Bulk Modulus (GPa) = 38.22933 65.41810 51.82372
# Shear Modulus (GPa) = 39.67052 49.54674 44.60863
#
# Velocity S-wave (km/s) = 3.92325 4.38450 4.16027
# Velocity P-wave (km/s) = 5.94603 7.14238 6.57148
#
# Compressibility (1/GPa) = 0.02615793
#
# Stress axis : x y z
#
# Youngs Moduli (GPa) = 51.17264 135.97505 146.76094
#
# Poissons Ratio (x) = 0.33813 0.01416
# Poissons Ratio (y) = 0.12725 0.17505
# Poissons Ratio (z) = 0.00494 0.16219
#
# Static dielectric constant tensor:
#      x y z
#    x 2.078690 0.083510 0.011650 
#    y 0.083510 2.049460 -0.085430 
#    z 0.011650 -0.085430 2.102400 
# 
# From -- ./inp_files/59069.got.cif
#   From: 2010.05.17/outbox.cif.g08.bks.cpg/sg2_30_cif.got.tgz:59069.got - 2010.06.03 11:33:40.
