data_PCOD9027065
_publ_section_title
;
Structure prediction by ZEFSAII (Michael W. Deem and Ramdas Pophale) SiO2 
 PCOD9027065
Probable space group: P -1
;
_chemical_formula_sum "Si O2"
_cell_formula_units_Z 16
_cell_length_a 12.622478
_cell_length_b 9.724303
_cell_length_c 7.936156
_cell_angle_alpha 90.732643
_cell_angle_beta 91.705424
_cell_angle_gamma 138.847292
_cell_volume 639.836796
_symmetry_space_group_name_H-M "P -1"
_symmetry_group_IT_number 2
_symmetry_cell_setting 'triclinic'
loop_
_space_group_symop_operation_xyz
x,y,z
-x,-y,-z
loop_
_atom_site_type_symbol
_atom_site_label
_atom_site_fract_x
_atom_site_fract_y
_atom_site_fract_z
Si Si1 0.984864 0.455533 0.298649
Si Si2 0.014380 0.037017 0.700271
Si Si3 0.179983 0.891908 0.271435
Si Si4 0.329665 0.499778 0.832534
Si Si5 0.517857 0.456188 0.685829
Si Si6 0.826832 0.617058 0.812401
Si Si7 0.671302 0.001094 0.344801
Si Si8 0.492888 0.057765 0.185000
O O1 0.025532 0.643164 0.226610
O O2 0.121132 0.482488 0.244619
O O3 0.000000 0.500000 0.500000
O O4 0.814833 0.216558 0.252875
O O5 0.877646 0.010509 0.752441
O O6 0.184579 0.276746 0.735656
O O7 0.983346 0.867818 0.800538
O O8 0.000000 0.000000 0.500000
O O9 0.251851 0.945435 0.465665
O O10 0.324325 0.972023 0.174537
O O11 0.481559 0.545348 0.814245
O O12 0.379079 0.696157 0.766296
O O13 0.262575 0.462652 0.014946
O O14 0.500000 0.500000 0.500000
O O15 0.692179 0.556105 0.690043
O O16 0.393241 0.210511 0.715086
O O17 0.523946 0.964385 0.316045
O O18 0.500000 0.000000 0.000000
#
# Coordination Sequence:
#
# PCOD9027065 Si02
#       8
#     2   2   2   2   2   2   2   2
#     4  10  22  41  66  96 130 174 225 277 334 402
#     4  12  25  45  71 102 135 176 230 285 342 414
#     4  11  23  42  66  96 129 171 222 281 338 396
#     4  12  26  45  68 101 138 181 227 285 349 409
#     4  12  25  43  69 101 136 180 232 284 340 409
#     4  12  25  44  67  98 139 181 224 284 347 406
#     4  11  23  42  67  95 129 174 224 280 335 397
#     4  12  26  44  66  97 136 177 223 274 335 409
#
# _framework density 25.006377000000001
#
# number of rings (size 3 to 8) (size 9 to 14) (size 15 to 20)
#    0.000    0.500    0.000   10.125    0.000    6.000 
#    0.000    2.500    0.000    0.000    0.000    0.000 
#    0.000    0.000    0.000    0.000    0.000    0.000 
#
# Total GULP energy -89598.931689 kJ/mol
# GULP energy per Si atom -5599.933231 kJ/mol
# Density = 2.494946 g / cm^3
# Si number density = 25.006377 Si / 1000 Ang^3
#
#
#
# Elastic Constant Matrix: (Units=GPa)
#
#
# Indices 1 2 3 4 5 6 
#
# 1 105.5174 17.2576 10.5347 8.2275 -30.9453 -22.7854
# 2 17.2576 135.8028 -13.5699 2.2337 -6.4346 -23.2540
# 3 10.5347 -13.5699 46.2285 2.1287 -14.3916 -11.5346
# 4 8.2275 2.2337 2.1287 27.0865 2.3880 1.5073
# 5 -30.9453 -6.4346 -14.3916 2.3880 42.1538 1.9654
# 6 -22.7854 -23.2540 -11.5346 1.5073 1.9654 54.9428
#
#
#
# Elastic Compliance Matrix: (Units=1/GPa)
#
#
# Indices 1 2 3 4 5 6 
#
# 1 0.014369 0.000074 0.002084 -0.005876 0.011316 0.006184
# 2 0.000074 0.008788 0.004700 -0.001630 0.002875 0.004679
# 3 0.002084 0.004700 0.028592 -0.004792 0.011881 0.008562
# 4 -0.005876 -0.001630 -0.004792 0.040217 -0.008246 -0.004941
# 5 0.011316 0.002875 0.011881 -0.008246 0.036650 0.007319
# 6 0.006184 0.004679 0.008562 -0.004941 0.007319 0.024417
#
#
# Mechanical properties :
#
#
# Convention : Reuss Voigt Hill
#
# Bulk Modulus (GPa) = 15.27534 35.11039 25.19286
# Shear Modulus (GPa) = 31.02894 43.05838 37.04366
#
# Velocity S-wave (km/s) = 3.52638 4.15408 3.85303
# Velocity P-wave (km/s) = 4.76469 6.08929 5.46726
#
# Compressibility (1/GPa) = 0.06546500
#
# Stress axis : x y z
#
# Youngs Moduli (GPa) = 69.59348 113.79070 34.97442
#
# Poissons Ratio (x) = -0.00841 -0.07287
# Poissons Ratio (y) = -0.00515 -0.16439
# Poissons Ratio (z) = -0.14500 -0.53484
#
# Static dielectric constant tensor:
#      x y z
#    x 1.968850 0.096140 0.021670 
#    y 0.096140 1.978680 -0.020300 
#    z 0.021670 -0.020300 1.954400 
# 
# From -- ./inp_files/244071.got.cif
#   From: 2010.05.17/outbox.cif.g08.bks.cpg/sg2_123_cif.got.tgz:244071.got - 2010.06.03 11:33:40.
