data_PCOD9027330
_publ_section_title
;
Structure prediction by ZEFSAII (Michael W. Deem and Ramdas Pophale) SiO2 
 PCOD9027330
Probable space group: P -1
;
_chemical_formula_sum "Si O2"
_cell_formula_units_Z 16
_cell_length_a 7.490999
_cell_length_b 7.934094
_cell_length_c 15.786452
_cell_angle_alpha 57.575233
_cell_angle_beta 93.655862
_cell_angle_gamma 71.785760
_cell_volume 720.296784
_symmetry_space_group_name_H-M "P -1"
_symmetry_group_IT_number 2
_symmetry_cell_setting 'triclinic'
loop_
_space_group_symop_operation_xyz
x,y,z
-x,-y,-z
loop_
_atom_site_type_symbol
_atom_site_label
_atom_site_fract_x
_atom_site_fract_y
_atom_site_fract_z
Si Si1 0.417637 0.977381 0.891350
Si Si2 0.637978 0.314046 0.334527
Si Si3 0.635298 0.220403 0.543294
Si Si4 0.077097 0.274153 0.359839
Si Si5 0.387518 0.736127 0.102445
Si Si6 0.106518 0.613599 0.382852
Si Si7 0.030792 0.707468 0.171095
Si Si8 0.338665 0.090372 0.666255
O O1 0.572464 0.074016 0.898630
O O2 0.201336 0.148531 0.871857
O O3 0.407594 0.975966 0.790667
O O4 0.452223 0.757460 0.002979
O O5 0.518721 0.802555 0.390583
O O6 0.516397 0.514600 0.215907
O O7 0.651870 0.093413 0.350577
O O8 0.549398 0.333217 0.420545
O O9 0.782839 0.972012 0.590700
O O10 0.756858 0.339370 0.559486
O O11 0.071719 0.450103 0.240603
O O12 0.856633 0.298317 0.357572
O O13 0.139759 0.370837 0.418607
O O14 0.164544 0.761896 0.094417
O O15 0.108551 0.730973 0.261277
O O16 0.881507 0.730901 0.374581
#
# Coordination Sequence:
#
# PCOD9027330 Si02
#       8
#     2   2   2   2   2   2   2   2
#     4  10  22  41  67  96 130 167 221 284 323 393
#     4  12  24  42  66  93 140 177 219 272 328 398
#     4  12  24  44  67  97 138 182 216 269 333 396
#     4  10  22  43  66  97 135 178 222 265 336 390
#     4  11  21  41  67  95 129 173 221 272 335 384
#     4   9  22  42  66  94 134 173 217 278 314 399
#     4   9  19  40  66  96 128 170 219 268 332 399
#     4  11  23  43  66  99 134 169 228 274 331 396
#
# _framework density 22.213065
#
# number of rings (size 3 to 8) (size 9 to 14) (size 15 to 20)
#    0.750    0.750    2.500    2.625    0.000    1.000 
#    2.250    3.125    0.000    1.500    0.000    0.000 
#    0.000    0.000    0.000    0.000    0.000    0.000 
#
# Total GULP energy -89520.827639 kJ/mol
# GULP energy per Si atom -5595.051727 kJ/mol
# Density = 2.216251 g / cm^3
# Si number density = 22.213065 Si / 1000 Ang^3
#
#
#
# Elastic Constant Matrix: (Units=GPa)
#
#
# Indices 1 2 3 4 5 6 
#
# 1 118.6696 30.8094 48.9887 9.5912 -18.7013 13.2020
# 2 30.8094 113.3285 41.2180 5.3093 5.2891 11.9697
# 3 48.9887 41.2180 132.7370 -3.2600 -10.3684 1.0720
# 4 9.5912 5.3093 -3.2600 34.1891 -1.2151 7.4521
# 5 -18.7013 5.2891 -10.3684 -1.2151 36.9474 1.8371
# 6 13.2020 11.9697 1.0720 7.4521 1.8371 31.7554
#
#
#
# Elastic Compliance Matrix: (Units=1/GPa)
#
#
# Indices 1 2 3 4 5 6 
#
# 1 0.011735 -0.001676 -0.003419 -0.002319 0.005338 -0.003896
# 2 -0.001676 0.010869 -0.003002 -0.000986 -0.003136 -0.002886
# 3 -0.003419 -0.003002 0.009879 0.002059 0.001457 0.001652
# 4 -0.002319 -0.000986 0.002059 0.031634 0.000894 -0.006209
# 5 0.005338 -0.003136 0.001457 0.000894 0.030808 -0.003079
# 6 -0.003896 -0.002886 0.001652 -0.006209 -0.003079 0.035778
#
#
# Mechanical properties :
#
#
# Convention : Reuss Voigt Hill
#
# Bulk Modulus (GPa) = 61.39359 67.41858 64.40608
# Shear Modulus (GPa) = 32.82402 36.82630 34.82516
#
# Velocity S-wave (km/s) = 3.84824 4.07611 3.96381
# Velocity P-wave (km/s) = 6.88795 7.25049 7.07154
#
# Compressibility (1/GPa) = 0.01628835
#
# Stress axis : x y z
#
# Youngs Moduli (GPa) = 85.21170 92.00633 101.22463
#
# Poissons Ratio (x) = 0.15418 0.34612
# Poissons Ratio (y) = 0.14279 0.30392
# Poissons Ratio (z) = 0.29137 0.27624
#
# Static dielectric constant tensor:
#      x y z
#    x 1.815220 -0.023120 0.004310 
#    y -0.023120 1.777070 -0.012280 
#    z 0.004310 -0.012280 1.878140 
# 
# From -- ./inp_files/197532.got.cif
#   From: 2010.05.17/outbox.cif.g08.bks.cpg/sg2_99_cif.got.tgz:197532.got - 2010.06.03 11:33:40.
