data_PCOD9027013
_publ_section_title
;
Structure prediction by ZEFSAII (Michael W. Deem and Ramdas Pophale) SiO2 
 PCOD9027013
Probable space group: P -1
;
_chemical_formula_sum "Si O2"
_cell_formula_units_Z 16
_cell_length_a 9.850260
_cell_length_b 6.350072
_cell_length_c 12.198437
_cell_angle_alpha 102.353995
_cell_angle_beta 86.736882
_cell_angle_gamma 70.111711
_cell_volume 693.866356
_symmetry_space_group_name_H-M "P -1"
_symmetry_group_IT_number 2
_symmetry_cell_setting 'triclinic'
loop_
_space_group_symop_operation_xyz
x,y,z
-x,-y,-z
loop_
_atom_site_type_symbol
_atom_site_label
_atom_site_fract_x
_atom_site_fract_y
_atom_site_fract_z
Si Si1 0.525215 0.738544 0.541009
Si Si2 0.455540 0.172562 0.690081
Si Si3 0.851895 0.451229 0.522539
Si Si4 0.452460 0.752059 0.081261
Si Si5 0.725771 0.811275 0.970300
Si Si6 0.161411 0.611505 0.723816
Si Si7 0.101395 0.575174 0.236961
Si Si8 0.937312 0.928002 0.103870
O O1 0.500000 0.500000 0.500000
O O2 0.473581 0.839623 0.433747
O O3 0.698799 0.668074 0.547505
O O4 0.445153 0.917410 0.661145
O O5 0.550136 0.226680 0.786001
O O6 0.301039 0.381384 0.714775
O O7 0.843059 0.318348 0.396606
O O8 0.862797 0.358543 0.635638
O O9 0.000000 0.500000 0.500000
O O10 0.309885 0.939338 0.056392
O O11 0.500000 0.500000 0.000000
O O12 0.586948 0.827263 0.049296
O O13 0.764775 0.618383 0.852877
O O14 0.855641 0.764144 0.044511
O O15 0.020301 0.545232 0.753285
O O16 0.165186 0.827051 0.816060
O O17 0.042898 0.789561 0.180483
O O18 0.000000 0.000000 0.000000
#
# Coordination Sequence:
#
# PCOD9027013 Si02
#       8
#     2   2   2   2   2   2   2   2
#     4  10  22  42  69 100 130 171 220 270 334 403
#     4  10  22  41  66  94 133 171 215 275 327 394
#     4   9  21  42  66  97 132 166 217 273 334 391
#     4  11  25  41  64  93 133 177 220 275 331 392
#     4  11  25  41  62  94 129 171 227 270 328 400
#     4  10  22  41  66  96 131 172 219 276 334 401
#     4  11  23  41  65  91 131 172 217 282 331 397
#     4  12  25  40  65  95 128 173 225 271 335 400
#
# _framework density 23.059193
#
# number of rings (size 3 to 8) (size 9 to 14) (size 15 to 20)
#    0.000    1.500    1.250    2.625    3.500    7.500 
#    0.000    5.000    0.000    0.000    0.000    0.000 
#    0.000    0.000    0.000    0.000    0.000    0.000 
#
# Total GULP energy -89284.480874 kJ/mol
# GULP energy per Si atom -5580.280055 kJ/mol
# Density = 2.300671 g / cm^3
# Si number density = 23.059193 Si / 1000 Ang^3
#
#
#
# Elastic Constant Matrix: (Units=GPa)
#
#
# Indices 1 2 3 4 5 6 
#
# 1 48.1663 9.3235 16.8506 -7.6357 10.2478 -13.8384
# 2 9.3235 104.5028 50.9530 12.9474 13.0228 -16.5135
# 3 16.8506 50.9530 166.1243 0.9399 26.8925 -8.5494
# 4 -7.6357 12.9474 0.9399 48.3265 -1.8131 3.8906
# 5 10.2478 13.0228 26.8925 -1.8131 32.1664 0.0724
# 6 -13.8384 -16.5135 -8.5494 3.8906 0.0724 28.1377
#
#
#
# Elastic Compliance Matrix: (Units=1/GPa)
#
#
# Indices 1 2 3 4 5 6 
#
# 1 0.026804 0.000817 -0.001041 0.002695 -0.007877 0.012993
# 2 0.000817 0.013175 -0.003188 -0.004081 -0.003176 0.007738
# 3 -0.001041 -0.003188 0.007904 0.000351 -0.004966 -0.000017
# 4 0.002695 -0.004081 0.000351 0.022601 0.001783 -0.004093
# 5 -0.007877 -0.003176 -0.004966 0.001783 0.039153 -0.007594
# 6 0.012993 0.007738 -0.000017 -0.004093 -0.007594 0.047051
#
#
# Mechanical properties :
#
#
# Convention : Reuss Voigt Hill
#
# Bulk Modulus (GPa) = 24.35559 52.56084 38.45821
# Shear Modulus (GPa) = 28.21702 37.83722 33.02712
#
# Velocity S-wave (km/s) = 3.50191 4.05516 3.78865
# Velocity P-wave (km/s) = 5.19002 6.69098 5.98771
#
# Compressibility (1/GPa) = 0.04105834
#
# Stress axis : x y z
#
# Youngs Moduli (GPa) = 37.30847 75.90224 126.51655
#
# Poissons Ratio (x) = -0.06201 0.13167
# Poissons Ratio (y) = -0.03048 0.40338
# Poissons Ratio (z) = 0.03883 0.24200
#
# Static dielectric constant tensor:
#      x y z
#    x 1.945850 0.107320 -0.030260 
#    y 0.107320 2.207610 0.000640 
#    z -0.030260 0.000640 1.900420 
# 
# From -- ./inp_files/410506.got.cif
#   From: 2010.05.17/outbox.cif.g08.bks.cpg/sg2_206_cif.got.tgz:410506.got - 2010.06.03 11:33:40.
