data_PCOD9027701
_publ_section_title
;
Structure prediction by ZEFSAII (Michael W. Deem and Ramdas Pophale) SiO2 
 PCOD9027701
Probable space group: P -1
;
_chemical_formula_sum "Si O2"
_cell_formula_units_Z 14
_cell_length_a 7.381309
_cell_length_b 5.528997
_cell_length_c 16.438796
_cell_angle_alpha 83.106183
_cell_angle_beta 53.692580
_cell_angle_gamma 83.746287
_cell_volume 536.125866
_symmetry_space_group_name_H-M "P -1"
_symmetry_group_IT_number 2
_symmetry_cell_setting 'triclinic'
loop_
_space_group_symop_operation_xyz
x,y,z
-x,-y,-z
loop_
_atom_site_type_symbol
_atom_site_label
_atom_site_fract_x
_atom_site_fract_y
_atom_site_fract_z
Si Si1 0.203889 0.755444 0.088046
Si Si2 0.204663 0.506812 0.816029
Si Si3 0.660930 0.648687 0.394954
Si Si4 0.590627 0.867954 0.093365
Si Si5 0.224071 0.132074 0.290060
Si Si6 0.896412 0.391435 0.612698
Si Si7 0.839991 0.059236 0.274180
O O1 0.440854 0.727238 0.072507
O O2 0.066814 0.525504 0.106186
O O3 0.024349 0.865713 0.196261
O O4 0.237933 0.959200 0.002985
O O5 0.314854 0.450373 0.699522
O O6 0.306804 0.328590 0.863292
O O7 0.230668 0.793356 0.793948
O O8 0.500000 0.500000 0.500000
O O9 0.894421 0.646670 0.381045
O O10 0.625576 0.938615 0.375810
O O11 0.415352 0.055386 0.178018
O O12 0.199450 0.879016 0.357942
O O13 0.258124 0.385125 0.317564
O O14 0.989120 0.178761 0.299860
O O15 0.000000 0.500000 0.500000
#
# Coordination Sequence:
#
# PCOD9027701 Si02
#       7
#     2   2   2   2   2   2   2
#     4   9  21  44  63  98 141 176 228 286 349 408
#     4  11  21  42  66  95 137 179 224 294 345 409
#     4  10  23  42  63  93 133 175 231 285 349 413
#     4  10  22  41  69 101 133 181 238 274 346 429
#     4  10  22  44  65  98 136 179 226 289 350 412
#     4  11  23  44  69  93 135 182 227 291 353 409
#     4   9  20  41  66  90 140 180 220 289 352 403
#
# _framework density 26.113273
#
# number of rings (size 3 to 8) (size 9 to 14) (size 15 to 20)
#    0.000    2.000    1.429    1.714    2.000    1.143 
#    7.714    2.143    0.000    0.000    0.000    0.000 
#    0.000    0.000    0.000    0.000    0.000    0.000 
#
# Total GULP energy -78232.781522 kJ/mol
# GULP energy per Si atom -5588.055823 kJ/mol
# Density = 2.605384 g / cm^3
# Si number density = 26.113273 Si / 1000 Ang^3
#
#
#
# Elastic Constant Matrix: (Units=GPa)
#
#
# Indices 1 2 3 4 5 6 
#
# 1 102.2417 35.6450 46.0540 -24.3349 10.5382 -10.9242
# 2 35.6450 93.6444 41.6480 -41.3477 3.2789 -9.1944
# 3 46.0540 41.6480 192.1054 -64.4007 8.0500 -10.4685
# 4 -24.3349 -41.3477 -64.4007 55.2664 -2.7726 7.1936
# 5 10.5382 3.2789 8.0500 -2.7726 37.6249 -11.1222
# 6 -10.9242 -9.1944 -10.4685 7.1936 -11.1222 25.4366
#
#
#
# Elastic Compliance Matrix: (Units=1/GPa)
#
#
# Indices 1 2 3 4 5 6 
#
# 1 0.012364 -0.003460 -0.001937 0.000195 -0.002050 0.002311
# 2 -0.003460 0.017173 0.001489 0.012832 0.000693 0.002008
# 3 -0.001937 0.001489 0.008948 0.010644 -0.000695 0.000075
# 4 0.000195 0.012832 0.010644 0.040499 -0.001333 -0.002934
# 5 -0.002050 0.000693 -0.000695 -0.001333 0.030988 0.013011
# 6 0.002311 0.002008 0.000075 -0.002934 0.013011 0.047581
#
#
# Mechanical properties :
#
#
# Convention : Reuss Voigt Hill
#
# Bulk Modulus (GPa) = 32.60646 70.52062 51.56354
# Shear Modulus (GPa) = 28.47500 41.30853 34.89177
#
# Velocity S-wave (km/s) = 3.30577 3.98162 3.65933
# Velocity P-wave (km/s) = 5.20427 6.94277 6.13541
#
# Compressibility (1/GPa) = 0.03066877
#
# Stress axis : x y z
#
# Youngs Moduli (GPa) = 80.87970 58.23250 111.75135
#
# Poissons Ratio (x) = 0.20150 0.21643
# Poissons Ratio (y) = 0.27986 -0.16638
# Poissons Ratio (z) = 0.15664 -0.08670
#
# Static dielectric constant tensor:
#      x y z
#    x 2.156910 0.099620 0.009210 
#    y 0.099620 2.381310 -0.057550 
#    z 0.009210 -0.057550 2.017890 
# 
# From -- ./inp_files/107562.got.cif
#   From: 2010.05.17/outbox.cif.g08.bks.cpg/sg2_54_cif.got.tgz:107562.got - 2010.06.03 11:33:40.
