data_PCOD9027474
_publ_section_title
;
Structure prediction by ZEFSAII (Michael W. Deem and Ramdas Pophale) SiO2 
 PCOD9027474
Probable space group: P -1
;
_chemical_formula_sum "Si O2"
_cell_formula_units_Z 14
_cell_length_a 5.106760
_cell_length_b 17.331129
_cell_length_c 12.273959
_cell_angle_alpha 147.884734
_cell_angle_beta 111.539366
_cell_angle_gamma 68.633116
_cell_volume 534.043955
_symmetry_space_group_name_H-M "P -1"
_symmetry_group_IT_number 2
_symmetry_cell_setting 'triclinic'
loop_
_space_group_symop_operation_xyz
x,y,z
-x,-y,-z
loop_
_atom_site_type_symbol
_atom_site_label
_atom_site_fract_x
_atom_site_fract_y
_atom_site_fract_z
Si Si1 0.324018 0.628672 0.193256
Si Si2 0.009131 0.885760 0.160418
Si Si3 0.524881 0.047443 0.434030
Si Si4 0.404672 0.164466 0.152707
Si Si5 0.056261 0.388689 0.065094
Si Si6 0.706980 0.591690 0.395822
Si Si7 0.401939 0.626769 0.722646
O O1 0.445338 0.782994 0.375336
O O2 0.406114 0.592016 0.287169
O O3 0.500000 0.500000 0.000000
O O4 0.007816 0.633050 0.098717
O O5 0.236693 0.990127 0.279847
O O6 0.127516 0.737883 0.064650
O O7 0.789921 0.967896 0.311914
O O8 0.855040 0.837714 0.972014
O O9 0.500000 0.000000 0.500000
O O10 0.320891 0.262815 0.363166
O O11 0.638484 0.236171 0.200156
O O12 0.500000 0.000000 0.000000
O O13 0.929177 0.546323 0.280447
O O14 0.355750 0.346231 0.118933
O O15 0.796403 0.459984 0.336308
O O16 0.500000 0.500000 0.500000
#
# Coordination Sequence:
#
# PCOD9027474 Si02
#       7
#     2   2   2   2   2   2   2
#     4  10  23  44  67 104 141 183 236 293 357 427
#     4  11  26  44  78 106 143 190 242 298 360 429
#     4  12  25  49  73 110 145 189 241 296 362 429
#     4  10  22  45  69 104 140 187 244 301 360 426
#     4  10  22  41  68 103 133 187 238 292 358 426
#     4  10  22  45  65  99 142 183 239 294 358 427
#     4   9  21  39  66  92 129 181 231 291 347 422
#
# _framework density 26.215074000000001
#
# number of rings (size 3 to 8) (size 9 to 14) (size 15 to 20)
#    0.000    1.714    1.429    1.286    4.000    5.714 
#   18.000    1.429    0.000    0.000    0.000    0.000 
#    0.000    0.000    0.000    0.000    0.000    0.000 
#
# Total GULP energy -78204.724555 kJ/mol
# GULP energy per Si atom -5586.051754 kJ/mol
# Density = 2.615541 g / cm^3
# Si number density = 26.215074 Si / 1000 Ang^3
#
#
#
# Elastic Constant Matrix: (Units=GPa)
#
#
# Indices 1 2 3 4 5 6 
#
# 1 100.5371 15.4928 46.1368 -10.6160 -17.2184 14.8305
# 2 15.4928 154.0001 65.7272 6.6095 -1.0071 7.3734
# 3 46.1368 65.7272 185.0782 3.0248 -22.2491 2.9248
# 4 -10.6160 6.6095 3.0248 60.2881 -16.9131 12.8407
# 5 -17.2184 -1.0071 -22.2491 -16.9131 39.7917 -11.2350
# 6 14.8305 7.3734 2.9248 12.8407 -11.2350 34.5457
#
#
#
# Elastic Compliance Matrix: (Units=1/GPa)
#
#
# Indices 1 2 3 4 5 6 
#
# 1 0.013440 -0.000094 -0.002730 0.005109 0.004805 -0.005855
# 2 -0.000094 0.007917 -0.003043 -0.001046 -0.002499 -0.001816
# 3 -0.002730 -0.003043 0.007564 -0.000011 0.003635 0.002367
# 4 0.005109 -0.001046 -0.000011 0.021738 0.009448 -0.006977
# 5 0.004805 -0.002499 0.003635 0.009448 0.034888 0.005997
# 6 -0.005855 -0.001816 0.002367 -0.006977 0.005997 0.036191
#
#
# Mechanical properties :
#
#
# Convention : Reuss Voigt Hill
#
# Bulk Modulus (GPa) = 58.18488 77.14767 67.66628
# Shear Modulus (GPa) = 35.91884 47.74232 41.83058
#
# Velocity S-wave (km/s) = 3.70558 4.27216 3.99892
# Velocity P-wave (km/s) = 6.36803 7.33674 6.86948
#
# Compressibility (1/GPa) = 0.01718659
#
# Stress axis : x y z
#
# Youngs Moduli (GPa) = 74.40414 126.30847 132.20555
#
# Poissons Ratio (x) = 0.01192 0.36094
# Poissons Ratio (y) = 0.00702 0.40227
# Poissons Ratio (z) = 0.20314 0.38432
#
# Static dielectric constant tensor:
#      x y z
#    x 2.402590 -0.044830 0.037050 
#    y -0.044830 2.131180 -0.002710 
#    z 0.037050 -0.002710 2.067940 
# 
# From -- ./inp_files/92839.got.cif
#   From: 2010.05.17/outbox.cif.g08.bks.cpg/sg2_47_cif.got.tgz:92839.got - 2010.06.03 11:33:40.
