data_PCOD9027193
_publ_section_title
;
Structure prediction by ZEFSAII (Michael W. Deem and Ramdas Pophale) SiO2 
 PCOD9027193
Probable space group: P -1
;
_chemical_formula_sum "Si O2"
_cell_formula_units_Z 16
_cell_length_a 10.761877
_cell_length_b 11.931339
_cell_length_c 16.136695
_cell_angle_alpha 54.266530
_cell_angle_beta 101.232019
_cell_angle_gamma 145.305909
_cell_volume 752.882121
_symmetry_space_group_name_H-M "P -1"
_symmetry_group_IT_number 2
_symmetry_cell_setting 'triclinic'
loop_
_space_group_symop_operation_xyz
x,y,z
-x,-y,-z
loop_
_atom_site_type_symbol
_atom_site_label
_atom_site_fract_x
_atom_site_fract_y
_atom_site_fract_z
Si Si1 0.794360 0.110811 0.817229
Si Si2 0.307813 0.739130 0.827216
Si Si3 0.798775 0.739618 0.238159
Si Si4 0.547620 0.734106 0.109081
Si Si5 0.788951 0.922056 0.490166
Si Si6 0.229909 0.775380 0.618649
Si Si7 0.251435 0.896160 0.894517
Si Si8 0.049082 0.935883 0.730304
O O1 0.011401 0.198103 0.795122
O O2 0.976624 0.427496 0.711222
O O3 0.570411 0.893771 0.806622
O O4 0.637909 0.913276 0.965959
O O5 0.311207 0.819835 0.705640
O O6 0.346334 0.865252 0.862059
O O7 0.996831 0.380320 0.954829
O O8 0.772141 0.841547 0.126239
O O9 0.491096 0.387056 0.365972
O O10 0.905293 0.894968 0.274222
O O11 0.266098 0.383255 0.202433
O O12 0.508088 0.798987 0.153465
O O13 0.853894 0.143370 0.429433
O O14 0.758603 0.885677 0.402366
O O15 0.000000 0.000000 0.500000
O O16 0.500000 0.000000 0.500000
O O17 0.117869 0.871322 0.823109
#
# Coordination Sequence:
#
# PCOD9027193 Si02
#       8
#     2   2   2   2   2   2   2   2
#     4  12  26  44  71 106 144 185 235 294 361 431
#     4  11  24  41  70 100 140 186 226 294 360 418
#     4  11  26  45  67 102 144 190 237 293 345 428
#     4  11  23  43  71 107 138 186 233 296 361 416
#     4  12  25  48  74 102 137 191 242 290 350 423
#     4  12  27  49  72 103 147 189 236 292 362 429
#     4  10  22  41  67 104 140 173 233 292 353 417
#     4  11  23  43  73 101 136 183 239 290 355 410
#
# _framework density 21.251666
#
# number of rings (size 3 to 8) (size 9 to 14) (size 15 to 20)
#    0.000    0.750    6.250    0.750    1.750    3.500 
#    2.250    0.000    0.000    0.000    0.000    0.000 
#    0.000    0.000    0.000    0.000    0.000    0.000 
#
# Total GULP energy -89348.933350 kJ/mol
# GULP energy per Si atom -5584.308334 kJ/mol
# Density = 2.120330 g / cm^3
# Si number density = 21.251666 Si / 1000 Ang^3
#
#
#
# Elastic Constant Matrix: (Units=GPa)
#
#
# Indices 1 2 3 4 5 6 
#
# 1 60.5669 -12.5818 23.2665 15.6516 12.8318 2.5211
# 2 -12.5818 -5.5492 16.3614 8.5184 3.7781 -0.0470
# 3 23.2665 16.3614 100.6420 15.4628 5.8046 6.4480
# 4 15.6516 8.5184 15.4628 27.0963 0.0016 1.8767
# 5 12.8318 3.7781 5.8046 0.0016 23.9243 -12.7799
# 6 2.5211 -0.0470 6.4480 1.8767 -12.7799 22.8627
#
#
#
# Elastic Compliance Matrix: (Units=1/GPa)
#
#
# Indices 1 2 3 4 5 6 
#
# 1 0.011950 -0.024947 0.001914 0.000200 -0.005649 -0.005083
# 2 -0.024947 -0.047198 0.007387 0.024119 0.026072 0.013164
# 3 0.001914 0.007387 0.010644 -0.008995 -0.008681 -0.007312
# 4 0.000200 0.024119 -0.008995 0.034462 -0.002677 -0.001761
# 5 -0.005649 0.026072 -0.008681 -0.002677 0.063593 0.038892
# 6 -0.005083 0.013164 -0.007312 -0.001761 0.038892 0.068273
#
#
# Mechanical properties :
#
#
# Convention : Reuss Voigt Hill
#
# Bulk Modulus (GPa) = -17.89036 23.30576 2.70770
# Shear Modulus (GPa) = 32.38683 23.35091 27.86887
#
# Velocity S-wave (km/s) = 3.90804 3.31838 3.62522
# Velocity P-wave (km/s) = 3.45356 5.06681 4.33588
#
# Compressibility (1/GPa) = -0.05589602
#
# Stress axis : x y z
#
# Youngs Moduli (GPa) = 83.68300 -21.18724 93.95014
#
# Poissons Ratio (x) = -0.52856 -0.17980
# Poissons Ratio (y) = 2.08764 -0.69405
# Poissons Ratio (z) = -0.16015 0.15652
#
# Static dielectric constant tensor:
#      x y z
#    x 1.816400 -0.011330 -0.013430 
#    y -0.011330 1.767240 -0.023130 
#    z -0.013430 -0.023130 1.778450 
# 
# From -- ./inp_files/71236.got.cif
#   From: 2010.05.17/outbox.cif.g08.bks.cpg/sg2_36_cif.got.tgz:71236.got - 2010.06.03 11:33:40.
