data_PCOD9027650
_publ_section_title
;
Structure prediction by ZEFSAII (Michael W. Deem and Ramdas Pophale) SiO2 
 PCOD9027650
Probable space group: P -1
;
_chemical_formula_sum "Si O2"
_cell_formula_units_Z 16
_cell_length_a 9.500394
_cell_length_b 8.508691
_cell_length_c 12.514279
_cell_angle_alpha 104.229422
_cell_angle_beta 122.227567
_cell_angle_gamma 66.167455
_cell_volume 782.181231
_symmetry_space_group_name_H-M "P -1"
_symmetry_group_IT_number 2
_symmetry_cell_setting 'triclinic'
loop_
_space_group_symop_operation_xyz
x,y,z
-x,-y,-z
loop_
_atom_site_type_symbol
_atom_site_label
_atom_site_fract_x
_atom_site_fract_y
_atom_site_fract_z
Si Si1 0.305299 0.216874 0.981889
Si Si2 0.768559 0.283306 0.718128
Si Si3 0.953915 0.016204 0.360168
Si Si4 0.954831 0.652220 0.591545
Si Si5 0.547915 0.849907 0.407194
Si Si6 0.975192 0.533223 0.818622
Si Si7 0.566354 0.990933 0.199908
Si Si8 0.976635 0.838671 0.018384
O O1 0.152675 0.397169 0.920980
O O2 0.422540 0.148558 0.912839
O O3 0.436922 0.172437 0.129771
O O4 0.178670 0.108198 0.947962
O O5 0.576495 0.265753 0.640497
O O6 0.816290 0.453309 0.737984
O O7 0.896289 0.130352 0.669790
O O8 0.842623 0.251397 0.862583
O O9 0.764016 0.994618 0.277432
O O10 0.951942 0.204004 0.356831
O O11 0.000000 0.000000 0.500000
O O12 0.749529 0.747988 0.499188
O O13 0.001373 0.572435 0.713923
O O14 0.000000 0.500000 0.500000
O O15 0.500000 0.000000 0.500000
O O16 0.525178 0.930013 0.290242
O O17 0.933931 0.706383 0.899005
O O18 0.000000 0.000000 0.000000
#
# Coordination Sequence:
#
# PCOD9027650 Si02
#       8
#     2   2   2   2   2   2   2   2
#     4  10  22  41  68  98 137 180 219 286 347 412
#     4  11  22  43  68  97 136 180 233 287 347 408
#     4  12  21  43  71  95 132 188 229 282 351 415
#     4  12  26  44  68 101 145 184 231 290 353 419
#     4  12  25  44  71 106 136 185 245 289 342 421
#     4  11  24  43  69 100 145 177 229 288 356 416
#     4  11  22  41  72  99 137 175 234 285 344 418
#     4  11  22  41  70  97 136 182 231 283 351 414
#
# _framework density 20.455618000000001
#
# number of rings (size 3 to 8) (size 9 to 14) (size 15 to 20)
#    0.000    0.750    5.000    4.500    1.750    0.500 
#    4.500    0.625    0.000    0.000    0.000    0.000 
#    0.000    0.000    0.000    0.000    0.000    0.000 
#
# Total GULP energy -89228.631496 kJ/mol
# GULP energy per Si atom -5576.789468 kJ/mol
# Density = 2.040906 g / cm^3
# Si number density = 20.455618 Si / 1000 Ang^3
#
#
#
# Elastic Constant Matrix: (Units=GPa)
#
#
# Indices 1 2 3 4 5 6 
#
# 1 78.8064 44.3128 23.2539 -4.1910 -11.2679 1.5585
# 2 44.3128 95.0363 30.8183 8.6229 -20.6656 12.9356
# 3 23.2539 30.8183 83.9680 -7.7815 -22.1223 -8.9235
# 4 -4.1910 8.6229 -7.7815 45.6793 0.2503 -2.7908
# 5 -11.2679 -20.6656 -22.1223 0.2503 41.9612 -5.8966
# 6 1.5585 12.9356 -8.9235 -2.7908 -5.8966 41.9107
#
#
#
# Elastic Compliance Matrix: (Units=1/GPa)
#
#
# Indices 1 2 3 4 5 6 
#
# 1 0.017997 -0.008455 -0.001332 0.003135 0.000214 0.001896
# 2 -0.008455 0.017969 -0.004500 -0.005324 0.003386 -0.006068
# 3 -0.001332 -0.004500 0.016855 0.003944 0.007174 0.006299
# 4 0.003135 -0.005324 0.003944 0.024101 0.000728 0.004074
# 5 0.000214 0.003386 0.007174 0.000728 0.030001 0.004744
# 6 0.001896 -0.006068 0.006299 0.004074 0.004744 0.027942
#
#
# Mechanical properties :
#
#
# Convention : Reuss Voigt Hill
#
# Bulk Modulus (GPa) = 41.24414 50.50895 45.87654
# Shear Modulus (GPa) = 29.15093 36.53862 32.84478
#
# Velocity S-wave (km/s) = 3.77912 4.23098 4.01142
# Velocity P-wave (km/s) = 6.26489 6.97236 6.62807
#
# Compressibility (1/GPa) = 0.02424587
#
# Stress axis : x y z
#
# Youngs Moduli (GPa) = 55.56590 55.65118 59.33083
#
# Poissons Ratio (x) = 0.47054 0.07905
# Poissons Ratio (y) = 0.46982 0.26697
# Poissons Ratio (z) = 0.07403 0.25041
#
# Static dielectric constant tensor:
#      x y z
#    x 1.696790 -0.081370 0.017450 
#    y -0.081370 1.624740 -0.004540 
#    z 0.017450 -0.004540 1.746040 
# 
# From -- ./inp_files/382696.got.cif
#   From: 2010.05.17/outbox.cif.g08.bks.cpg/sg2_192_cif.got.tgz:382696.got - 2010.06.03 11:33:40.
