data_PCOD9027365
_publ_section_title
;
Structure prediction by ZEFSAII (Michael W. Deem and Ramdas Pophale) SiO2 
 PCOD9027365
Probable space group: P -1
;
_chemical_formula_sum "Si O2"
_cell_formula_units_Z 16
_cell_length_a 8.258399
_cell_length_b 16.959575
_cell_length_c 16.197366
_cell_angle_alpha 149.084288
_cell_angle_beta 142.120261
_cell_angle_gamma 40.126196
_cell_volume 687.594430
_symmetry_space_group_name_H-M "P -1"
_symmetry_group_IT_number 2
_symmetry_cell_setting 'triclinic'
loop_
_space_group_symop_operation_xyz
x,y,z
-x,-y,-z
loop_
_atom_site_type_symbol
_atom_site_label
_atom_site_fract_x
_atom_site_fract_y
_atom_site_fract_z
Si Si1 0.592204 0.295613 0.598831
Si Si2 0.052947 0.182245 0.798087
Si Si3 0.787004 0.588529 0.293273
Si Si4 0.160980 0.767586 0.959507
Si Si5 0.338309 0.679575 0.621165
Si Si6 0.398630 0.856175 0.290409
Si Si7 0.436943 0.362119 0.149012
Si Si8 0.441775 0.111818 0.233296
O O1 0.434847 0.360013 0.677077
O O2 0.604426 0.449340 0.690810
O O3 0.420410 0.206874 0.395659
O O4 0.889735 0.189915 0.653606
O O5 0.860928 0.150749 0.764884
O O6 0.347606 0.056026 0.812029
O O7 0.137464 0.343633 0.991734
O O8 0.871952 0.395331 0.154501
O O9 0.631793 0.686423 0.240612
O O10 0.029097 0.667368 0.483426
O O11 0.350729 0.706220 0.901137
O O12 0.860182 0.873399 0.907868
O O13 0.302208 0.865625 0.165890
O O14 0.500000 0.500000 0.500000
O O15 0.438429 0.713793 0.782577
O O16 0.406881 0.801944 0.694217
O O17 0.500000 0.000000 0.500000
#
# Coordination Sequence:
#
# PCOD9027365 Si02
#       8
#     2   2   2   2   2   2   2   2
#     4  10  22  44  67  97 136 175 218 269 328 390
#     4  11  26  42  65  97 134 175 220 274 325 388
#     4  10  22  41  67  97 131 173 220 269 324 394
#     4  11  24  43  68  97 130 175 222 269 329 389
#     4  12  22  39  68 102 133 170 216 269 324 384
#     4  11  25  45  66  94 133 176 218 272 332 392
#     4  11  24  43  67 100 132 174 220 272 324 390
#     4  12  24  41  68 100 136 175 219 270 329 390
#
# _framework density 23.269531000000001
#
# number of rings (size 3 to 8) (size 9 to 14) (size 15 to 20)
#    0.000    1.000    2.500    3.375    0.000    9.500 
#    0.000    0.000    0.000    0.000    0.000    0.000 
#    0.000    0.000    0.000    0.000    0.000    0.000 
#
# Total GULP energy -89518.558368 kJ/mol
# GULP energy per Si atom -5594.909898 kJ/mol
# Density = 2.321657 g / cm^3
# Si number density = 23.269531 Si / 1000 Ang^3
#
#
#
# Elastic Constant Matrix: (Units=GPa)
#
#
# Indices 1 2 3 4 5 6 
#
# 1 37.5675 17.2583 20.9219 -3.4852 0.8974 5.7713
# 2 17.2583 115.0305 21.0522 -26.8675 -7.0585 -4.3668
# 3 20.9219 21.0522 93.8831 -30.9237 -8.1456 -0.4497
# 4 -3.4852 -26.8675 -30.9237 37.4300 3.6135 -4.9535
# 5 0.8974 -7.0585 -8.1456 3.6135 40.4134 -6.9803
# 6 5.7713 -4.3668 -0.4497 -4.9535 -6.9803 21.1293
#
#
#
# Elastic Compliance Matrix: (Units=1/GPa)
#
#
# Indices 1 2 3 4 5 6 
#
# 1 0.038499 -0.007846 -0.011964 -0.013653 -0.006479 -0.017733
# 2 -0.007846 0.012571 0.003121 0.011688 0.003455 0.008689
# 3 -0.011964 0.003121 0.018871 0.017581 0.004772 0.010013
# 4 -0.013653 0.011688 0.017581 0.050536 0.004817 0.019958
# 5 -0.006479 0.003455 0.004772 0.004817 0.028278 0.013056
# 6 -0.017733 0.008689 0.010013 0.019958 0.013056 0.063172
#
#
# Mechanical properties :
#
#
# Convention : Reuss Voigt Hill
#
# Bulk Modulus (GPa) = 27.35138 40.54956 33.95047
# Shear Modulus (GPa) = 19.41801 32.27779 25.84790
#
# Velocity S-wave (km/s) = 2.89187 3.72846 3.33649
# Velocity P-wave (km/s) = 4.78856 5.99992 5.42814
#
# Compressibility (1/GPa) = 0.03656123
#
# Stress axis : x y z
#
# Youngs Moduli (GPa) = 25.97495 79.54780 52.99151
#
# Poissons Ratio (x) = 0.62414 0.63401
# Poissons Ratio (y) = 0.20380 -0.16537
# Poissons Ratio (z) = 0.31077 -0.24824
#
# Static dielectric constant tensor:
#      x y z
#    x 1.851950 -0.005960 0.005350 
#    y -0.005960 1.924960 0.020040 
#    z 0.005350 0.020040 1.909770 
# 
# From -- ./inp_files/206966.got.cif
#   From: 2010.05.17/outbox.cif.g08.bks.cpg/sg2_104_cif.got.tgz:206966.got - 2010.06.03 11:33:40.
