data_PCOD9027897
_publ_section_title
;
Structure prediction by ZEFSAII (Michael W. Deem and Ramdas Pophale) SiO2 
 PCOD9027897
Probable space group: P -1
;
_chemical_formula_sum "Si O2"
_cell_formula_units_Z 16
_cell_length_a 8.030365
_cell_length_b 19.444460
_cell_length_c 9.612980
_cell_angle_alpha 53.745184
_cell_angle_beta 100.950663
_cell_angle_gamma 137.679001
_cell_volume 725.515216
_symmetry_space_group_name_H-M "P -1"
_symmetry_group_IT_number 2
_symmetry_cell_setting 'triclinic'
loop_
_space_group_symop_operation_xyz
x,y,z
-x,-y,-z
loop_
_atom_site_type_symbol
_atom_site_label
_atom_site_fract_x
_atom_site_fract_y
_atom_site_fract_z
Si Si1 0.763515 0.119273 0.496042
Si Si2 0.357175 0.325479 0.631966
Si Si3 0.430916 0.181303 0.654046
Si Si4 0.959203 0.569779 0.495665
Si Si5 0.767638 0.703232 0.029466
Si Si6 0.193093 0.404514 0.305804
Si Si7 0.180352 0.152135 0.391875
Si Si8 0.637768 0.031697 0.129161
O O1 0.609512 0.060879 0.688815
O O2 0.949778 0.278928 0.314597
O O3 0.979952 0.130957 0.480353
O O4 0.500000 0.000000 0.500000
O O5 0.343090 0.224549 0.687495
O O6 0.673929 0.488487 0.479642
O O7 0.283326 0.292773 0.821539
O O8 0.187039 0.324931 0.514139
O O9 0.426304 0.219503 0.452477
O O10 0.258394 0.025512 0.801574
O O11 0.733201 0.269986 0.647175
O O12 0.883496 0.542075 0.681011
O O13 0.000000 0.500000 0.500000
O O14 0.510057 0.538338 0.146590
O O15 0.742075 0.765192 0.832704
O O16 0.095000 0.809034 0.962930
O O17 0.000000 0.000000 0.500000
O O18 0.500000 0.000000 0.000000
#
# Coordination Sequence:
#
# PCOD9027897 Si02
#       8
#     2   2   2   2   2   2   2   2
#     4  12  24  47  70  97 135 192 226 285 354 410
#     4  10  22  41  70 100 135 179 225 291 352 405
#     4  11  22  42  68  94 137 181 225 280 355 404
#     4   9  19  36  64  97 131 173 218 273 343 407
#     4  11  24  42  68 103 135 178 237 281 342 414
#     4  11  22  42  74  97 141 180 233 290 350 413
#     4  12  25  46  68  94 140 188 229 283 345 414
#     4  12  26  42  70 103 136 177 241 289 342 417
#
# _framework density 22.053294000000001
#
# number of rings (size 3 to 8) (size 9 to 14) (size 15 to 20)
#    0.000    1.000    5.000    2.250    1.750    2.000 
#    0.000    2.500    0.000    0.000    0.000    0.000 
#    0.000    0.000    0.000    0.000    0.000    0.000 
#
# Total GULP energy -89108.805657 kJ/mol
# GULP energy per Si atom -5569.300354 kJ/mol
# Density = 2.200310 g / cm^3
# Si number density = 22.053294 Si / 1000 Ang^3
#
#
#
# Elastic Constant Matrix: (Units=GPa)
#
#
# Indices 1 2 3 4 5 6 
#
# 1 68.3534 24.4390 30.9415 -3.3689 -3.2159 -7.5606
# 2 24.4390 148.6553 50.1446 -16.9808 -5.6039 10.8232
# 3 30.9415 50.1446 110.1881 -0.1239 5.1559 2.7120
# 4 -3.3689 -16.9808 -0.1239 38.9012 15.6937 -6.7041
# 5 -3.2159 -5.6039 5.1559 15.6937 19.9365 3.7530
# 6 -7.5606 10.8232 2.7120 -6.7041 3.7530 44.9048
#
#
#
# Elastic Compliance Matrix: (Units=1/GPa)
#
#
# Indices 1 2 3 4 5 6 
#
# 1 0.017732 -0.001503 -0.004503 0.000396 0.002639 0.003458
# 2 -0.001503 0.008667 -0.003531 0.002843 0.001209 -0.001805
# 3 -0.004503 -0.003531 0.012179 0.000019 -0.004840 -0.000235
# 4 0.000396 0.002843 0.000019 0.042124 -0.033902 0.008503
# 5 0.002639 0.001209 -0.004840 -0.033902 0.081007 -0.011386
# 6 0.003458 -0.001805 -0.000235 0.008503 -0.011386 0.025522
#
#
# Mechanical properties :
#
#
# Convention : Reuss Voigt Hill
#
# Bulk Modulus (GPa) = 51.27391 59.80524 55.53958
# Shear Modulus (GPa) = 23.49553 35.52662 29.51108
#
# Velocity S-wave (km/s) = 3.26758 4.01801 3.66207
# Velocity P-wave (km/s) = 6.12671 6.97877 6.56658
#
# Compressibility (1/GPa) = 0.01950309
#
# Stress axis : x y z
#
# Youngs Moduli (GPa) = 56.39500 115.38114 82.10756
#
# Poissons Ratio (x) = 0.17343 0.36977
# Poissons Ratio (y) = 0.08477 0.28992
# Poissons Ratio (z) = 0.25397 0.40741
#
# Static dielectric constant tensor:
#      x y z
#    x 1.924740 0.056720 0.007310 
#    y 0.056720 1.963570 -0.003540 
#    z 0.007310 -0.003540 1.819510 
# 
# From -- ./inp_files/223475.got.cif
#   From: 2010.05.17/outbox.cif.g08.bks.cpg/sg2_112_cif.got.tgz:223475.got - 2010.06.03 11:33:40.
