data_PCOD9027035
_publ_section_title
;
Structure prediction by ZEFSAII (Michael W. Deem and Ramdas Pophale) SiO2 
 PCOD9027035
Probable space group: P -1
;
_chemical_formula_sum "Si O2"
_cell_formula_units_Z 16
_cell_length_a 13.941092
_cell_length_b 8.334379
_cell_length_c 13.714889
_cell_angle_alpha 95.362434
_cell_angle_beta 32.120884
_cell_angle_gamma 115.307786
_cell_volume 635.238733
_symmetry_space_group_name_H-M "P -1"
_symmetry_group_IT_number 2
_symmetry_cell_setting 'triclinic'
loop_
_space_group_symop_operation_xyz
x,y,z
-x,-y,-z
loop_
_atom_site_type_symbol
_atom_site_label
_atom_site_fract_x
_atom_site_fract_y
_atom_site_fract_z
Si Si1 0.587714 0.808433 0.488250
Si Si2 0.835550 0.368789 0.039780
Si Si3 0.757696 0.564072 0.393060
Si Si4 0.663415 0.217147 0.809670
Si Si5 0.055579 0.856205 0.549393
Si Si6 0.956513 0.768627 0.856576
Si Si7 0.497455 0.323720 0.789497
Si Si8 0.595269 0.713620 0.834633
O O1 0.424639 0.812314 0.703561
O O2 0.694242 0.714126 0.446277
O O3 0.417943 0.634670 0.541384
O O4 0.805370 0.045226 0.278328
O O5 0.000000 0.500000 0.000000
O O6 0.969404 0.309150 0.862637
O O7 0.844308 0.537297 0.978393
O O8 0.697806 0.453615 0.542098
O O9 0.903007 0.268977 0.569164
O O10 0.534266 0.195146 0.820145
O O11 0.636702 0.353078 0.913340
O O12 0.500000 0.000000 0.000000
O O13 0.036446 0.806252 0.676902
O O14 0.289112 0.102377 0.336148
O O15 0.819084 0.818074 0.721430
O O16 0.763581 0.797942 0.037312
O O17 0.532611 0.505960 0.832831
#
# Coordination Sequence:
#
# PCOD9027035 Si02
#       8
#     2   2   2   2   2   2   2   2
#     4  10  23  46  68  98 138 174 217 280 332 389
#     4  10  23  46  67  97 133 172 221 278 330 388
#     4  10  22  45  69  97 134 173 225 275 330 393
#     4  10  22  42  63  93 128 170 221 272 324 389
#     4  10  22  41  66  95 129 174 223 270 332 388
#     4  12  24  42  71  99 136 178 220 271 334 398
#     4  12  23  42  68  99 134 177 223 270 333 396
#     4  10  22  43  65  91 137 171 215 284 327 384
#
# _framework density 25.187379
#
# number of rings (size 3 to 8) (size 9 to 14) (size 15 to 20)
#    0.000    1.500    2.500    1.875    0.000    3.000 
#    6.750    0.000    0.000    0.000    0.000    0.000 
#    0.000    0.000    0.000    0.000    0.000    0.000 
#
# Total GULP energy -89593.613509 kJ/mol
# GULP energy per Si atom -5599.600844 kJ/mol
# Density = 2.513005 g / cm^3
# Si number density = 25.187379 Si / 1000 Ang^3
#
#
#
# Elastic Constant Matrix: (Units=GPa)
#
#
# Indices 1 2 3 4 5 6 
#
# 1 54.5314 10.2724 -7.8715 5.1715 18.3779 -19.7792
# 2 10.2724 49.6078 21.8668 7.5850 -0.3451 -5.2560
# 3 -7.8715 21.8668 111.1726 30.9152 2.6998 2.6373
# 4 5.1715 7.5850 30.9152 44.7867 0.8759 -2.8688
# 5 18.3779 -0.3451 2.6998 0.8759 43.9474 -8.5822
# 6 -19.7792 -5.2560 2.6373 -2.8688 -8.5822 33.2314
#
#
#
# Elastic Compliance Matrix: (Units=1/GPa)
#
#
# Indices 1 2 3 4 5 6 
#
# 1 0.028291 -0.005801 0.004245 -0.004210 -0.009563 0.012751
# 2 -0.005801 0.023842 -0.005311 0.000338 0.003246 0.001607
# 3 0.004245 -0.005311 0.012752 -0.008389 -0.002572 -0.000714
# 4 -0.004210 0.000338 -0.008389 0.028585 0.001940 0.001182
# 5 -0.009563 0.003246 -0.002572 0.001940 0.027338 0.002254
# 6 0.012751 0.001607 -0.000714 0.001182 0.002254 0.038676
#
#
# Mechanical properties :
#
#
# Convention : Reuss Voigt Hill
#
# Bulk Modulus (GPa) = 19.55037 29.31637 24.43337
# Shear Modulus (GPa) = 26.27851 37.12935 31.70393
#
# Velocity S-wave (km/s) = 3.23355 3.84360 3.55170
# Velocity P-wave (km/s) = 4.66047 5.60020 5.15181
#
# Compressibility (1/GPa) = 0.05114993
#
# Stress axis : x y z
#
# Youngs Moduli (GPa) = 35.34744 41.94329 78.41661
#
# Poissons Ratio (x) = 0.24332 -0.33286
# Poissons Ratio (y) = 0.20505 0.41648
# Poissons Ratio (z) = -0.15004 0.22276
#
# Static dielectric constant tensor:
#      x y z
#    x 2.009280 0.013770 -0.036950 
#    y 0.013770 2.021720 0.011490 
#    z -0.036950 0.011490 1.974340 
# 
# From -- ./inp_files/529607.got.cif
#   From: 2010.05.17/outbox.cif.g08.bks.cpg/sg2_265_cif.got.tgz:529607.got - 2010.06.03 11:33:40.
