data_PCOD9027837
_publ_section_title
;
Structure prediction by ZEFSAII (Michael W. Deem and Ramdas Pophale) SiO2 
 PCOD9027837
Probable space group: P -1
;
_chemical_formula_sum "Si O2"
_cell_formula_units_Z 16
_cell_length_a 17.585073
_cell_length_b 9.201943
_cell_length_c 7.116495
_cell_angle_alpha 61.292098
_cell_angle_beta 118.581456
_cell_angle_gamma 141.961615
_cell_volume 611.596131
_symmetry_space_group_name_H-M "P -1"
_symmetry_group_IT_number 2
_symmetry_cell_setting 'triclinic'
loop_
_space_group_symop_operation_xyz
x,y,z
-x,-y,-z
loop_
_atom_site_type_symbol
_atom_site_label
_atom_site_fract_x
_atom_site_fract_y
_atom_site_fract_z
Si Si1 0.705024 0.794951 0.471862
Si Si2 0.364305 0.222000 0.020064
Si Si3 0.525847 0.163080 0.197630
Si Si4 0.200772 0.521404 0.674457
Si Si5 0.117137 0.476367 0.012890
Si Si6 0.842544 0.223289 0.785479
Si Si7 0.492765 0.751889 0.311659
Si Si8 0.040037 0.016020 0.251523
O O1 0.620435 0.824887 0.440306
O O2 0.622605 0.519186 0.592451
O O3 0.846393 0.954875 0.601129
O O4 0.697203 0.823330 0.223998
O O5 0.417496 0.113636 0.199262
O O6 0.247446 0.063130 0.122925
O O7 0.500000 0.500000 0.000000
O O8 0.669002 0.382328 0.291795
O O9 0.496054 0.929666 0.308383
O O10 0.519107 0.222367 0.939026
O O11 0.184733 0.677833 0.464623
O O12 0.085582 0.242655 0.659618
O O13 0.203025 0.555904 0.883150
O O14 0.163852 0.681427 0.083811
O O15 0.087870 0.263608 0.217996
O O16 0.984944 0.359165 0.849520
O O17 0.000000 0.000000 0.000000
#
# Coordination Sequence:
#
# PCOD9027837 Si02
#       8
#     2   2   2   2   2   2   2   2
#     4  10  22  41  69  96 140 184 236 291 372 417
#     4  11  28  47  66  99 149 194 238 303 354 435
#     4  10  23  41  70 101 140 180 244 293 360 425
#     4  11  25  44  74 106 141 190 240 301 360 426
#     4  10  25  47  71 104 147 188 238 300 355 436
#     4  11  27  46  71 105 144 192 242 296 364 424
#     4   9  20  40  67 101 130 183 235 298 348 434
#     4  10  23  42  71 106 140 184 235 299 357 429
#
# _framework density 26.161058000000001
#
# number of rings (size 3 to 8) (size 9 to 14) (size 15 to 20)
#    0.000    1.750    0.000    1.875   14.000    4.000 
#    2.250    0.000    0.000    0.000    0.000    0.000 
#    0.000    0.000    0.000    0.000    0.000    0.000 
#
# Total GULP energy -89642.854647 kJ/mol
# GULP energy per Si atom -5602.678415 kJ/mol
# Density = 2.610151 g / cm^3
# Si number density = 26.161058 Si / 1000 Ang^3
#
#
#
# Elastic Constant Matrix: (Units=GPa)
#
#
# Indices 1 2 3 4 5 6 
#
# 1 55.7980 14.0641 26.8252 15.4364 16.1665 2.6682
# 2 14.0641 136.9855 54.5672 -2.8458 27.3915 17.7414
# 3 26.8252 54.5672 126.9550 3.1857 7.4911 1.3113
# 4 15.4364 -2.8458 3.1857 50.6248 10.9240 18.6228
# 5 16.1665 27.3915 7.4911 10.9240 48.7081 6.4784
# 6 2.6682 17.7414 1.3113 18.6228 6.4784 35.6363
#
#
#
# Elastic Compliance Matrix: (Units=1/GPa)
#
#
# Indices 1 2 3 4 5 6 
#
# 1 0.023528 0.000069 -0.004507 -0.006668 -0.006052 0.002955
# 2 0.000069 0.011241 -0.004551 0.004651 -0.005781 -0.006814
# 3 -0.004507 -0.004551 0.010648 -0.000879 0.002316 0.002250
# 4 -0.006668 0.004651 -0.000879 0.029030 -0.004635 -0.016112
# 5 -0.006052 -0.005781 0.002316 -0.004635 0.026357 0.000877
# 6 0.002955 -0.006814 0.002250 -0.016112 0.000877 0.039410
#
#
# Mechanical properties :
#
#
# Convention : Reuss Voigt Hill
#
# Bulk Modulus (GPa) = 36.44653 56.73906 46.59280
# Shear Modulus (GPa) = 29.87946 41.94596 35.91271
#
# Velocity S-wave (km/s) = 3.38322 4.00856 3.70909
# Velocity P-wave (km/s) = 5.40586 6.56964 6.01596
#
# Compressibility (1/GPa) = 0.02743745
#
# Stress axis : x y z
#
# Youngs Moduli (GPa) = 42.50248 88.95942 93.91840
#
# Poissons Ratio (x) = -0.00612 0.42330
# Poissons Ratio (y) = -0.00292 0.42745
# Poissons Ratio (z) = 0.19156 0.40488
#
# Static dielectric constant tensor:
#      x y z
#    x 2.096230 -0.115640 -0.053940 
#    y -0.115640 2.089970 0.017620 
#    z -0.053940 0.017620 1.990350 
# 
# From -- ./inp_files/345970.got.cif
#   From: 2010.05.17/outbox.cif.g08.bks.cpg/sg2_173_cif.got.tgz:345970.got - 2010.06.03 11:33:40.
