data_PCOD9027554
_publ_section_title
;
Structure prediction by ZEFSAII (Michael W. Deem and Ramdas Pophale) SiO2 
 PCOD9027554
Probable space group: P -1
;
_chemical_formula_sum "Si O2"
_cell_formula_units_Z 16
_cell_length_a 14.772618
_cell_length_b 5.148933
_cell_length_c 10.511279
_cell_angle_alpha 72.286919
_cell_angle_beta 89.534172
_cell_angle_gamma 97.388284
_cell_volume 754.349162
_symmetry_space_group_name_H-M "P -1"
_symmetry_group_IT_number 2
_symmetry_cell_setting 'triclinic'
loop_
_space_group_symop_operation_xyz
x,y,z
-x,-y,-z
loop_
_atom_site_type_symbol
_atom_site_label
_atom_site_fract_x
_atom_site_fract_y
_atom_site_fract_z
Si Si1 0.437329 0.714175 0.520988
Si Si2 0.271314 0.432656 0.012854
Si Si3 0.176013 0.479562 0.744709
Si Si4 0.727253 0.060972 0.510832
Si Si5 0.393114 0.981572 0.972533
Si Si6 0.859953 0.787977 0.728578
Si Si7 0.666547 0.777469 0.302502
Si Si8 0.022554 0.627441 0.339413
O O1 0.500000 0.500000 0.500000
O O2 0.348539 0.791953 0.435436
O O3 0.385750 0.534332 0.663414
O O4 0.500000 0.000000 0.500000
O O5 0.334749 0.685304 0.041400
O O6 0.192230 0.296728 0.127677
O O7 0.338946 0.214750 0.001144
O O8 0.218889 0.539506 0.874835
O O9 0.207158 0.715540 0.604989
O O10 0.229121 0.226955 0.739461
O O11 0.068355 0.410892 0.740183
O O12 0.784702 0.888043 0.622359
O O13 0.672410 0.869608 0.433663
O O14 0.500000 0.000000 0.000000
O O15 0.384693 0.034010 0.813732
O O16 0.903120 0.538783 0.701403
O O17 0.937614 0.051753 0.700412
O O18 0.000000 0.500000 0.500000
#
# Coordination Sequence:
#
# PCOD9027554 Si02
#       8
#     2   2   2   2   2   2   2   2
#     4  11  23  38  58  93 130 166 213 274 328 389
#     4  11  25  47  65 101 137 176 217 278 340 389
#     4  10  23  41  71  91 131 177 223 270 325 396
#     4  11  22  42  67  93 132 174 220 271 332 398
#     4  11  24  44  72  95 131 180 230 269 320 406
#     4  12  28  42  69 102 140 171 218 282 350 377
#     4  10  22  41  68  94 125 175 230 265 331 399
#     4  12  25  44  70 103 131 174 231 274 324 415
#
# _framework density 21.210335000000001
#
# number of rings (size 3 to 8) (size 9 to 14) (size 15 to 20)
#    0.000    1.000    3.750    2.250    3.500    3.000 
#    0.000    0.000    0.000    0.000    0.000    0.000 
#    0.000    0.000    0.000    0.000    0.000    0.000 
#
# Total GULP energy -89319.993032 kJ/mol
# GULP energy per Si atom -5582.499564 kJ/mol
# Density = 2.116206 g / cm^3
# Si number density = 21.210335 Si / 1000 Ang^3
#
#
#
# Elastic Constant Matrix: (Units=GPa)
#
#
# Indices 1 2 3 4 5 6 
#
# 1 116.4480 8.9280 37.3036 8.3702 17.6847 -4.6824
# 2 8.9280 84.6102 -0.4050 -8.2859 0.9389 2.9542
# 3 37.3036 -0.4050 64.1127 1.3632 12.1472 -1.0835
# 4 8.3702 -8.2859 1.3632 22.4977 4.3530 -6.9414
# 5 17.6847 0.9389 12.1472 4.3530 34.9371 -5.9869
# 6 -4.6824 2.9542 -1.0835 -6.9414 -5.9869 42.0864
#
#
#
# Elastic Compliance Matrix: (Units=1/GPa)
#
#
# Indices 1 2 3 4 5 6 
#
# 1 0.011369 -0.001570 -0.005945 -0.003793 -0.003147 0.000149
# 2 -0.001570 0.012510 0.000987 0.005163 -0.000572 -0.000257
# 3 -0.005945 0.000987 0.019816 0.002046 -0.004245 -0.000487
# 4 -0.003793 0.005163 0.002046 0.050589 -0.004027 0.007039
# 5 -0.003147 -0.000572 -0.004245 -0.004027 0.032824 0.003586
# 6 0.000149 -0.000257 -0.000487 0.007039 0.003586 0.025454
#
#
# Mechanical properties :
#
#
# Convention : Reuss Voigt Hill
#
# Bulk Modulus (GPa) = 32.63949 39.64712 36.14331
# Shear Modulus (GPa) = 28.43642 34.52718 31.48180
#
# Velocity S-wave (km/s) = 3.66551 4.03904 3.85680
# Velocity P-wave (km/s) = 5.77378 6.36276 6.07541
#
# Compressibility (1/GPa) = 0.03063773
#
# Stress axis : x y z
#
# Youngs Moduli (GPa) = 87.95778 79.93468 50.46514
#
# Poissons Ratio (x) = 0.12548 0.30004
# Poissons Ratio (y) = 0.13808 -0.04979
# Poissons Ratio (z) = 0.52295 -0.07887
#
# Static dielectric constant tensor:
#      x y z
#    x 2.033430 0.031150 -0.164360 
#    y 0.031150 1.845890 -0.016900 
#    z -0.164360 -0.016900 1.846460 
# 
# From -- ./inp_files/409902.got.cif
#   From: 2010.05.17/outbox.cif.g08.bks.cpg/sg2_205_cif.got.tgz:409902.got - 2010.06.03 11:33:40.
