data_PCOD9027683
_publ_section_title
;
Structure prediction by ZEFSAII (Michael W. Deem and Ramdas Pophale) SiO2 
 PCOD9027683
Probable space group: P -1
;
_chemical_formula_sum "Si O2"
_cell_formula_units_Z 16
_cell_length_a 5.529854
_cell_length_b 11.549347
_cell_length_c 27.556835
_cell_angle_alpha 28.562262
_cell_angle_beta 106.287686
_cell_angle_gamma 121.279425
_cell_volume 649.385829
_symmetry_space_group_name_H-M "P -1"
_symmetry_group_IT_number 2
_symmetry_cell_setting 'triclinic'
loop_
_space_group_symop_operation_xyz
x,y,z
-x,-y,-z
loop_
_atom_site_type_symbol
_atom_site_label
_atom_site_fract_x
_atom_site_fract_y
_atom_site_fract_z
Si Si1 0.766649 0.695783 0.904792
Si Si2 0.836075 0.304276 0.992397
Si Si3 0.922611 0.225339 0.237914
Si Si4 0.377989 0.266388 0.534524
Si Si5 0.592990 0.371581 0.802545
Si Si6 0.817553 0.380535 0.326951
Si Si7 0.944151 0.770386 0.339314
Si Si8 0.174390 0.770110 0.506306
O O1 0.682105 0.467463 0.940332
O O2 0.500000 0.500000 0.000000
O O3 0.865721 0.013459 0.774416
O O4 0.066313 0.768578 0.924960
O O5 0.117608 0.575881 0.875294
O O6 0.612929 0.987752 0.071043
O O7 0.220750 0.469164 0.196371
O O8 0.633852 0.003560 0.339707
O O9 0.983047 0.004596 0.294735
O O10 0.500000 0.500000 0.500000
O O11 0.567148 0.510191 0.411689
O O12 0.019450 0.097155 0.560847
O O13 0.350101 0.452655 0.748308
O O14 0.863213 0.474568 0.738869
O O15 0.867186 0.352681 0.396790
O O16 0.541345 0.034908 0.422096
O O17 0.989983 0.506497 0.439807
#
# Coordination Sequence:
#
# PCOD9027683 Si02
#       8
#     2   2   2   2   2   2   2   2
#     4  10  23  43  67 105 140 179 245 304 366 436
#     4  10  24  42  72  98 140 193 239 303 364 434
#     4  10  22  47  64 102 144 191 242 301 358 442
#     4  10  22  41  68  99 147 185 241 295 369 429
#     4  12  25  50  71 108 145 196 250 294 374 433
#     4  11  28  44  77 106 152 192 244 313 359 445
#     4  10  23  41  71 102 139 186 243 302 371 427
#     4  11  24  42  70 109 142 197 240 308 372 432
#
# _framework density 24.638666000000001
#
# number of rings (size 3 to 8) (size 9 to 14) (size 15 to 20)
#    0.000    1.500    1.250    1.875    7.000    6.000 
#    9.000    1.250    0.000    0.000    0.000    0.000 
#    0.000    0.000    0.000    0.000    0.000    0.000 
#
# Total GULP energy -89101.406487 kJ/mol
# GULP energy per Si atom -5568.837905 kJ/mol
# Density = 2.458259 g / cm^3
# Si number density = 24.638666 Si / 1000 Ang^3
#
#
#
# Elastic Constant Matrix: (Units=GPa)
#
#
# Indices 1 2 3 4 5 6 
#
# 1 80.3463 11.0667 35.4595 0.6205 -2.1313 -7.7634
# 2 11.0667 77.2566 45.1805 -14.8911 3.1289 -11.9805
# 3 35.4595 45.1805 209.0416 -15.8753 -2.0524 -23.9238
# 4 0.6205 -14.8911 -15.8753 48.6750 -10.7522 1.5347
# 5 -2.1313 3.1289 -2.0524 -10.7522 31.0443 2.2306
# 6 -7.7634 -11.9805 -23.9238 1.5347 2.2306 28.5987
#
#
#
# Elastic Compliance Matrix: (Units=1/GPa)
#
#
# Indices 1 2 3 4 5 6 
#
# 1 0.013627 -0.000707 -0.002035 -0.001021 0.000395 0.001725
# 2 -0.000707 0.015955 -0.002572 0.003734 -0.000835 0.004205
# 3 -0.002035 -0.002572 0.006182 0.001311 0.000737 0.003414
# 4 -0.001021 0.003734 0.001311 0.023849 0.007865 0.000490
# 5 0.000395 -0.000835 0.000737 0.007865 0.035297 -0.002802
# 6 0.001725 0.004205 0.003414 0.000490 -0.002802 0.040245
#
#
# Mechanical properties :
#
#
# Convention : Reuss Voigt Hill
#
# Bulk Modulus (GPa) = 39.78368 61.11754 50.45061
# Shear Modulus (GPa) = 32.43354 39.99279 36.21316
#
# Velocity S-wave (km/s) = 3.63211 4.03323 3.83792
# Velocity P-wave (km/s) = 5.81133 6.82266 6.33720
#
# Compressibility (1/GPa) = 0.02513594
#
# Stress axis : x y z
#
# Youngs Moduli (GPa) = 73.38591 62.67674 161.75361
#
# Poissons Ratio (x) = 0.04433 0.32915
# Poissons Ratio (y) = 0.05190 0.41599
# Poissons Ratio (z) = 0.14933 0.16119
#
# Static dielectric constant tensor:
#      x y z
#    x 2.728140 -0.302650 -0.001950 
#    y -0.302650 2.125650 0.043730 
#    z -0.001950 0.043730 1.993670 
# 
# From -- ./inp_files/621846.got.cif
#   From: 2010.05.17/outbox.cif.g08.bks.cpg/sg2_311_cif.got.tgz:621846.got - 2010.06.03 11:33:40.
