data_PCOD9027168
_publ_section_title
;
Structure prediction by ZEFSAII (Michael W. Deem and Ramdas Pophale) SiO2 
 PCOD9027168
Probable space group: P -1
;
_chemical_formula_sum "Si O2"
_cell_formula_units_Z 16
_cell_length_a 15.889353
_cell_length_b 7.828687
_cell_length_c 22.308441
_cell_angle_alpha 41.521595
_cell_angle_beta 156.622013
_cell_angle_gamma 144.119062
_cell_volume 645.215673
_symmetry_space_group_name_H-M "P -1"
_symmetry_group_IT_number 2
_symmetry_cell_setting 'triclinic'
loop_
_space_group_symop_operation_xyz
x,y,z
-x,-y,-z
loop_
_atom_site_type_symbol
_atom_site_label
_atom_site_fract_x
_atom_site_fract_y
_atom_site_fract_z
Si Si1 0.936601 0.330553 0.602001
Si Si2 0.578860 0.724693 0.547286
Si Si3 0.365830 0.488153 0.718324
Si Si4 0.128807 0.743370 0.211688
Si Si5 0.643339 0.597255 0.396763
Si Si6 0.627293 0.141437 0.223842
Si Si7 0.787159 0.996580 0.928878
Si Si8 0.735236 0.119874 0.163027
O O1 0.202753 0.641261 0.554829
O O2 0.218156 0.537247 0.731926
O O3 0.839596 0.994941 0.641036
O O4 0.838605 0.479803 0.549217
O O5 0.500000 0.500000 0.500000
O O6 0.528921 0.558861 0.620349
O O7 0.387780 0.850095 0.382738
O O8 0.469598 0.463270 0.727346
O O9 0.592600 0.691938 0.851862
O O10 0.210960 0.154868 0.724731
O O11 0.953408 0.412588 0.203631
O O12 0.012189 0.945177 0.103214
O O13 0.155744 0.776772 0.148061
O O14 0.744854 0.943422 0.378055
O O15 0.356484 0.981165 0.113720
O O16 0.656796 0.170479 0.164476
O O17 0.500000 0.000000 0.000000
#
# Coordination Sequence:
#
# PCOD9027168 Si02
#       8
#     2   2   2   2   2   2   2   2
#     4  10  22  41  67 100 138 181 224 286 352 409
#     4  12  24  41  69 106 137 177 237 292 343 415
#     4   9  21  40  64  95 130 187 218 274 356 402
#     4  11  24  43  70  92 139 189 223 280 357 400
#     4   9  21  38  66  96 140 181 224 281 354 409
#     4  11  24  42  72 108 134 179 242 287 340 412
#     4  11  23  45  68  96 139 187 235 282 340 419
#     4  11  23  44  71  99 138 183 231 287 345 416
#
# _framework density 24.797908
#
# number of rings (size 3 to 8) (size 9 to 14) (size 15 to 20)
#    0.750    0.750    2.500    2.250    1.750    3.000 
#    0.000    0.625    8.250    0.000    0.000    0.000 
#    0.000    0.000    0.000    0.000    0.000    0.000 
#
# Total GULP energy -89518.004041 kJ/mol
# GULP energy per Si atom -5594.875253 kJ/mol
# Density = 2.474147 g / cm^3
# Si number density = 24.797908 Si / 1000 Ang^3
#
#
#
# Elastic Constant Matrix: (Units=GPa)
#
#
# Indices 1 2 3 4 5 6 
#
# 1 101.8440 56.9666 16.4747 -5.7020 12.9896 23.4379
# 2 56.9666 148.4874 11.6323 -15.1019 -9.0506 41.3748
# 3 16.4747 11.6323 50.4035 5.0193 -4.6042 6.9654
# 4 -5.7020 -15.1019 5.0193 28.4453 4.4935 -6.4556
# 5 12.9896 -9.0506 -4.6042 4.4935 27.6522 3.2108
# 6 23.4379 41.3748 6.9654 -6.4556 3.2108 43.3284
#
#
#
# Elastic Compliance Matrix: (Units=1/GPa)
#
#
# Indices 1 2 3 4 5 6 
#
# 1 0.015394 -0.005604 -0.004732 0.002284 -0.010094 -0.001127
# 2 -0.005604 0.011894 0.000771 0.001917 0.007354 -0.008710
# 3 -0.004732 0.000771 0.023056 -0.006620 0.007790 -0.003447
# 4 0.002284 0.001917 -0.006620 0.040211 -0.008620 0.004628
# 5 -0.010094 0.007354 0.007790 -0.008620 0.046889 -0.007573
# 6 -0.001127 -0.008710 -0.003447 0.004628 -0.007573 0.033811
#
#
# Mechanical properties :
#
#
# Convention : Reuss Voigt Hill
#
# Bulk Modulus (GPa) = 32.03685 52.32022 42.17853
# Shear Modulus (GPa) = 24.90182 34.26260 29.58221
#
# Velocity S-wave (km/s) = 3.17233 3.72112 3.45763
# Velocity P-wave (km/s) = 5.13473 6.29339 5.74335
#
# Compressibility (1/GPa) = 0.03121406
#
# Stress axis : x y z
#
# Youngs Moduli (GPa) = 64.96246 84.07454 43.37307
#
# Poissons Ratio (x) = 0.47115 0.20524
# Poissons Ratio (y) = 0.36405 -0.03345
# Poissons Ratio (z) = 0.30740 -0.06484
#
# Static dielectric constant tensor:
#      x y z
#    x 2.063160 -0.019520 0.055130 
#    y -0.019520 1.956040 -0.053830 
#    z 0.055130 -0.053830 1.992040 
# 
# From -- ./inp_files/611473.got.cif
#   From: 2010.05.17/outbox.cif.g08.bks.cpg/sg2_306_cif.got.tgz:611473.got - 2010.06.03 11:33:40.
