data_PCOD9027463
_publ_section_title
;
Structure prediction by ZEFSAII (Michael W. Deem and Ramdas Pophale) SiO2 
 PCOD9027463
Probable space group: P -1
;
_chemical_formula_sum "Si O2"
_cell_formula_units_Z 11
_cell_length_a 6.797840
_cell_length_b 9.752977
_cell_length_c 8.673561
_cell_angle_alpha 67.396607
_cell_angle_beta 121.631785
_cell_angle_gamma 113.395511
_cell_volume 437.805603
_symmetry_space_group_name_H-M "P -1"
_symmetry_group_IT_number 2
_symmetry_cell_setting 'triclinic'
loop_
_space_group_symop_operation_xyz
x,y,z
-x,-y,-z
loop_
_atom_site_type_symbol
_atom_site_label
_atom_site_fract_x
_atom_site_fract_y
_atom_site_fract_z
Si Si1 0.699610 0.843720 0.734602
Si Si2 0.764067 0.508372 0.984489
Si Si3 0.459092 0.950900 0.178468
Si Si4 0.734611 0.575189 0.286491
Si Si5 0.000000 0.000000 0.500000
Si Si6 0.241979 0.713257 0.408664
O O1 0.728933 0.677889 0.867660
O O2 0.438729 0.814456 0.558291
O O3 0.682839 0.943916 0.833291
O O4 0.903300 0.918050 0.665422
O O5 0.521394 0.396946 0.866434
O O6 0.783852 0.491015 0.184109
O O7 0.000000 0.500000 0.000000
O O8 0.306256 0.780814 0.237317
O O9 0.722344 0.971012 0.345464
O O10 0.500000 0.000000 0.000000
O O11 0.729371 0.458391 0.475581
O O12 0.971132 0.711021 0.345186
#
# Coordination Sequence:
#
# PCOD9027463 Si02
#       6
#     2   2   2   2   1   2
#     4  10  23  44  70 102 144 184 238 296 355 426
#     4  10  22  41  68 102 137 180 235 291 361 424
#     4  11  25  45  71 108 143 193 239 293 359 429
#     4   9  20  41  67  97 136 179 227 299 348 423
#     4  10  22  42  70 104 140 186 228 294 360 420
#     4   9  19  43  68  99 135 180 232 291 357 417
#
# _framework density 25.125306999999999
#
# number of rings (size 3 to 8) (size 9 to 14) (size 15 to 20)
#    0.000    2.182    0.000    2.182    2.545    6.545 
#    3.273   11.818    0.000    0.000    0.000    0.000 
#    0.000    0.000    0.000    0.000    0.000    0.000 
#
# Total GULP energy -61334.996059 kJ/mol
# GULP energy per Si atom -5575.908733 kJ/mol
# Density = 2.506812 g / cm^3
# Si number density = 25.125307 Si / 1000 Ang^3
#
#
#
# Elastic Constant Matrix: (Units=GPa)
#
#
# Indices 1 2 3 4 5 6 
#
# 1 153.7362 62.1537 45.9051 -7.1744 -13.0142 40.3285
# 2 62.1537 87.8602 37.7668 -16.1143 -9.2898 36.2971
# 3 45.9051 37.7668 125.3637 -23.7898 -16.5137 14.7371
# 4 -7.1744 -16.1143 -23.7898 30.6484 29.0978 -4.4265
# 5 -13.0142 -9.2898 -16.5137 29.0978 56.2871 2.3636
# 6 40.3285 36.2971 14.7371 -4.4265 2.3636 48.6408
#
#
#
# Elastic Compliance Matrix: (Units=1/GPa)
#
#
# Indices 1 2 3 4 5 6 
#
# 1 0.010874 -0.005329 -0.002587 -0.007975 0.005218 -0.005235
# 2 -0.005329 0.021668 -0.001869 0.010062 -0.002981 -0.010124
# 3 -0.002587 -0.001869 0.010794 0.009582 -0.002747 0.001275
# 4 -0.007975 0.010062 0.009582 0.082560 -0.040290 0.005671
# 5 0.005218 -0.002981 -0.002747 -0.040290 0.038789 -0.006821
# 6 -0.005235 -0.010124 0.001275 0.005671 -0.006821 0.032915
#
#
# Mechanical properties :
#
#
# Convention : Reuss Voigt Hill
#
# Bulk Modulus (GPa) = 42.07839 73.17903 57.62871
# Shear Modulus (GPa) = 22.21308 41.85757 32.03532
#
# Velocity S-wave (km/s) = 2.97659 4.08604 3.57462
# Velocity P-wave (km/s) = 5.34764 7.17285 6.32641
#
# Compressibility (1/GPa) = 0.02376517
#
# Stress axis : x y z
#
# Youngs Moduli (GPa) = 91.95964 46.15184 92.64473
#
# Poissons Ratio (x) = 0.24593 0.23968
# Poissons Ratio (y) = 0.49003 0.17319
# Poissons Ratio (z) = 0.23791 0.08628
#
# Static dielectric constant tensor:
#      x y z
#    x 2.027410 -0.134750 0.001660 
#    y -0.134750 2.249770 0.003740 
#    z 0.001660 0.003740 1.993370 
# 
# From -- ./inp_files/130526.got.cif
#   From: 2010.05.17/outbox.cif.g08.bks.cpg/sg2_66_cif.got.tgz:130526.got - 2010.06.03 11:33:40.
