data_PCOD9027316
_publ_section_title
;
Structure prediction by ZEFSAII (Michael W. Deem and Ramdas Pophale) SiO2 
 PCOD9027316
Probable space group: P -1
;
_chemical_formula_sum "Si O2"
_cell_formula_units_Z 14
_cell_length_a 10.806266
_cell_length_b 10.641565
_cell_length_c 9.632068
_cell_angle_alpha 131.988703
_cell_angle_beta 49.259973
_cell_angle_gamma 112.484005
_cell_volume 620.894263
_symmetry_space_group_name_H-M "P -1"
_symmetry_group_IT_number 2
_symmetry_cell_setting 'triclinic'
loop_
_space_group_symop_operation_xyz
x,y,z
-x,-y,-z
loop_
_atom_site_type_symbol
_atom_site_label
_atom_site_fract_x
_atom_site_fract_y
_atom_site_fract_z
Si Si1 0.826465 0.307570 0.491999
Si Si2 0.865283 0.868289 0.470214
Si Si3 0.142810 0.338393 0.946194
Si Si4 0.672685 0.979201 0.271965
Si Si5 0.883291 0.597169 0.492481
Si Si6 0.387149 0.584378 0.020936
Si Si7 0.524418 0.072527 0.885014
O O1 0.771360 0.141906 0.340142
O O2 0.768638 0.473783 0.564963
O O3 0.751936 0.316929 0.707451
O O4 0.016540 0.320639 0.396283
O O5 0.916111 0.742908 0.212347
O O6 0.830958 0.749128 0.538475
O O7 0.695053 0.975183 0.634420
O O8 0.000000 0.000000 0.500000
O O9 0.215871 0.183839 0.875026
O O10 0.298271 0.449260 0.896870
O O11 0.001758 0.460476 0.214810
O O12 0.500000 0.000000 0.500000
O O13 0.619510 0.960633 0.139096
O O14 0.460715 0.726862 0.982303
O O15 0.500000 0.500000 0.000000
O O16 0.500000 0.000000 0.000000
#
# Coordination Sequence:
#
# PCOD9027316 Si02
#       7
#     2   2   2   2   2   2   2
#     4  10  22  41  67  95 132 178 232 282 333 406
#     4  12  25  45  67  92 148 183 225 281 353 413
#     4  11  22  40  72  96 126 183 234 270 343 413
#     4  12  21  43  68  97 128 182 231 275 343 404
#     4  10  24  40  65 103 133 177 230 283 339 408
#     4  11  21  41  68  94 131 174 223 278 338 402
#     4  12  28  43  67 106 138 177 229 292 348 400
#
# _framework density 22.548121999999999
#
# number of rings (size 3 to 8) (size 9 to 14) (size 15 to 20)
#    0.000    0.857    4.286    3.000    2.000    4.000 
#    0.000    1.429    0.000    0.000    0.000    0.000 
#    0.000    0.000    0.000    0.000    0.000    0.000 
#
# Total GULP energy -78288.170241 kJ/mol
# GULP energy per Si atom -5592.012160 kJ/mol
# Density = 2.249680 g / cm^3
# Si number density = 22.548122 Si / 1000 Ang^3
#
#
#
# Elastic Constant Matrix: (Units=GPa)
#
#
# Indices 1 2 3 4 5 6 
#
# 1 82.2970 56.5397 35.9020 24.6240 34.0252 -0.6033
# 2 56.5397 197.2079 48.6243 29.8845 30.1386 -10.3929
# 3 35.9020 48.6243 67.9441 8.5365 19.2848 12.1333
# 4 24.6240 29.8845 8.5365 40.3900 -0.8264 12.2259
# 5 34.0252 30.1386 19.2848 -0.8264 52.8743 13.6149
# 6 -0.6033 -10.3929 12.1333 12.2259 13.6149 43.8359
#
#
#
# Elastic Compliance Matrix: (Units=1/GPa)
#
#
# Indices 1 2 3 4 5 6 
#
# 1 0.033954 0.001885 -0.012770 -0.025598 -0.023533 0.018897
# 2 0.001885 0.008703 -0.005762 -0.008965 -0.006310 0.008144
# 3 -0.012770 -0.005762 0.024885 0.010956 0.006037 -0.013360
# 4 -0.025598 -0.008965 0.010956 0.053847 0.025776 -0.028534
# 5 -0.023533 -0.006310 0.006037 0.025776 0.041960 -0.023712
# 6 0.018897 0.008144 -0.013360 -0.028534 -0.023712 0.044024
#
#
# Mechanical properties :
#
#
# Convention : Reuss Voigt Hill
#
# Bulk Modulus (GPa) = 29.19756 69.95344 49.57550
# Shear Modulus (GPa) = 19.83497 41.17890 30.50694
#
# Velocity S-wave (km/s) = 2.96915 4.27812 3.68226
# Velocity P-wave (km/s) = 4.97308 7.44946 6.33348
#
# Compressibility (1/GPa) = 0.03424944
#
# Stress axis : x y z
#
# Youngs Moduli (GPa) = 29.45191 114.90358 40.18539
#
# Poissons Ratio (x) = -0.21663 0.51315
# Poissons Ratio (y) = -0.05553 0.23153
# Poissons Ratio (z) = 0.37609 0.66202
#
# Static dielectric constant tensor:
#      x y z
#    x 1.863940 0.041320 -0.080920 
#    y 0.041320 1.872720 -0.045730 
#    z -0.080920 -0.045730 1.880360 
# 
# From -- ./inp_files/245788.got.cif
#   From: 2010.05.17/outbox.cif.g08.bks.cpg/sg2_123_cif.got.tgz:245788.got - 2010.06.03 11:33:40.
