data_PCOD9027378
_publ_section_title
;
Structure prediction by ZEFSAII (Michael W. Deem and Ramdas Pophale) SiO2 
 PCOD9027378
Probable space group: P -1
;
_chemical_formula_sum "Si O2"
_cell_formula_units_Z 14
_cell_length_a 9.461992
_cell_length_b 25.417827
_cell_length_c 15.501302
_cell_angle_alpha 26.596372
_cell_angle_beta 135.356229
_cell_angle_gamma 152.150922
_cell_volume 721.740689
_symmetry_space_group_name_H-M "P -1"
_symmetry_group_IT_number 2
_symmetry_cell_setting 'triclinic'
loop_
_space_group_symop_operation_xyz
x,y,z
-x,-y,-z
loop_
_atom_site_type_symbol
_atom_site_label
_atom_site_fract_x
_atom_site_fract_y
_atom_site_fract_z
Si Si1 0.814132 0.418650 0.130250
Si Si2 0.853245 0.101546 0.009099
Si Si3 0.278881 0.080368 0.942986
Si Si4 0.370953 0.438718 0.871260
Si Si5 0.197856 0.183560 0.602463
Si Si6 0.120141 0.703115 0.991700
Si Si7 0.571776 0.045771 0.564828
O O1 0.671628 0.224023 0.367877
O O2 0.550698 0.401167 0.030542
O O3 0.000000 0.500000 0.000000
O O4 0.039281 0.559133 0.102922
O O5 0.864218 0.972234 0.240248
O O6 0.105479 0.290274 0.898529
O O7 0.500000 0.000000 0.000000
O O8 0.904524 0.100905 0.930681
O O9 0.584335 0.181153 0.983293
O O10 0.399417 0.232524 0.702007
O O11 0.000000 0.000000 0.000000
O O12 0.627522 0.647021 0.634395
O O13 0.188915 0.405386 0.925092
O O14 0.875347 0.095136 0.632730
O O15 0.259473 0.865999 0.748767
O O16 0.500000 0.000000 0.500000
#
# Coordination Sequence:
#
# PCOD9027378 Si02
#       7
#     2   2   2   2   2   2   2
#     4  12  26  42  70  98 129 179 227 272 331 387
#     4  10  22  41  67  97 136 171 211 267 337 388
#     4  10  22  42  67  96 131 170 217 269 323 393
#     4  12  24  45  68 100 136 173 220 277 329 391
#     4  10  23  40  68  98 135 172 211 273 336 383
#     4  12  25  44  67  97 138 168 225 279 322 399
#     4  12  23  43  68  96 130 178 224 272 331 385
#
# _framework density 19.397548
#
# number of rings (size 3 to 8) (size 9 to 14) (size 15 to 20)
#    0.857    0.000    5.714    1.286    2.000    4.000 
#    2.571    1.429    0.000    0.000    0.000    0.000 
#    0.000    0.000    0.000    0.000    0.000    0.000 
#
# Total GULP energy -78021.818602 kJ/mol
# GULP energy per Si atom -5572.987043 kJ/mol
# Density = 1.935340 g / cm^3
# Si number density = 19.397548 Si / 1000 Ang^3
#
#
#
# Elastic Constant Matrix: (Units=GPa)
#
#
# Indices 1 2 3 4 5 6 
#
# 1 109.9577 -6.3383 21.3769 -4.9029 -14.5080 -13.3731
# 2 -6.3383 57.8840 -9.0753 7.6401 -1.3473 -25.0822
# 3 21.3769 -9.0753 87.6227 -6.0060 2.4946 -10.8300
# 4 -4.9029 7.6401 -6.0060 28.3351 -3.8962 5.0440
# 5 -14.5080 -1.3473 2.4946 -3.8962 34.7212 -2.2543
# 6 -13.3731 -25.0822 -10.8300 5.0440 -2.2543 40.5707
#
#
#
# Elastic Compliance Matrix: (Units=1/GPa)
#
#
# Indices 1 2 3 4 5 6 
#
# 1 0.011014 0.003381 -0.001783 0.000362 0.005258 0.005492
# 2 0.003381 0.028939 0.004079 -0.009825 0.002533 0.021456
# 3 -0.001783 0.004079 0.012975 0.000240 -0.001148 0.005304
# 4 0.000362 -0.009825 0.000240 0.040457 0.003596 -0.010721
# 5 0.005258 0.002533 -0.001148 0.003596 0.031863 0.004316
# 6 0.005492 0.021456 0.005304 -0.010721 0.004316 0.042712
#
#
# Mechanical properties :
#
#
# Convention : Reuss Voigt Hill
#
# Bulk Modulus (GPa) = 15.55676 29.71011 22.63343
# Shear Modulus (GPa) = 28.08474 37.35882 32.72178
#
# Velocity S-wave (km/s) = 3.80919 4.39333 4.11165
# Velocity P-wave (km/s) = 5.23297 6.40975 5.85102
#
# Compressibility (1/GPa) = 0.06428075
#
# Stress axis : x y z
#
# Youngs Moduli (GPa) = 90.79545 34.55570 77.07330
#
# Poissons Ratio (x) = -0.11683 0.13742
# Poissons Ratio (y) = -0.30697 -0.31437
# Poissons Ratio (z) = 0.16188 -0.14095
#
# Static dielectric constant tensor:
#      x y z
#    x 1.740000 -0.029180 0.048150 
#    y -0.029180 1.718380 -0.034390 
#    z 0.048150 -0.034390 1.652290 
# 
# From -- ./inp_files/296885.got.cif
#   From: 2010.05.17/outbox.cif.g08.bks.cpg/sg2_149_cif.got.tgz:296885.got - 2010.06.03 11:33:40.
