data_PCOD9027744
_publ_section_title
;
Structure prediction by ZEFSAII (Michael W. Deem and Ramdas Pophale) SiO2 
 PCOD9027744
Probable space group: P -1
;
_chemical_formula_sum "Si O2"
_cell_formula_units_Z 12
_cell_length_a 19.769842
_cell_length_b 11.675098
_cell_length_c 5.338219
_cell_angle_alpha 76.326674
_cell_angle_beta 96.646299
_cell_angle_gamma 152.268267
_cell_volume 545.065104
_symmetry_space_group_name_H-M "P -1"
_symmetry_group_IT_number 2
_symmetry_cell_setting 'triclinic'
loop_
_space_group_symop_operation_xyz
x,y,z
-x,-y,-z
loop_
_atom_site_type_symbol
_atom_site_label
_atom_site_fract_x
_atom_site_fract_y
_atom_site_fract_z
Si Si1 0.375568 0.979493 0.376321
Si Si2 0.902040 0.835727 0.290203
Si Si3 0.653733 0.789625 0.812912
Si Si4 0.195848 0.066430 0.705404
Si Si5 0.145750 0.460116 0.311598
Si Si6 0.370876 0.772005 0.865877
O O1 0.246967 0.729713 0.267489
O O2 0.343776 0.853639 0.673371
O O3 0.364407 0.101163 0.317892
O O4 0.543437 0.196268 0.269664
O O5 0.843404 0.612474 0.410705
O O6 0.791843 0.776682 0.293796
O O7 0.000000 0.000000 0.500000
O O8 0.000000 0.000000 0.000000
O O9 0.709771 0.814561 0.566765
O O10 0.500000 0.500000 0.000000
O O11 0.761890 0.939152 0.022047
O O12 0.024106 0.777170 0.706465
O O13 0.227629 0.516889 0.093423
O O14 0.500000 0.000000 0.000000
#
# Coordination Sequence:
#
# PCOD9027744 Si02
#       6
#     2   2   2   2   2   2
#     4  10  24  43  70 102 139 185 238 282 356 408
#     4  10  22  41  69 104 141 172 224 287 350 406
#     4  12  29  48  70  96 148 192 234 280 351 439
#     4  11  26  46  71 107 137 188 231 287 359 414
#     4  10  23  41  75 102 140 172 240 299 351 399
#     4   9  21  41  66 101 134 178 229 292 341 407
#
# _framework density 22.015718
#
# number of rings (size 3 to 8) (size 9 to 14) (size 15 to 20)
#    0.000    1.667    0.000    2.500   14.000    5.333 
#    0.000    0.000    0.000    0.000    0.000    0.000 
#    0.000    0.000    0.000    0.000    0.000    0.000 
#
# Total GULP energy -66994.870811 kJ/mol
# GULP energy per Si atom -5582.905901 kJ/mol
# Density = 2.196561 g / cm^3
# Si number density = 22.015718 Si / 1000 Ang^3
#
#
#
# Elastic Constant Matrix: (Units=GPa)
#
#
# Indices 1 2 3 4 5 6 
#
# 1 150.4798 46.8900 83.2530 -16.0695 15.4335 -3.5387
# 2 46.8900 89.6726 25.8633 -7.1538 -1.3269 0.5719
# 3 83.2530 25.8633 177.5249 -7.1267 -15.8471 8.7972
# 4 -16.0695 -7.1538 -7.1267 41.1056 10.8997 5.2309
# 5 15.4335 -1.3269 -15.8471 10.8997 36.1293 2.1300
# 6 -3.5387 0.5719 8.7972 5.2309 2.1300 32.5894
#
#
#
# Elastic Compliance Matrix: (Units=1/GPa)
#
#
# Indices 1 2 3 4 5 6 
#
# 1 0.013606 -0.004944 -0.006546 0.005791 -0.010795 0.003107
# 2 -0.004944 0.013590 0.000658 -0.000105 0.002998 -0.001132
# 3 -0.006546 0.000658 0.009378 -0.002479 0.007880 -0.003371
# 4 0.005791 -0.000105 -0.002479 0.029768 -0.012388 -0.002669
# 5 -0.010795 0.002998 0.007880 -0.012388 0.039827 -0.003967
# 6 0.003107 -0.001132 -0.003371 -0.002669 -0.003967 0.032640
#
#
# Mechanical properties :
#
#
# Convention : Reuss Voigt Hill
#
# Bulk Modulus (GPa) = 67.06450 81.07665 74.07058
# Shear Modulus (GPa) = 30.22194 39.40958 34.81576
#
# Velocity S-wave (km/s) = 3.70908 4.23551 3.98100
# Velocity P-wave (km/s) = 6.99080 7.79910 7.40599
#
# Compressibility (1/GPa) = 0.01491102
#
# Stress axis : x y z
#
# Youngs Moduli (GPa) = 73.49683 73.58103 106.63586
#
# Poissons Ratio (x) = 0.36381 0.69799
# Poissons Ratio (y) = 0.36339 -0.07020
# Poissons Ratio (z) = 0.48108 -0.04844
#
# Static dielectric constant tensor:
#      x y z
#    x 1.834920 -0.042680 -0.053650 
#    y -0.042680 1.899300 0.052700 
#    z -0.053650 0.052700 1.871020 
# 
# From -- ./inp_files/25726.got.cif
#   From: 2010.05.17/outbox.cif.g08.bks.cpg/sg2_13_cif.got.tgz:25726.got - 2010.06.03 11:33:40.
