data_PCOD9027567
_publ_section_title
;
Structure prediction by ZEFSAII (Michael W. Deem and Ramdas Pophale) SiO2 
 PCOD9027567
Probable space group: P -1
;
_chemical_formula_sum "Si O2"
_cell_formula_units_Z 16
_cell_length_a 11.670004
_cell_length_b 14.467282
_cell_length_c 12.149673
_cell_angle_alpha 119.197650
_cell_angle_beta 98.833623
_cell_angle_gamma 32.073123
_cell_volume 787.446568
_symmetry_space_group_name_H-M "P -1"
_symmetry_group_IT_number 2
_symmetry_cell_setting 'triclinic'
loop_
_space_group_symop_operation_xyz
x,y,z
-x,-y,-z
loop_
_atom_site_type_symbol
_atom_site_label
_atom_site_fract_x
_atom_site_fract_y
_atom_site_fract_z
Si Si1 0.108231 0.024190 0.567017
Si Si2 0.417134 0.099231 0.294141
Si Si3 0.604613 0.615625 0.249165
Si Si4 0.972971 0.896721 0.948605
Si Si5 0.096409 0.631958 0.408464
Si Si6 0.327415 0.907914 0.759183
Si Si7 0.895181 0.572487 0.354614
Si Si8 0.306759 0.960752 0.226226
O O1 0.383002 0.813318 0.422776
O O2 0.164532 0.988606 0.683478
O O3 0.000000 0.000000 0.500000
O O4 0.921197 0.268053 0.632436
O O5 0.623068 0.009859 0.218234
O O6 0.333785 0.211800 0.466930
O O7 0.148118 0.327025 0.317083
O O8 0.478921 0.924959 0.209166
O O9 0.800006 0.555201 0.255311
O O10 0.469645 0.737002 0.181573
O O11 0.751571 0.387338 0.162328
O O12 0.828869 0.968344 0.862140
O O13 0.812760 0.995643 0.090588
O O14 0.000000 0.000000 0.000000
O O15 0.383117 0.378133 0.351594
O O16 0.981160 0.613834 0.339705
O O17 0.912737 0.821111 0.591649
#
# Coordination Sequence:
#
# PCOD9027567 Si02
#       8
#     2   2   2   2   2   2   2   2
#     4  11  25  40  67  98 126 160 221 269 307 369
#     4   9  17  36  67  98 128 153 207 264 321 375
#     4  11  23  43  68  94 127 167 212 261 318 377
#     4  12  29  45  61  85 131 184 216 248 313 382
#     4   9  22  40  69 101 125 159 209 266 322 371
#     4  11  24  42  65  93 130 169 206 268 313 367
#     4   9  16  35  68 100 126 156 200 265 326 376
#     4  10  22  41  68  95 125 167 208 257 323 378
#
# _framework density 20.318838
#
# number of rings (size 3 to 8) (size 9 to 14) (size 15 to 20)
#    0.000    1.750    2.500    1.500    7.000    4.000 
#    0.000    0.625    0.000    0.000    0.000    0.000 
#    0.000    0.000    0.000    0.000    0.000    0.000 
#
# Total GULP energy -89409.306913 kJ/mol
# GULP energy per Si atom -5588.081682 kJ/mol
# Density = 2.027259 g / cm^3
# Si number density = 20.318838 Si / 1000 Ang^3
#
#
#
# Elastic Constant Matrix: (Units=GPa)
#
#
# Indices 1 2 3 4 5 6 
#
# 1 15.4419 -8.9328 -7.3197 8.0897 23.4176 1.1389
# 2 -8.9328 83.4937 18.1050 0.9629 18.7292 11.1045
# 3 -7.3197 18.1050 23.0888 -18.8432 9.1110 -0.9145
# 4 8.0897 0.9629 -18.8432 1.5681 10.1003 2.6161
# 5 23.4176 18.7292 9.1110 10.1003 23.0438 5.8339
# 6 1.1389 11.1045 -0.9145 2.6161 5.8339 31.4358
#
#
#
# Elastic Compliance Matrix: (Units=1/GPa)
#
#
# Indices 1 2 3 4 5 6 
#
# 1 -0.066603 -0.023313 0.008090 0.045024 0.064943 -0.004916
# 2 -0.023313 0.008106 -0.002768 0.019176 0.011257 -0.005784
# 3 0.008090 -0.002768 0.005909 -0.046285 0.011319 0.002608
# 4 0.045024 0.019176 -0.046285 -0.062952 -0.015011 -0.001727
# 5 0.064943 0.011257 0.011319 -0.015011 -0.029845 0.000788
# 6 -0.004916 -0.005784 0.002608 -0.001727 0.000788 0.034106
#
#
# Mechanical properties :
#
#
# Convention : Reuss Voigt Hill
#
# Bulk Modulus (GPa) = -11.29052 13.96994 1.33971
# Shear Modulus (GPa) = -47.70098 19.22099 -14.24000
#
# Velocity S-wave (km/s) = -4.85048 3.07900 -2.65019
# Velocity P-wave (km/s) = 6.07769 4.41934 2.95023
#
# Compressibility (1/GPa) = -0.08856989
#
# Stress axis : x y z
#
# Youngs Moduli (GPa) = -15.01444 123.36575 169.22931
#
# Poissons Ratio (x) = 2.87606 -1.36906
# Poissons Ratio (y) = -0.35004 0.46842
# Poissons Ratio (z) = 0.12147 0.34147
#
# Static dielectric constant tensor:
#      x y z
#    x 1.729250 0.010590 -0.006180 
#    y 0.010590 1.726870 0.015840 
#    z -0.006180 0.015840 1.709020 
# 
# From -- ./inp_files/255937.got.cif
#   From: 2010.05.17/outbox.cif.g08.bks.cpg/sg2_128_cif.got.tgz:255937.got - 2010.06.03 11:33:40.
