data_PCOD9027553
_publ_section_title
;
Structure prediction by ZEFSAII (Michael W. Deem and Ramdas Pophale) SiO2 
 PCOD9027553
Probable space group: P -1
;
_chemical_formula_sum "Si O2"
_cell_formula_units_Z 16
_cell_length_a 26.119164
_cell_length_b 20.330459
_cell_length_c 8.593997
_cell_angle_alpha 138.751246
_cell_angle_beta 148.579500
_cell_angle_gamma 20.094474
_cell_volume 785.446012
_symmetry_space_group_name_H-M "P -1"
_symmetry_group_IT_number 2
_symmetry_cell_setting 'triclinic'
loop_
_space_group_symop_operation_xyz
x,y,z
-x,-y,-z
loop_
_atom_site_type_symbol
_atom_site_label
_atom_site_fract_x
_atom_site_fract_y
_atom_site_fract_z
Si Si1 0.584498 0.755200 0.181998
Si Si2 0.213853 0.818916 0.807640
Si Si3 0.165564 0.155399 0.697343
Si Si4 0.621159 0.522803 0.237981
Si Si5 0.952794 0.950457 0.903918
Si Si6 0.822112 0.537250 0.712288
Si Si7 0.362591 0.524823 0.166213
Si Si8 0.006311 0.541222 0.419579
O O1 0.651914 0.714893 0.463346
O O2 0.767911 0.633354 0.342795
O O3 0.568349 0.648639 0.927598
O O4 0.382387 0.984164 0.017805
O O5 0.297708 0.634015 0.718612
O O6 0.384612 0.729513 0.002940
O O7 0.000000 0.000000 0.500000
O O8 0.179624 0.897513 0.027418
O O9 0.143705 0.056416 0.447319
O O10 0.114531 0.252445 0.572571
O O11 0.999179 0.339137 0.712350
O O12 0.725692 0.535500 0.563291
O O13 0.680000 0.443447 0.072746
O O14 0.165206 0.721835 0.099465
O O15 0.000000 0.000000 0.000000
O O16 0.912421 0.545144 0.062139
O O17 0.500000 0.500000 0.500000
O O18 0.000000 0.500000 0.500000
#
# Coordination Sequence:
#
# PCOD9027553 Si02
#       8
#     2   2   2   2   2   2   2   2
#     4  10  22  41  68  94 125 171 220 272 330 387
#     4  11  24  39  59  91 134 174 211 266 332 390
#     4  11  22  42  67  97 129 165 228 274 324 395
#     4  10  22  42  59  92 131 169 216 262 329 390
#     4  12  21  39  65  96 130 169 221 271 322 391
#     4  10  22  44  68  90 128 170 222 278 324 391
#     4  11  20  38  66  95 128 170 216 267 321 391
#     4  11  25  44  64  95 135 174 218 277 334 389
#
# _framework density 20.370591000000001
#
# number of rings (size 3 to 8) (size 9 to 14) (size 15 to 20)
#    0.000    1.250    5.000    3.000    0.000    7.500 
#    2.250    0.000    0.000    0.000    0.000    0.000 
#    0.000    0.000    0.000    0.000    0.000    0.000 
#
# Total GULP energy -89336.778171 kJ/mol
# GULP energy per Si atom -5583.548636 kJ/mol
# Density = 2.032423 g / cm^3
# Si number density = 20.370591 Si / 1000 Ang^3
#
#
#
# Elastic Constant Matrix: (Units=GPa)
#
#
# Indices 1 2 3 4 5 6 
#
# 1 94.2921 30.4983 33.6825 -2.4981 18.7551 9.9282
# 2 30.4983 69.6617 39.1065 -26.1970 4.4456 4.3943
# 3 33.6825 39.1065 123.0347 -10.7285 24.0938 8.2514
# 4 -2.4981 -26.1970 -10.7285 49.5053 -0.7831 -0.3037
# 5 18.7551 4.4456 24.0938 -0.7831 31.5828 -0.6003
# 6 9.9282 4.3943 8.2514 -0.3037 -0.6003 23.5566
#
#
#
# Elastic Compliance Matrix: (Units=1/GPa)
#
#
# Indices 1 2 3 4 5 6 
#
# 1 0.014890 -0.006616 -0.000359 -0.002982 -0.007809 -0.005153
# 2 -0.006616 0.024605 -0.006116 0.011451 0.005427 0.000627
# 3 -0.000359 -0.006116 0.011886 -0.000825 -0.008073 -0.003088
# 4 -0.002982 0.011451 -0.000825 0.025951 0.001428 -0.000219
# 5 -0.007809 0.005427 -0.008073 0.001428 0.041848 0.006192
# 6 -0.005153 0.000627 -0.003088 -0.000219 0.006192 0.045743
#
#
# Mechanical properties :
#
#
# Convention : Reuss Voigt Hill
#
# Bulk Modulus (GPa) = 39.68146 54.84035 47.26091
# Shear Modulus (GPa) = 25.06214 33.17568 29.11891
#
# Velocity S-wave (km/s) = 3.51138 4.03998 3.78492
# Velocity P-wave (km/s) = 5.99682 6.98152 6.50782
#
# Compressibility (1/GPa) = 0.02520069
#
# Stress axis : x y z
#
# Youngs Moduli (GPa) = 67.15804 40.64185 84.13326
#
# Poissons Ratio (x) = 0.26888 0.03018
# Poissons Ratio (y) = 0.44430 0.51454
# Poissons Ratio (z) = 0.02409 0.24856
#
# Static dielectric constant tensor:
#      x y z
#    x 1.730510 0.036420 0.008400 
#    y 0.036420 1.749040 0.001560 
#    z 0.008400 0.001560 1.751490 
# 
# From -- ./inp_files/349626.got.cif
#   From: 2010.05.17/outbox.cif.g08.bks.cpg/sg2_175_cif.got.tgz:349626.got - 2010.06.03 11:33:40.
