data_PCOD9027386
_publ_section_title
;
Structure prediction by ZEFSAII (Michael W. Deem and Ramdas Pophale) SiO2 
 PCOD9027386
Probable space group: P -1
;
_chemical_formula_sum "Si O2"
_cell_formula_units_Z 16
_cell_length_a 8.529601
_cell_length_b 17.166163
_cell_length_c 20.586678
_cell_angle_alpha 17.546443
_cell_angle_beta 125.599764
_cell_angle_gamma 127.092300
_cell_volume 724.564768
_symmetry_space_group_name_H-M "P -1"
_symmetry_group_IT_number 2
_symmetry_cell_setting 'triclinic'
loop_
_space_group_symop_operation_xyz
x,y,z
-x,-y,-z
loop_
_atom_site_type_symbol
_atom_site_label
_atom_site_fract_x
_atom_site_fract_y
_atom_site_fract_z
Si Si1 0.466156 0.392975 0.148508
Si Si2 0.893809 0.681417 0.172667
Si Si3 0.786580 0.402704 0.891023
Si Si4 0.882819 0.365632 0.291315
Si Si5 0.918708 0.804609 0.717970
Si Si6 0.452015 0.587416 0.598451
Si Si7 0.844494 0.276616 0.677789
Si Si8 0.351594 0.848019 0.821190
O O1 0.651146 0.262158 0.308877
O O2 0.245346 0.248779 0.222752
O O3 0.500000 0.500000 0.000000
O O4 0.490660 0.642570 0.004254
O O5 0.910441 0.483201 0.276014
O O6 0.714172 0.552557 0.279886
O O7 0.090124 0.709226 0.242415
O O8 0.861739 0.970855 0.910380
O O9 0.814177 0.645878 0.756844
O O10 0.632088 0.435862 0.771142
O O11 0.999829 0.406735 0.908669
O O12 0.695768 0.153631 0.112301
O O13 0.974325 0.119999 0.485729
O O14 0.134044 0.734794 0.830222
O O15 0.354575 0.642109 0.462171
O O16 0.551450 0.887008 0.401545
O O17 0.000000 0.500000 0.500000
#
# Coordination Sequence:
#
# PCOD9027386 Si02
#       8
#     2   2   2   2   2   2   2   2
#     4  11  23  35  58  88 126 168 222 268 299 349
#     4  10  22  41  67  98 124 154 207 268 312 376
#     4  11  23  40  60  86 134 178 213 253 301 378
#     4  12  23  39  60  97 127 163 214 271 306 353
#     4  11  23  41  59  85 132 182 217 245 314 366
#     4  11  21  38  67  92 120 167 208 248 318 384
#     4   9  20  43  70  93 123 158 200 252 334 389
#     4  11  23  41  60  87 125 180 215 247 312 375
#
# _framework density 22.08222
#
# number of rings (size 3 to 8) (size 9 to 14) (size 15 to 20)
#    0.000    1.250    1.250    6.750    3.500    0.000 
#    4.500    0.625    0.000    7.500    0.000    0.000 
#    0.000    0.000    0.000    0.000    0.000    0.000 
#
# Total GULP energy -89069.897459 kJ/mol
# GULP energy per Si atom -5566.868591 kJ/mol
# Density = 2.203196 g / cm^3
# Si number density = 22.082220 Si / 1000 Ang^3
#
#
#
# Elastic Constant Matrix: (Units=GPa)
#
#
# Indices 1 2 3 4 5 6 
#
# 1 98.8586 18.0119 23.8617 2.5665 -17.7217 8.9947
# 2 18.0119 94.3644 22.5210 21.0815 0.0366 12.1171
# 3 23.8617 22.5210 99.9535 7.6705 -11.0324 9.2735
# 4 2.5665 21.0815 7.6705 35.6705 11.7531 1.6952
# 5 -17.7217 0.0366 -11.0324 11.7531 37.2031 3.4275
# 6 8.9947 12.1171 9.2735 1.6952 3.4275 27.1688
#
#
#
# Elastic Compliance Matrix: (Units=1/GPa)
#
#
# Indices 1 2 3 4 5 6 
#
# 1 0.012183 -0.001093 -0.001486 -0.001802 0.006276 -0.003718
# 2 -0.001093 0.013601 -0.001502 -0.008069 0.002025 -0.004943
# 3 -0.001486 -0.001502 0.011615 -0.002624 0.003855 -0.003125
# 4 -0.001802 -0.008069 -0.002624 0.037902 -0.014017 0.004494
# 5 0.006276 0.002025 0.003855 -0.014017 0.036174 -0.007986
# 6 -0.003718 -0.004943 -0.003125 0.004494 -0.007986 0.042036
#
#
# Mechanical properties :
#
#
# Convention : Reuss Voigt Hill
#
# Bulk Modulus (GPa) = 34.20473 46.88509 40.54491
# Shear Modulus (GPa) = 29.16816 35.26060 32.21438
#
# Velocity S-wave (km/s) = 3.63835 4.00032 3.82362
# Velocity P-wave (km/s) = 5.75964 6.52801 6.15582
#
# Compressibility (1/GPa) = 0.02923572
#
# Stress axis : x y z
#
# Youngs Moduli (GPa) = 82.07841 73.52400 86.09753
#
# Poissons Ratio (x) = 0.08038 0.12797
# Poissons Ratio (y) = 0.08973 0.12933
# Poissons Ratio (z) = 0.12199 0.11045
#
# Static dielectric constant tensor:
#      x y z
#    x 1.810540 0.016310 -0.006240 
#    y 0.016310 1.886610 0.005790 
#    z -0.006240 0.005790 1.931120 
# 
# From -- ./inp_files/591185.got.cif
#   From: 2010.05.17/outbox.cif.g08.bks.cpg/sg2_296_cif.got.tgz:591185.got - 2010.06.03 11:33:40.
