data_PCOD9027770
_publ_section_title
;
Structure prediction by ZEFSAII (Michael W. Deem and Ramdas Pophale) SiO2 
 PCOD9027770
Probable space group: P -1
;
_chemical_formula_sum "Si O2"
_cell_formula_units_Z 14
_cell_length_a 10.570458
_cell_length_b 8.188902
_cell_length_c 13.047332
_cell_angle_alpha 56.440775
_cell_angle_beta 129.157984
_cell_angle_gamma 89.814818
_cell_volume 611.750302
_symmetry_space_group_name_H-M "P -1"
_symmetry_group_IT_number 2
_symmetry_cell_setting 'triclinic'
loop_
_space_group_symop_operation_xyz
x,y,z
-x,-y,-z
loop_
_atom_site_type_symbol
_atom_site_label
_atom_site_fract_x
_atom_site_fract_y
_atom_site_fract_z
Si Si1 0.238335 0.365779 0.005620
Si Si2 0.540693 0.767276 0.046934
Si Si3 0.297276 0.666124 0.394532
Si Si4 0.079578 0.746067 0.063097
Si Si5 0.135272 0.597929 0.516648
Si Si6 0.453104 0.251541 0.361567
Si Si7 0.879570 0.141057 0.186773
O O1 0.343948 0.267753 0.986224
O O2 0.104672 0.649241 0.834426
O O3 0.109690 0.264439 0.010390
O O4 0.403120 0.297065 0.200133
O O5 0.676655 0.550767 0.265547
O O6 0.337503 0.789269 0.922344
O O7 0.500000 0.000000 0.000000
O O8 0.500000 0.500000 0.500000
O O9 0.154264 0.816724 0.176986
O O10 0.197885 0.555190 0.443753
O O11 0.362973 0.759147 0.490445
O O12 0.256491 0.468780 0.235766
O O13 0.090651 0.851303 0.923577
O O14 0.000000 0.500000 0.500000
O O15 0.018806 0.873808 0.384626
O O16 0.500000 0.000000 0.500000
#
# Coordination Sequence:
#
# PCOD9027770 Si02
#       7
#     2   2   2   2   2   2   2
#     4  11  25  47  74 107 145 191 240 303 373 427
#     4  12  26  48  71 103 150 195 242 300 365 443
#     4  10  23  43  70 104 143 186 239 298 358 429
#     4  10  23  45  71 108 142 185 243 299 364 432
#     4  12  25  45  69 103 146 192 246 300 360 434
#     4  10  22  41  69 108 146 181 234 302 365 431
#     4  11  25  47  72 103 151 190 242 307 364 434
#
# _framework density 22.885155000000001
#
# number of rings (size 3 to 8) (size 9 to 14) (size 15 to 20)
#    0.000    1.143    1.429    5.571    4.000    4.571 
#    2.571    0.000    0.000    0.000    0.000    0.000 
#    0.000    0.000    0.000    0.000    0.000    0.000 
#
# Total GULP energy -78281.162368 kJ/mol
# GULP energy per Si atom -5591.511598 kJ/mol
# Density = 2.283307 g / cm^3
# Si number density = 22.885155 Si / 1000 Ang^3
#
#
#
# Elastic Constant Matrix: (Units=GPa)
#
#
# Indices 1 2 3 4 5 6 
#
# 1 127.8053 25.5902 27.0817 1.0223 -8.6724 -2.6465
# 2 25.5902 94.2325 29.7545 -2.6016 -14.0434 4.1879
# 3 27.0817 29.7545 159.0784 -6.1852 0.5768 0.8027
# 4 1.0223 -2.6016 -6.1852 42.5739 3.4698 -7.3218
# 5 -8.6724 -14.0434 0.5768 3.4698 34.8127 4.7489
# 6 -2.6465 4.1879 0.8027 -7.3218 4.7489 45.6337
#
#
#
# Elastic Compliance Matrix: (Units=1/GPa)
#
#
# Indices 1 2 3 4 5 6 
#
# 1 0.008533 -0.001778 -0.001148 -0.000519 0.001418 0.000447
# 2 -0.001778 0.012551 -0.002061 -0.000193 0.004914 -0.001761
# 3 -0.001148 -0.002061 0.006912 0.001073 -0.001382 0.000317
# 4 -0.000519 -0.000193 0.001073 0.024644 -0.003263 0.004262
# 5 0.001418 0.004914 -0.001382 -0.003263 0.031981 -0.004196
# 6 0.000447 -0.001761 0.000317 0.004262 -0.004196 0.023216
#
#
# Mechanical properties :
#
#
# Convention : Reuss Voigt Hill
#
# Bulk Modulus (GPa) = 55.48553 60.66324 58.07439
# Shear Modulus (GPa) = 40.38144 44.51670 42.44907
#
# Velocity S-wave (km/s) = 4.20518 4.41525 4.31150
# Velocity P-wave (km/s) = 6.91924 7.24968 7.08639
#
# Compressibility (1/GPa) = 0.01802272
#
# Stress axis : x y z
#
# Youngs Moduli (GPa) = 117.18900 79.67528 144.66963
#
# Poissons Ratio (x) = 0.14164 0.16605
# Poissons Ratio (y) = 0.20833 0.29822
# Poissons Ratio (z) = 0.13451 0.16424
#
# Static dielectric constant tensor:
#      x y z
#    x 1.877440 0.023930 0.025300 
#    y 0.023930 1.931570 -0.028300 
#    z 0.025300 -0.028300 1.890070 
# 
# From -- ./inp_files/377804.got.cif
#   From: 2010.05.17/outbox.cif.g08.bks.cpg/sg2_189_cif.got.tgz:377804.got - 2010.06.03 11:33:40.
