data_PCOD9027718
_publ_section_title
;
Structure prediction by ZEFSAII (Michael W. Deem and Ramdas Pophale) SiO2 
 PCOD9027718
Probable space group: P -1
;
_chemical_formula_sum "Si O2"
_cell_formula_units_Z 14
_cell_length_a 21.080944
_cell_length_b 14.587917
_cell_length_c 9.032951
_cell_angle_alpha 33.297574
_cell_angle_beta 28.716706
_cell_angle_gamma 31.334338
_cell_volume 650.928204
_symmetry_space_group_name_H-M "P -1"
_symmetry_group_IT_number 2
_symmetry_cell_setting 'triclinic'
loop_
_space_group_symop_operation_xyz
x,y,z
-x,-y,-z
loop_
_atom_site_type_symbol
_atom_site_label
_atom_site_fract_x
_atom_site_fract_y
_atom_site_fract_z
Si Si1 0.090321 0.614703 0.676186
Si Si2 0.816331 0.222624 0.493078
Si Si3 0.082210 0.041471 0.640916
Si Si4 0.641686 0.036760 0.627346
Si Si5 0.309570 0.006384 0.747616
Si Si6 0.501869 0.480352 0.347520
Si Si7 0.368720 0.298609 0.405010
O O1 0.073228 0.720200 0.723368
O O2 0.260372 0.462004 0.512980
O O3 0.032511 0.765701 0.459868
O O4 0.000000 0.500000 0.000000
O O5 0.666219 0.410537 0.512525
O O6 0.872491 0.112263 0.374469
O O7 0.776043 0.096340 0.860422
O O8 0.232430 0.040305 0.398489
O O9 0.000000 0.000000 0.000000
O O10 0.715927 0.954130 0.427768
O O11 0.582482 0.261643 0.436841
O O12 0.500000 0.000000 0.000000
O O13 0.484596 0.856206 0.606623
O O14 0.290868 0.186220 0.637361
O O15 0.500000 0.500000 0.500000
O O16 0.581249 0.596176 0.960944
#
# Coordination Sequence:
#
# PCOD9027718 Si02
#       7
#     2   2   2   2   2   2   2
#     4  12  27  44  68  98 140 184 235 278 340 430
#     4  11  24  45  73  95 133 187 231 281 346 416
#     4  12  27  47  69 101 142 186 229 288 358 420
#     4  12  26  42  70 105 143 178 229 293 352 401
#     4  10  22  42  74 100 136 175 233 282 344 404
#     4  11  21  40  70 101 134 170 226 289 339 399
#     4  10  22  41  69 102 132 178 228 283 331 409
#
# _framework density 21.507747999999999
#
# number of rings (size 3 to 8) (size 9 to 14) (size 15 to 20)
#    0.000    0.857    1.429    5.571    8.000    3.429 
#    0.000    1.429    0.000    0.000    0.000    0.000 
#    0.000    0.000    0.000    0.000    0.000    0.000 
#
# Total GULP energy -78376.282117 kJ/mol
# GULP energy per Si atom -5598.305865 kJ/mol
# Density = 2.145880 g / cm^3
# Si number density = 21.507748 Si / 1000 Ang^3
#
#
#
# Elastic Constant Matrix: (Units=GPa)
#
#
# Indices 1 2 3 4 5 6 
#
# 1 161.0477 30.5604 50.0368 2.6714 -6.4322 24.2486
# 2 30.5604 94.2230 -5.5686 -2.3520 -5.1750 2.5897
# 3 50.0368 -5.5686 61.9373 1.7953 -8.0994 1.0277
# 4 2.6714 -2.3520 1.7953 34.3725 4.4929 3.1348
# 5 -6.4322 -5.1750 -8.0994 4.4929 34.2912 6.3811
# 6 24.2486 2.5897 1.0277 3.1348 6.3811 28.1670
#
#
#
# Elastic Compliance Matrix: (Units=1/GPa)
#
#
# Indices 1 2 3 4 5 6 
#
# 1 0.011196 -0.003856 -0.009099 0.000040 0.001076 -0.009200
# 2 -0.003856 0.012193 0.004405 0.000526 0.001796 0.001573
# 3 -0.009099 0.004405 0.024328 -0.001289 0.003789 0.005826
# 4 0.000040 0.000526 -0.001289 0.029903 -0.003664 -0.002533
# 5 0.001076 0.001796 0.003789 -0.003664 0.032534 -0.008192
# 6 -0.009200 0.001573 0.005826 -0.002533 -0.008192 0.045203
#
#
# Mechanical properties :
#
#
# Convention : Reuss Voigt Hill
#
# Bulk Modulus (GPa) = 32.66259 51.91836 42.29047
# Shear Modulus (GPa) = 27.37284 35.51143 31.44214
#
# Velocity S-wave (km/s) = 3.57136 4.06778 3.82763
# Velocity P-wave (km/s) = 5.67675 6.80105 6.26417
#
# Compressibility (1/GPa) = 0.03061607
#
# Stress axis : x y z
#
# Youngs Moduli (GPa) = 89.32121 82.01684 41.10443
#
# Poissons Ratio (x) = 0.31626 0.37401
# Poissons Ratio (y) = 0.34442 -0.18106
# Poissons Ratio (z) = 0.81273 -0.36127
#
# Static dielectric constant tensor:
#      x y z
#    x 1.774140 -0.005910 -0.029570 
#    y -0.005910 1.761670 0.033700 
#    z -0.029570 0.033700 1.740370 
# 
# From -- ./inp_files/189829.got.cif
#   From: 2010.05.17/outbox.cif.g08.bks.cpg/sg2_95_cif.got.tgz:189829.got - 2010.06.03 11:33:40.
