data_PCOD9027244
_publ_section_title
;
Structure prediction by ZEFSAII (Michael W. Deem and Ramdas Pophale) SiO2 
 PCOD9027244
Probable space group: P -1
;
_chemical_formula_sum "Si O2"
_cell_formula_units_Z 14
_cell_length_a 7.551574
_cell_length_b 9.858000
_cell_length_c 14.861848
_cell_angle_alpha 121.664644
_cell_angle_beta 36.243728
_cell_angle_gamma 121.647566
_cell_volume 545.332388
_symmetry_space_group_name_H-M "P -1"
_symmetry_group_IT_number 2
_symmetry_cell_setting 'triclinic'
loop_
_space_group_symop_operation_xyz
x,y,z
-x,-y,-z
loop_
_atom_site_type_symbol
_atom_site_label
_atom_site_fract_x
_atom_site_fract_y
_atom_site_fract_z
Si Si1 0.398965 0.101302 0.313982
Si Si2 0.893778 0.776506 0.983373
Si Si3 0.673482 0.398250 0.564008
Si Si4 0.910372 0.613426 0.401973
Si Si5 0.410847 0.875742 0.075099
Si Si6 0.471696 0.842291 0.323064
Si Si7 0.958992 0.563523 0.159284
O O1 0.256842 0.259112 0.435472
O O2 0.757020 0.153653 0.161613
O O3 0.266882 0.978316 0.245024
O O4 0.356773 0.998515 0.387856
O O5 0.885734 0.589051 0.944279
O O6 0.673562 0.810748 0.003600
O O7 0.790716 0.854142 0.144540
O O8 0.745903 0.435159 0.441826
O O9 0.581514 0.212208 0.570946
O O10 0.389442 0.471773 0.744761
O O11 0.000000 0.500000 0.500000
O O12 0.901689 0.622855 0.303352
O O13 0.262429 0.681394 0.306672
O O14 0.182701 0.715266 0.076843
O O15 0.500000 0.000000 0.000000
#
# Coordination Sequence:
#
# PCOD9027244 Si02
#       7
#     2   2   2   2   2   2   2
#     4  11  23  44  70  95 138 183 219 277 346 404
#     4  11  24  44  70  97 135 186 223 271 345 408
#     4  10  24  42  66  98 134 177 228 282 328 401
#     4  11  22  45  66  96 133 183 227 271 340 404
#     4  11  26  44  69 106 138 169 231 284 335 400
#     4  10  22  41  67  92 136 175 227 273 338 397
#     4  12  24  44  70  98 138 181 225 281 336 401
#
# _framework density 25.672415999999998
#
# number of rings (size 3 to 8) (size 9 to 14) (size 15 to 20)
#    0.000    1.143    4.286    3.000    4.000    1.714 
#    5.143    0.714    0.000    0.000    0.000    0.000 
#    0.000    0.000    0.000    0.000    0.000    0.000 
#
# Total GULP energy -78249.985380 kJ/mol
# GULP energy per Si atom -5589.284670 kJ/mol
# Density = 2.561398 g / cm^3
# Si number density = 25.672416 Si / 1000 Ang^3
#
#
#
# Elastic Constant Matrix: (Units=GPa)
#
#
# Indices 1 2 3 4 5 6 
#
# 1 76.4039 36.7558 29.2617 -1.7357 -11.0875 -21.9682
# 2 36.7558 180.1891 45.5186 -29.9181 7.7752 -44.6950
# 3 29.2617 45.5186 99.8976 -10.5875 -12.3763 -8.4106
# 4 -1.7357 -29.9181 -10.5875 48.3849 -5.1672 9.8241
# 5 -11.0875 7.7752 -12.3763 -5.1672 33.3953 -7.6637
# 6 -21.9682 -44.6950 -8.4106 9.8241 -7.6637 47.7131
#
#
#
# Elastic Compliance Matrix: (Units=1/GPa)
#
#
# Indices 1 2 3 4 5 6 
#
# 1 0.018310 -0.001539 -0.003373 -0.001915 0.006696 0.007864
# 2 -0.001539 0.008691 -0.002870 0.003295 -0.001718 0.005973
# 3 -0.003373 -0.002870 0.012869 0.001704 0.004203 -0.001649
# 4 -0.001915 0.003295 0.001704 0.023671 0.002437 -0.001977
# 5 0.006696 -0.001718 0.004203 0.002437 0.036230 0.007532
# 6 0.007864 0.005973 -0.001649 -0.001977 0.007532 0.031500
#
#
# Mechanical properties :
#
#
# Convention : Reuss Voigt Hill
#
# Bulk Modulus (GPa) = 41.14448 64.39586 52.77017
# Shear Modulus (GPa) = 32.27099 42.22895 37.24997
#
# Velocity S-wave (km/s) = 3.54931 4.06016 3.81330
# Velocity P-wave (km/s) = 5.73222 6.86425 6.32362
#
# Compressibility (1/GPa) = 0.02430460
#
# Stress axis : x y z
#
# Youngs Moduli (GPa) = 54.61550 115.05587 77.70881
#
# Poissons Ratio (x) = 0.17707 0.26214
# Poissons Ratio (y) = 0.08406 0.22304
# Poissons Ratio (z) = 0.18424 0.33024
#
# Static dielectric constant tensor:
#      x y z
#    x 2.249330 -0.092780 -0.055880 
#    y -0.092780 2.044890 -0.026810 
#    z -0.055880 -0.026810 1.998470 
# 
# From -- ./inp_files/158801.got.cif
#   From: 2010.05.17/outbox.cif.g08.bks.cpg/sg2_80_cif.got.tgz:158801.got - 2010.06.03 11:33:40.
