data_PCOD9027625
_publ_section_title
;
Structure prediction by ZEFSAII (Michael W. Deem and Ramdas Pophale) SiO2 
 PCOD9027625
Probable space group: P -1
;
_chemical_formula_sum "Si O2"
_cell_formula_units_Z 16
_cell_length_a 12.133648
_cell_length_b 9.616470
_cell_length_c 14.466417
_cell_angle_alpha 135.903619
_cell_angle_beta 64.810120
_cell_angle_gamma 143.247566
_cell_volume 655.779008
_symmetry_space_group_name_H-M "P -1"
_symmetry_group_IT_number 2
_symmetry_cell_setting 'triclinic'
loop_
_space_group_symop_operation_xyz
x,y,z
-x,-y,-z
loop_
_atom_site_type_symbol
_atom_site_label
_atom_site_fract_x
_atom_site_fract_y
_atom_site_fract_z
Si Si1 0.121289 0.685138 0.639076
Si Si2 0.139027 0.783642 0.336333
Si Si3 0.785557 0.472789 0.031608
Si Si4 0.732049 0.752225 0.039720
Si Si5 0.537526 0.122767 0.442562
Si Si6 0.695857 0.617997 0.499511
Si Si7 0.131589 0.840741 0.980646
Si Si8 0.622106 0.243292 0.172642
O O1 0.348973 0.915499 0.661051
O O2 0.000000 0.500000 0.500000
O O3 0.006464 0.394424 0.610679
O O4 0.135140 0.920131 0.791831
O O5 0.050418 0.508458 0.168397
O O6 0.339489 0.946498 0.382373
O O7 0.144070 0.006059 0.394322
O O8 0.023292 0.742080 0.069940
O O9 0.616693 0.081307 0.896072
O O10 0.750583 0.574826 0.006600
O O11 0.717282 0.468324 0.154712
O O12 0.806608 0.886249 0.971433
O O13 0.500000 0.500000 0.000000
O O14 0.686453 0.497666 0.544623
O O15 0.500000 0.000000 0.500000
O O16 0.500000 0.500000 0.500000
O O17 0.682621 0.439419 0.336340
O O18 0.298280 0.884202 0.925952
#
# Coordination Sequence:
#
# PCOD9027625 Si02
#       8
#     2   2   2   2   2   2   2   2
#     4  11  24  42  67  97 138 176 225 288 344 405
#     4  10  23  41  65  96 134 176 226 278 345 416
#     4  11  24  43  67  97 136 180 236 289 343 411
#     4  11  24  43  71 100 135 187 231 287 352 418
#     4  11  22  40  65  95 134 176 218 276 344 411
#     4  10  22  41  68  97 132 179 222 279 351 415
#     4  11  23  44  69  97 135 182 233 289 347 413
#     4  11  24  43  68  95 136 181 229 289 347 412
#
# _framework density 24.398463
#
# number of rings (size 3 to 8) (size 9 to 14) (size 15 to 20)
#    0.000    1.250    2.500    3.750    3.500    2.000 
#    0.000    0.000    5.500    0.000    0.000    0.000 
#    0.000    0.000    0.000    0.000    0.000    0.000 
#
# Total GULP energy -89261.161844 kJ/mol
# GULP energy per Si atom -5578.822615 kJ/mol
# Density = 2.434293 g / cm^3
# Si number density = 24.398463 Si / 1000 Ang^3
#
#
#
# Elastic Constant Matrix: (Units=GPa)
#
#
# Indices 1 2 3 4 5 6 
#
# 1 98.1210 38.6622 18.5248 -7.2538 -2.0806 -7.0042
# 2 38.6622 197.4287 35.2076 -9.4929 -9.1382 -19.5166
# 3 18.5248 35.2076 53.3095 4.9776 9.4944 -12.3169
# 4 -7.2538 -9.4929 4.9776 28.1731 4.3420 -4.7305
# 5 -2.0806 -9.1382 9.4944 4.3420 22.4798 4.3788
# 6 -7.0042 -19.5166 -12.3169 -4.7305 4.3788 63.4252
#
#
#
# Elastic Compliance Matrix: (Units=1/GPa)
#
#
# Indices 1 2 3 4 5 6 
#
# 1 0.011699 -0.001413 -0.003594 0.003005 0.001390 0.000287
# 2 -0.001413 0.006511 -0.004491 0.002181 0.003821 0.000874
# 3 -0.003594 -0.004491 0.026688 -0.004425 -0.013354 0.003996
# 4 0.003005 0.002181 -0.004425 0.039161 -0.005197 0.003423
# 5 0.001390 0.003821 -0.013354 -0.005197 0.053856 -0.005370
# 6 0.000287 0.000874 0.003996 0.003423 -0.005370 0.017469
#
#
# Mechanical properties :
#
#
# Convention : Reuss Voigt Hill
#
# Bulk Modulus (GPa) = 38.60753 59.29426 48.95089
# Shear Modulus (GPa) = 27.32015 39.91327 33.61671
#
# Velocity S-wave (km/s) = 3.34990 4.04900 3.71593
# Velocity P-wave (km/s) = 5.55162 6.79812 6.20625
#
# Compressibility (1/GPa) = 0.02590168
#
# Stress axis : x y z
#
# Youngs Moduli (GPa) = 85.47847 153.58807 37.46964
#
# Poissons Ratio (x) = 0.21699 0.13466
# Poissons Ratio (y) = 0.12077 0.16829
# Poissons Ratio (z) = 0.30721 0.68983
#
# Static dielectric constant tensor:
#      x y z
#    x 2.046510 0.070340 -0.071480 
#    y 0.070340 2.075370 -0.052900 
#    z -0.071480 -0.052900 1.906590 
# 
# From -- ./inp_files/516249.got.cif
#   From: 2010.05.17/outbox.cif.g08.bks.cpg/sg2_259_cif.got.tgz:516249.got - 2010.06.03 11:33:40.
