data_PCOD9027885
_publ_section_title
;
Structure prediction by ZEFSAII (Michael W. Deem and Ramdas Pophale) SiO2 
 PCOD9027885
Probable space group: P -1
;
_chemical_formula_sum "Si O2"
_cell_formula_units_Z 14
_cell_length_a 17.949744
_cell_length_b 8.980969
_cell_length_c 9.257576
_cell_angle_alpha 53.155390
_cell_angle_beta 130.067094
_cell_angle_gamma 151.207959
_cell_volume 547.510637
_symmetry_space_group_name_H-M "P -1"
_symmetry_group_IT_number 2
_symmetry_cell_setting 'triclinic'
loop_
_space_group_symop_operation_xyz
x,y,z
-x,-y,-z
loop_
_atom_site_type_symbol
_atom_site_label
_atom_site_fract_x
_atom_site_fract_y
_atom_site_fract_z
Si Si1 0.935535 0.229708 0.900199
Si Si2 0.598277 0.824080 0.870020
Si Si3 0.871294 0.825351 0.246887
Si Si4 0.096489 0.854556 0.641076
Si Si5 0.499084 0.748051 0.488841
Si Si6 0.255885 0.160372 0.379894
Si Si7 0.443923 0.837728 0.871905
O O1 0.034406 0.569426 0.799881
O O2 0.771455 0.044631 0.887857
O O3 0.891989 0.078678 0.776356
O O4 0.990650 0.141657 0.119001
O O5 0.496931 0.763798 0.647806
O O6 0.595748 0.962151 0.918507
O O7 0.500000 0.500000 0.000000
O O8 0.955680 0.767214 0.443472
O O9 0.716095 0.536683 0.121355
O O10 0.831052 0.893787 0.295535
O O11 0.214152 0.989279 0.575655
O O12 0.329401 0.462311 0.360334
O O13 0.600387 0.715148 0.604556
O O14 0.593917 0.053237 0.348210
O O15 0.500000 0.000000 0.000000
#
# Coordination Sequence:
#
# PCOD9027885 Si02
#       7
#     2   2   2   2   2   2   2
#     4  11  23  43  67  98 135 179 235 276 348 410
#     4  11  23  42  68  95 137 181 225 288 349 399
#     4  11  24  44  66  98 139 179 235 282 331 426
#     4  11  25  44  68  96 138 191 229 271 346 420
#     4  10  23  41  69 100 136 178 227 288 352 403
#     4  10  22  41  69  99 138 176 227 287 343 408
#     4  12  25  42  71 107 134 174 235 294 350 403
#
# _framework density 25.570277999999998
#
# number of rings (size 3 to 8) (size 9 to 14) (size 15 to 20)
#    0.000    1.143    1.429    4.714    4.000    2.857 
#    0.000    2.857    0.000    0.000    0.000    0.000 
#    0.000    0.000    0.000    0.000    0.000    0.000 
#
# Total GULP energy -78287.033781 kJ/mol
# GULP energy per Si atom -5591.930984 kJ/mol
# Density = 2.551208 g / cm^3
# Si number density = 25.570278 Si / 1000 Ang^3
#
#
#
# Elastic Constant Matrix: (Units=GPa)
#
#
# Indices 1 2 3 4 5 6 
#
# 1 102.2989 47.5122 39.9214 19.4883 -35.8011 -14.2701
# 2 47.5122 120.1456 54.7282 -11.2066 -7.3790 -7.2609
# 3 39.9214 54.7282 128.0553 -5.1412 -24.0549 -18.2118
# 4 19.4883 -11.2066 -5.1412 49.4557 -4.2124 -5.7532
# 5 -35.8011 -7.3790 -24.0549 -4.2124 49.3328 5.2905
# 6 -14.2701 -7.2609 -18.2118 -5.7532 5.2905 33.0360
#
#
#
# Elastic Compliance Matrix: (Units=1/GPa)
#
#
# Indices 1 2 3 4 5 6 
#
# 1 0.019446 -0.007233 -0.000642 -0.008002 0.011692 0.003190
# 2 -0.007233 0.013216 -0.004235 0.004886 -0.004820 -0.000932
# 3 -0.000642 -0.004235 0.011284 0.001345 0.004024 0.004602
# 4 -0.008002 0.004886 0.001345 0.024755 -0.002638 0.003092
# 5 0.011692 -0.004820 0.004024 -0.002638 0.029664 0.000999
# 6 0.003190 -0.000932 0.004602 0.003092 0.000999 0.034359
#
#
# Mechanical properties :
#
#
# Convention : Reuss Voigt Hill
#
# Bulk Modulus (GPa) = 50.69734 70.53593 60.61663
# Shear Modulus (GPa) = 30.57723 40.25411 35.41567
#
# Velocity S-wave (km/s) = 3.46180 3.97199 3.72564
# Velocity P-wave (km/s) = 5.98736 6.97715 6.50112
#
# Compressibility (1/GPa) = 0.01972490
#
# Stress axis : x y z
#
# Youngs Moduli (GPa) = 51.42316 75.66500 88.62329
#
# Poissons Ratio (x) = 0.54729 0.05694
# Poissons Ratio (y) = 0.37195 0.37534
# Poissons Ratio (z) = 0.03304 0.32046
#
# Static dielectric constant tensor:
#      x y z
#    x 2.048120 0.017750 0.062500 
#    y 0.017750 2.061790 0.029840 
#    z 0.062500 0.029840 2.057920 
# 
# From -- ./inp_files/158590.got.cif
#   From: 2010.05.17/outbox.cif.g08.bks.cpg/sg2_80_cif.got.tgz:158590.got - 2010.06.03 11:33:40.
