data_PCOD9027600
_publ_section_title
;
Structure prediction by ZEFSAII (Michael W. Deem and Ramdas Pophale) SiO2 
 PCOD9027600
Probable space group: P -1
;
_chemical_formula_sum "Si O2"
_cell_formula_units_Z 16
_cell_length_a 23.871616
_cell_length_b 23.843654
_cell_length_c 16.150608
_cell_angle_alpha 157.405916
_cell_angle_beta 23.021335
_cell_angle_gamma 168.007411
_cell_volume 716.506492
_symmetry_space_group_name_H-M "P -1"
_symmetry_group_IT_number 2
_symmetry_cell_setting 'triclinic'
loop_
_space_group_symop_operation_xyz
x,y,z
-x,-y,-z
loop_
_atom_site_type_symbol
_atom_site_label
_atom_site_fract_x
_atom_site_fract_y
_atom_site_fract_z
Si Si1 0.327132 0.936559 0.374297
Si Si2 0.325042 0.171747 0.358454
Si Si3 0.267408 0.224454 0.884875
Si Si4 0.271178 0.736183 0.010466
Si Si5 0.245206 0.218129 0.350029
Si Si6 0.679868 0.957700 0.125752
Si Si7 0.190158 0.433199 0.182701
Si Si8 0.849281 0.382093 0.364864
O O1 0.155713 0.688717 0.335416
O O2 0.289371 0.075226 0.628644
O O3 0.652592 0.199163 0.303345
O O4 0.222600 0.797685 0.238363
O O5 0.562327 0.258970 0.171766
O O6 0.250538 0.120936 0.292954
O O7 0.472508 0.446616 0.565856
O O8 0.023026 0.909569 0.454803
O O9 0.500000 0.500000 0.000000
O O10 0.264814 0.329144 0.952035
O O11 0.000000 0.000000 0.000000
O O12 0.000000 0.500000 0.000000
O O13 0.500000 0.000000 0.000000
O O14 0.246488 0.122518 0.135845
O O15 0.370199 0.667960 0.186481
O O16 0.772488 0.171376 0.233009
O O17 0.869183 0.149112 0.209338
O O18 0.232988 0.557652 0.379297
#
# Coordination Sequence:
#
# PCOD9027600 Si02
#       8
#     2   2   2   2   2   2   2   2
#     4  12  25  45  73  99 128 191 231 277 348 410
#     4  10  22  43  68  93 131 178 227 279 341 407
#     4  12  23  45  69  93 131 171 233 276 318 402
#     4  12  27  45  69 103 143 177 230 295 353 410
#     4  10  22  41  68  96 130 179 227 279 339 414
#     4  12  25  40  64 104 138 173 222 281 354 404
#     4  12  24  41  66  98 137 178 216 290 339 401
#     4  12  24  44  69  96 140 176 233 273 341 424
#
# _framework density 22.330572
#
# number of rings (size 3 to 8) (size 9 to 14) (size 15 to 20)
#    0.000    0.500    2.500    6.000    0.000    6.000 
#    0.000    0.000    0.000    0.000    0.000    0.000 
#    0.000    0.000    0.000    0.000    0.000    0.000 
#
# Total GULP energy -89349.052109 kJ/mol
# GULP energy per Si atom -5584.315757 kJ/mol
# Density = 2.227975 g / cm^3
# Si number density = 22.330572 Si / 1000 Ang^3
#
#
#
# Elastic Constant Matrix: (Units=GPa)
#
#
# Indices 1 2 3 4 5 6 
#
# 1 72.1993 22.0925 29.8346 11.7694 8.5977 15.4665
# 2 22.0925 142.6962 17.7021 3.1098 10.8929 7.3166
# 3 29.8346 17.7021 59.1143 10.4199 9.5515 9.3705
# 4 11.7694 3.1098 10.4199 25.2742 1.0002 -3.8607
# 5 8.5977 10.8929 9.5515 1.0002 36.7376 2.7499
# 6 15.4665 7.3166 9.3705 -3.8607 2.7499 48.7278
#
#
#
# Elastic Compliance Matrix: (Units=1/GPa)
#
#
# Indices 1 2 3 4 5 6 
#
# 1 0.019702 -0.001622 -0.007198 -0.006714 -0.001697 -0.005062
# 2 -0.001622 0.007532 -0.001208 0.000346 -0.001529 -0.000270
# 3 -0.007198 -0.001208 0.022927 -0.006150 -0.003584 -0.002228
# 4 -0.006714 0.000346 -0.006150 0.046180 0.001298 0.006847
# 5 -0.001697 -0.001529 -0.003584 0.001298 0.028973 -0.000075
# 6 -0.005062 -0.000270 -0.002228 0.006847 -0.000075 0.023145
#
#
# Mechanical properties :
#
#
# Convention : Reuss Voigt Hill
#
# Bulk Modulus (GPa) = 33.21643 45.91868 39.56756
# Shear Modulus (GPa) = 28.00349 35.77329 31.88839
#
# Velocity S-wave (km/s) = 3.54509 4.00683 3.78301
# Velocity P-wave (km/s) = 5.62708 6.48182 6.06951
#
# Compressibility (1/GPa) = 0.03010558
#
# Stress axis : x y z
#
# Youngs Moduli (GPa) = 50.75611 132.76888 43.61638
#
# Poissons Ratio (x) = 0.21535 0.31394
# Poissons Ratio (y) = 0.08233 0.05269
# Poissons Ratio (z) = 0.36533 0.16038
#
# Static dielectric constant tensor:
#      x y z
#    x 1.815010 -0.020690 -0.037530 
#    y -0.020690 1.748580 0.014800 
#    z -0.037530 0.014800 1.814470 
# 
# From -- ./inp_files/579960.got.cif
#   From: 2010.05.17/outbox.cif.g08.bks.cpg/sg2_290_cif.got.tgz:579960.got - 2010.06.03 11:33:40.
