data_PCOD9027331
_publ_section_title
;
Structure prediction by ZEFSAII (Michael W. Deem and Ramdas Pophale) SiO2 
 PCOD9027331
Probable space group: P -1
;
_chemical_formula_sum "Si O2"
_cell_formula_units_Z 14
_cell_length_a 12.710886
_cell_length_b 8.323341
_cell_length_c 11.242507
_cell_angle_alpha 95.716561
_cell_angle_beta 35.029336
_cell_angle_gamma 114.070366
_cell_volume 557.552554
_symmetry_space_group_name_H-M "P -1"
_symmetry_group_IT_number 2
_symmetry_cell_setting 'triclinic'
loop_
_space_group_symop_operation_xyz
x,y,z
-x,-y,-z
loop_
_atom_site_type_symbol
_atom_site_label
_atom_site_fract_x
_atom_site_fract_y
_atom_site_fract_z
Si Si1 0.027169 0.954594 0.666695
Si Si2 0.778173 0.247592 0.839254
Si Si3 0.681885 0.853016 0.796426
Si Si4 0.898971 0.358542 0.352676
Si Si5 0.525833 0.764203 0.415821
Si Si6 0.754369 0.533869 0.166272
Si Si7 0.870420 0.139240 0.997010
O O1 0.790434 0.818307 0.806123
O O2 0.132631 0.834880 0.581889
O O3 0.189145 0.133551 0.440888
O O4 0.987490 0.037537 0.827614
O O5 0.012128 0.457813 0.629161
O O6 0.761577 0.166283 0.983428
O O7 0.751240 0.075343 0.771706
O O8 0.580386 0.270591 0.989783
O O9 0.677704 0.302238 0.488141
O O10 0.108178 0.440832 0.075033
O O11 0.632276 0.644410 0.275597
O O12 0.421831 0.685335 0.637262
O O13 0.704005 0.993946 0.242681
O O14 0.940871 0.655053 0.104830
#
# Coordination Sequence:
#
# PCOD9027331 Si02
#       7
#     2   2   2   2   2   2   2
#     4  10  22  41  67  96 130 171 225 271 335 392
#     4  10  22  41  69  94 133 172 223 276 331 395
#     4   9  21  44  65  96 126 176 222 278 335 391
#     4  12  24  43  65 103 133 173 224 271 327 402
#     4  11  24  41  65  95 139 177 218 267 322 383
#     4  11  25  45  62 103 141 172 222 273 316 404
#     4  11  22  45  67  96 140 179 213 273 327 395
#
# _framework density 25.109742000000001
#
# number of rings (size 3 to 8) (size 9 to 14) (size 15 to 20)
#    0.000    1.429    2.857    1.714    0.000    4.000 
#    2.571    0.000    0.000    0.000    0.000    0.000 
#    0.000    0.000    0.000    0.000    0.000    0.000 
#
# Total GULP energy -78431.872737 kJ/mol
# GULP energy per Si atom -5602.276624 kJ/mol
# Density = 2.505259 g / cm^3
# Si number density = 25.109742 Si / 1000 Ang^3
#
#
#
# Elastic Constant Matrix: (Units=GPa)
#
#
# Indices 1 2 3 4 5 6 
#
# 1 72.4528 15.8549 15.7577 14.7022 -13.4699 -8.4072
# 2 15.8549 70.0866 9.3802 -10.6233 4.3010 -2.9171
# 3 15.7577 9.3802 80.4511 3.2790 5.3849 1.4659
# 4 14.7022 -10.6233 3.2790 19.7184 -7.3406 1.2782
# 5 -13.4699 4.3010 5.3849 -7.3406 51.9439 8.1560
# 6 -8.4072 -2.9171 1.4659 1.2782 8.1560 31.3463
#
#
#
# Elastic Compliance Matrix: (Units=1/GPa)
#
#
# Indices 1 2 3 4 5 6 
#
# 1 0.020720 -0.007012 -0.002793 -0.018003 0.002912 0.005012
# 2 -0.007012 0.018342 -0.001299 0.014979 -0.001013 -0.000460
# 3 -0.002793 -0.001299 0.013347 -0.001554 -0.002080 -0.000890
# 4 -0.018003 0.014979 -0.001554 0.075276 0.006151 -0.008032
# 5 0.002912 -0.001013 -0.002080 0.006151 0.021990 -0.005188
# 6 0.005012 -0.000460 -0.000890 -0.008032 -0.005188 0.034922
#
#
# Mechanical properties :
#
#
# Convention : Reuss Voigt Hill
#
# Bulk Modulus (GPa) = 33.11339 33.88624 33.49982
# Shear Modulus (GPa) = 23.05480 32.73489 27.89485
#
# Velocity S-wave (km/s) = 3.03341 3.61456 3.33666
# Velocity P-wave (km/s) = 5.04825 5.56279 5.31175
#
# Compressibility (1/GPa) = 0.03019926
#
# Stress axis : x y z
#
# Youngs Moduli (GPa) = 48.26165 54.52048 74.92155
#
# Poissons Ratio (x) = 0.38232 0.20928
# Poissons Ratio (y) = 0.33843 0.09735
# Poissons Ratio (z) = 0.13481 0.07084
#
# Static dielectric constant tensor:
#      x y z
#    x 1.960400 -0.025400 -0.003590 
#    y -0.025400 1.988210 0.021360 
#    z -0.003590 0.021360 1.991970 
# 
# From -- ./inp_files/236714.got.cif
#   From: 2010.05.17/outbox.cif.g08.bks.cpg/sg2_119_cif.got.tgz:236714.got - 2010.06.03 11:33:40.
