data_PCOD9027820
_publ_section_title
;
Structure prediction by ZEFSAII (Michael W. Deem and Ramdas Pophale) SiO2 
 PCOD9027820
Probable space group: P -1
;
_chemical_formula_sum "Si O2"
_cell_formula_units_Z 14
_cell_length_a 7.227167
_cell_length_b 15.654683
_cell_length_c 20.847062
_cell_angle_alpha 18.140327
_cell_angle_beta 76.319568
_cell_angle_gamma 85.974600
_cell_volume 613.364055
_symmetry_space_group_name_H-M "P -1"
_symmetry_group_IT_number 2
_symmetry_cell_setting 'triclinic'
loop_
_space_group_symop_operation_xyz
x,y,z
-x,-y,-z
loop_
_atom_site_type_symbol
_atom_site_label
_atom_site_fract_x
_atom_site_fract_y
_atom_site_fract_z
Si Si1 0.675552 0.456645 0.927504
Si Si2 0.383004 0.887650 0.275419
Si Si3 0.040559 0.707260 0.201069
Si Si4 0.062851 0.148133 0.109362
Si Si5 0.221369 0.546384 0.413701
Si Si6 0.778859 0.706790 0.870108
Si Si7 0.019465 0.631631 0.680822
O O1 0.464011 0.487029 0.939811
O O2 0.578084 0.113054 0.146681
O O3 0.791804 0.514664 0.945703
O O4 0.842550 0.683023 0.698063
O O5 0.192120 0.595779 0.539894
O O6 0.411232 0.737891 0.314040
O O7 0.272083 0.099326 0.114033
O O8 0.082358 0.616666 0.192241
O O9 0.227109 0.731567 0.216921
O O10 0.000000 0.000000 0.000000
O O11 0.057855 0.182287 0.162165
O O12 0.095960 0.456344 0.849749
O O13 0.851022 0.814048 0.341483
O O14 0.000000 0.500000 0.500000
O O15 0.808208 0.029910 0.605195
#
# Coordination Sequence:
#
# PCOD9027820 Si02
#       7
#     2   2   2   2   2   2   2
#     4  10  22  38  61  87 115 156 191 247 282 343
#     4   9  17  37  55  78 126 148 183 243 293 328
#     4  10  17  31  59  86 112 155 192 228 288 351
#     4   9  18  34  59  86 111 154 188 239 283 347
#     4   8  14  30  54  79 113 150 185 231 286 336
#     4  10  21  44  59  79 126 151 191 242 296 328
#     4  12  20  36  65  88 111 154 205 226 292 347
#
# _framework density 22.824943999999999
#
# number of rings (size 3 to 8) (size 9 to 14) (size 15 to 20)
#    0.000    2.571    4.286    3.000    0.000    0.571 
#    0.000   12.857    0.000    0.000    0.000    0.000 
#    0.000    0.000    0.000    0.000    0.000    0.000 
#
# Total GULP energy -78019.363406 kJ/mol
# GULP energy per Si atom -5572.811672 kJ/mol
# Density = 2.277299 g / cm^3
# Si number density = 22.824944 Si / 1000 Ang^3
#
#
#
# Elastic Constant Matrix: (Units=GPa)
#
#
# Indices 1 2 3 4 5 6 
#
# 1 24.9104 39.2203 44.6751 -17.7048 20.6010 -0.1285
# 2 39.2203 198.7459 39.1354 -21.4407 -8.1206 47.2766
# 3 44.6751 39.1354 92.0873 -5.9975 17.5689 21.4775
# 4 -17.7048 -21.4407 -5.9975 41.0986 10.6683 -14.5825
# 5 20.6010 -8.1206 17.5689 10.6683 32.9265 -1.7054
# 6 -0.1285 47.2766 21.4775 -14.5825 -1.7054 40.8060
#
#
#
# Elastic Compliance Matrix: (Units=1/GPa)
#
#
# Indices 1 2 3 4 5 6 
#
# 1 -0.037087 0.009051 0.013796 -0.024787 0.024776 -0.025686
# 2 0.009051 0.005023 -0.005164 0.006418 -0.003796 -0.000937
# 3 0.013796 -0.005164 0.009617 0.010862 -0.018344 0.004080
# 4 -0.024787 0.006418 0.010862 0.014143 0.006304 -0.007914
# 5 0.024776 -0.003796 -0.018344 0.006304 0.022576 0.017328
# 6 -0.025686 -0.000937 0.004080 -0.007914 0.017328 0.021260
#
#
# Mechanical properties :
#
#
# Convention : Reuss Voigt Hill
#
# Bulk Modulus (GPa) = 77.42263 62.42280 69.92271
# Shear Modulus (GPa) = 1117.82506 35.81375 576.81941
#
# Velocity S-wave (km/s) = 22.15404 3.96544 15.91424
# Velocity P-wave (km/s) = 26.23730 6.95515 19.19336
#
# Compressibility (1/GPa) = 0.01291612
#
# Stress axis : x y z
#
# Youngs Moduli (GPa) = -26.96335 199.09459 103.98361
#
# Poissons Ratio (x) = -1.80193 -1.43453
# Poissons Ratio (y) = 0.24404 0.53701
# Poissons Ratio (z) = 0.37198 1.02821
#
# Static dielectric constant tensor:
#      x y z
#    x 1.902980 0.041550 -0.031960 
#    y 0.041550 1.918900 -0.034480 
#    z -0.031960 -0.034480 1.853290 
# 
# From -- ./inp_files/590000.got.cif
#   From: 2010.05.17/outbox.cif.g08.bks.cpg/sg2_295_cif.got.tgz:590000.got - 2010.06.03 11:33:40.
