data_PCOD9027579
_publ_section_title
;
Structure prediction by ZEFSAII (Michael W. Deem and Ramdas Pophale) SiO2 
 PCOD9027579
Probable space group: P -1
;
_chemical_formula_sum "Si O2"
_cell_formula_units_Z 14
_cell_length_a 9.153426
_cell_length_b 13.666693
_cell_length_c 8.295661
_cell_angle_alpha 134.347186
_cell_angle_beta 75.093814
_cell_angle_gamma 126.608314
_cell_volume 572.234663
_symmetry_space_group_name_H-M "P -1"
_symmetry_group_IT_number 2
_symmetry_cell_setting 'triclinic'
loop_
_space_group_symop_operation_xyz
x,y,z
-x,-y,-z
loop_
_atom_site_type_symbol
_atom_site_label
_atom_site_fract_x
_atom_site_fract_y
_atom_site_fract_z
Si Si1 0.087435 0.026387 0.828890
Si Si2 0.636469 0.576690 0.794269
Si Si3 0.180974 0.959918 0.272855
Si Si4 0.307583 0.810193 0.847379
Si Si5 0.273871 0.511523 0.676052
Si Si6 0.387843 0.721129 0.398695
Si Si7 0.124371 0.768561 0.384239
O O1 0.921467 0.960697 0.669820
O O2 0.174760 0.924377 0.665702
O O3 0.240005 0.224545 0.970734
O O4 0.000000 0.000000 0.000000
O O5 0.426614 0.515500 0.744239
O O6 0.718651 0.560763 0.583472
O O7 0.632717 0.452395 0.780951
O O8 0.098514 0.826826 0.287834
O O9 0.394848 0.116737 0.445133
O O10 0.166437 0.846472 0.996147
O O11 0.331045 0.698266 0.835848
O O12 0.271043 0.719889 0.583178
O O13 0.500000 0.000000 0.000000
O O14 0.070074 0.397605 0.684440
O O15 0.289575 0.745434 0.307777
#
# Coordination Sequence:
#
# PCOD9027579 Si02
#       7
#     2   2   2   2   2   2   2
#     4  12  25  42  71  99 126 172 229 266 324 391
#     4  10  23  42  68  98 127 167 227 276 317 380
#     4  11  25  44  65  97 139 172 213 272 332 388
#     4   9  21  38  69  94 124 169 227 263 319 377
#     4  10  22  41  68  95 134 171 216 276 329 378
#     4  10  23  44  69  94 131 174 222 267 325 385
#     4  12  25  43  67  97 137 175 214 267 335 392
#
# _framework density 24.465488000000001
#
# number of rings (size 3 to 8) (size 9 to 14) (size 15 to 20)
#    0.000    1.429    1.429    2.571   12.000    1.714 
#    0.000    1.429    0.000    0.000    0.000    0.000 
#    0.000    0.000    0.000    0.000    0.000    0.000 
#
# Total GULP energy -78395.600432 kJ/mol
# GULP energy per Si atom -5599.685745 kJ/mol
# Density = 2.440980 g / cm^3
# Si number density = 24.465488 Si / 1000 Ang^3
#
#
#
# Elastic Constant Matrix: (Units=GPa)
#
#
# Indices 1 2 3 4 5 6 
#
# 1 134.3954 48.3649 13.3915 18.8920 6.6728 -25.4702
# 2 48.3649 122.6829 32.9795 32.3003 5.4841 -23.5239
# 3 13.3915 32.9795 53.5807 23.8647 -8.4222 -3.0610
# 4 18.8920 32.3003 23.8647 44.5022 -11.9150 0.3566
# 5 6.6728 5.4841 -8.4222 -11.9150 26.5636 14.1328
# 6 -25.4702 -23.5239 -3.0610 0.3566 14.1328 36.5962
#
#
#
# Elastic Compliance Matrix: (Units=1/GPa)
#
#
# Indices 1 2 3 4 5 6 
#
# 1 0.012596 0.002922 -0.001648 -0.011874 -0.019216 0.018044
# 2 0.002922 0.021549 -0.007888 -0.021477 -0.032132 0.027844
# 3 -0.001648 -0.007888 0.027630 -0.004697 0.013530 -0.009086
# 4 -0.011874 -0.021477 -0.004697 0.061393 0.057561 -0.045290
# 5 -0.019216 -0.032132 0.013530 0.057561 0.122103 -0.080611
# 6 0.018044 0.027844 -0.009086 -0.045290 -0.080611 0.088593
#
#
# Mechanical properties :
#
#
# Convention : Reuss Voigt Hill
#
# Bulk Modulus (GPa) = 20.59819 55.57010 38.08415
# Shear Modulus (GPa) = 13.76366 35.92726 24.84546
#
# Velocity S-wave (km/s) = 2.37444 3.83624 3.19020
# Velocity P-wave (km/s) = 3.99435 6.51040 5.40093
#
# Compressibility (1/GPa) = 0.04854796
#
# Stress axis : x y z
#
# Youngs Moduli (GPa) = 79.38946 46.40495 36.19232
#
# Poissons Ratio (x) = -0.13561 0.05964
# Poissons Ratio (y) = -0.23200 0.28550
# Poissons Ratio (z) = 0.13082 0.36606
#
# Static dielectric constant tensor:
#      x y z
#    x 1.942140 0.019200 -0.010120 
#    y 0.019200 1.919590 -0.056300 
#    z -0.010120 -0.056300 1.975260 
# 
# From -- ./inp_files/157643.got.cif
#   From: 2010.05.17/outbox.cif.g08.bks.cpg/sg2_79_cif.got.tgz:157643.got - 2010.06.03 11:33:40.
