data_PCOD9027802
_publ_section_title
;
Structure prediction by ZEFSAII (Michael W. Deem and Ramdas Pophale) SiO2 
 PCOD9027802
Probable space group: P -1
;
_chemical_formula_sum "Si O2"
_cell_formula_units_Z 16
_cell_length_a 8.643853
_cell_length_b 9.852363
_cell_length_c 14.422796
_cell_angle_alpha 106.120786
_cell_angle_beta 125.759708
_cell_angle_gamma 105.603247
_cell_volume 797.680819
_symmetry_space_group_name_H-M "P -1"
_symmetry_group_IT_number 2
_symmetry_cell_setting 'triclinic'
loop_
_space_group_symop_operation_xyz
x,y,z
-x,-y,-z
loop_
_atom_site_type_symbol
_atom_site_label
_atom_site_fract_x
_atom_site_fract_y
_atom_site_fract_z
Si Si1 0.566067 0.498705 0.277968
Si Si2 0.768676 0.974356 0.528305
Si Si3 0.624331 0.180228 0.960996
Si Si4 0.105854 0.442458 0.446288
Si Si5 0.726280 0.808015 0.283075
Si Si6 0.899542 0.517613 0.871737
Si Si7 0.392718 0.803466 0.826286
Si Si8 0.687836 0.270379 0.583493
O O1 0.707985 0.574031 0.437417
O O2 0.709237 0.637091 0.274123
O O3 0.322413 0.475242 0.191335
O O4 0.550436 0.326292 0.219800
O O5 0.721231 0.890028 0.394242
O O6 0.582092 0.837084 0.507754
O O7 0.737391 0.130600 0.544074
O O8 0.035544 0.058168 0.657652
O O9 0.488227 0.234662 0.860495
O O10 0.537990 0.988858 0.868116
O O11 0.559254 0.179953 0.044552
O O12 0.892994 0.310641 0.067854
O O13 0.227305 0.585550 0.437178
O O14 0.000000 0.500000 0.500000
O O15 0.877981 0.275440 0.296185
O O16 0.820697 0.363868 0.742978
O O17 0.000000 0.500000 0.000000
#
# Coordination Sequence:
#
# PCOD9027802 Si02
#       8
#     2   2   2   2   2   2   2   2
#     4  11  24  42  68  97 127 172 219 266 334 377
#     4  10  23  39  66 101 130 162 227 267 330 379
#     4  11  24  43  66  91 132 174 217 266 320 392
#     4  10  22  41  69  94 129 167 215 271 329 383
#     4  11  23  41  68  97 130 172 219 272 319 393
#     4  12  24  45  64  96 136 173 216 268 321 386
#     4  10  24  43  65  96 127 171 219 266 325 391
#     4  11  22  43  65  99 132 174 210 278 329 381
#
# _framework density 20.058149
#
# number of rings (size 3 to 8) (size 9 to 14) (size 15 to 20)
#    0.000    1.250    3.750    1.500    7.000    2.500 
#    4.500    0.000    0.000    0.000    0.000    0.000 
#    0.000    0.000    0.000    0.000    0.000    0.000 
#
# Total GULP energy -89385.637257 kJ/mol
# GULP energy per Si atom -5586.602329 kJ/mol
# Density = 2.001250 g / cm^3
# Si number density = 20.058149 Si / 1000 Ang^3
#
#
#
# Elastic Constant Matrix: (Units=GPa)
#
#
# Indices 1 2 3 4 5 6 
#
# 1 57.5283 -1.3394 -0.2529 2.9513 22.9362 2.5199
# 2 -1.3394 64.1279 6.6638 7.9284 6.5123 -0.0885
# 3 -0.2529 6.6638 63.0397 -5.9570 21.7415 -5.7107
# 4 2.9513 7.9284 -5.9570 43.2520 3.6348 5.1957
# 5 22.9362 6.5123 21.7415 3.6348 36.0124 9.5351
# 6 2.5199 -0.0885 -5.7107 5.1957 9.5351 36.6117
#
#
#
# Elastic Compliance Matrix: (Units=1/GPa)
#
#
# Indices 1 2 3 4 5 6 
#
# 1 0.026976 0.002092 0.008915 0.000359 -0.024534 0.005878
# 2 0.002092 0.016480 -0.000510 -0.003051 -0.004041 0.001302
# 3 0.008915 -0.000510 0.025263 0.003876 -0.023590 0.008920
# 4 0.000359 -0.003051 0.003876 0.024754 -0.004014 -0.001895
# 5 -0.024534 -0.004041 -0.023590 -0.004014 0.063532 -0.017977
# 6 0.005878 0.001302 0.008920 -0.001895 -0.017977 0.033255
#
#
# Mechanical properties :
#
#
# Convention : Reuss Voigt Hill
#
# Bulk Modulus (GPa) = 11.14662 21.64876 16.39769
# Shear Modulus (GPa) = 25.10422 35.15017 30.12720
#
# Velocity S-wave (km/s) = 3.54159 4.19073 3.87976
# Velocity P-wave (km/s) = 4.72155 5.85087 5.31628
#
# Compressibility (1/GPa) = 0.08971329
#
# Stress axis : x y z
#
# Youngs Moduli (GPa) = 37.06941 60.67987 39.58371
#
# Poissons Ratio (x) = -0.12696 -0.35289
# Poissons Ratio (y) = -0.07756 0.02020
# Poissons Ratio (z) = -0.33047 0.03096
#
# Static dielectric constant tensor:
#      x y z
#    x 1.708030 0.006300 -0.002820 
#    y 0.006300 1.718080 0.012560 
#    z -0.002820 0.012560 1.714610 
# 
# From -- ./inp_files/209131.got.cif
#   From: 2010.05.17/outbox.cif.g08.bks.cpg/sg2_105_cif.got.tgz:209131.got - 2010.06.03 11:33:40.
