data_PCOD9027786
_publ_section_title
;
Structure prediction by ZEFSAII (Michael W. Deem and Ramdas Pophale) SiO2 
 PCOD9027786
Probable space group: P -1
;
_chemical_formula_sum "Si O2"
_cell_formula_units_Z 14
_cell_length_a 25.890736
_cell_length_b 25.177847
_cell_length_c 14.690298
_cell_angle_alpha 156.989647
_cell_angle_beta 159.144803
_cell_angle_gamma 11.181546
_cell_volume 660.161838
_symmetry_space_group_name_H-M "P -1"
_symmetry_group_IT_number 2
_symmetry_cell_setting 'triclinic'
loop_
_space_group_symop_operation_xyz
x,y,z
-x,-y,-z
loop_
_atom_site_type_symbol
_atom_site_label
_atom_site_fract_x
_atom_site_fract_y
_atom_site_fract_z
Si Si1 0.103549 0.339196 0.289005
Si Si2 0.505208 0.504270 0.763177
Si Si3 0.558066 0.749686 0.154362
Si Si4 0.817029 0.723253 0.893208
Si Si5 0.198981 0.168965 0.667092
Si Si6 0.788582 0.296321 0.096258
Si Si7 0.844206 0.965802 0.433028
O O1 0.268487 0.324987 0.592499
O O2 0.150588 0.313243 0.218966
O O3 0.766353 0.610896 0.192389
O O4 0.257501 0.075853 0.162309
O O5 0.175263 0.751131 0.643900
O O6 0.624730 0.270367 0.544317
O O7 0.516579 0.625444 0.908492
O O8 0.706876 0.365708 0.965296
O O9 0.077507 0.418118 0.881455
O O10 0.505519 0.923112 0.731769
O O11 0.833691 0.864826 0.176194
O O12 0.226730 0.058782 0.630343
O O13 0.952116 0.297915 0.402087
O O14 0.500000 0.500000 0.000000
O O15 0.000000 0.000000 0.000000
#
# Coordination Sequence:
#
# PCOD9027786 Si02
#       7
#     2   2   2   2   2   2   2
#     4  10  22  43  65  94 123 155 218 268 309 367
#     4  12  23  42  64  95 130 169 205 255 333 368
#     4  10  22  41  69  92 122 161 204 271 325 368
#     4  12  25  42  65  92 125 175 219 255 308 370
#     4  12  23  41  65  92 127 172 213 259 312 368
#     4  12  22  39  62  92 127 157 202 261 308 370
#     4  12  25  42  61  92 137 170 210 256 302 392
#
# _framework density 21.206921000000001
#
# number of rings (size 3 to 8) (size 9 to 14) (size 15 to 20)
#    0.000    0.571    2.857    6.000    0.000    3.429 
#    0.000    4.286    0.000    0.000    0.000    0.000 
#    0.000    0.000    0.000    0.000    0.000    0.000 
#
# Total GULP energy -78417.613926 kJ/mol
# GULP energy per Si atom -5601.258138 kJ/mol
# Density = 2.115865 g / cm^3
# Si number density = 21.206921 Si / 1000 Ang^3
#
#
#
# Elastic Constant Matrix: (Units=GPa)
#
#
# Indices 1 2 3 4 5 6 
#
# 1 87.5932 15.9824 39.6237 6.9794 2.7895 -16.1731
# 2 15.9824 85.9425 17.5162 13.7550 8.9809 -14.3763
# 3 39.6237 17.5162 70.5206 24.8471 7.5132 -3.8000
# 4 6.9794 13.7550 24.8471 39.9442 9.7124 3.1205
# 5 2.7895 8.9809 7.5132 9.7124 25.3140 17.5427
# 6 -16.1731 -14.3763 -3.8000 3.1205 17.5427 25.3040
#
#
#
# Elastic Compliance Matrix: (Units=1/GPa)
#
#
# Indices 1 2 3 4 5 6 
#
# 1 0.021688 0.005478 -0.010735 0.004639 -0.025362 0.032373
# 2 0.005478 0.021465 -0.001993 -0.001878 -0.034140 0.039297
# 3 -0.010735 -0.001993 0.024819 -0.013184 0.002718 -0.004524
# 4 0.004639 -0.001878 -0.013184 0.035807 -0.012615 0.004248
# 5 -0.025362 -0.034140 0.002718 -0.012615 0.157363 -0.142739
# 6 0.032373 0.039297 -0.004524 0.004248 -0.142739 0.180291
#
#
# Mechanical properties :
#
#
# Convention : Reuss Voigt Hill
#
# Bulk Modulus (GPa) = 18.70155 43.36674 31.03415
# Shear Modulus (GPa) = 10.55392 29.50803 20.03098
#
# Velocity S-wave (km/s) = 2.23326 3.73424 3.07669
# Velocity P-wave (km/s) = 3.93544 6.25192 5.22370
#
# Compressibility (1/GPa) = 0.05347151
#
# Stress axis : x y z
#
# Youngs Moduli (GPa) = 46.10793 46.58793 40.29228
#
# Poissons Ratio (x) = -0.25519 0.43253
# Poissons Ratio (y) = -0.25256 0.08030
# Poissons Ratio (z) = 0.49496 0.09284
#
# Static dielectric constant tensor:
#      x y z
#    x 1.722800 0.013540 -0.010490 
#    y 0.013540 1.737550 0.008920 
#    z -0.010490 0.008920 1.783310 
# 
# From -- ./inp_files/123191.got.cif
#   From: 2010.05.17/outbox.cif.g08.bks.cpg/sg2_62_cif.got.tgz:123191.got - 2010.06.03 11:33:40.
