data_PCOD9027978
_publ_section_title
;
Structure prediction by ZEFSAII (Michael W. Deem and Ramdas Pophale) SiO2 
 PCOD9027978
Probable space group: P -1
;
_chemical_formula_sum "Si O2"
_cell_formula_units_Z 16
_cell_length_a 11.769911
_cell_length_b 21.078353
_cell_length_c 6.106011
_cell_angle_alpha 114.619642
_cell_angle_beta 127.513167
_cell_angle_gamma 39.619068
_cell_volume 762.097560
_symmetry_space_group_name_H-M "P -1"
_symmetry_group_IT_number 2
_symmetry_cell_setting 'triclinic'
loop_
_space_group_symop_operation_xyz
x,y,z
-x,-y,-z
loop_
_atom_site_type_symbol
_atom_site_label
_atom_site_fract_x
_atom_site_fract_y
_atom_site_fract_z
Si Si1 0.483237 0.953460 0.207782
Si Si2 0.953131 0.405328 0.403820
Si Si3 0.171011 0.131657 0.764826
Si Si4 0.057989 0.868310 0.838388
Si Si5 0.846103 0.046233 0.180396
Si Si6 0.170997 0.447732 0.932026
Si Si7 0.569691 0.540923 0.486401
Si Si8 0.862958 0.287082 0.979903
O O1 0.706274 0.859276 0.233982
O O2 0.500000 0.000000 0.500000
O O3 0.363608 0.922973 0.020239
O O4 0.333575 0.051123 0.018124
O O5 0.884466 0.476990 0.217407
O O6 0.771406 0.461258 0.454392
O O7 0.147609 0.379678 0.694122
O O8 0.978420 0.317875 0.224284
O O9 0.122558 0.085899 0.477579
O O10 0.969593 0.224584 0.789809
O O11 0.208714 0.859615 0.850943
O O12 0.117414 0.777252 0.899446
O O13 0.981182 0.949058 0.043576
O O14 0.000000 0.000000 0.500000
O O15 0.371487 0.411762 0.229135
O O16 0.000000 0.500000 0.000000
O O17 0.500000 0.500000 0.500000
O O18 0.375627 0.618925 0.213663
#
# Coordination Sequence:
#
# PCOD9027978 Si02
#       8
#     2   2   2   2   2   2   2   2
#     4  11  21  42  70  93 126 173 225 262 337 404
#     4  10  22  41  70  92 132 176 219 276 339 404
#     4  11  23  39  67  96 130 172 219 280 327 404
#     4  11  23  39  67  96 132 173 218 282 334 393
#     4  11  21  42  70  93 128 174 219 270 346 393
#     4   9  20  41  67  95 126 176 220 266 344 404
#     4  11  23  40  70  99 127 183 225 274 335 403
#     4  12  24  39  68  99 133 166 237 272 331 394
#
# _framework density 20.994689999999999
#
# number of rings (size 3 to 8) (size 9 to 14) (size 15 to 20)
#    0.000    1.250    5.000    0.375    1.750    0.000 
#    0.000    0.000   52.250    0.000    0.000    0.000 
#    0.000    0.000    0.000    0.000    0.000    0.000 
#
# Total GULP energy -89076.031052 kJ/mol
# GULP energy per Si atom -5567.251941 kJ/mol
# Density = 2.094690 g / cm^3
# Si number density = 20.994690 Si / 1000 Ang^3
#
#
#
# Elastic Constant Matrix: (Units=GPa)
#
#
# Indices 1 2 3 4 5 6 
#
# 1 156.5970 19.1630 38.6122 6.9998 20.5402 21.6698
# 2 19.1630 29.5261 17.8812 6.3692 -1.1966 17.4549
# 3 38.6122 17.8812 173.4492 16.2781 12.5357 18.7823
# 4 6.9998 6.3692 16.2781 21.4158 3.1438 4.0042
# 5 20.5402 -1.1966 12.5357 3.1438 40.4036 5.8897
# 6 21.6698 17.4549 18.7823 4.0042 5.8897 32.8321
#
#
#
# Elastic Compliance Matrix: (Units=1/GPa)
#
#
# Indices 1 2 3 4 5 6 
#
# 1 0.007775 -0.003333 -0.000902 0.000059 -0.003451 -0.002232
# 2 -0.003333 0.055319 -0.001739 -0.010342 0.008538 -0.026485
# 3 -0.000902 -0.001739 0.006772 -0.003853 -0.001150 -0.001678
# 4 0.000059 -0.010342 -0.003853 0.052851 -0.003523 0.001849
# 5 -0.003451 0.008538 -0.001150 -0.003523 0.028299 -0.006251
# 6 -0.002232 -0.026485 -0.001678 0.001849 -0.006251 0.047867
#
#
# Mechanical properties :
#
#
# Convention : Reuss Voigt Hill
#
# Bulk Modulus (GPa) = 17.26609 56.76502 37.01556
# Shear Modulus (GPa) = 21.72618 37.85803 29.79210
#
# Velocity S-wave (km/s) = 3.22039 4.25104 3.77109
# Velocity P-wave (km/s) = 4.69784 7.15483 6.05233
#
# Compressibility (1/GPa) = 0.05791700
#
# Stress axis : x y z
#
# Youngs Moduli (GPa) = 128.61995 18.07700 147.67149
#
# Poissons Ratio (x) = 0.06025 0.13315
# Poissons Ratio (y) = 0.42872 0.25686
# Poissons Ratio (z) = 0.11597 0.03144
#
# Static dielectric constant tensor:
#      x y z
#    x 1.900910 -0.010710 -0.041460 
#    y -0.010710 1.759090 0.017240 
#    z -0.041460 0.017240 1.799600 
# 
# From -- ./inp_files/83491.got.cif
#   From: 2010.05.17/outbox.cif.g08.bks.cpg/sg2_42_cif.got.tgz:83491.got - 2010.06.03 11:33:40.
