data_PCOD9027029
_publ_section_title
;
Structure prediction by ZEFSAII (Michael W. Deem and Ramdas Pophale) SiO2 
 PCOD9027029
Probable space group: P -1
;
_chemical_formula_sum "Si O2"
_cell_formula_units_Z 14
_cell_length_a 11.486199
_cell_length_b 12.052340
_cell_length_c 8.965388
_cell_angle_alpha 118.201367
_cell_angle_beta 134.647837
_cell_angle_gamma 50.016179
_cell_volume 676.065778
_symmetry_space_group_name_H-M "P -1"
_symmetry_group_IT_number 2
_symmetry_cell_setting 'triclinic'
loop_
_space_group_symop_operation_xyz
x,y,z
-x,-y,-z
loop_
_atom_site_type_symbol
_atom_site_label
_atom_site_fract_x
_atom_site_fract_y
_atom_site_fract_z
Si Si1 0.526969 0.684821 0.567384
Si Si2 0.679219 0.857540 0.632731
Si Si3 0.670623 0.491010 0.852590
Si Si4 0.714582 0.301147 0.233086
Si Si5 0.902135 0.986171 0.054087
Si Si6 0.048645 0.610994 0.696194
Si Si7 0.152478 0.854308 0.464288
O O1 0.622729 0.745145 0.580036
O O2 0.664115 0.571593 0.742953
O O3 0.417639 0.612302 0.337846
O O4 0.362764 0.822329 0.597672
O O5 0.855188 0.765077 0.622423
O O6 0.500000 0.000000 0.500000
O O7 0.762827 0.924306 0.866672
O O8 0.507659 0.611577 0.888172
O O9 0.862295 0.425112 0.079031
O O10 0.789773 0.144424 0.127239
O O11 0.792435 0.381584 0.253243
O O12 0.806956 0.273074 0.464152
O O13 0.060742 0.871694 0.233056
O O14 0.000000 0.000000 0.000000
O O15 0.000000 0.500000 0.500000
O O16 0.000000 0.000000 0.500000
#
# Coordination Sequence:
#
# PCOD9027029 Si02
#       7
#     2   2   2   2   2   2   2
#     4  10  22  43  68  97 130 172 225 279 334 394
#     4  12  27  39  64 102 134 171 224 280 329 393
#     4  10  23  44  70  92 130 180 226 271 334 400
#     4  10  22  41  66  95 126 172 220 270 330 399
#     4  11  21  40  66  93 131 179 217 267 337 397
#     4  12  26  41  64  96 133 176 223 275 330 399
#     4   9  20  39  65  92 124 169 216 264 331 395
#
# _framework density 20.708044000000001
#
# number of rings (size 3 to 8) (size 9 to 14) (size 15 to 20)
#    0.000    1.429    1.429    3.000    6.000    1.714 
#    0.000    6.429    0.000    0.000    0.000    0.000 
#    0.000    0.000    0.000    0.000    0.000    0.000 
#
# Total GULP energy -78081.078270 kJ/mol
# GULP energy per Si atom -5577.219876 kJ/mol
# Density = 2.066091 g / cm^3
# Si number density = 20.708044 Si / 1000 Ang^3
#
#
#
# Elastic Constant Matrix: (Units=GPa)
#
#
# Indices 1 2 3 4 5 6 
#
# 1 51.8991 11.0518 10.5615 -4.7876 -10.5193 0.8222
# 2 11.0518 80.5260 41.9543 -3.2267 0.3728 -8.6100
# 3 10.5615 41.9543 107.5808 -16.6590 -11.0571 16.6965
# 4 -4.7876 -3.2267 -16.6590 42.5776 3.4145 2.9302
# 5 -10.5193 0.3728 -11.0571 3.4145 22.3856 0.9079
# 6 0.8222 -8.6100 16.6965 2.9302 0.9079 45.5929
#
#
#
# Elastic Compliance Matrix: (Units=1/GPa)
#
#
# Indices 1 2 3 4 5 6 
#
# 1 0.022248 -0.003701 0.000926 0.001842 0.010764 -0.001772
# 2 -0.003701 0.018235 -0.008877 -0.002485 -0.006335 0.007047
# 3 0.000926 -0.008877 0.015526 0.005428 0.007744 -0.007882
# 4 0.001842 -0.002485 0.005428 0.025931 -0.000199 -0.004153
# 5 0.010764 -0.006335 0.007744 -0.000199 0.053905 -0.005287
# 6 -0.001772 0.007047 -0.007882 -0.004153 -0.005287 0.026555
#
#
# Mechanical properties :
#
#
# Convention : Reuss Voigt Hill
#
# Bulk Modulus (GPa) = 30.57816 40.79346 35.68581
# Shear Modulus (GPa) = 25.43168 33.87377 29.65273
#
# Velocity S-wave (km/s) = 3.50824 4.04886 3.78821
# Velocity P-wave (km/s) = 5.58647 6.44979 6.03359
#
# Compressibility (1/GPa) = 0.03270308
#
# Stress axis : x y z
#
# Youngs Moduli (GPa) = 44.94844 54.84056 64.40804
#
# Poissons Ratio (x) = 0.20298 -0.05964
# Poissons Ratio (y) = 0.16637 0.57177
# Poissons Ratio (z) = -0.04162 0.48684
#
# Static dielectric constant tensor:
#      x y z
#    x 1.795720 -0.045100 -0.013270 
#    y -0.045100 1.801280 -0.014400 
#    z -0.013270 -0.014400 1.829730 
# 
# From -- ./inp_files/261127.got.cif
#   From: 2010.05.17/outbox.cif.g08.bks.cpg/sg2_131_cif.got.tgz:261127.got - 2010.06.03 11:33:40.
