data_PCOD9027659
_publ_section_title
;
Structure prediction by ZEFSAII (Michael W. Deem and Ramdas Pophale) SiO2 
 PCOD9027659
Probable space group: P -1
;
_chemical_formula_sum "Si O2"
_cell_formula_units_Z 14
_cell_length_a 14.855691
_cell_length_b 8.090804
_cell_length_c 9.110262
_cell_angle_alpha 134.620790
_cell_angle_beta 58.712063
_cell_angle_gamma 125.290529
_cell_volume 623.898399
_symmetry_space_group_name_H-M "P -1"
_symmetry_group_IT_number 2
_symmetry_cell_setting 'triclinic'
loop_
_space_group_symop_operation_xyz
x,y,z
-x,-y,-z
loop_
_atom_site_type_symbol
_atom_site_label
_atom_site_fract_x
_atom_site_fract_y
_atom_site_fract_z
Si Si1 0.182993 0.244710 0.154870
Si Si2 0.520017 0.718431 0.909647
Si Si3 0.405397 0.181439 0.783320
Si Si4 0.743290 0.188723 0.540011
Si Si5 0.688841 0.153246 0.906448
Si Si6 0.892619 0.283510 0.016909
Si Si7 0.958275 0.267516 0.280219
O O1 0.225684 0.523549 0.352352
O O2 0.074672 0.218227 0.127629
O O3 0.291512 0.219798 0.966455
O O4 0.128060 0.012225 0.165972
O O5 0.489000 0.433101 0.798210
O O6 0.631803 0.862903 0.815628
O O7 0.537623 0.860379 0.140694
O O8 0.413171 0.743801 0.935501
O O9 0.362219 0.972936 0.567492
O O10 0.729148 0.181467 0.722289
O O11 0.847599 0.098539 0.355848
O O12 0.784372 0.293757 0.028993
O O13 0.907506 0.314142 0.198472
O O14 0.000000 0.500000 0.000000
O O15 0.000000 0.500000 0.500000
#
# Coordination Sequence:
#
# PCOD9027659 Si02
#       7
#     2   2   2   2   2   2   2
#     4  11  22  43  68  95 136 173 224 269 329 401
#     4  10  23  43  71  97 135 181 221 272 336 385
#     4  11  22  44  72  96 126 185 227 266 329 395
#     4  11  23  41  69  98 133 174 228 272 325 402
#     4  11  23  43  64 103 140 168 220 280 331 392
#     4  12  24  41  70  95 136 177 212 277 343 382
#     4  10  22  41  68  99 126 176 226 263 326 405
#
# _framework density 22.439551000000002
#
# number of rings (size 3 to 8) (size 9 to 14) (size 15 to 20)
#    0.000    1.143    4.286    2.143    0.000    1.143 
#    0.000   12.143    0.000    0.000    0.000    0.000 
#    0.000    0.000    0.000    0.000    0.000    0.000 
#
# Total GULP energy -78066.091653 kJ/mol
# GULP energy per Si atom -5576.149404 kJ/mol
# Density = 2.238848 g / cm^3
# Si number density = 22.439551 Si / 1000 Ang^3
#
#
#
# Elastic Constant Matrix: (Units=GPa)
#
#
# Indices 1 2 3 4 5 6 
#
# 1 159.7653 33.8235 37.3259 4.1512 35.0846 25.4412
# 2 33.8235 152.8420 18.4466 -2.3778 5.6775 7.5983
# 3 37.3259 18.4466 52.8446 3.4741 5.8397 3.2953
# 4 4.1512 -2.3778 3.4741 30.6874 11.1445 6.5158
# 5 35.0846 5.6775 5.8397 11.1445 38.6306 1.5310
# 6 25.4412 7.5983 3.2953 6.5158 1.5310 35.9084
#
#
#
# Elastic Compliance Matrix: (Units=1/GPa)
#
#
# Indices 1 2 3 4 5 6 
#
# 1 0.011228 -0.000904 -0.006319 0.004389 -0.010076 -0.007551
# 2 -0.000904 0.007031 -0.001810 0.001144 -0.000234 -0.000879
# 3 -0.006319 -0.001810 0.023695 -0.003899 0.003420 0.003248
# 4 0.004389 0.001144 -0.003899 0.039899 -0.014694 -0.009607
# 5 -0.010076 -0.000234 0.003420 -0.014694 0.038481 0.007900
# 6 -0.007551 -0.000879 0.003248 -0.009607 0.007900 0.034493
#
#
# Mechanical properties :
#
#
# Convention : Reuss Voigt Hill
#
# Bulk Modulus (GPa) = 41.86452 60.51599 51.19025
# Shear Modulus (GPa) = 27.64609 39.43568 33.54089
#
# Velocity S-wave (km/s) = 3.51383 4.19671 3.87036
# Velocity P-wave (km/s) = 5.92956 7.10705 6.54484
#
# Compressibility (1/GPa) = 0.02388658
#
# Stress axis : x y z
#
# Youngs Moduli (GPa) = 89.06265 142.21846 42.20313
#
# Poissons Ratio (x) = 0.12858 0.26670
# Poissons Ratio (y) = 0.08052 0.07641
# Poissons Ratio (z) = 0.56282 0.25748
#
# Static dielectric constant tensor:
#      x y z
#    x 1.919460 0.000040 -0.062370 
#    y 0.000040 1.887380 0.005050 
#    z -0.062370 0.005050 1.885860 
# 
# From -- ./inp_files/296647.got.cif
#   From: 2010.05.17/outbox.cif.g08.bks.cpg/sg2_149_cif.got.tgz:296647.got - 2010.06.03 11:33:40.
