data_PCOD9027288
_publ_section_title
;
Structure prediction by ZEFSAII (Michael W. Deem and Ramdas Pophale) SiO2 
 PCOD9027288
Probable space group: P -1
;
_chemical_formula_sum "Si O2"
_cell_formula_units_Z 12
_cell_length_a 8.305410
_cell_length_b 19.016973
_cell_length_c 7.203266
_cell_angle_alpha 51.497459
_cell_angle_beta 36.140707
_cell_angle_gamma 44.850696
_cell_volume 469.787364
_symmetry_space_group_name_H-M "P -1"
_symmetry_group_IT_number 2
_symmetry_cell_setting 'triclinic'
loop_
_space_group_symop_operation_xyz
x,y,z
-x,-y,-z
loop_
_atom_site_type_symbol
_atom_site_label
_atom_site_fract_x
_atom_site_fract_y
_atom_site_fract_z
Si Si1 0.538907 0.995423 0.194171
Si Si2 0.388201 0.507453 0.301876
Si Si3 0.784600 0.130620 0.255779
Si Si4 0.574028 0.307080 0.896833
Si Si5 0.423048 0.812319 0.229746
Si Si6 0.061015 0.390240 0.957729
O O1 0.299431 0.960849 0.555560
O O2 0.871067 0.906120 0.068790
O O3 0.500000 0.000000 0.000000
O O4 0.531477 0.101853 0.065162
O O5 0.151186 0.462969 0.630088
O O6 0.500000 0.500000 0.000000
O O7 0.292518 0.620242 0.271532
O O8 0.701625 0.433493 0.237070
O O9 0.575744 0.233375 0.178329
O O10 0.752973 0.147915 0.479492
O O11 0.729429 0.235982 0.690787
O O12 0.238945 0.375960 0.010261
O O13 0.756018 0.721338 0.114713
#
# Coordination Sequence:
#
# PCOD9027288 Si02
#       6
#     2   2   2   2   2   2
#     4  10  22  41  67  94 133 174 216 269 325 382
#     4  12  24  44  69  96 130 175 215 269 329 389
#     4  11  23  43  65  97 132 173 219 265 327 390
#     4  10  25  44  68 101 130 176 217 273 324 393
#     4   9  22  43  65  97 130 174 214 272 322 379
#     4  10  25  43  65  95 136 163 221 269 323 386
#
# _framework density 25.543472999999999
#
# number of rings (size 3 to 8) (size 9 to 14) (size 15 to 20)
#    1.000    0.667    0.000    4.500    0.000   10.667 
#    0.000    0.000    0.000    0.000    0.000    0.000 
#    0.000    0.000    0.000    0.000    0.000    0.000 
#
# Total GULP energy -67173.809587 kJ/mol
# GULP energy per Si atom -5597.817466 kJ/mol
# Density = 2.548534 g / cm^3
# Si number density = 25.543473 Si / 1000 Ang^3
#
#
#
# Elastic Constant Matrix: (Units=GPa)
#
#
# Indices 1 2 3 4 5 6 
#
# 1 84.4737 26.6207 30.4333 -16.3683 21.1808 5.4810
# 2 26.6207 96.1578 22.2036 -23.2879 2.1148 23.1077
# 3 30.4333 22.2036 89.2336 -10.4914 4.1799 3.7198
# 4 -16.3683 -23.2879 -10.4914 43.9850 -12.7593 -2.2006
# 5 21.1808 2.1148 4.1799 -12.7593 30.5706 -5.5378
# 6 5.4810 23.1077 3.7198 -2.2006 -5.5378 46.3064
#
#
#
# Elastic Compliance Matrix: (Units=1/GPa)
#
#
# Indices 1 2 3 4 5 6 
#
# 1 0.017477 -0.003074 -0.004551 0.000416 -0.011374 -0.001510
# 2 -0.003074 0.014703 -0.001696 0.006822 0.003079 -0.006145
# 3 -0.004551 -0.001696 0.013197 0.001190 0.002077 0.000630
# 4 0.000416 0.006822 0.001190 0.030084 0.011498 -0.000744
# 5 -0.011374 0.003079 0.002077 0.011498 0.045923 0.005681
# 6 -0.001510 -0.006145 0.000630 -0.000744 0.005681 0.025434
#
#
# Mechanical properties :
#
#
# Convention : Reuss Voigt Hill
#
# Bulk Modulus (GPa) = 37.40424 47.59781 42.50102
# Shear Modulus (GPa) = 28.67449 36.87956 32.77702
#
# Velocity S-wave (km/s) = 3.35412 3.80385 3.58604
# Velocity P-wave (km/s) = 5.44751 6.16173 5.81559
#
# Compressibility (1/GPa) = 0.02673494
#
# Stress axis : x y z
#
# Youngs Moduli (GPa) = 57.21940 68.01197 75.77413
#
# Poissons Ratio (x) = 0.20906 0.34485
# Poissons Ratio (y) = 0.17588 0.12853
# Poissons Ratio (z) = 0.26041 0.11536
#
# Static dielectric constant tensor:
#      x y z
#    x 2.065390 0.019870 -0.000320 
#    y 0.019870 2.036740 -0.009380 
#    z -0.000320 -0.009380 1.966080 
# 
# From -- ./inp_files/222945.got.cif
#   From: 2010.05.17/outbox.cif.g08.bks.cpg/sg2_112_cif.got.tgz:222945.got - 2010.06.03 11:33:40.
