data_PCOD9027629
_publ_section_title
;
Structure prediction by ZEFSAII (Michael W. Deem and Ramdas Pophale) SiO2 
 PCOD9027629
Probable space group: P -1
;
_chemical_formula_sum "Si O2"
_cell_formula_units_Z 14
_cell_length_a 11.080525
_cell_length_b 15.008129
_cell_length_c 8.993491
_cell_angle_alpha 117.831261
_cell_angle_beta 70.837323
_cell_angle_gamma 54.268198
_cell_volume 587.379490
_symmetry_space_group_name_H-M "P -1"
_symmetry_group_IT_number 2
_symmetry_cell_setting 'triclinic'
loop_
_space_group_symop_operation_xyz
x,y,z
-x,-y,-z
loop_
_atom_site_type_symbol
_atom_site_label
_atom_site_fract_x
_atom_site_fract_y
_atom_site_fract_z
Si Si1 0.299651 0.490624 0.684403
Si Si2 0.095119 0.689310 0.610101
Si Si3 0.346976 0.948933 0.714654
Si Si4 0.801226 0.706875 0.143926
Si Si5 0.245565 0.375386 0.207781
Si Si6 0.095713 0.807917 0.158139
Si Si7 0.844863 0.997395 0.725630
O O1 0.489623 0.261916 0.452181
O O2 0.290996 0.537246 0.555282
O O3 0.333913 0.562679 0.833822
O O4 0.997826 0.661247 0.984583
O O5 0.164020 0.549611 0.364537
O O6 0.051161 0.819524 0.632280
O O7 0.802462 0.887978 0.966116
O O8 0.539286 0.891213 0.499992
O O9 0.126805 0.052482 0.773140
O O10 0.734388 0.692609 0.010757
O O11 0.000000 0.500000 0.000000
O O12 0.000000 0.500000 0.500000
O O13 0.542743 0.162852 0.995550
O O14 0.182468 0.863343 0.163354
O O15 0.963157 0.879753 0.427540
#
# Coordination Sequence:
#
# PCOD9027629 Si02
#       7
#     2   2   2   2   2   2   2
#     4  10  22  43  67  99 136 181 223 275 329 398
#     4  11  25  41  68 100 138 174 220 276 345 383
#     4  10  22  44  67  99 138 182 225 272 325 412
#     4  10  22  41  68  97 136 174 229 269 328 406
#     4  12  25  46  67 103 138 173 218 284 340 397
#     4  10  24  45  70  98 133 182 230 272 337 395
#     4  11  26  45  67 103 137 173 229 282 331 407
#
# _framework density 23.834676000000002
#
# number of rings (size 3 to 8) (size 9 to 14) (size 15 to 20)
#    0.000    1.429    2.857    0.857    6.000    7.429 
#    0.000    7.143    0.000    0.000    0.000    0.000 
#    0.000    0.000    0.000    0.000    0.000    0.000 
#
# Total GULP energy -78252.293070 kJ/mol
# GULP energy per Si atom -5589.449505 kJ/mol
# Density = 2.378043 g / cm^3
# Si number density = 23.834676 Si / 1000 Ang^3
#
#
#
# Elastic Constant Matrix: (Units=GPa)
#
#
# Indices 1 2 3 4 5 6 
#
# 1 61.4123 21.0393 24.9988 -2.5506 7.9088 -2.4103
# 2 21.0393 125.0699 42.0183 1.2863 -1.8289 5.8030
# 3 24.9988 42.0183 107.4729 0.3690 4.7767 -3.4087
# 4 -2.5506 1.2863 0.3690 36.4871 -0.2530 2.3499
# 5 7.9088 -1.8289 4.7767 -0.2530 49.4209 9.8570
# 6 -2.4103 5.8030 -3.4087 2.3499 9.8570 30.3655
#
#
#
# Elastic Compliance Matrix: (Units=1/GPa)
#
#
# Indices 1 2 3 4 5 6 
#
# 1 0.018982 -0.002261 -0.003308 0.001253 -0.003302 0.002542
# 2 -0.002261 0.009690 -0.003427 -0.000265 0.001634 -0.002926
# 3 -0.003308 -0.003427 0.011531 -0.000369 -0.001129 0.002082
# 4 0.001253 -0.000265 -0.000369 0.027650 0.000398 -0.002160
# 5 -0.003302 0.001634 -0.001129 0.000398 0.022540 -0.008049
# 6 0.002542 -0.002926 0.002082 -0.002160 -0.008049 0.036707
#
#
# Mechanical properties :
#
#
# Convention : Reuss Voigt Hill
#
# Bulk Modulus (GPa) = 45.02323 52.22976 48.62649
# Shear Modulus (GPa) = 32.78821 36.98129 34.88475
#
# Velocity S-wave (km/s) = 3.71300 3.94328 3.82987
# Velocity P-wave (km/s) = 6.10841 6.53403 6.32480
#
# Compressibility (1/GPa) = 0.02221076
#
# Stress axis : x y z
#
# Youngs Moduli (GPa) = 52.68240 103.20446 86.71928
#
# Poissons Ratio (x) = 0.23333 0.28689
# Poissons Ratio (y) = 0.11911 0.29718
# Poissons Ratio (z) = 0.17429 0.35367
#
# Static dielectric constant tensor:
#      x y z
#    x 1.982710 0.011050 0.018140 
#    y 0.011050 1.907570 0.034630 
#    z 0.018140 0.034630 1.977400 
# 
# From -- ./inp_files/270623.got.cif
#   From: 2010.05.17/outbox.cif.g08.bks.cpg/sg2_136_cif.got.tgz:270623.got - 2010.06.03 11:33:40.
