data_PCOD9027557
_publ_section_title
;
Structure prediction by ZEFSAII (Michael W. Deem and Ramdas Pophale) SiO2 
 PCOD9027557
Probable space group: P -1
;
_chemical_formula_sum "Si O2"
_cell_formula_units_Z 16
_cell_length_a 6.874217
_cell_length_b 17.725940
_cell_length_c 15.944821
_cell_angle_alpha 147.857206
_cell_angle_beta 63.118887
_cell_angle_gamma 133.043815
_cell_volume 714.821386
_symmetry_space_group_name_H-M "P -1"
_symmetry_group_IT_number 2
_symmetry_cell_setting 'triclinic'
loop_
_space_group_symop_operation_xyz
x,y,z
-x,-y,-z
loop_
_atom_site_type_symbol
_atom_site_label
_atom_site_fract_x
_atom_site_fract_y
_atom_site_fract_z
Si Si1 0.982770 0.995792 0.244202
Si Si2 0.163088 0.757892 0.010070
Si Si3 0.902291 0.607682 0.584477
Si Si4 0.503449 0.835880 0.324721
Si Si5 0.476325 0.551606 0.148027
Si Si6 0.222645 0.022625 0.916425
Si Si7 0.864926 0.508009 0.139133
Si Si8 0.302296 0.424895 0.589397
O O1 0.733790 0.905650 0.274826
O O2 0.842457 0.936464 0.123430
O O3 0.180686 0.214870 0.416042
O O4 0.150370 0.921962 0.164304
O O5 0.189528 0.683005 0.022507
O O6 0.843999 0.585828 0.884711
O O7 0.455195 0.832608 0.980042
O O8 0.639437 0.556541 0.642556
O O9 0.796694 0.548214 0.453599
O O10 0.000000 0.500000 0.500000
O O11 0.144486 0.824818 0.740255
O O12 0.567407 0.753214 0.311187
O O13 0.187888 0.662920 0.197592
O O14 0.500000 0.000000 0.500000
O O15 0.666302 0.526495 0.141764
O O16 0.500000 0.500000 0.000000
O O17 0.000000 0.000000 0.000000
O O18 0.819617 0.545718 0.278741
#
# Coordination Sequence:
#
# PCOD9027557 Si02
#       8
#     2   2   2   2   2   2   2   2
#     4  11  23  43  66 100 135 171 225 271 334 401
#     4  11  24  42  68  96 132 178 217 276 329 396
#     4  10  22  41  68  94 129 171 216 275 336 390
#     4  11  24  44  67  99 134 178 219 276 330 399
#     4  11  25  44  64 100 134 180 225 272 332 397
#     4  11  25  43  68  99 132 174 222 277 336 399
#     4  11  25  42  67  97 136 179 221 274 330 401
#     4  10  22  43  63  95 133 167 220 277 326 398
#
# _framework density 22.383215
#
# number of rings (size 3 to 8) (size 9 to 14) (size 15 to 20)
#    0.000    1.250    2.500    2.250    1.750    5.000 
#    2.250    0.000    0.000    0.000    0.000    0.000 
#    0.000    0.000    0.000    0.000    0.000    0.000 
#
# Total GULP energy -89457.611445 kJ/mol
# GULP energy per Si atom -5591.100715 kJ/mol
# Density = 2.233227 g / cm^3
# Si number density = 22.383215 Si / 1000 Ang^3
#
#
#
# Elastic Constant Matrix: (Units=GPa)
#
#
# Indices 1 2 3 4 5 6 
#
# 1 164.8652 63.7104 46.9341 17.6422 -48.0490 -0.6544
# 2 63.7104 133.1373 24.4258 3.6710 -11.3667 19.4616
# 3 46.9341 24.4258 67.3021 10.7909 -33.3284 -12.8717
# 4 17.6422 3.6710 10.7909 43.0296 -2.9638 -7.6361
# 5 -48.0490 -11.3667 -33.3284 -2.9638 37.1747 12.7445
# 6 -0.6544 19.4616 -12.8717 -7.6361 12.7445 43.3809
#
#
#
# Elastic Compliance Matrix: (Units=1/GPa)
#
#
# Indices 1 2 3 4 5 6 
#
# 1 0.012877 -0.004287 0.001178 -0.004628 0.017185 -0.003396
# 2 -0.004287 0.010580 -0.003920 0.000731 -0.004179 -0.004618
# 3 0.001178 -0.003920 0.029342 -0.005388 0.025501 0.002042
# 4 -0.004628 0.000731 -0.005388 0.026732 -0.010438 0.005776
# 5 0.017185 -0.004179 0.025501 -0.010438 0.074691 -0.014080
# 6 -0.003396 -0.004618 0.002042 0.005776 -0.014080 0.030831
#
#
# Mechanical properties :
#
#
# Convention : Reuss Voigt Hill
#
# Bulk Modulus (GPa) = 25.81206 70.60502 48.20854
# Shear Modulus (GPa) = 23.58233 40.06600 31.82417
#
# Velocity S-wave (km/s) = 3.24940 4.23543 3.77475
# Velocity P-wave (km/s) = 5.06311 7.45189 6.37047
#
# Compressibility (1/GPa) = 0.03874158
#
# Stress axis : x y z
#
# Youngs Moduli (GPa) = 77.65849 94.52044 34.08093
#
# Poissons Ratio (x) = 0.40521 -0.04016
# Poissons Ratio (y) = 0.33292 0.13360
# Poissons Ratio (z) = -0.09152 0.37052
#
# Static dielectric constant tensor:
#      x y z
#    x 1.811960 -0.006690 0.005430 
#    y -0.006690 1.823240 0.013770 
#    z 0.005430 0.013770 1.876240 
# 
# From -- ./inp_files/550568.got.cif
#   From: 2010.05.17/outbox.cif.g08.bks.cpg/sg2_276_cif.got.tgz:550568.got - 2010.06.03 11:33:40.
