data_PCOD9027644
_publ_section_title
;
Structure prediction by ZEFSAII (Michael W. Deem and Ramdas Pophale) SiO2 
 PCOD9027644
Probable space group: P -1
;
_chemical_formula_sum "Si O2"
_cell_formula_units_Z 16
_cell_length_a 14.129985
_cell_length_b 8.671614
_cell_length_c 14.115615
_cell_angle_alpha 33.457162
_cell_angle_beta 134.543925
_cell_angle_gamma 136.325281
_cell_volume 636.277728
_symmetry_space_group_name_H-M "P -1"
_symmetry_group_IT_number 2
_symmetry_cell_setting 'triclinic'
loop_
_space_group_symop_operation_xyz
x,y,z
-x,-y,-z
loop_
_atom_site_type_symbol
_atom_site_label
_atom_site_fract_x
_atom_site_fract_y
_atom_site_fract_z
Si Si1 0.412702 0.721860 0.814269
Si Si2 0.648898 0.144261 0.085507
Si Si3 0.286096 0.400082 0.240402
Si Si4 0.878576 0.298506 0.908270
Si Si5 0.163976 0.718952 0.510982
Si Si6 0.447219 0.636762 0.481480
Si Si7 0.844023 0.462676 0.605016
Si Si8 0.911829 0.030529 0.255393
O O1 0.265921 0.618817 0.703742
O O2 0.516634 0.013524 0.684796
O O3 0.500000 0.500000 0.000000
O O4 0.378261 0.836153 0.833089
O O5 0.733613 0.483496 0.935717
O O6 0.752869 0.981459 0.204089
O O7 0.500000 0.000000 0.000000
O O8 0.255950 0.637600 0.169491
O O9 0.445460 0.402889 0.345832
O O10 0.189762 0.065837 0.373089
O O11 0.881063 0.263750 0.814366
O O12 0.994131 0.631240 0.828108
O O13 0.906227 0.057013 0.121831
O O14 0.215559 0.718636 0.439281
O O15 0.000000 0.500000 0.500000
O O16 0.500000 0.500000 0.500000
O O17 0.283872 0.475826 0.464685
O O18 0.947942 0.782336 0.472148
#
# Coordination Sequence:
#
# PCOD9027644 Si02
#       8
#     2   2   2   2   2   2   2   2
#     4  11  28  45  70 105 148 184 238 310 364 430
#     4  11  24  42  72  99 136 182 230 299 373 420
#     4  10  22  43  65  97 137 176 232 294 349 430
#     4  10  22  41  68  98 135 176 242 302 355 420
#     4  11  28  48  68  99 145 195 244 282 358 449
#     4  11  22  42  70 103 134 180 242 297 357 434
#     4  12  24  39  73  96 136 190 236 290 366 427
#     4  10  23  40  66 102 132 175 244 303 351 429
#
# _framework density 25.146252
#
# number of rings (size 3 to 8) (size 9 to 14) (size 15 to 20)
#    0.000    1.250    1.250    3.375   10.500    1.000 
#    0.000    0.625    0.000    0.000    0.000    0.000 
#    0.000    0.000    0.000    0.000    0.000    0.000 
#
# Total GULP energy -89231.828142 kJ/mol
# GULP energy per Si atom -5576.989259 kJ/mol
# Density = 2.508902 g / cm^3
# Si number density = 25.146252 Si / 1000 Ang^3
#
#
#
# Elastic Constant Matrix: (Units=GPa)
#
#
# Indices 1 2 3 4 5 6 
#
# 1 59.2617 0.2118 24.3222 13.8237 -20.2090 1.7961
# 2 0.2118 67.9582 23.0882 10.4442 -5.5104 3.4606
# 3 24.3222 23.0882 159.6208 5.0574 -18.4357 -6.8645
# 4 13.8237 10.4442 5.0574 53.6919 -6.2466 -11.3831
# 5 -20.2090 -5.5104 -18.4357 -6.2466 45.4681 2.9758
# 6 1.7961 3.4606 -6.8645 -11.3831 2.9758 42.0136
#
#
#
# Elastic Compliance Matrix: (Units=1/GPa)
#
#
# Indices 1 2 3 4 5 6 
#
# 1 0.022422 0.002667 -0.002788 -0.005839 0.008607 -0.003825
# 2 0.002667 0.016525 -0.002596 -0.004116 0.001776 -0.003140
# 3 -0.002788 -0.002596 0.007270 0.001066 0.001429 0.001709
# 4 -0.005839 -0.004116 0.001066 0.022264 -0.000048 0.006798
# 5 0.008607 0.001776 0.001429 -0.000048 0.026750 -0.002188
# 6 -0.003825 -0.003140 0.001709 0.006798 -0.002188 0.026500
#
#
# Mechanical properties :
#
#
# Convention : Reuss Voigt Hill
#
# Bulk Modulus (GPa) = 24.51985 42.45390 33.48687
# Shear Modulus (GPa) = 35.52174 44.18262 39.85218
#
# Velocity S-wave (km/s) = 3.76254 4.19624 3.98529
# Velocity P-wave (km/s) = 5.35235 6.35589 5.87559
#
# Compressibility (1/GPa) = 0.04078329
#
# Stress axis : x y z
#
# Youngs Moduli (GPa) = 44.59931 60.51402 137.55427
#
# Poissons Ratio (x) = -0.16141 0.38347
# Poissons Ratio (y) = -0.11896 0.35712
# Poissons Ratio (z) = 0.12433 0.15711
#
# Static dielectric constant tensor:
#      x y z
#    x 2.185080 0.043510 0.058080 
#    y 0.043510 2.125450 0.073740 
#    z 0.058080 0.073740 2.137400 
# 
# From -- ./inp_files/446717.got.cif
#   From: 2010.05.17/outbox.cif.g08.bks.cpg/sg2_224_cif.got.tgz:446717.got - 2010.06.03 11:33:40.
