data_PCOD9027870
_publ_section_title
;
Structure prediction by ZEFSAII (Michael W. Deem and Ramdas Pophale) SiO2 
 PCOD9027870
Probable space group: P -1
;
_chemical_formula_sum "Si O2"
_cell_formula_units_Z 14
_cell_length_a 15.689558
_cell_length_b 7.007906
_cell_length_c 11.085619
_cell_angle_alpha 61.330288
_cell_angle_beta 48.778543
_cell_angle_gamma 97.165778
_cell_volume 598.558339
_symmetry_space_group_name_H-M "P -1"
_symmetry_group_IT_number 2
_symmetry_cell_setting 'triclinic'
loop_
_space_group_symop_operation_xyz
x,y,z
-x,-y,-z
loop_
_atom_site_type_symbol
_atom_site_label
_atom_site_fract_x
_atom_site_fract_y
_atom_site_fract_z
Si Si1 0.518472 0.235302 0.829210
Si Si2 0.917523 0.872870 0.844657
Si Si3 0.789963 0.617972 0.299255
Si Si4 0.267211 0.153861 0.421656
Si Si5 0.778855 0.953694 0.771289
Si Si6 0.992145 0.410413 0.734883
Si Si7 0.858011 0.205822 0.151118
O O1 0.616450 0.352155 0.579573
O O2 0.625113 0.526917 0.721997
O O3 0.350923 0.114211 0.001697
O O4 0.500000 0.000000 0.000000
O O5 0.087846 0.997068 0.635880
O O6 0.934183 0.149124 0.781022
O O7 0.831805 0.789840 0.823180
O O8 0.828296 0.663934 0.107319
O O9 0.885358 0.561764 0.303012
O O10 0.844705 0.929647 0.203269
O O11 0.302690 0.158638 0.249171
O O12 0.270033 0.961435 0.574886
O O13 0.921108 0.291889 0.506766
O O14 0.866874 0.328447 0.974365
O O15 0.000000 0.500000 0.000000
#
# Coordination Sequence:
#
# PCOD9027870 Si02
#       7
#     2   2   2   2   2   2   2
#     4  11  22  39  61  82 114 157 199 229 281 352
#     4  11  21  38  58  87 117 147 193 246 290 329
#     4  10  20  37  63  80 113 154 198 233 279 344
#     4  11  21  38  59  85 118 153 191 240 286 346
#     4  12  24  34  57  91 120 151 185 242 296 338
#     4  11  18  35  60  85 111 152 197 237 273 346
#     4  10  17  31  59  88 107 141 200 241 273 325
#
# _framework density 23.389534000000001
#
# number of rings (size 3 to 8) (size 9 to 14) (size 15 to 20)
#    0.000    1.143    7.143    2.143    0.000    0.571 
#    0.000    0.000    0.000    0.857    0.000    0.000 
#    0.000    0.000    0.000    0.000    0.000    0.000 
#
# Total GULP energy -78056.245332 kJ/mol
# GULP energy per Si atom -5575.446095 kJ/mol
# Density = 2.333630 g / cm^3
# Si number density = 23.389534 Si / 1000 Ang^3
#
#
#
# Elastic Constant Matrix: (Units=GPa)
#
#
# Indices 1 2 3 4 5 6 
#
# 1 86.5647 -4.6295 58.0075 9.5694 22.0239 -18.9718
# 2 -4.6295 48.5144 25.3438 1.2285 8.4456 -3.1547
# 3 58.0075 25.3438 186.3240 11.2774 27.8390 -13.0485
# 4 9.5694 1.2285 11.2774 46.5152 -5.6946 5.3012
# 5 22.0239 8.4456 27.8390 -5.6946 37.0727 3.6838
# 6 -18.9718 -3.1547 -13.0485 5.3012 3.6838 21.1013
#
#
#
# Elastic Compliance Matrix: (Units=1/GPa)
#
#
# Indices 1 2 3 4 5 6 
#
# 1 0.028345 0.010895 -0.004362 -0.011126 -0.020819 0.030845
# 2 0.010895 0.026863 -0.003923 -0.005138 -0.011902 0.014755
# 3 -0.004362 -0.003923 0.007827 -0.001360 -0.002715 0.001147
# 4 -0.011126 -0.005138 -0.001360 0.028575 0.015323 -0.021466
# 5 -0.020819 -0.011902 -0.002715 0.015323 0.049898 -0.034737
# 6 0.030845 0.014755 0.001147 -0.021466 -0.034737 0.089495
#
#
# Mechanical properties :
#
#
# Convention : Reuss Voigt Hill
#
# Bulk Modulus (GPa) = 14.65107 53.20519 33.92813
# Shear Modulus (GPa) = 20.11793 37.11659 28.61726
#
# Velocity S-wave (km/s) = 2.93597 3.98790 3.50166
# Velocity P-wave (km/s) = 4.21554 6.63335 5.55752
#
# Compressibility (1/GPa) = 0.06825442
#
# Stress axis : x y z
#
# Youngs Moduli (GPa) = 35.27974 37.22566 127.76223
#
# Poissons Ratio (x) = -0.40559 0.55734
# Poissons Ratio (y) = -0.38439 0.50127
# Poissons Ratio (z) = 0.15390 0.14605
#
# Static dielectric constant tensor:
#      x y z
#    x 1.934930 -0.027840 0.030670 
#    y -0.027840 2.048630 0.058970 
#    z 0.030670 0.058970 1.911170 
# 
# From -- ./inp_files/205509.got.cif
#   From: 2010.05.17/outbox.cif.g08.bks.cpg/sg2_103_cif.got.tgz:205509.got - 2010.06.03 11:33:40.
