data_PCOD9027414
_publ_section_title
;
Structure prediction by ZEFSAII (Michael W. Deem and Ramdas Pophale) SiO2 
 PCOD9027414
Probable space group: P -1
;
_chemical_formula_sum "Si O2"
_cell_formula_units_Z 10
_cell_length_a 15.201259
_cell_length_b 9.300079
_cell_length_c 9.187614
_cell_angle_alpha 73.566125
_cell_angle_beta 40.735569
_cell_angle_gamma 41.548372
_cell_volume 424.033692
_symmetry_space_group_name_H-M "P -1"
_symmetry_group_IT_number 2
_symmetry_cell_setting 'triclinic'
loop_
_space_group_symop_operation_xyz
x,y,z
-x,-y,-z
loop_
_atom_site_type_symbol
_atom_site_label
_atom_site_fract_x
_atom_site_fract_y
_atom_site_fract_z
Si Si1 0.770677 0.320770 0.753234
Si Si2 0.931878 0.501582 0.424889
Si Si3 0.568630 0.897047 0.274240
Si Si4 0.250448 0.810055 0.897480
Si Si5 0.753018 0.411790 0.287216
O O1 0.815899 0.445856 0.609395
O O2 0.500000 0.500000 0.000000
O O3 0.799729 0.275291 0.903905
O O4 0.000000 0.000000 0.500000
O O5 0.000000 0.500000 0.500000
O O6 0.700157 0.819678 0.553939
O O7 0.190193 0.254640 0.070193
O O8 0.667599 0.631544 0.234721
O O9 0.500000 0.000000 0.500000
O O10 0.533629 0.606206 0.627721
O O11 0.250497 0.738337 0.757715
O O12 0.037715 0.141647 0.073059
#
# Coordination Sequence:
#
# PCOD9027414 Si02
#       5
#     2   2   2   2   2
#     4  12  27  44  72 103 146 186 242 301 362 428
#     4  12  28  51  76 108 151 205 250 299 375 461
#     4  12  27  45  76 110 151 190 249 313 372 435
#     4  10  22  41  67  99 133 184 231 290 352 432
#     4  10  22  41  70  97 137 179 235 289 357 428
#
# _framework density 23.583030999999998
#
# number of rings (size 3 to 8) (size 9 to 14) (size 15 to 20)
#    0.000    0.800    0.000    6.000    8.400    4.800 
#    0.000    0.000    0.000    0.000    0.000    0.000 
#    0.000    0.000    0.000    0.000    0.000    0.000 
#
# Total GULP energy -55891.619330 kJ/mol
# GULP energy per Si atom -5589.161933 kJ/mol
# Density = 2.352935 g / cm^3
# Si number density = 23.583031 Si / 1000 Ang^3
#
#
#
# Elastic Constant Matrix: (Units=GPa)
#
#
# Indices 1 2 3 4 5 6 
#
# 1 115.6430 46.6258 60.4126 13.8903 -5.3146 -12.6668
# 2 46.6258 149.9289 69.3247 21.1696 -10.8398 -14.8958
# 3 60.4126 69.3247 209.3737 24.4036 -11.2468 -18.2427
# 4 13.8903 21.1696 24.4036 57.9004 -5.9048 -7.2773
# 5 -5.3146 -10.8398 -11.2468 -5.9048 22.0315 -8.3094
# 6 -12.6668 -14.8958 -18.2427 -7.2773 -8.3094 38.4064
#
#
#
# Elastic Compliance Matrix: (Units=1/GPa)
#
#
# Indices 1 2 3 4 5 6 
#
# 1 0.010943 -0.002039 -0.002189 -0.000610 0.001070 0.001895
# 2 -0.002039 0.008802 -0.001775 -0.001324 0.003483 0.002401
# 3 -0.002189 -0.001775 0.006411 -0.001048 0.002322 0.001939
# 4 -0.000610 -0.001324 -0.001048 0.019321 0.005193 0.003572
# 5 0.001070 0.003483 0.002322 0.005193 0.055932 0.015892
# 6 0.001895 0.002401 0.001939 0.003572 0.015892 0.032629
#
#
# Mechanical properties :
#
#
# Convention : Reuss Voigt Hill
#
# Bulk Modulus (GPa) = 70.67379 91.96353 81.31866
# Shear Modulus (GPa) = 33.16471 43.57316 38.36893
#
# Velocity S-wave (km/s) = 3.75413 4.30309 4.03795
# Velocity P-wave (km/s) = 6.98745 7.98556 7.50312
#
# Compressibility (1/GPa) = 0.01414952
#
# Stress axis : x y z
#
# Youngs Moduli (GPa) = 91.38411 113.60714 155.97650
#
# Poissons Ratio (x) = 0.23169 0.34136
# Poissons Ratio (y) = 0.18637 0.27693
# Poissons Ratio (z) = 0.20000 0.20170
#
# Static dielectric constant tensor:
#      x y z
#    x 1.916030 -0.036450 -0.019120 
#    y -0.036450 1.873020 0.015040 
#    z -0.019120 0.015040 1.986890 
# 
# From -- ./inp_files/40938.got.cif
#   From: 2010.05.17/outbox.cif.g08.bks.cpg/sg2_21_cif.got.tgz:40938.got - 2010.06.03 11:33:40.
