data_PCOD9027790
_publ_section_title
;
Structure prediction by ZEFSAII (Michael W. Deem and Ramdas Pophale) SiO2 
 PCOD9027790
Probable space group: P -1
;
_chemical_formula_sum "Si O2"
_cell_formula_units_Z 16
_cell_length_a 16.836663
_cell_length_b 6.283277
_cell_length_c 11.986019
_cell_angle_alpha 50.885693
_cell_angle_beta 130.393796
_cell_angle_gamma 117.662407
_cell_volume 745.983323
_symmetry_space_group_name_H-M "P -1"
_symmetry_group_IT_number 2
_symmetry_cell_setting 'triclinic'
loop_
_space_group_symop_operation_xyz
x,y,z
-x,-y,-z
loop_
_atom_site_type_symbol
_atom_site_label
_atom_site_fract_x
_atom_site_fract_y
_atom_site_fract_z
Si Si1 0.981109 0.646939 0.319399
Si Si2 0.375915 0.169350 0.225913
Si Si3 0.565388 0.787412 0.985287
Si Si4 0.369057 0.095259 0.761472
Si Si5 0.562406 0.420373 0.470132
Si Si6 0.228258 0.619690 0.900683
Si Si7 0.052657 0.713548 0.136565
Si Si8 0.890733 0.220412 0.063924
O O1 0.876169 0.497626 0.218480
O O2 0.000000 0.500000 0.500000
O O3 0.070080 0.640651 0.305862
O O4 0.956993 0.958512 0.217802
O O5 0.382675 0.141872 0.107994
O O6 0.475138 0.342824 0.319255
O O7 0.379925 0.858568 0.374726
O O8 0.282128 0.363599 0.087413
O O9 0.484652 0.010628 0.865689
O O10 0.500000 0.500000 0.000000
O O11 0.632074 0.763580 0.165057
O O12 0.356661 0.323069 0.580534
O O13 0.297799 0.809633 0.812980
O O14 0.500000 0.500000 0.500000
O O15 0.200742 0.801804 0.921639
O O16 0.965371 0.485190 0.084727
O O17 0.137261 0.745469 0.103437
O O18 0.000000 0.000000 0.000000
#
# Coordination Sequence:
#
# PCOD9027790 Si02
#       8
#     2   2   2   2   2   2   2   2
#     4  10  22  41  69  93 124 164 212 265 321 387
#     4  11  23  39  63  92 126 173 218 262 312 386
#     4  11  19  36  64  88 119 173 220 252 311 390
#     4  11  22  36  62  92 123 169 218 268 316 375
#     4  11  23  39  63  88 130 177 214 260 319 376
#     4  11  24  37  65  96 127 164 222 265 322 379
#     4   8  16  36  66  91 115 155 207 246 315 399
#     4   9  19  37  67  89 119 161 202 260 316 386
#
# _framework density 21.448201000000001
#
# number of rings (size 3 to 8) (size 9 to 14) (size 15 to 20)
#    0.000    1.750    3.750    0.750    1.750    2.000 
#    0.000    0.000   49.500    0.000    0.000    0.000 
#    0.000    0.000    0.000    0.000    0.000    0.000 
#
# Total GULP energy -89175.222472 kJ/mol
# GULP energy per Si atom -5573.451404 kJ/mol
# Density = 2.139938 g / cm^3
# Si number density = 21.448201 Si / 1000 Ang^3
#
#
#
# Elastic Constant Matrix: (Units=GPa)
#
#
# Indices 1 2 3 4 5 6 
#
# 1 90.3546 20.4475 36.3113 -6.2375 -26.0635 -25.1230
# 2 20.4475 102.9614 35.9127 -11.2400 -9.5118 -11.0686
# 3 36.3113 35.9127 107.0413 -9.2866 -24.2352 -6.2281
# 4 -6.2375 -11.2400 -9.2866 35.2877 4.2753 -8.3337
# 5 -26.0635 -9.5118 -24.2352 4.2753 30.4479 3.2129
# 6 -25.1230 -11.0686 -6.2281 -8.3337 3.2129 35.3927
#
#
#
# Elastic Compliance Matrix: (Units=1/GPa)
#
#
# Indices 1 2 3 4 5 6 
#
# 1 0.019937 0.000130 -0.002707 0.004506 0.012883 0.013608
# 2 0.000130 0.011730 -0.003387 0.003811 0.000117 0.004051
# 3 -0.002707 -0.003387 0.012971 0.000739 0.006967 -0.001157
# 4 0.004506 0.003811 0.000739 0.033530 -0.000386 0.012450
# 5 0.012883 0.000117 0.006967 -0.000386 0.048887 0.005879
# 6 0.013608 0.004051 -0.001157 0.012450 0.005879 0.041375
#
#
# Mechanical properties :
#
#
# Convention : Reuss Voigt Hill
#
# Bulk Modulus (GPa) = 30.57148 53.96670 42.26909
# Shear Modulus (GPa) = 26.14208 34.07137 30.10673
#
# Velocity S-wave (km/s) = 3.49499 3.98998 3.75066
# Velocity P-wave (km/s) = 5.52912 6.81488 6.20539
#
# Compressibility (1/GPa) = 0.03271022
#
# Stress axis : x y z
#
# Youngs Moduli (GPa) = 50.15800 85.24990 77.09468
#
# Poissons Ratio (x) = -0.01107 0.20871
# Poissons Ratio (y) = -0.00651 0.26109
# Poissons Ratio (z) = 0.13579 0.28871
#
# Static dielectric constant tensor:
#      x y z
#    x 1.879550 0.016690 -0.029840 
#    y 0.016690 1.801720 -0.022490 
#    z -0.029840 -0.022490 1.816760 
# 
# From -- ./inp_files/282191.got.cif
#   From: 2010.05.17/outbox.cif.g08.bks.cpg/sg2_142_cif.got.tgz:282191.got - 2010.06.03 11:33:40.
