data_PCOD9027903
_publ_section_title
;
Structure prediction by ZEFSAII (Michael W. Deem and Ramdas Pophale) SiO2 
 PCOD9027903
Probable space group: P -1
;
_chemical_formula_sum "Si O2"
_cell_formula_units_Z 16
_cell_length_a 9.844372
_cell_length_b 8.613758
_cell_length_c 11.467006
_cell_angle_alpha 105.652322
_cell_angle_beta 103.984011
_cell_angle_gamma 44.164869
_cell_volume 650.670778
_symmetry_space_group_name_H-M "P -1"
_symmetry_group_IT_number 2
_symmetry_cell_setting 'triclinic'
loop_
_space_group_symop_operation_xyz
x,y,z
-x,-y,-z
loop_
_atom_site_type_symbol
_atom_site_label
_atom_site_fract_x
_atom_site_fract_y
_atom_site_fract_z
Si Si1 0.751008 0.789096 0.324734
Si Si2 0.993326 0.596811 0.893587
Si Si3 0.343532 0.464496 0.638289
Si Si4 0.467034 0.695994 0.974546
Si Si5 0.455684 0.024467 0.135315
Si Si6 0.084010 0.853819 0.854117
Si Si7 0.729656 0.335298 0.777655
Si Si8 0.925301 0.238513 0.561721
O O1 0.659328 0.722542 0.370931
O O2 0.588141 0.005837 0.253670
O O3 0.883861 0.598827 0.214921
O O4 0.891076 0.791961 0.426859
O O5 0.062477 0.728529 0.920939
O O6 0.768840 0.774863 0.846665
O O7 0.000000 0.500000 0.000000
O O8 0.181008 0.683465 0.730509
O O9 0.551212 0.376945 0.693636
O O10 0.261958 0.562825 0.512913
O O11 0.244427 0.864266 0.917546
O O12 0.624034 0.563214 0.875561
O O13 0.500000 0.500000 0.000000
O O14 0.499632 0.797765 0.103251
O O15 0.500000 0.000000 0.000000
O O16 0.875391 0.100370 0.831727
O O17 0.863687 0.295456 0.695035
O O18 0.000000 0.000000 0.500000
#
# Coordination Sequence:
#
# PCOD9027903 Si02
#       8
#     2   2   2   2   2   2   2   2
#     4  11  26  46  70  99 141 184 229 284 350 415
#     4  11  23  43  67 100 140 189 226 274 343 413
#     4  10  22  48  70  99 137 181 231 288 350 409
#     4  11  25  42  69 103 142 186 226 276 345 415
#     4  12  26  42  65 102 146 178 228 280 335 417
#     4  10  22  41  70 100 140 179 233 282 337 415
#     4  11  24  44  76 103 138 181 233 288 352 407
#     4  12  26  47  74 102 134 178 237 300 346 404
#
# _framework density 24.590009999999999
#
# number of rings (size 3 to 8) (size 9 to 14) (size 15 to 20)
#    0.000    1.000    2.500    4.500    3.500    3.000 
#    2.250    0.625    0.000    0.000    0.000    0.000 
#    0.000    0.000    0.000    0.000    0.000    0.000 
#
# Total GULP energy -89586.759603 kJ/mol
# GULP energy per Si atom -5599.172475 kJ/mol
# Density = 2.453404 g / cm^3
# Si number density = 24.590010 Si / 1000 Ang^3
#
#
#
# Elastic Constant Matrix: (Units=GPa)
#
#
# Indices 1 2 3 4 5 6 
#
# 1 110.1975 26.9842 8.4174 -13.8280 21.9596 -10.3082
# 2 26.9842 102.6313 17.1426 -24.6365 11.8076 -28.5319
# 3 8.4174 17.1426 43.5166 -17.9494 6.2570 4.9056
# 4 -13.8280 -24.6365 -17.9494 38.2282 -8.1530 -0.7024
# 5 21.9596 11.8076 6.2570 -8.1530 50.2883 -11.5689
# 6 -10.3082 -28.5319 4.9056 -0.7024 -11.5689 41.5294
#
#
#
# Elastic Compliance Matrix: (Units=1/GPa)
#
#
# Indices 1 2 3 4 5 6 
#
# 1 0.010536 -0.001776 -0.000083 0.001826 -0.003790 0.000380
# 2 -0.001776 0.015889 -0.004035 0.008241 0.001533 0.011518
# 3 -0.000083 -0.004035 0.030225 0.010880 -0.002601 -0.006904
# 4 0.001826 0.008241 0.010880 0.038122 0.003584 0.006473
# 5 -0.003790 0.001533 -0.002601 0.003584 0.023715 0.007087
# 6 0.000380 0.011518 -0.006904 0.006473 0.007087 0.034986
#
#
# Mechanical properties :
#
#
# Convention : Reuss Voigt Hill
#
# Bulk Modulus (GPa) = 22.29108 40.15930 31.22519
# Shear Modulus (GPa) = 27.74465 39.59592 33.67029
#
# Velocity S-wave (km/s) = 3.36265 4.01714 3.70437
# Velocity P-wave (km/s) = 4.91541 6.15496 5.56978
#
# Compressibility (1/GPa) = 0.04486099
#
# Stress axis : x y z
#
# Youngs Moduli (GPa) = 94.91436 62.93832 33.08498
#
# Poissons Ratio (x) = 0.11180 0.00274
# Poissons Ratio (y) = 0.16860 0.13350
# Poissons Ratio (z) = 0.00786 0.25396
#
# Static dielectric constant tensor:
#      x y z
#    x 32.817640 5.177690 18.172230 
#    y 5.177690 2.864770 2.968060 
#    z 18.172230 2.968060 12.717490 
# 
# From -- ./inp_files/382672.got.cif
#   From: 2010.05.17/outbox.cif.g08.bks.cpg/sg2_192_cif.got.tgz:382672.got - 2010.06.03 11:33:40.
