data_PCOD9027060
_publ_section_title
;
Structure prediction by ZEFSAII (Michael W. Deem and Ramdas Pophale) SiO2 
 PCOD9027060
Probable space group: P -1
;
_chemical_formula_sum "Si O2"
_cell_formula_units_Z 12
_cell_length_a 17.599038
_cell_length_b 8.397292
_cell_length_c 11.782986
_cell_angle_alpha 145.989454
_cell_angle_beta 35.639700
_cell_angle_gamma 143.470309
_cell_volume 520.535572
_symmetry_space_group_name_H-M "P -1"
_symmetry_group_IT_number 2
_symmetry_cell_setting 'triclinic'
loop_
_space_group_symop_operation_xyz
x,y,z
-x,-y,-z
loop_
_atom_site_type_symbol
_atom_site_label
_atom_site_fract_x
_atom_site_fract_y
_atom_site_fract_z
Si Si1 0.165296 0.719977 0.434172
Si Si2 0.282554 0.290936 0.168507
Si Si3 0.166242 0.383424 0.834581
Si Si4 0.357738 0.699277 0.979315
Si Si5 0.000995 0.754073 0.261752
Si Si6 0.483126 0.312165 0.733083
O O1 0.239675 0.567946 0.340931
O O2 0.240971 0.725319 0.223866
O O3 0.000000 0.500000 0.500000
O O4 0.172377 0.055076 0.658904
O O5 0.366340 0.406395 0.252812
O O6 0.142397 0.976730 0.153996
O O7 0.390390 0.255123 0.925940
O O8 0.133046 0.363715 0.728795
O O9 0.301507 0.638641 0.883165
O O10 0.036674 0.466329 0.089697
O O11 0.399207 0.418918 0.804304
O O12 0.500000 0.000000 0.000000
O O13 0.000000 0.000000 0.500000
O O14 0.500000 0.000000 0.500000
#
# Coordination Sequence:
#
# PCOD9027060 Si02
#       6
#     2   2   2   2   2   2
#     4  11  23  44  66 101 140 172 223 287 332 404
#     4  10  22  42  64  93 135 169 223 279 327 393
#     4  11  24  41  67  99 130 183 223 272 347 399
#     4  11  25  44  68 100 138 178 227 280 332 406
#     4  11  24  43  63  98 136 174 222 282 333 405
#     4  10  22  41  66  96 127 177 220 272 332 398
#
# _framework density 23.053180000000001
#
# number of rings (size 3 to 8) (size 9 to 14) (size 15 to 20)
#    0.000    1.333    1.667    3.000    0.000    5.333 
#    0.000    0.000    0.000    0.000    0.000    0.000 
#    0.000    0.000    0.000    0.000    0.000    0.000 
#
# Total GULP energy -67068.718528 kJ/mol
# GULP energy per Si atom -5589.059877 kJ/mol
# Density = 2.300071 g / cm^3
# Si number density = 23.053180 Si / 1000 Ang^3
#
#
#
# Elastic Constant Matrix: (Units=GPa)
#
#
# Indices 1 2 3 4 5 6 
#
# 1 150.5931 26.6351 71.6764 11.8738 16.5341 29.6739
# 2 26.6351 89.8178 43.2619 3.1603 5.1582 23.6108
# 3 71.6764 43.2619 179.9126 32.8243 -24.1486 4.2213
# 4 11.8738 3.1603 32.8243 38.6947 0.8550 -0.4923
# 5 16.5341 5.1582 -24.1486 0.8550 33.9912 17.2169
# 6 29.6739 23.6108 4.2213 -0.4923 17.2169 32.0066
#
#
#
# Elastic Compliance Matrix: (Units=1/GPa)
#
#
# Indices 1 2 3 4 5 6 
#
# 1 0.011080 0.001750 -0.005679 0.001306 -0.005849 -0.007648
# 2 0.001750 0.016170 -0.004662 0.001938 -0.000177 -0.012811
# 3 -0.005679 -0.004662 0.012063 -0.008367 0.011975 0.000543
# 4 0.001306 0.001938 -0.008367 0.032654 -0.009857 0.004267
# 5 -0.005849 -0.000177 0.011975 -0.009857 0.053758 -0.025095
# 6 -0.007648 -0.012811 0.000543 0.004267 -0.025095 0.061278
#
#
# Mechanical properties :
#
#
# Convention : Reuss Voigt Hill
#
# Bulk Modulus (GPa) = 45.18622 78.16337 61.67479
# Shear Modulus (GPa) = 23.63368 39.52184 31.57776
#
# Velocity S-wave (km/s) = 3.20532 4.14500 3.70507
# Velocity P-wave (km/s) = 5.77427 7.54236 6.71675
#
# Compressibility (1/GPa) = 0.02213064
#
# Stress axis : x y z
#
# Youngs Moduli (GPa) = 90.25210 61.84312 82.89775
#
# Poissons Ratio (x) = -0.10823 0.47078
# Poissons Ratio (y) = -0.15795 0.38649
# Poissons Ratio (z) = 0.51254 0.28833
#
# Static dielectric constant tensor:
#      x y z
#    x 1.929490 -0.009850 -0.012470 
#    y -0.009850 1.864150 -0.010200 
#    z -0.012470 -0.010200 1.867320 
# 
# From -- ./inp_files/28913.got.cif
#   From: 2010.05.17/outbox.cif.g08.bks.cpg/sg2_15_cif.got.tgz:28913.got - 2010.06.03 11:33:40.
