data_PCOD9027170
_publ_section_title
;
Structure prediction by ZEFSAII (Michael W. Deem and Ramdas Pophale) SiO2 
 PCOD9027170
Probable space group: P -1
;
_chemical_formula_sum "Si O2"
_cell_formula_units_Z 13
_cell_length_a 8.140680
_cell_length_b 9.273050
_cell_length_c 12.459444
_cell_angle_alpha 138.336090
_cell_angle_beta 79.770639
_cell_angle_gamma 119.815961
_cell_volume 510.914264
_symmetry_space_group_name_H-M "P -1"
_symmetry_group_IT_number 2
_symmetry_cell_setting 'triclinic'
loop_
_space_group_symop_operation_xyz
x,y,z
-x,-y,-z
loop_
_atom_site_type_symbol
_atom_site_label
_atom_site_fract_x
_atom_site_fract_y
_atom_site_fract_z
Si Si1 0.308599 0.342137 0.010584
Si Si2 0.006133 0.849602 0.641256
Si Si3 0.000000 0.000000 0.500000
Si Si4 0.657231 0.960765 0.524166
Si Si5 0.300489 0.916989 0.916602
Si Si6 0.299036 0.683815 0.558662
Si Si7 0.041888 0.517803 0.133167
O O1 0.314137 0.174208 0.013510
O O2 0.118976 0.121028 0.840289
O O3 0.500000 0.500000 0.000000
O O4 0.247539 0.542994 0.153508
O O5 0.168145 0.773310 0.563648
O O6 0.828659 0.625780 0.611081
O O7 0.913750 0.840732 0.535157
O O8 0.748685 0.820578 0.375100
O O9 0.894004 0.201464 0.667647
O O10 0.500000 0.000000 0.500000
O O11 0.523745 0.825808 0.569907
O O12 0.288104 0.762939 0.725065
O O13 0.124680 0.721967 0.910421
O O14 0.500000 0.000000 0.000000
O O15 0.000000 0.500000 0.000000
#
# Coordination Sequence:
#
# PCOD9027170 Si02
#       7
#     2   2   1   2   2   2   2
#     4  11  24  42  67 100 142 189 235 291 357 421
#     4  10  22  41  67 100 140 182 238 287 350 431
#     4  12  24  42  70 108 136 184 242 286 360 432
#     4  12  26  45  74 107 143 187 237 302 363 422
#     4  11  24  44  72 103 142 190 239 296 356 430
#     4  10  22  45  69  98 144 186 228 300 358 416
#     4  12  25  47  72 104 144 188 242 299 363 438
#
# _framework density 25.444582
#
# number of rings (size 3 to 8) (size 9 to 14) (size 15 to 20)
#    0.000    0.923    1.538    6.000    4.308    1.846 
#    0.000    0.000    0.000    0.000    0.000    0.000 
#    0.000    0.000    0.000    0.000    0.000    0.000 
#
# Total GULP energy -72530.301467 kJ/mol
# GULP energy per Si atom -5579.253959 kJ/mol
# Density = 2.538667 g / cm^3
# Si number density = 25.444582 Si / 1000 Ang^3
#
#
#
# Elastic Constant Matrix: (Units=GPa)
#
#
# Indices 1 2 3 4 5 6 
#
# 1 184.2895 92.4701 28.0181 -5.6520 20.2770 7.2239
# 2 92.4701 185.9710 38.8176 -3.6059 14.5276 4.7448
# 3 28.0181 38.8176 101.2401 -2.6542 17.6230 -19.5358
# 4 -5.6520 -3.6059 -2.6542 35.6172 -3.3695 5.7479
# 5 20.2770 14.5276 17.6230 -3.3695 35.4993 -1.8984
# 6 7.2239 4.7448 -19.5358 5.7479 -1.8984 61.7470
#
#
#
# Elastic Compliance Matrix: (Units=1/GPa)
#
#
# Indices 1 2 3 4 5 6 
#
# 1 0.007564 -0.003416 -0.000479 0.000716 -0.002667 -0.000923
# 2 -0.003416 0.007547 -0.002087 0.000194 -0.000129 -0.000863
# 3 -0.000479 -0.002087 0.012426 -0.000474 -0.004870 0.004042
# 4 0.000716 0.000194 -0.000474 0.028857 0.002333 -0.002863
# 5 -0.002667 -0.000129 -0.004870 0.002333 0.032361 -0.000441
# 6 -0.000923 -0.000863 0.004042 -0.002863 -0.000441 0.017901
#
#
# Mechanical properties :
#
#
# Convention : Reuss Voigt Hill
#
# Bulk Modulus (GPa) = 64.21243 87.79023 76.00133
# Shear Modulus (GPa) = 40.38420 47.38567 43.88494
#
# Velocity S-wave (km/s) = 3.98822 4.32013 4.15749
# Velocity P-wave (km/s) = 6.81900 7.71117 7.27877
#
# Compressibility (1/GPa) = 0.01557331
#
# Stress axis : x y z
#
# Youngs Moduli (GPa) = 132.19876 132.50248 80.47897
#
# Poissons Ratio (x) = 0.45257 0.03854
# Poissons Ratio (y) = 0.45153 0.16799
# Poissons Ratio (z) = 0.06332 0.27658
#
# Static dielectric constant tensor:
#      x y z
#    x 2.598210 0.045280 -0.758670 
#    y 0.045280 2.220640 -0.204490 
#    z -0.758670 -0.204490 3.650750 
# 
# From -- ./inp_files/221171.got.cif
#   From: 2010.05.17/outbox.cif.g08.bks.cpg/sg2_111_cif.got.tgz:221171.got - 2010.06.03 11:33:40.
