data_PCOD9027076
_publ_section_title
;
Structure prediction by ZEFSAII (Michael W. Deem and Ramdas Pophale) SiO2 
 PCOD9027076
Probable space group: P -1
;
_chemical_formula_sum "Si O2"
_cell_formula_units_Z 14
_cell_length_a 9.765399
_cell_length_b 15.270399
_cell_length_c 7.337564
_cell_angle_alpha 93.362990
_cell_angle_beta 70.440502
_cell_angle_gamma 40.105008
_cell_volume 567.942409
_symmetry_space_group_name_H-M "P -1"
_symmetry_group_IT_number 2
_symmetry_cell_setting 'triclinic'
loop_
_space_group_symop_operation_xyz
x,y,z
-x,-y,-z
loop_
_atom_site_type_symbol
_atom_site_label
_atom_site_fract_x
_atom_site_fract_y
_atom_site_fract_z
Si Si1 0.336142 0.899809 0.372501
Si Si2 0.793946 0.314458 0.867284
Si Si3 0.805932 0.192438 0.408398
Si Si4 0.623752 0.810435 0.895463
Si Si5 0.154425 0.630430 0.516548
Si Si6 0.581433 0.272444 0.155633
Si Si7 0.686717 0.958412 0.272343
O O1 0.392072 0.770426 0.384944
O O2 0.288470 0.968176 0.598349
O O3 0.553119 0.838229 0.143673
O O4 0.082610 0.037873 0.369102
O O5 0.939072 0.282649 0.625227
O O6 0.012467 0.226242 0.910434
O O7 0.500000 0.500000 0.000000
O O8 0.723677 0.248239 0.920577
O O9 0.748522 0.325267 0.440607
O O10 0.796344 0.160295 0.205622
O O11 0.568148 0.740042 0.835331
O O12 0.913131 0.703364 0.727206
O O13 0.438866 0.960093 0.858967
O O14 0.371033 0.447978 0.353178
O O15 0.500000 0.000000 0.500000
#
# Coordination Sequence:
#
# PCOD9027076 Si02
#       7
#     2   2   2   2   2   2   2
#     4  11  25  41  71  99 137 172 231 292 340 403
#     4  10  22  41  66  96 133 181 226 274 339 407
#     4  11  22  43  65  96 136 172 233 286 334 409
#     4  12  25  43  70 102 137 181 228 284 352 403
#     4  11  23  44  64  97 143 180 228 288 341 412
#     4  11  24  41  70  98 134 188 232 278 347 409
#     4  12  23  44  72 103 141 177 231 288 343 411
#
# _framework density 24.650386000000001
#
# number of rings (size 3 to 8) (size 9 to 14) (size 15 to 20)
#    0.000    0.857    4.286    2.571    2.000    4.571 
#    0.000    0.714    0.000    0.000    0.000    0.000 
#    0.000    0.000    0.000    0.000    0.000    0.000 
#
# Total GULP energy -78106.211929 kJ/mol
# GULP energy per Si atom -5579.015138 kJ/mol
# Density = 2.459428 g / cm^3
# Si number density = 24.650386 Si / 1000 Ang^3
#
#
#
# Elastic Constant Matrix: (Units=GPa)
#
#
# Indices 1 2 3 4 5 6 
#
# 1 100.5386 27.6080 19.9802 3.0011 -4.5440 23.3085
# 2 27.6080 41.5260 8.2018 8.6665 -10.7233 16.4653
# 3 19.9802 8.2018 112.1522 -8.9958 -28.0643 14.1170
# 4 3.0011 8.6665 -8.9958 41.0122 1.3685 -6.7319
# 5 -4.5440 -10.7233 -28.0643 1.3685 56.5746 -17.3752
# 6 23.3085 16.4653 14.1170 -6.7319 -17.3752 40.9600
#
#
#
# Elastic Compliance Matrix: (Units=1/GPa)
#
#
# Indices 1 2 3 4 5 6 
#
# 1 0.013412 -0.006927 -0.001972 -0.000760 -0.002891 -0.005519
# 2 -0.006927 0.035472 0.000048 -0.008796 0.003203 -0.010421
# 3 -0.001972 0.000048 0.010733 0.002310 0.005103 -0.000052
# 4 -0.000760 -0.008796 0.002310 0.028131 0.001301 0.008347
# 5 -0.002891 0.003203 0.005103 0.001301 0.023210 0.008658
# 6 -0.005519 -0.010421 -0.000052 0.008347 0.008658 0.036806
#
#
# Mechanical properties :
#
#
# Convention : Reuss Voigt Hill
#
# Bulk Modulus (GPa) = 23.85858 40.64408 32.25133
# Shear Modulus (GPa) = 27.86481 40.93782 34.40132
#
# Velocity S-wave (km/s) = 3.36579 4.07964 3.73978
# Velocity P-wave (km/s) = 4.98041 6.22216 5.63559
#
# Compressibility (1/GPa) = 0.04191365
#
# Stress axis : x y z
#
# Youngs Moduli (GPa) = 74.55975 28.19143 93.16974
#
# Poissons Ratio (x) = 0.19528 0.18377
# Poissons Ratio (y) = 0.51646 -0.00444
# Poissons Ratio (z) = 0.14706 -0.00134
#
# Static dielectric constant tensor:
#      x y z
#    x 2.031230 0.045160 0.045080 
#    y 0.045160 2.002530 0.023960 
#    z 0.045080 0.023960 1.998640 
# 
# From -- ./inp_files/201867.got.cif
#   From: 2010.05.17/outbox.cif.g08.bks.cpg/sg2_101_cif.got.tgz:201867.got - 2010.06.03 11:33:40.
