data_PCOD9027834
_publ_section_title
;
Structure prediction by ZEFSAII (Michael W. Deem and Ramdas Pophale) SiO2 
 PCOD9027834
Probable space group: P -1
;
_chemical_formula_sum "Si O2"
_cell_formula_units_Z 12
_cell_length_a 5.061639
_cell_length_b 14.110373
_cell_length_c 10.715451
_cell_angle_alpha 138.360128
_cell_angle_beta 68.783313
_cell_angle_gamma 96.173384
_cell_volume 457.351471
_symmetry_space_group_name_H-M "P -1"
_symmetry_group_IT_number 2
_symmetry_cell_setting 'triclinic'
loop_
_space_group_symop_operation_xyz
x,y,z
-x,-y,-z
loop_
_atom_site_type_symbol
_atom_site_label
_atom_site_fract_x
_atom_site_fract_y
_atom_site_fract_z
Si Si1 0.609544 0.824084 0.826382
Si Si2 0.863777 0.361286 0.901493
Si Si3 0.160820 0.055745 0.641809
Si Si4 0.134128 0.788052 0.514946
Si Si5 0.519240 0.532852 0.321270
Si Si6 0.113043 0.646170 0.718200
O O1 0.339444 0.750761 0.793159
O O2 0.856155 0.774272 0.627842
O O3 0.798738 0.757558 0.852108
O O4 0.500000 0.000000 0.000000
O O5 0.849474 0.287877 0.697801
O O6 0.051643 0.230856 0.828949
O O7 0.557085 0.427012 0.090565
O O8 0.000000 0.500000 0.000000
O O9 0.500000 0.000000 0.500000
O O10 0.107469 0.961573 0.676060
O O11 0.000000 0.000000 0.500000
O O12 0.431899 0.698403 0.444147
O O13 0.254482 0.542512 0.473018
O O14 0.810227 0.463227 0.284177
#
# Coordination Sequence:
#
# PCOD9027834 Si02
#       6
#     2   2   2   2   2   2
#     4  11  24  44  71  97 139 178 232 277 341 404
#     4  11  22  39  68 103 136 181 228 284 346 409
#     4  10  23  43  63  96 138 177 221 275 340 404
#     4  10  23  43  70 101 141 181 229 287 344 409
#     4  10  22  41  69  96 138 175 230 279 343 405
#     4  10  24  44  66 102 131 182 226 285 332 405
#
# _framework density 26.238029000000001
#
# number of rings (size 3 to 8) (size 9 to 14) (size 15 to 20)
#    0.000    1.667    0.000    3.000    2.333   12.667 
#    6.000    0.000    0.000    0.000    0.000    0.000 
#    0.000    0.000    0.000    0.000    0.000    0.000 
#
# Total GULP energy -67166.853063 kJ/mol
# GULP energy per Si atom -5597.237755 kJ/mol
# Density = 2.617831 g / cm^3
# Si number density = 26.238029 Si / 1000 Ang^3
#
#
#
# Elastic Constant Matrix: (Units=GPa)
#
#
# Indices 1 2 3 4 5 6 
#
# 1 135.4063 49.4624 38.4103 23.9586 -16.9054 -9.2996
# 2 49.4624 186.6787 63.6090 56.5677 -1.0221 -20.6139
# 3 38.4103 63.6090 148.1640 29.7300 -12.0570 -16.8493
# 4 23.9586 56.5677 29.7300 72.4143 -7.4420 -7.5204
# 5 -16.9054 -1.0221 -12.0570 -7.4420 27.9006 12.4278
# 6 -9.2996 -20.6139 -16.8493 -7.5204 12.4278 49.8103
#
#
#
# Elastic Compliance Matrix: (Units=1/GPa)
#
#
# Indices 1 2 3 4 5 6 
#
# 1 0.009091 -0.001917 -0.001084 -0.000621 0.005183 -0.000849
# 2 -0.001917 0.008464 -0.002126 -0.005273 -0.004390 0.002725
# 3 -0.001084 -0.002126 0.008466 -0.001124 0.002144 0.001077
# 4 -0.000621 -0.005273 -0.001124 0.018953 0.004409 -0.000917
# 5 0.005183 -0.004390 0.002144 0.004409 0.045769 -0.010878
# 6 -0.000849 0.002725 0.001077 -0.000917 -0.010878 0.023985
#
#
# Mechanical properties :
#
#
# Convention : Reuss Voigt Hill
#
# Bulk Modulus (GPa) = 63.42446 85.91252 74.66849
# Shear Modulus (GPa) = 38.39151 51.27618 44.83384
#
# Velocity S-wave (km/s) = 3.82933 4.42551 4.13817
# Velocity P-wave (km/s) = 6.61641 7.67646 7.16607
#
# Compressibility (1/GPa) = 0.01576679
#
# Stress axis : x y z
#
# Youngs Moduli (GPa) = 109.99301 118.15179 118.12573
#
# Poissons Ratio (x) = 0.22645 0.12808
# Poissons Ratio (y) = 0.21081 0.25115
# Poissons Ratio (z) = 0.11926 0.25120
#
# Static dielectric constant tensor:
#      x y z
#    x 2.082010 0.007190 0.046600 
#    y 0.007190 2.122740 -0.021760 
#    z 0.046600 -0.021760 2.073900 
# 
# From -- ./inp_files/36735.got.cif
#   From: 2010.05.17/outbox.cif.g08.bks.cpg/sg2_19_cif.got.tgz:36735.got - 2010.06.03 11:33:40.
