data_PCOD9027955
_publ_section_title
;
Structure prediction by ZEFSAII (Michael W. Deem and Ramdas Pophale) SiO2 
 PCOD9027955
Probable space group: P -1
;
_chemical_formula_sum "Si O2"
_cell_formula_units_Z 14
_cell_length_a 12.604547
_cell_length_b 18.771327
_cell_length_c 12.710052
_cell_angle_alpha 28.057707
_cell_angle_beta 32.196211
_cell_angle_gamma 25.075211
_cell_volume 582.626316
_symmetry_space_group_name_H-M "P -1"
_symmetry_group_IT_number 2
_symmetry_cell_setting 'triclinic'
loop_
_space_group_symop_operation_xyz
x,y,z
-x,-y,-z
loop_
_atom_site_type_symbol
_atom_site_label
_atom_site_fract_x
_atom_site_fract_y
_atom_site_fract_z
Si Si1 0.526069 0.365197 0.806135
Si Si2 0.908736 0.345557 0.356837
Si Si3 0.551676 0.153596 0.247650
Si Si4 0.227440 0.043753 0.165859
Si Si5 0.149072 0.935947 0.689573
Si Si6 0.987412 0.462877 0.798020
Si Si7 0.507185 0.674760 0.553396
O O1 0.722192 0.319200 0.610799
O O2 0.253860 0.496939 0.802953
O O3 0.533656 0.496264 0.714539
O O4 0.584413 0.188138 0.054367
O O5 0.977471 0.433881 0.271974
O O6 0.127579 0.123330 0.426246
O O7 0.787882 0.086695 0.210729
O O8 0.297149 0.364191 0.227645
O O9 0.500000 0.000000 0.500000
O O10 0.102723 0.033768 0.177714
O O11 0.291712 0.869031 0.412195
O O12 0.029434 0.274951 0.053415
O O13 0.500000 0.000000 0.000000
O O14 0.391666 0.744323 0.675304
O O15 0.214533 0.382732 0.627260
#
# Coordination Sequence:
#
# PCOD9027955 Si02
#       7
#     2   2   2   2   2   2   2
#     4  10  23  43  73  98 141 187 240 296 350 416
#     4  10  22  44  73 104 129 192 246 289 352 408
#     4  12  27  46  65 107 150 188 236 289 354 429
#     4  10  22  41  70 106 138 173 237 302 345 411
#     4  12  24  43  71 101 143 187 234 284 367 420
#     4  10  23  44  66 103 147 182 238 293 344 420
#     4  10  22  42  70 104 136 184 239 298 346 417
#
# _framework density 24.029122999999998
#
# number of rings (size 3 to 8) (size 9 to 14) (size 15 to 20)
#    0.000    1.429    2.857    1.286    4.000    5.143 
#    2.571    0.000    0.000    0.000    0.000    0.000 
#    0.000    0.000    0.000    0.000    0.000    0.000 
#
# Total GULP energy -78233.142555 kJ/mol
# GULP energy per Si atom -5588.081611 kJ/mol
# Density = 2.397443 g / cm^3
# Si number density = 24.029123 Si / 1000 Ang^3
#
#
#
# Elastic Constant Matrix: (Units=GPa)
#
#
# Indices 1 2 3 4 5 6 
#
# 1 142.8760 15.6742 30.6756 -2.8261 4.6389 -18.2278
# 2 15.6742 86.7456 17.3896 -6.3862 -3.0409 -3.6186
# 3 30.6756 17.3896 110.0560 -8.1896 6.1164 -6.6197
# 4 -2.8261 -6.3862 -8.1896 47.9199 6.1457 -0.9051
# 5 4.6389 -3.0409 6.1164 6.1457 39.3746 -12.6926
# 6 -18.2278 -3.6186 -6.6197 -0.9051 -12.6926 44.7823
#
#
#
# Elastic Compliance Matrix: (Units=1/GPa)
#
#
# Indices 1 2 3 4 5 6 
#
# 1 0.007869 -0.000911 -0.001883 0.000047 0.000228 0.002916
# 2 -0.000911 0.012181 -0.001616 0.001132 0.001376 0.000788
# 3 -0.001883 -0.001616 0.010089 0.001615 -0.001673 0.000153
# 4 0.000047 0.001132 0.001615 0.021761 -0.003644 -0.000244
# 5 0.000228 0.001376 -0.001673 -0.003644 0.028909 0.008077
# 6 0.002916 0.000788 0.000153 -0.000244 0.008077 0.025888
#
#
# Mechanical properties :
#
#
# Convention : Reuss Voigt Hill
#
# Bulk Modulus (GPa) = 46.90691 51.90625 49.40658
# Shear Modulus (GPa) = 40.77580 44.81124 42.79352
#
# Velocity S-wave (km/s) = 4.12385 4.32310 4.22465
# Velocity P-wave (km/s) = 6.49909 6.82402 6.66353
#
# Compressibility (1/GPa) = 0.02131882
#
# Stress axis : x y z
#
# Youngs Moduli (GPa) = 127.08182 82.09567 99.11998
#
# Poissons Ratio (x) = 0.07481 0.18665
# Poissons Ratio (y) = 0.11581 0.16013
# Poissons Ratio (z) = 0.23930 0.13263
#
# Static dielectric constant tensor:
#      x y z
#    x 1.901150 -0.016920 -0.004130 
#    y -0.016920 2.015140 0.046280 
#    z -0.004130 0.046280 1.949000 
# 
# From -- ./inp_files/437195.got.cif
#   From: 2010.05.17/outbox.cif.g08.bks.cpg/sg2_219_cif.got.tgz:437195.got - 2010.06.03 11:33:40.
