data_PCOD9027199
_publ_section_title
;
Structure prediction by ZEFSAII (Michael W. Deem and Ramdas Pophale) SiO2 
 PCOD9027199
Probable space group: P -1
;
_chemical_formula_sum "Si O2"
_cell_formula_units_Z 14
_cell_length_a 15.133155
_cell_length_b 7.549576
_cell_length_c 15.844993
_cell_angle_alpha 97.330365
_cell_angle_beta 23.592487
_cell_angle_gamma 110.554741
_cell_volume 580.239442
_symmetry_space_group_name_H-M "P -1"
_symmetry_group_IT_number 2
_symmetry_cell_setting 'triclinic'
loop_
_space_group_symop_operation_xyz
x,y,z
-x,-y,-z
loop_
_atom_site_type_symbol
_atom_site_label
_atom_site_fract_x
_atom_site_fract_y
_atom_site_fract_z
Si Si1 0.281265 0.240457 0.274234
Si Si2 0.551556 0.889826 0.024152
Si Si3 0.651463 0.766348 0.388926
Si Si4 0.222872 0.569229 0.880401
Si Si5 0.270903 0.170124 0.857461
Si Si6 0.209142 0.693755 0.082028
Si Si7 0.253600 0.607783 0.409109
O O1 0.390648 0.266324 0.083821
O O2 0.238333 0.411525 0.363138
O O3 0.496388 0.247259 0.149279
O O4 0.000000 0.000000 0.500000
O O5 0.794107 0.099504 0.876396
O O6 0.299668 0.762392 0.300812
O O7 0.500000 0.000000 0.000000
O O8 0.500000 0.500000 0.500000
O O9 0.507404 0.767868 0.600021
O O10 0.602034 0.833037 0.344158
O O11 0.980702 0.936788 0.115147
O O12 0.223805 0.360330 0.893366
O O13 0.153211 0.640691 0.030386
O O14 0.000000 0.500000 0.000000
O O15 0.481286 0.254748 0.754642
O O16 0.001181 0.492552 0.313011
#
# Coordination Sequence:
#
# PCOD9027199 Si02
#       7
#     2   2   2   2   2   2   2
#     4  11  23  47  71 102 140 188 238 296 358 424
#     4  10  25  45  67 102 135 182 236 294 359 415
#     4   9  21  41  67  95 141 181 231 289 341 413
#     4  11  23  41  67 103 148 185 230 295 353 419
#     4  10  22  41  67 105 133 194 241 278 356 426
#     4  11  25  45  68 106 146 183 243 292 356 423
#     4  12  24  44  74  98 145 187 237 297 352 427
#
# _framework density 24.127969
#
# number of rings (size 3 to 8) (size 9 to 14) (size 15 to 20)
#    0.000    1.429    2.857    1.286    0.000   10.857 
#    5.143    0.000    0.000    0.000    0.000    0.000 
#    0.000    0.000    0.000    0.000    0.000    0.000 
#
# Total GULP energy -78240.438248 kJ/mol
# GULP energy per Si atom -5588.602732 kJ/mol
# Density = 2.407305 g / cm^3
# Si number density = 24.127969 Si / 1000 Ang^3
#
#
#
# Elastic Constant Matrix: (Units=GPa)
#
#
# Indices 1 2 3 4 5 6 
#
# 1 143.6611 48.3253 74.5642 -6.4010 15.9320 22.5242
# 2 48.3253 80.6452 40.2130 -12.9194 16.1278 15.6268
# 3 74.5642 40.2130 176.6777 -24.2094 32.9785 10.9049
# 4 -6.4010 -12.9194 -24.2094 33.1485 12.1225 5.1099
# 5 15.9320 16.1278 32.9785 12.1225 52.8639 6.5705
# 6 22.5242 15.6268 10.9049 5.1099 6.5705 43.8896
#
#
#
# Elastic Compliance Matrix: (Units=1/GPa)
#
#
# Indices 1 2 3 4 5 6 
#
# 1 0.010736 -0.004704 -0.004002 -0.002879 0.001699 -0.002760
# 2 -0.004704 0.018653 0.000525 0.009739 -0.006268 -0.004553
# 3 -0.004002 0.000525 0.009899 0.009391 -0.007208 -0.000607
# 4 -0.002879 0.009739 0.009391 0.047985 -0.018070 -0.007205
# 5 0.001699 -0.006268 -0.007208 -0.018070 0.028841 0.000937
# 6 -0.002760 -0.004553 -0.000607 -0.007205 0.000937 0.026671
#
#
# Mechanical properties :
#
#
# Convention : Reuss Voigt Hill
#
# Bulk Modulus (GPa) = 43.61621 80.79878 62.20749
# Shear Modulus (GPa) = 29.97806 41.83915 35.90860
#
# Velocity S-wave (km/s) = 3.52868 4.16871 3.86198
# Velocity P-wave (km/s) = 5.89223 7.53201 6.76201
#
# Compressibility (1/GPa) = 0.02292726
#
# Stress axis : x y z
#
# Youngs Moduli (GPa) = 93.14241 53.61046 101.02110
#
# Poissons Ratio (x) = 0.25220 0.40424
# Poissons Ratio (y) = 0.43817 -0.05308
# Poissons Ratio (z) = 0.37272 -0.02817
#
# Static dielectric constant tensor:
#      x y z
#    x 1.906170 0.013560 0.014990 
#    y 0.013560 2.066120 0.051650 
#    z 0.014990 0.051650 1.991460 
# 
# From -- ./inp_files/529750.got.cif
#   From: 2010.05.17/outbox.cif.g08.bks.cpg/sg2_265_cif.got.tgz:529750.got - 2010.06.03 11:33:40.
