data_PCOD9027684
_publ_section_title
;
Structure prediction by ZEFSAII (Michael W. Deem and Ramdas Pophale) SiO2 
 PCOD9027684
Probable space group: P -1
;
_chemical_formula_sum "Si O2"
_cell_formula_units_Z 16
_cell_length_a 9.087846
_cell_length_b 15.003440
_cell_length_c 9.766132
_cell_angle_alpha 70.075314
_cell_angle_beta 139.211346
_cell_angle_gamma 130.578581
_cell_volume 629.053383
_symmetry_space_group_name_H-M "P -1"
_symmetry_group_IT_number 2
_symmetry_cell_setting 'triclinic'
loop_
_space_group_symop_operation_xyz
x,y,z
-x,-y,-z
loop_
_atom_site_type_symbol
_atom_site_label
_atom_site_fract_x
_atom_site_fract_y
_atom_site_fract_z
Si Si1 0.848930 0.096299 0.721400
Si Si2 0.315585 0.764672 0.527248
Si Si3 0.421512 0.577766 0.754823
Si Si4 0.267821 0.044431 0.041626
Si Si5 0.349925 0.404743 0.572565
Si Si6 0.894355 0.294733 0.874980
Si Si7 0.773638 0.437023 0.070580
Si Si8 0.789182 0.219661 0.146883
O O1 0.932539 0.218305 0.643890
O O2 0.500000 0.000000 0.500000
O O3 0.872038 0.081471 0.909743
O O4 0.034720 0.058130 0.815512
O O5 0.299749 0.648323 0.591667
O O6 0.555646 0.855669 0.762410
O O7 0.338059 0.785700 0.367647
O O8 0.276226 0.465143 0.604891
O O9 0.348389 0.553991 0.876917
O O10 0.772127 0.655565 0.941933
O O11 0.512320 0.090440 0.078537
O O12 0.500000 0.500000 0.500000
O O13 0.096776 0.271368 0.400185
O O14 0.566149 0.399724 0.815507
O O15 0.947612 0.422876 0.841791
O O16 0.796284 0.230435 0.984788
O O17 0.792063 0.329241 0.148113
#
# Coordination Sequence:
#
# PCOD9027684 Si02
#       8
#     2   2   2   2   2   2   2   2
#     4   9  21  44  71  96 124 158 206 277 332 386
#     4  11  22  38  67  93 125 166 213 264 318 377
#     4  11  23  39  60  93 127 179 228 260 301 377
#     4  10  22  41  69 100 124 159 218 263 330 391
#     4  11  23  40  61  87 134 186 214 258 312 368
#     4  11  24  38  58  91 138 174 209 261 320 367
#     4  11  24  38  60  89 133 175 230 259 304 367
#     4  12  24  39  63  97 129 173 214 268 316 384
#
# _framework density 25.435044000000001
#
# number of rings (size 3 to 8) (size 9 to 14) (size 15 to 20)
#    0.000    1.250    3.750    3.375    5.250    2.000 
#    0.000    0.625    0.000    7.500    0.000    0.000 
#    0.000    0.000    0.000    0.000    0.000    0.000 
#
# Total GULP energy -89306.040988 kJ/mol
# GULP energy per Si atom -5581.627562 kJ/mol
# Density = 2.537715 g / cm^3
# Si number density = 25.435044 Si / 1000 Ang^3
#
#
#
# Elastic Constant Matrix: (Units=GPa)
#
#
# Indices 1 2 3 4 5 6 
#
# 1 108.8923 24.7829 36.9860 -4.1136 -23.4410 24.4127
# 2 24.7829 85.8419 24.6898 -20.4724 6.3282 6.0305
# 3 36.9860 24.6898 146.4826 -11.3697 -16.1866 7.6068
# 4 -4.1136 -20.4724 -11.3697 35.0028 -7.8300 -0.7593
# 5 -23.4410 6.3282 -16.1866 -7.8300 49.5527 -15.1155
# 6 24.4127 6.0305 7.6068 -0.7593 -15.1155 49.4456
#
#
#
# Elastic Compliance Matrix: (Units=1/GPa)
#
#
# Indices 1 2 3 4 5 6 
#
# 1 0.012395 -0.003077 -0.001922 -0.000081 0.004360 -0.004117
# 2 -0.003077 0.014965 -0.001467 0.007231 -0.002971 -0.000877
# 3 -0.001922 -0.001467 0.007949 0.002051 0.002404 0.000671
# 4 -0.000081 0.007231 0.002051 0.034712 0.005517 0.001062
# 5 0.004360 -0.002971 0.002404 0.005517 0.026078 0.005897
# 6 -0.004117 -0.000877 0.000671 0.001062 0.005897 0.024080
#
#
# Mechanical properties :
#
#
# Convention : Reuss Voigt Hill
#
# Bulk Modulus (GPa) = 44.68841 57.12600 50.90720
# Shear Modulus (GPa) = 35.56957 43.78408 39.67682
#
# Velocity S-wave (km/s) = 3.74364 4.15349 3.95388
# Velocity P-wave (km/s) = 6.02447 6.74613 6.39549
#
# Compressibility (1/GPa) = 0.02237717
#
# Stress axis : x y z
#
# Youngs Moduli (GPa) = 80.67759 66.82352 125.80019
#
# Poissons Ratio (x) = 0.20564 0.24175
# Poissons Ratio (y) = 0.24827 0.18453
# Poissons Ratio (z) = 0.15504 0.09802
#
# Static dielectric constant tensor:
#      x y z
#    x 2.127260 -0.034660 0.080020 
#    y -0.034660 2.234330 0.035740 
#    z 0.080020 0.035740 1.995100 
# 
# From -- ./inp_files/217380.got.cif
#   From: 2010.05.17/outbox.cif.g08.bks.cpg/sg2_109_cif.got.tgz:217380.got - 2010.06.03 11:33:40.
