data_PCOD9027267
_publ_section_title
;
Structure prediction by ZEFSAII (Michael W. Deem and Ramdas Pophale) SiO2 
 PCOD9027267
Probable space group: P -1
;
_chemical_formula_sum "Si O2"
_cell_formula_units_Z 14
_cell_length_a 11.754236
_cell_length_b 14.838123
_cell_length_c 6.938291
_cell_angle_alpha 96.778166
_cell_angle_beta 95.318147
_cell_angle_gamma 27.985478
_cell_volume 563.700949
_symmetry_space_group_name_H-M "P -1"
_symmetry_group_IT_number 2
_symmetry_cell_setting 'triclinic'
loop_
_space_group_symop_operation_xyz
x,y,z
-x,-y,-z
loop_
_atom_site_type_symbol
_atom_site_label
_atom_site_fract_x
_atom_site_fract_y
_atom_site_fract_z
Si Si1 0.528505 0.334298 0.566575
Si Si2 0.191758 0.027686 0.059903
Si Si3 0.103320 0.587113 0.999436
Si Si4 0.825946 0.257463 0.348028
Si Si5 0.620568 0.281479 0.024216
Si Si6 0.752680 0.637038 0.403910
Si Si7 0.372114 0.163024 0.880343
O O1 0.748469 0.227043 0.458714
O O2 0.302769 0.561806 0.553271
O O3 0.596600 0.295457 0.793593
O O4 0.432367 0.300215 0.497779
O O5 0.037919 0.219411 0.007929
O O6 0.100851 0.080618 0.281126
O O7 0.187785 0.931487 0.942563
O O8 0.472853 0.858256 0.036650
O O9 0.353958 0.441616 0.097652
O O10 0.160320 0.492902 0.786880
O O11 0.912066 0.656483 0.092957
O O12 0.703569 0.316594 0.138189
O O13 0.617785 0.820903 0.342500
O O14 0.000000 0.500000 0.500000
O O15 0.500000 0.000000 0.000000
#
# Coordination Sequence:
#
# PCOD9027267 Si02
#       7
#     2   2   2   2   2   2   2
#     4  10  23  43  66  97 138 178 225 287 340 397
#     4  11  21  40  65  98 135 171 234 283 338 411
#     4  10  22  41  67  93 136 177 226 289 333 416
#     4  11  23  41  68 100 136 184 226 278 345 415
#     4  11  22  41  70  94 132 180 230 277 342 413
#     4  11  22  41  69  96 134 179 231 285 343 409
#     4  10  22  41  67  96 132 178 226 283 348 402
#
# _framework density 24.835864000000001
#
# number of rings (size 3 to 8) (size 9 to 14) (size 15 to 20)
#    0.000    1.429    5.714    1.286    2.000    0.571 
#    0.000    2.857    6.286    0.000    0.000    0.000 
#    0.000    0.000    0.000    0.000    0.000    0.000 
#
# Total GULP energy -77990.365554 kJ/mol
# GULP energy per Si atom -5570.740397 kJ/mol
# Density = 2.477934 g / cm^3
# Si number density = 24.835864 Si / 1000 Ang^3
#
#
#
# Elastic Constant Matrix: (Units=GPa)
#
#
# Indices 1 2 3 4 5 6 
#
# 1 195.7590 37.5038 25.1509 -7.5042 -20.4936 -10.2631
# 2 37.5038 97.4218 5.0575 -2.6237 5.8991 20.3553
# 3 25.1509 5.0575 52.5679 -12.2135 -1.9185 8.7166
# 4 -7.5042 -2.6237 -12.2135 31.5222 -2.6261 -2.0315
# 5 -20.4936 5.8991 -1.9185 -2.6261 44.4919 -0.6611
# 6 -10.2631 20.3553 8.7166 -2.0315 -0.6611 45.2934
#
#
#
# Elastic Compliance Matrix: (Units=1/GPa)
#
#
# Indices 1 2 3 4 5 6 
#
# 1 0.006775 -0.003426 -0.003272 0.000598 0.003526 0.003783
# 2 -0.003426 0.013183 0.001437 0.000106 -0.003362 -0.007022
# 3 -0.003272 0.001437 0.023197 0.007949 -0.000310 -0.005500
# 4 0.000598 0.000106 0.007949 0.035189 0.002684 0.000176
# 5 0.003526 -0.003362 -0.000310 0.002684 0.024733 0.002851
# 6 0.003783 -0.007022 -0.005500 0.000176 0.002851 0.027199
#
#
# Mechanical properties :
#
#
# Convention : Reuss Voigt Hill
#
# Bulk Modulus (GPa) = 30.64316 53.46368 42.05342
# Shear Modulus (GPa) = 32.96493 42.79726 37.88110
#
# Velocity S-wave (km/s) = 3.64718 4.15565 3.90969
# Velocity P-wave (km/s) = 5.48643 6.67828 6.11148
#
# Compressibility (1/GPa) = 0.03263371
#
# Stress axis : x y z
#
# Youngs Moduli (GPa) = 147.59291 75.85797 43.10814
#
# Poissons Ratio (x) = 0.25991 0.14104
# Poissons Ratio (y) = 0.50569 -0.06195
# Poissons Ratio (z) = 0.48289 -0.10902
#
# Static dielectric constant tensor:
#      x y z
#    x 2.060040 0.007250 -0.080850 
#    y 0.007250 2.095970 -0.023360 
#    z -0.080850 -0.023360 1.978300 
# 
# From -- ./inp_files/273784.got.cif
#   From: 2010.05.17/outbox.cif.g08.bks.cpg/sg2_137_cif.got.tgz:273784.got - 2010.06.03 11:33:40.
