data_PCOD9027677
_publ_section_title
;
Structure prediction by ZEFSAII (Michael W. Deem and Ramdas Pophale) SiO2 
 PCOD9027677
Probable space group: P -1
;
_chemical_formula_sum "Si O2"
_cell_formula_units_Z 16
_cell_length_a 5.544115
_cell_length_b 20.803115
_cell_length_c 8.772767
_cell_angle_alpha 56.071689
_cell_angle_beta 53.924494
_cell_angle_gamma 71.817588
_cell_volume 678.336469
_symmetry_space_group_name_H-M "P -1"
_symmetry_group_IT_number 2
_symmetry_cell_setting 'triclinic'
loop_
_space_group_symop_operation_xyz
x,y,z
-x,-y,-z
loop_
_atom_site_type_symbol
_atom_site_label
_atom_site_fract_x
_atom_site_fract_y
_atom_site_fract_z
Si Si1 0.499410 0.769428 0.661544
Si Si2 0.271528 0.337652 0.046873
Si Si3 0.357508 0.514702 0.360632
Si Si4 0.081140 0.824222 0.241361
Si Si5 0.630698 0.372600 0.305063
Si Si6 0.614061 0.730847 0.209942
Si Si7 0.941820 0.127656 0.144685
Si Si8 0.849436 0.019549 0.863246
O O1 0.659531 0.743785 0.790940
O O2 0.399183 0.684569 0.751960
O O3 0.263037 0.834047 0.703679
O O4 0.732376 0.804677 0.407980
O O5 0.989542 0.372952 0.191682
O O6 0.543545 0.399129 0.843583
O O7 0.214823 0.313549 0.925539
O O8 0.500000 0.500000 0.500000
O O9 0.516853 0.458365 0.254662
O O10 0.000000 0.500000 0.500000
O O11 0.265745 0.747326 0.291372
O O12 0.123804 0.887829 0.273967
O O13 0.187640 0.857673 0.995747
O O14 0.411709 0.326524 0.564201
O O15 0.763213 0.816612 0.045878
O O16 0.998070 0.036236 0.243581
O O17 0.500000 0.000000 0.000000
O O18 0.000000 0.000000 0.000000
#
# Coordination Sequence:
#
# PCOD9027677 Si02
#       8
#     2   2   2   2   2   2   2   2
#     4  12  26  40  72 108 136 184 238 296 352 416
#     4  12  27  46  73 103 141 187 236 290 358 424
#     4  12  31  51  76 105 146 190 234 290 361 426
#     4  11  23  41  67  99 142 183 234 292 351 414
#     4  12  27  46  73 103 141 187 236 290 358 424
#     4  12  22  42  72  98 138 184 238 290 346 422
#     4  11  23  41  67  99 142 183 234 292 351 414
#     4  10  22  41  68  99 139 194 235 283 358 421
#
# _framework density 23.587114
#
# number of rings (size 3 to 8) (size 9 to 14) (size 15 to 20)
#    0.000    0.500    7.500    0.375    7.000    1.000 
#    0.000    0.000    0.000    4.500    0.000    0.000 
#    0.000    0.000    0.000    0.000    0.000    0.000 
#
# Total GULP energy -89171.905415 kJ/mol
# GULP energy per Si atom -5573.244088 kJ/mol
# Density = 2.353343 g / cm^3
# Si number density = 23.587114 Si / 1000 Ang^3
#
#
#
# Elastic Constant Matrix: (Units=GPa)
#
#
# Indices 1 2 3 4 5 6 
#
# 1 65.2186 18.1489 10.1576 13.0020 -19.8791 0.7550
# 2 18.1489 143.6623 20.1545 27.2928 -14.5841 1.0463
# 3 10.1576 20.1545 58.4170 24.0018 -12.3102 -1.0041
# 4 13.0020 27.2928 24.0018 31.5359 0.7797 -11.8328
# 5 -19.8791 -14.5841 -12.3102 0.7797 31.6865 2.6592
# 6 0.7550 1.0463 -1.0041 -11.8328 2.6592 33.0492
#
#
#
# Elastic Compliance Matrix: (Units=1/GPa)
#
#
# Indices 1 2 3 4 5 6 
#
# 1 0.024599 0.002332 0.008830 -0.023327 0.021386 -0.010440
# 2 0.002332 0.009909 0.004167 -0.015328 0.008559 -0.006417
# 3 0.008830 0.004167 0.035660 -0.040899 0.023643 -0.015796
# 4 -0.023327 -0.015328 -0.040899 0.101680 -0.043410 0.039673
# 5 0.021386 0.008559 0.023643 -0.043410 0.060888 -0.020483
# 6 -0.010440 -0.006417 -0.015796 0.039673 -0.020483 0.046072
#
#
# Mechanical properties :
#
#
# Convention : Reuss Voigt Hill
#
# Bulk Modulus (GPa) = 9.91811 40.46889 25.19350
# Shear Modulus (GPa) = 17.74564 33.84346 25.79455
#
# Velocity S-wave (km/s) = 2.74587 3.79202 3.31053
# Velocity P-wave (km/s) = 3.77718 6.03051 5.03160
#
# Compressibility (1/GPa) = 0.10082565
#
# Stress axis : x y z
#
# Youngs Moduli (GPa) = 40.65244 100.91675 28.04240
#
# Poissons Ratio (x) = -0.23537 -0.24760
# Poissons Ratio (y) = -0.09482 -0.11685
# Poissons Ratio (z) = -0.35894 -0.42050
#
# Static dielectric constant tensor:
#      x y z
#    x 2.185180 0.023670 0.015070 
#    y 0.023670 2.059460 0.009200 
#    z 0.015070 0.009200 1.863750 
# 
# From -- ./inp_files/13151.got.cif
#   From: 2010.05.17/outbox.cif.g08.bks.cpg/sg2_7_cif.got.tgz:13151.got - 2010.06.03 11:33:40.
