data_PCOD9027582
_publ_section_title
;
Structure prediction by ZEFSAII (Michael W. Deem and Ramdas Pophale) SiO2 
 PCOD9027582
Probable space group: P -1
;
_chemical_formula_sum "Si O2"
_cell_formula_units_Z 16
_cell_length_a 5.500418
_cell_length_b 15.773188
_cell_length_c 24.586268
_cell_angle_alpha 22.349040
_cell_angle_beta 57.228087
_cell_angle_gamma 56.585925
_cell_volume 673.591392
_symmetry_space_group_name_H-M "P -1"
_symmetry_group_IT_number 2
_symmetry_cell_setting 'triclinic'
loop_
_space_group_symop_operation_xyz
x,y,z
-x,-y,-z
loop_
_atom_site_type_symbol
_atom_site_label
_atom_site_fract_x
_atom_site_fract_y
_atom_site_fract_z
Si Si1 0.158046 0.833646 0.644575
Si Si2 0.633527 0.446502 0.850100
Si Si3 0.746862 0.300109 0.608540
Si Si4 0.745000 0.477597 0.622727
Si Si5 0.283186 0.855925 0.080035
Si Si6 0.191483 0.436061 0.090988
Si Si7 0.863734 0.305229 0.389617
Si Si8 0.288891 0.205012 0.106265
O O1 0.414529 0.683430 0.735856
O O2 0.239567 0.800299 0.591203
O O3 0.872559 0.712665 0.761829
O O4 0.078180 0.094678 0.514349
O O5 0.554582 0.294632 0.899009
O O6 0.952929 0.500384 0.765422
O O7 0.577618 0.310832 0.991668
O O8 0.500000 0.500000 0.500000
O O9 0.785112 0.330684 0.650196
O O10 0.042981 0.337505 0.520040
O O11 0.660369 0.059376 0.749938
O O12 0.816051 0.316678 0.761529
O O13 0.411122 0.596313 0.599537
O O14 0.500000 0.000000 0.000000
O O15 0.000000 0.000000 0.000000
O O16 0.153319 0.273248 0.140909
O O17 0.500000 0.500000 0.000000
O O18 0.954503 0.660983 0.983734
#
# Coordination Sequence:
#
# PCOD9027582 Si02
#       8
#     2   2   2   2   2   2   2   2
#     4  10  23  40  66 105 139 186 241 294 378 439
#     4  11  23  43  68 101 144 186 241 306 370 444
#     4  11  28  48  73 102 147 194 247 307 371 452
#     4  11  27  48  70 109 139 195 251 300 380 447
#     4  12  27  46  76 108 146 197 249 316 377 446
#     4  10  22  41  68  95 135 185 234 297 362 429
#     4  11  23  43  69 103 145 184 240 306 372 451
#     4  10  24  43  65 101 135 182 245 294 362 438
#
# _framework density 23.753274999999999
#
# number of rings (size 3 to 8) (size 9 to 14) (size 15 to 20)
#    0.000    1.250    1.250    2.625    8.750    1.000 
#    4.500    0.000    0.000    0.000    0.000    0.000 
#    0.000    0.000    0.000    0.000    0.000    0.000 
#
# Total GULP energy -89540.409105 kJ/mol
# GULP energy per Si atom -5596.275569 kJ/mol
# Density = 2.369921 g / cm^3
# Si number density = 23.753275 Si / 1000 Ang^3
#
#
#
# Elastic Constant Matrix: (Units=GPa)
#
#
# Indices 1 2 3 4 5 6 
#
# 1 64.5946 27.4550 23.2250 -4.0980 -2.7431 -10.8902
# 2 27.4550 116.3381 67.5132 11.8626 -2.2056 -14.7780
# 3 23.2250 67.5132 133.7615 -7.9123 -4.1091 -14.1452
# 4 -4.0980 11.8626 -7.9123 47.8051 -6.2188 0.1344
# 5 -2.7431 -2.2056 -4.1091 -6.2188 37.5450 17.4770
# 6 -10.8902 -14.7780 -14.1452 0.1344 17.4770 35.2631
#
#
#
# Elastic Compliance Matrix: (Units=1/GPa)
#
#
# Indices 1 2 3 4 5 6 
#
# 1 0.018065 -0.003510 -0.000826 0.002210 -0.000474 0.004003
# 2 -0.003510 0.014168 -0.006558 -0.005260 -0.002674 0.003569
# 3 -0.000826 -0.006558 0.011279 0.003534 0.000874 0.001074
# 4 0.002210 -0.005260 0.003534 0.023726 0.005537 -0.002939
# 5 -0.000474 -0.002674 0.000874 0.005537 0.036257 -0.018907
# 6 0.004003 0.003569 0.001074 -0.002939 -0.018907 0.040903
#
#
# Mechanical properties :
#
#
# Convention : Reuss Voigt Hill
#
# Bulk Modulus (GPa) = 46.02838 61.23118 53.62978
# Shear Modulus (GPa) = 28.83062 37.22271 33.02667
#
# Velocity S-wave (km/s) = 3.48768 3.96290 3.73286
# Velocity P-wave (km/s) = 5.96978 6.83911 6.41918
#
# Compressibility (1/GPa) = 0.02172572
#
# Stress axis : x y z
#
# Youngs Moduli (GPa) = 55.35615 70.57925 88.66266
#
# Poissons Ratio (x) = 0.24773 0.07319
# Poissons Ratio (y) = 0.19429 0.58142
# Poissons Ratio (z) = 0.04570 0.46284
#
# Static dielectric constant tensor:
#      x y z
#    x 2.004970 0.023840 -0.022630 
#    y 0.023840 1.898390 0.025390 
#    z -0.022630 0.025390 1.902130 
# 
# From -- ./inp_files/615821.got.cif
#   From: 2010.05.17/outbox.cif.g08.bks.cpg/sg2_308_cif.got.tgz:615821.got - 2010.06.03 11:33:40.
