data_PCOD9027787
_publ_section_title
;
Structure prediction by ZEFSAII (Michael W. Deem and Ramdas Pophale) SiO2 
 PCOD9027787
Probable space group: P -1
;
_chemical_formula_sum "Si O2"
_cell_formula_units_Z 14
_cell_length_a 9.217137
_cell_length_b 15.835916
_cell_length_c 8.023680
_cell_angle_alpha 63.345981
_cell_angle_beta 131.764674
_cell_angle_gamma 84.021604
_cell_volume 621.938550
_symmetry_space_group_name_H-M "P -1"
_symmetry_group_IT_number 2
_symmetry_cell_setting 'triclinic'
loop_
_space_group_symop_operation_xyz
x,y,z
-x,-y,-z
loop_
_atom_site_type_symbol
_atom_site_label
_atom_site_fract_x
_atom_site_fract_y
_atom_site_fract_z
Si Si1 0.776770 0.626404 0.495805
Si Si2 0.583139 0.955321 0.289904
Si Si3 0.552849 0.803251 0.899375
Si Si4 0.973345 0.302010 0.160179
Si Si5 0.944994 0.386761 0.711639
Si Si6 0.398432 0.656869 0.390675
Si Si7 0.730349 0.120284 0.715763
O O1 0.967953 0.648920 0.683750
O O2 0.672645 0.603369 0.601068
O O3 0.880685 0.515327 0.554099
O O4 0.555916 0.745690 0.126918
O O5 0.860374 0.839566 0.587018
O O6 0.432145 0.914638 0.294553
O O7 0.537519 0.063781 0.261322
O O8 0.500000 0.000000 0.000000
O O9 0.394662 0.812248 0.615126
O O10 0.840581 0.711937 0.155043
O O11 0.052005 0.333657 0.024544
O O12 0.703176 0.351627 0.857528
O O13 0.699008 0.395125 0.511895
O O14 0.272914 0.788773 0.245204
O O15 0.000000 0.000000 0.000000
#
# Coordination Sequence:
#
# PCOD9027787 Si02
#       7
#     2   2   2   2   2   2   2
#     4  12  22  44  66  98 130 172 218 263 318 381
#     4  12  22  42  67  92 126 167 215 266 319 385
#     4  12  24  41  66  97 134 170 208 270 331 380
#     4  10  22  41  69  92 127 169 219 260 322 374
#     4  10  23  42  68  93 131 172 218 262 318 382
#     4  10  22  42  65  96 123 172 222 255 317 381
#     4  12  23  41  64  96 135 167 211 270 325 384
#
# _framework density 22.510261
#
# number of rings (size 3 to 8) (size 9 to 14) (size 15 to 20)
#    0.857    0.000    4.286    3.429    0.000    1.143 
#    2.571    3.571    0.000    0.000    0.000    0.000 
#    0.000    0.000    0.000    0.000    0.000    0.000 
#
# Total GULP energy -78104.393643 kJ/mol
# GULP energy per Si atom -5578.885260 kJ/mol
# Density = 2.245903 g / cm^3
# Si number density = 22.510261 Si / 1000 Ang^3
#
#
#
# Elastic Constant Matrix: (Units=GPa)
#
#
# Indices 1 2 3 4 5 6 
#
# 1 38.2565 24.1019 -8.6127 4.0426 4.0837 -8.7521
# 2 24.1019 133.7853 10.8202 -17.0313 10.2829 10.3076
# 3 -8.6127 10.8202 56.5946 -1.8248 -11.2345 3.2957
# 4 4.0426 -17.0313 -1.8248 47.9787 -8.0289 3.2733
# 5 4.0837 10.2829 -11.2345 -8.0289 36.9052 -7.2425
# 6 -8.7521 10.3076 3.2957 3.2733 -7.2425 22.3366
#
#
#
# Elastic Compliance Matrix: (Units=1/GPa)
#
#
# Indices 1 2 3 4 5 6 
#
# 1 0.039984 -0.010723 0.007280 -0.007823 0.003351 0.021774
# 2 -0.010723 0.011527 -0.003891 0.004879 -0.004319 -0.011062
# 3 0.007280 -0.003891 0.020733 -0.000254 0.007320 0.004000
# 4 -0.007823 0.004879 -0.000254 0.024289 0.003181 -0.007807
# 5 0.003351 -0.004319 0.007320 0.003181 0.033315 0.012562
# 6 0.021774 -0.011062 0.004000 -0.007807 0.012562 0.063033
#
#
# Mechanical properties :
#
#
# Convention : Reuss Voigt Hill
#
# Bulk Modulus (GPa) = 17.36875 31.25059 24.30967
# Shear Modulus (GPa) = 22.05149 34.93256 28.49202
#
# Velocity S-wave (km/s) = 3.13328 3.94363 3.56158
# Velocity P-wave (km/s) = 4.56318 5.88636 5.26649
#
# Compressibility (1/GPa) = 0.05757466
#
# Stress axis : x y z
#
# Youngs Moduli (GPa) = 25.00985 86.75592 48.23146
#
# Poissons Ratio (x) = 0.93030 -0.35112
# Poissons Ratio (y) = 0.26818 0.18769
# Poissons Ratio (z) = -0.18207 0.33761
#
# Static dielectric constant tensor:
#      x y z
#    x 1.850230 -0.003110 -0.002520 
#    y -0.003110 1.841610 -0.027060 
#    z -0.002520 -0.027060 1.860180 
# 
# From -- ./inp_files/200414.got.cif
#   From: 2010.05.17/outbox.cif.g08.bks.cpg/sg2_101_cif.got.tgz:200414.got - 2010.06.03 11:33:40.
