data_PCOD9027334
_publ_section_title
;
Structure prediction by ZEFSAII (Michael W. Deem and Ramdas Pophale) SiO2 
 PCOD9027334
Probable space group: P -1
;
_chemical_formula_sum "Si O2"
_cell_formula_units_Z 16
_cell_length_a 10.844961
_cell_length_b 11.158042
_cell_length_c 11.072829
_cell_angle_alpha 128.813226
_cell_angle_beta 59.388877
_cell_angle_gamma 82.012648
_cell_volume 656.201626
_symmetry_space_group_name_H-M "P -1"
_symmetry_group_IT_number 2
_symmetry_cell_setting 'triclinic'
loop_
_space_group_symop_operation_xyz
x,y,z
-x,-y,-z
loop_
_atom_site_type_symbol
_atom_site_label
_atom_site_fract_x
_atom_site_fract_y
_atom_site_fract_z
Si Si1 0.793366 0.744827 0.249600
Si Si2 0.541726 0.324954 0.028940
Si Si3 0.404071 0.057514 0.270474
Si Si4 0.828481 0.324846 0.747077
Si Si5 0.725306 0.678384 0.990855
Si Si6 0.062265 0.038358 0.675002
Si Si7 0.592616 0.624477 0.612580
Si Si8 0.177228 0.810668 0.875911
O O1 0.681904 0.829726 0.485463
O O2 0.821258 0.901232 0.292377
O O3 0.683744 0.747232 0.192638
O O4 0.000000 0.500000 0.000000
O O5 0.389948 0.395259 0.039432
O O6 0.434135 0.424176 0.271408
O O7 0.663478 0.379336 0.960164
O O8 0.648249 0.078543 0.827924
O O9 0.372359 0.219818 0.299115
O O10 0.640442 0.862794 0.059218
O O11 0.918187 0.434611 0.739135
O O12 0.002814 0.148085 0.644094
O O13 0.832574 0.198113 0.555888
O O14 0.892442 0.130244 0.913892
O O15 0.386560 0.744645 0.721466
O O16 0.766325 0.405935 0.322503
O O17 0.000000 0.000000 0.000000
#
# Coordination Sequence:
#
# PCOD9027334 Si02
#       8
#     2   2   2   2   2   2   2   2
#     4  12  22  41  63  99 138 172 219 285 346 404
#     4  10  22  41  67  96 130 182 226 279 345 401
#     4  10  24  41  66  96 132 179 219 277 348 402
#     4  11  21  42  67 101 136 173 226 289 337 411
#     4  10  24  37  67 100 126 178 226 273 343 405
#     4  11  23  41  67  98 140 174 224 286 351 398
#     4  11  24  49  67  97 144 177 232 286 335 413
#     4  11  27  44  71 100 131 192 231 277 342 413
#
# _framework density 24.382750000000001
#
# number of rings (size 3 to 8) (size 9 to 14) (size 15 to 20)
#    0.750    0.500    3.750    1.875    3.500    0.000 
#    0.000    0.000    0.000    3.750    0.000    0.000 
#    0.000    0.000    0.000    0.000    0.000    0.000 
#
# Total GULP energy -89075.327494 kJ/mol
# GULP energy per Si atom -5567.207968 kJ/mol
# Density = 2.432725 g / cm^3
# Si number density = 24.382750 Si / 1000 Ang^3
#
#
#
# Elastic Constant Matrix: (Units=GPa)
#
#
# Indices 1 2 3 4 5 6 
#
# 1 65.6527 9.0597 10.6917 12.2810 11.3802 -10.6493
# 2 9.0597 103.6778 46.2876 19.9407 6.9474 6.4579
# 3 10.6917 46.2876 113.3162 9.0038 26.4170 6.0923
# 4 12.2810 19.9407 9.0038 36.7735 1.8793 9.3993
# 5 11.3802 6.9474 26.4170 1.8793 37.6684 7.8068
# 6 -10.6493 6.4579 6.0923 9.3993 7.8068 32.2357
#
#
#
# Elastic Compliance Matrix: (Units=1/GPa)
#
#
# Indices 1 2 3 4 5 6 
#
# 1 0.020171 -0.000262 0.000203 -0.009118 -0.008074 0.011292
# 2 -0.000262 0.012995 -0.005209 -0.005650 0.001716 -0.000473
# 3 0.000203 -0.005209 0.012827 -0.000148 -0.008239 0.000725
# 4 -0.009118 -0.005650 -0.000148 0.036592 0.004917 -0.013713
# 5 -0.008074 0.001716 -0.008239 0.004917 0.036641 -0.011761
# 6 0.011292 -0.000473 0.000725 -0.013713 -0.011761 0.041556
#
#
# Mechanical properties :
#
#
# Convention : Reuss Voigt Hill
#
# Bulk Modulus (GPa) = 28.20241 46.08052 37.14146
# Shear Modulus (GPa) = 27.30191 35.77603 31.53897
#
# Velocity S-wave (km/s) = 3.34986 3.83465 3.60042
# Velocity P-wave (km/s) = 5.15303 6.20853 5.70524
#
# Compressibility (1/GPa) = 0.03545796
#
# Stress axis : x y z
#
# Youngs Moduli (GPa) = 49.57526 76.95233 77.96026
#
# Poissons Ratio (x) = 0.02017 -0.01586
# Poissons Ratio (y) = 0.01300 0.40610
# Poissons Ratio (z) = -0.01009 0.40085
#
# Static dielectric constant tensor:
#      x y z
#    x 2.120960 -0.035930 -0.089550 
#    y -0.035930 2.014900 0.182330 
#    z -0.089550 0.182330 2.103240 
# 
# From -- ./inp_files/428893.got.cif
#   From: 2010.05.17/outbox.cif.g08.bks.cpg/sg2_215_cif.got.tgz:428893.got - 2010.06.03 11:33:40.
