data_PCOD9027733
_publ_section_title
;
Structure prediction by ZEFSAII (Michael W. Deem and Ramdas Pophale) SiO2 
 PCOD9027733
Probable space group: P -1
;
_chemical_formula_sum "Si O2"
_cell_formula_units_Z 12
_cell_length_a 5.416632
_cell_length_b 16.143549
_cell_length_c 7.102752
_cell_angle_alpha 87.001892
_cell_angle_beta 51.388228
_cell_angle_gamma 100.680541
_cell_volume 465.358901
_symmetry_space_group_name_H-M "P -1"
_symmetry_group_IT_number 2
_symmetry_cell_setting 'triclinic'
loop_
_space_group_symop_operation_xyz
x,y,z
-x,-y,-z
loop_
_atom_site_type_symbol
_atom_site_label
_atom_site_fract_x
_atom_site_fract_y
_atom_site_fract_z
Si Si1 0.861047 0.260392 0.847662
Si Si2 0.994002 0.596999 0.945076
Si Si3 0.269387 0.113977 0.185402
Si Si4 0.398020 0.216389 0.777373
Si Si5 0.228102 0.052905 0.628138
Si Si6 0.321217 0.557282 0.446446
O O1 0.745310 0.267198 0.692026
O O2 0.233313 0.264520 0.702765
O O3 0.659667 0.160962 0.003114
O O4 0.807581 0.331970 0.007569
O O5 0.163906 0.611219 0.661150
O O6 0.611220 0.596252 0.150708
O O7 0.000000 0.500000 0.000000
O O8 0.175714 0.097589 0.449652
O O9 0.186102 0.186122 0.078315
O O10 0.115263 0.021462 0.172537
O O11 0.375918 0.126597 0.699282
O O12 0.500000 0.000000 0.500000
O O13 0.500000 0.500000 0.500000
O O14 0.000000 0.500000 0.500000
#
# Coordination Sequence:
#
# PCOD9027733 Si02
#       6
#     2   2   2   2   2   2
#     4  10  24  43  63  96 138 185 228 300 357 419
#     4  10  23  46  74 106 144 191 247 298 366 434
#     4   9  23  38  63  91 134 167 236 274 362 403
#     4  10  24  42  62  91 141 174 231 291 357 418
#     4  11  22  38  67  98 128 185 234 288 352 433
#     4  10  22  41  69 103 136 177 235 297 355 427
#
# _framework density 25.786546999999999
#
# number of rings (size 3 to 8) (size 9 to 14) (size 15 to 20)
#    1.000    1.000    0.000    2.000    4.667    8.000 
#    0.000    0.000    0.000    0.000    0.000    0.000 
#    0.000    0.000    0.000    0.000    0.000    0.000 
#
# Total GULP energy -66878.213950 kJ/mol
# GULP energy per Si atom -5573.184496 kJ/mol
# Density = 2.572786 g / cm^3
# Si number density = 25.786547 Si / 1000 Ang^3
#
#
#
# Elastic Constant Matrix: (Units=GPa)
#
#
# Indices 1 2 3 4 5 6 
#
# 1 198.5465 73.3641 53.9746 7.0443 0.5037 39.0125
# 2 73.3641 150.2926 62.2509 20.9395 -2.9402 47.4035
# 3 53.9746 62.2509 145.1417 -5.7127 -3.1096 15.9104
# 4 7.0443 20.9395 -5.7127 49.6549 1.6292 8.2507
# 5 0.5037 -2.9402 -3.1096 1.6292 38.0680 -10.0472
# 6 39.0125 47.4035 15.9104 8.2507 -10.0472 57.8311
#
#
#
# Elastic Compliance Matrix: (Units=1/GPa)
#
#
# Indices 1 2 3 4 5 6 
#
# 1 0.006639 -0.001818 -0.001397 0.000168 -0.001093 -0.002818
# 2 -0.001818 0.011898 -0.003830 -0.003987 -0.001070 -0.007090
# 3 -0.001397 -0.003830 0.009021 0.002604 0.000705 0.001350
# 4 0.000168 -0.003987 0.002604 0.022300 -0.001308 -0.000971
# 5 -0.001093 -0.001070 0.000705 -0.001308 0.028023 0.006476
# 6 -0.002818 -0.007090 0.001350 -0.000971 0.006476 0.025896
#
#
# Mechanical properties :
#
#
# Convention : Reuss Voigt Hill
#
# Bulk Modulus (GPa) = 74.24546 97.01777 85.63162
# Shear Modulus (GPa) = 40.86419 49.40354 45.13386
#
# Velocity S-wave (km/s) = 3.98516 4.38181 4.18818
# Velocity P-wave (km/s) = 7.07320 7.95647 7.52780
#
# Compressibility (1/GPa) = 0.01346884
#
# Stress axis : x y z
#
# Youngs Moduli (GPa) = 150.63423 84.04680 110.84829
#
# Poissons Ratio (x) = 0.15281 0.15484
# Poissons Ratio (y) = 0.27387 0.42451
# Poissons Ratio (z) = 0.21042 0.32187
#
# Static dielectric constant tensor:
#      x y z
#    x 2.023050 -0.005420 -0.073250 
#    y -0.005420 2.115990 0.006350 
#    z -0.073250 0.006350 1.972280 
# 
# From -- ./inp_files/104403.got.cif
#   From: 2010.05.17/outbox.cif.g08.bks.cpg/sg2_53_cif.got.tgz:104403.got - 2010.06.03 11:33:40.
