data_PCOD9027893
_publ_section_title
;
Structure prediction by ZEFSAII (Michael W. Deem and Ramdas Pophale) SiO2 
 PCOD9027893
Probable space group: P -1
;
_chemical_formula_sum "Si O2"
_cell_formula_units_Z 14
_cell_length_a 12.904468
_cell_length_b 11.227877
_cell_length_c 7.063906
_cell_angle_alpha 82.965770
_cell_angle_beta 130.459220
_cell_angle_gamma 127.435290
_cell_volume 552.145967
_symmetry_space_group_name_H-M "P -1"
_symmetry_group_IT_number 2
_symmetry_cell_setting 'triclinic'
loop_
_space_group_symop_operation_xyz
x,y,z
-x,-y,-z
loop_
_atom_site_type_symbol
_atom_site_label
_atom_site_fract_x
_atom_site_fract_y
_atom_site_fract_z
Si Si1 0.813605 0.462129 0.288848
Si Si2 0.142723 0.475700 0.113824
Si Si3 0.674491 0.746835 0.302518
Si Si4 0.990089 0.179700 0.445043
Si Si5 0.561319 0.904496 0.043752
Si Si6 0.924777 0.825482 0.015596
Si Si7 0.481898 0.386688 0.276589
O O1 0.876522 0.619584 0.446020
O O2 0.000000 0.500000 0.500000
O O3 0.789854 0.471768 0.035483
O O4 0.644357 0.280840 0.213371
O O5 0.041840 0.280444 0.036883
O O6 0.343607 0.583429 0.441629
O O7 0.000000 0.500000 0.000000
O O8 0.893679 0.845875 0.531703
O O9 0.623973 0.847834 0.293443
O O10 0.554830 0.564395 0.276258
O O11 0.610469 0.716753 0.009990
O O12 0.007758 0.162370 0.693265
O O13 0.767190 0.048848 0.154493
O O14 0.500000 0.000000 0.000000
O O15 0.696633 0.706295 0.779028
O O16 0.000000 0.000000 0.000000
#
# Coordination Sequence:
#
# PCOD9027893 Si02
#       7
#     2   2   2   2   2   2   2
#     4  11  24  45  66  94 141 179 223 278 343 410
#     4  11  26  42  70 101 133 181 228 284 348 406
#     4  10  22  41  70 100 133 172 229 283 326 415
#     4  10  23  43  67  98 130 178 227 277 337 407
#     4  12  24  39  69 100 133 180 224 278 345 405
#     4  10  23  43  66  95 137 175 224 285 338 412
#     4  10  22  44  72  95 131 184 226 273 348 406
#
# _framework density 25.355615
#
# number of rings (size 3 to 8) (size 9 to 14) (size 15 to 20)
#    0.000    1.429    1.429    4.286    8.000    0.000 
#    5.143    0.714    0.000    0.000    0.000    0.000 
#    0.000    0.000    0.000    0.000    0.000    0.000 
#
# Total GULP energy -78141.406962 kJ/mol
# GULP energy per Si atom -5581.529069 kJ/mol
# Density = 2.529790 g / cm^3
# Si number density = 25.355615 Si / 1000 Ang^3
#
#
#
# Elastic Constant Matrix: (Units=GPa)
#
#
# Indices 1 2 3 4 5 6 
#
# 1 132.0548 78.9229 61.8731 11.1565 40.0666 -21.8972
# 2 78.9229 200.1760 47.5986 32.3240 31.9757 -19.2863
# 3 61.8731 47.5986 140.3016 13.4869 31.0709 -5.5749
# 4 11.1565 32.3240 13.4869 49.8583 5.9164 14.2957
# 5 40.0666 31.9757 31.0709 5.9164 73.0486 0.0580
# 6 -21.8972 -19.2863 -5.5749 14.2957 0.0580 40.8745
#
#
#
# Elastic Compliance Matrix: (Units=1/GPa)
#
#
# Indices 1 2 3 4 5 6 
#
# 1 0.013440 -0.002988 -0.003584 -0.001217 -0.004445 0.005734
# 2 -0.002988 0.007630 -0.000381 -0.005113 -0.001128 0.003737
# 3 -0.003584 -0.000381 0.009315 -0.001142 -0.001736 -0.000428
# 4 -0.001217 -0.005113 -0.001142 0.027494 0.001175 -0.012838
# 5 -0.004445 -0.001128 -0.001736 0.001175 0.017268 -0.003586
# 6 0.005734 0.003737 -0.000428 -0.012838 -0.003586 0.033737
#
#
# Mechanical properties :
#
#
# Convention : Reuss Voigt Hill
#
# Bulk Modulus (GPa) = 60.68422 94.36907 77.52664
# Shear Modulus (GPa) = 38.97648 51.69881 45.33765
#
# Velocity S-wave (km/s) = 3.92496 4.52037 4.23315
# Velocity P-wave (km/s) = 6.67275 8.03393 7.38477
#
# Compressibility (1/GPa) = 0.01647875
#
# Stress axis : x y z
#
# Youngs Moduli (GPa) = 74.40616 131.06102 107.35669
#
# Poissons Ratio (x) = 0.39155 0.38478
# Poissons Ratio (y) = 0.22229 0.04093
# Poissons Ratio (z) = 0.26668 0.04997
#
# Static dielectric constant tensor:
#      x y z
#    x 2.237540 -0.121940 -0.127470 
#    y -0.121940 2.171970 0.037160 
#    z -0.127470 0.037160 2.143770 
# 
# From -- ./inp_files/307203.got.cif
#   From: 2010.05.17/outbox.cif.g08.bks.cpg/sg2_154_cif.got.tgz:307203.got - 2010.06.03 11:33:40.
