data_PCOD9027715
_publ_section_title
;
Structure prediction by ZEFSAII (Michael W. Deem and Ramdas Pophale) SiO2 
 PCOD9027715
Probable space group: P -1
;
_chemical_formula_sum "Si O2"
_cell_formula_units_Z 12
_cell_length_a 5.553878
_cell_length_b 5.216856
_cell_length_c 19.542583
_cell_angle_alpha 75.613933
_cell_angle_beta 59.592731
_cell_angle_gamma 82.519576
_cell_volume 473.019131
_symmetry_space_group_name_H-M "P -1"
_symmetry_group_IT_number 2
_symmetry_cell_setting 'triclinic'
loop_
_space_group_symop_operation_xyz
x,y,z
-x,-y,-z
loop_
_atom_site_type_symbol
_atom_site_label
_atom_site_fract_x
_atom_site_fract_y
_atom_site_fract_z
Si Si1 0.506729 0.074001 0.244108
Si Si2 0.414057 0.705704 0.057383
Si Si3 0.744532 0.280791 0.480642
Si Si4 0.165293 0.149791 0.906521
Si Si5 0.382708 0.897243 0.630830
Si Si6 0.715782 0.478850 0.666378
O O1 0.682206 0.057684 0.151266
O O2 0.310052 0.818817 0.288029
O O3 0.710614 0.030756 0.284184
O O4 0.323702 0.327351 0.275177
O O5 0.600560 0.675922 0.100721
O O6 0.076996 0.698753 0.111129
O O7 0.500000 0.500000 0.000000
O O8 0.500000 0.000000 0.000000
O O9 0.500000 0.500000 0.500000
O O10 0.759468 0.096639 0.422216
O O11 0.022378 0.449332 0.422276
O O12 0.661261 0.076209 0.565931
O O13 0.000000 0.000000 0.000000
O O14 0.457861 0.587285 0.650789
#
# Coordination Sequence:
#
# PCOD9027715 Si02
#       6
#     2   2   2   2   2   2
#     4  10  24  43  63  96 131 176 220 281 342 398
#     4  10  22  41  69 102 132 171 230 284 338 406
#     4  11  22  38  69  95 128 176 226 271 336 409
#     4  10  23  46  74 102 139 187 235 285 346 417
#     4   9  23  40  61  95 129 170 222 268 338 393
#     4  10  24  43  61  92 134 170 217 274 337 398
#
# _framework density 25.368950999999999
#
# number of rings (size 3 to 8) (size 9 to 14) (size 15 to 20)
#    1.000    1.000    0.000    2.000    4.667    8.000 
#    3.000    0.000    0.000    0.000    0.000    0.000 
#    0.000    0.000    0.000    0.000    0.000    0.000 
#
# Total GULP energy -66927.045002 kJ/mol
# GULP energy per Si atom -5577.253750 kJ/mol
# Density = 2.531121 g / cm^3
# Si number density = 25.368951 Si / 1000 Ang^3
#
#
#
# Elastic Constant Matrix: (Units=GPa)
#
#
# Indices 1 2 3 4 5 6 
#
# 1 112.9849 23.2241 12.7620 20.3656 -5.5399 13.1214
# 2 23.2241 147.8802 33.3760 20.2598 6.0734 6.8879
# 3 12.7620 33.3760 144.7308 31.1819 22.1675 9.2859
# 4 20.3656 20.2598 31.1819 51.5482 3.5900 8.5807
# 5 -5.5399 6.0734 22.1675 3.5900 19.0591 16.4668
# 6 13.1214 6.8879 9.2859 8.5807 16.4668 27.2882
#
#
#
# Elastic Compliance Matrix: (Units=1/GPa)
#
#
# Indices 1 2 3 4 5 6 
#
# 1 0.013275 -0.001305 -0.003231 -0.001231 0.025511 -0.019962
# 2 -0.001305 0.007479 -0.000946 -0.001857 -0.002102 0.000914
# 3 -0.003231 -0.000946 0.011930 -0.006366 -0.027338 0.016231
# 4 -0.001231 -0.001857 -0.006366 0.025726 0.014611 -0.013680
# 5 0.025511 -0.002102 -0.027338 0.014611 0.199882 -0.127645
# 6 -0.019962 0.000914 0.016231 -0.013680 -0.127645 0.121818
#
#
# Mechanical properties :
#
#
# Convention : Reuss Voigt Hill
#
# Bulk Modulus (GPa) = 46.04153 60.48002 53.26078
# Shear Modulus (GPa) = 12.55291 41.99467 27.27379
#
# Velocity S-wave (km/s) = 2.22685 4.07302 3.28241
# Velocity P-wave (km/s) = 4.97996 6.78316 5.95026
#
# Compressibility (1/GPa) = 0.02171952
#
# Stress axis : x y z
#
# Youngs Moduli (GPa) = 75.33008 133.70936 83.82386
#
# Poissons Ratio (x) = 0.17447 0.27083
# Poissons Ratio (y) = 0.09829 0.07931
# Poissons Ratio (z) = 0.24339 0.12651
#
# Static dielectric constant tensor:
#      x y z
#    x 2.147650 0.041030 -0.030380 
#    y 0.041030 2.011230 0.009490 
#    z -0.030380 0.009490 1.944390 
# 
# From -- ./inp_files/102907.got.cif
#   From: 2010.05.17/outbox.cif.g08.bks.cpg/sg2_52_cif.got.tgz:102907.got - 2010.06.03 11:33:40.
