data_PCOD9027942
_publ_section_title
;
Structure prediction by ZEFSAII (Michael W. Deem and Ramdas Pophale) SiO2 
 PCOD9027942
Probable space group: P -1
;
_chemical_formula_sum "Si O2"
_cell_formula_units_Z 16
_cell_length_a 11.829168
_cell_length_b 13.224254
_cell_length_c 15.412877
_cell_angle_alpha 142.588236
_cell_angle_beta 27.087637
_cell_angle_gamma 125.985651
_cell_volume 601.473968
_symmetry_space_group_name_H-M "P -1"
_symmetry_group_IT_number 2
_symmetry_cell_setting 'triclinic'
loop_
_space_group_symop_operation_xyz
x,y,z
-x,-y,-z
loop_
_atom_site_type_symbol
_atom_site_label
_atom_site_fract_x
_atom_site_fract_y
_atom_site_fract_z
Si Si1 0.620866 0.800530 0.240190
Si Si2 0.987385 0.720507 0.455602
Si Si3 0.818089 0.218439 0.825565
Si Si4 0.216218 0.491101 0.668325
Si Si5 0.584642 0.366227 0.597872
Si Si6 0.651859 0.808068 0.497127
Si Si7 0.181316 0.348527 0.165547
Si Si8 0.365308 0.106521 0.031683
O O1 0.455710 0.691797 0.317324
O O2 0.500000 0.000000 0.500000
O O3 0.612306 0.806583 0.146272
O O4 0.942670 0.677290 0.962981
O O5 0.768612 0.652915 0.515613
O O6 0.128859 0.754347 0.295450
O O7 0.170711 0.535461 0.259909
O O8 0.838406 0.867645 0.732857
O O9 0.655894 0.092386 0.856302
O O10 0.097961 0.133554 0.632929
O O11 0.618664 0.421559 0.133416
O O12 0.500000 0.500000 0.500000
O O13 0.177180 0.393894 0.714337
O O14 0.496457 0.233481 0.509984
O O15 0.888392 0.340493 0.352703
O O16 0.425233 0.940944 0.811069
O O17 0.260330 0.294286 0.173581
#
# Coordination Sequence:
#
# PCOD9027942 Si02
#       8
#     2   2   2   2   2   2   2   2
#     4  11  24  43  66 100 140 177 226 287 343 408
#     4  10  22  43  67  97 134 180 230 275 342 409
#     4  11  24  43  69  98 130 184 227 278 342 411
#     4  10  22  41  70 103 136 177 232 283 346 411
#     4  12  23  44  75  96 137 183 227 288 343 411
#     4  11  24  43  67 104 135 176 233 281 348 404
#     4  11  24  44  67 103 133 181 236 276 347 406
#     4  12  26  42  68 100 141 180 226 287 334 414
#
# _framework density 26.601319
#
# number of rings (size 3 to 8) (size 9 to 14) (size 15 to 20)
#    0.000    1.000    5.000    3.375    0.000    6.500 
#    0.000    3.750    0.000    0.000    0.000    0.000 
#    0.000    0.000    0.000    0.000    0.000    0.000 
#
# Total GULP energy -89572.346776 kJ/mol
# GULP energy per Si atom -5598.271673 kJ/mol
# Density = 2.654077 g / cm^3
# Si number density = 26.601319 Si / 1000 Ang^3
#
#
#
# Elastic Constant Matrix: (Units=GPa)
#
#
# Indices 1 2 3 4 5 6 
#
# 1 115.2878 22.3879 35.7267 -7.9279 12.9066 0.8078
# 2 22.3879 61.2174 28.3062 -14.9015 3.7457 -5.8341
# 3 35.7267 28.3062 134.0260 -4.0352 31.2960 5.2244
# 4 -7.9279 -14.9015 -4.0352 47.8548 1.4462 3.7028
# 5 12.9066 3.7457 31.2960 1.4462 45.3614 4.2605
# 6 0.8078 -5.8341 5.2244 3.7028 4.2605 51.3923
#
#
#
# Elastic Compliance Matrix: (Units=1/GPa)
#
#
# Indices 1 2 3 4 5 6 
#
# 1 0.009925 -0.002574 -0.001741 0.000755 -0.001415 -0.000208
# 2 -0.002574 0.020527 -0.003885 0.005422 0.001332 0.002265
# 3 -0.001741 -0.003885 0.010200 -0.000382 -0.006123 -0.000915
# 4 0.000755 0.005422 -0.000382 0.022780 -0.001039 -0.000913
# 5 -0.001415 0.001332 -0.006123 -0.001039 0.026721 -0.001344
# 6 -0.000208 0.002265 -0.000915 -0.000913 -0.001344 0.019989
#
#
# Mechanical properties :
#
#
# Convention : Reuss Voigt Hill
#
# Bulk Modulus (GPa) = 41.23476 53.70810 47.47143
# Shear Modulus (GPa) = 37.13968 43.86239 40.50103
#
# Velocity S-wave (km/s) = 3.74058 4.06505 3.90618
# Velocity P-wave (km/s) = 5.84727 6.50128 6.18293
#
# Compressibility (1/GPa) = 0.02425139
#
# Stress axis : x y z
#
# Youngs Moduli (GPa) = 100.75501 48.71526 98.04201
#
# Poissons Ratio (x) = 0.12541 0.17067
# Poissons Ratio (y) = 0.25938 0.38092
# Poissons Ratio (z) = 0.17539 0.18927
#
# Static dielectric constant tensor:
#      x y z
#    x 2.179670 0.003090 -0.054130 
#    y 0.003090 2.162780 0.040370 
#    z -0.054130 0.040370 2.129360 
# 
# From -- ./inp_files/522471.got.cif
#   From: 2010.05.17/outbox.cif.g08.bks.cpg/sg2_262_cif.got.tgz:522471.got - 2010.06.03 11:33:40.
