data_PCOD9027855
_publ_section_title
;
Structure prediction by ZEFSAII (Michael W. Deem and Ramdas Pophale) SiO2 
 PCOD9027855
Probable space group: P -1
;
_chemical_formula_sum "Si O2"
_cell_formula_units_Z 16
_cell_length_a 13.152666
_cell_length_b 7.895709
_cell_length_c 8.691337
_cell_angle_alpha 71.447661
_cell_angle_beta 124.712237
_cell_angle_gamma 98.274143
_cell_volume 702.589222
_symmetry_space_group_name_H-M "P -1"
_symmetry_group_IT_number 2
_symmetry_cell_setting 'triclinic'
loop_
_space_group_symop_operation_xyz
x,y,z
-x,-y,-z
loop_
_atom_site_type_symbol
_atom_site_label
_atom_site_fract_x
_atom_site_fract_y
_atom_site_fract_z
Si Si1 0.447900 0.614981 0.779386
Si Si2 0.228331 0.066073 0.463014
Si Si3 0.258342 0.884810 0.080968
Si Si4 0.052010 0.469758 0.878398
Si Si5 0.379158 0.908188 0.876217
Si Si6 0.314137 0.242399 0.199247
Si Si7 0.970157 0.140887 0.297943
Si Si8 0.797135 0.316633 0.606167
O O1 0.408728 0.796910 0.781833
O O2 0.564264 0.649453 0.760988
O O3 0.318815 0.565885 0.601478
O O4 0.500000 0.500000 0.000000
O O5 0.318420 0.162988 0.398300
O O6 0.100118 0.176866 0.322361
O O7 0.275310 0.048570 0.682528
O O8 0.194559 0.873474 0.421113
O O9 0.246478 0.738305 0.244671
O O10 0.314220 0.064456 0.143385
O O11 0.332106 0.814321 0.014886
O O12 0.121375 0.934942 0.884710
O O13 0.081750 0.658714 0.767681
O O14 0.933689 0.391034 0.711771
O O15 0.181799 0.350959 0.028010
O O16 0.000000 0.500000 0.000000
O O17 0.500000 0.000000 0.000000
O O18 0.000000 0.000000 0.500000
#
# Coordination Sequence:
#
# PCOD9027855 Si02
#       8
#     2   2   2   2   2   2   2   2
#     4  11  27  45  65  98 145 179 227 286 351 401
#     4  10  22  41  69  97 137 175 228 275 348 406
#     4  11  22  41  72  98 133 178 232 275 347 405
#     4  12  24  43  70 102 138 171 235 286 338 402
#     4  11  23  41  66  97 136 178 227 279 335 415
#     4  11  24  44  70 100 135 181 227 287 338 413
#     4  12  24  41  68 101 134 176 225 283 340 406
#     4  10  24  44  71 100 135 184 226 284 340 412
#
# _framework density 22.77291
#
# number of rings (size 3 to 8) (size 9 to 14) (size 15 to 20)
#    0.000    1.000    5.000    0.750    3.500    5.500 
#    0.000    3.125    0.000    0.000    0.000    0.000 
#    0.000    0.000    0.000    0.000    0.000    0.000 
#
# Total GULP energy -89300.841285 kJ/mol
# GULP energy per Si atom -5581.302580 kJ/mol
# Density = 2.272108 g / cm^3
# Si number density = 22.772910 Si / 1000 Ang^3
#
#
#
# Elastic Constant Matrix: (Units=GPa)
#
#
# Indices 1 2 3 4 5 6 
#
# 1 70.7134 1.0855 3.2228 4.0348 8.6283 -5.8326
# 2 1.0855 45.6272 13.9640 -11.6376 1.9163 7.8371
# 3 3.2228 13.9640 114.1508 -3.5878 5.4041 2.5185
# 4 4.0348 -11.6376 -3.5878 33.3037 6.4059 -0.2167
# 5 8.6283 1.9163 5.4041 6.4059 39.3823 -1.0473
# 6 -5.8326 7.8371 2.5185 -0.2167 -1.0473 16.6357
#
#
#
# Elastic Compliance Matrix: (Units=1/GPa)
#
#
# Indices 1 2 3 4 5 6 
#
# 1 0.015108 -0.001653 -0.000285 -0.001876 -0.002728 0.005923
# 2 -0.001653 0.027697 -0.002611 0.010013 -0.002609 -0.013266
# 3 -0.000285 -0.002611 0.009158 0.000324 -0.001129 -0.000323
# 4 -0.001876 0.010013 0.000324 0.034895 -0.005939 -0.005343
# 5 -0.002728 -0.002609 -0.001129 -0.005939 0.027293 0.002084
# 6 0.005923 -0.013266 -0.000323 -0.005343 0.002084 0.068549
#
#
# Mechanical properties :
#
#
# Convention : Reuss Voigt Hill
#
# Bulk Modulus (GPa) = 23.32828 29.67066 26.49947
# Shear Modulus (GPa) = 24.26155 32.01228 28.13691
#
# Velocity S-wave (km/s) = 3.26754 3.75336 3.51884
# Velocity P-wave (km/s) = 4.94994 5.64277 5.30767
#
# Compressibility (1/GPa) = 0.04286643
#
# Stress axis : x y z
#
# Youngs Moduli (GPa) = 66.18845 36.10471 109.18842
#
# Poissons Ratio (x) = 0.05970 0.03109
# Poissons Ratio (y) = 0.10944 0.28505
# Poissons Ratio (z) = 0.01885 0.09425
#
# Static dielectric constant tensor:
#      x y z
#    x 1.505970 0.320930 -0.357850 
#    y 0.320930 1.584090 0.293410 
#    z -0.357850 0.293410 1.547640 
# 
# From -- ./inp_files/298003.got.cif
#   From: 2010.05.17/outbox.cif.g08.bks.cpg/sg2_150_cif.got.tgz:298003.got - 2010.06.03 11:33:40.
