data_PCOD9027086
_publ_section_title
;
Structure prediction by ZEFSAII (Michael W. Deem and Ramdas Pophale) SiO2 
 PCOD9027086
Probable space group: P -1
;
_chemical_formula_sum "Si O2"
_cell_formula_units_Z 12
_cell_length_a 7.311480
_cell_length_b 9.424379
_cell_length_c 14.178307
_cell_angle_alpha 53.325345
_cell_angle_beta 38.954628
_cell_angle_gamma 62.491727
_cell_volume 492.628405
_symmetry_space_group_name_H-M "P -1"
_symmetry_group_IT_number 2
_symmetry_cell_setting 'triclinic'
loop_
_space_group_symop_operation_xyz
x,y,z
-x,-y,-z
loop_
_atom_site_type_symbol
_atom_site_label
_atom_site_fract_x
_atom_site_fract_y
_atom_site_fract_z
Si Si1 0.339849 0.128983 0.587155
Si Si2 0.561498 0.474170 0.596125
Si Si3 0.093612 0.608417 0.058765
Si Si4 0.560114 0.750996 0.947210
Si Si5 0.587972 0.092238 0.712178
Si Si6 0.158036 0.097135 0.053402
O O1 0.327764 0.338090 0.484371
O O2 0.504532 0.109592 0.629840
O O3 0.500000 0.000000 0.500000
O O4 0.015925 0.060117 0.765947
O O5 0.500000 0.500000 0.500000
O O6 0.721314 0.282757 0.613985
O O7 0.241368 0.442371 0.778252
O O8 0.269721 0.431694 0.043307
O O9 0.245713 0.699281 0.052294
O O10 0.091344 0.753734 0.920003
O O11 0.593523 0.830292 0.005926
O O12 0.719081 0.898511 0.757849
O O13 0.301263 0.071586 0.903406
#
# Coordination Sequence:
#
# PCOD9027086 Si02
#       6
#     2   2   2   2   2   2
#     4  11  22  40  67  96 129 176 213 262 336 387
#     4   9  21  40  67  89 131 179 208 262 332 389
#     4  10  22  41  66  96 137 166 221 271 324 384
#     4  11  22  38  68 104 125 166 226 277 317 378
#     4  10  22  43  65  94 132 168 224 268 315 387
#     4  11  22  41  71  93 131 174 219 268 325 389
#
# _framework density 24.35913
#
# number of rings (size 3 to 8) (size 9 to 14) (size 15 to 20)
#    0.000    1.667    1.667    2.500    4.667    1.333 
#    0.000    8.333    0.000    0.000    0.000    0.000 
#    0.000    0.000    0.000    0.000    0.000    0.000 
#
# Total GULP energy -66987.811492 kJ/mol
# GULP energy per Si atom -5582.317624 kJ/mol
# Density = 2.430369 g / cm^3
# Si number density = 24.359130 Si / 1000 Ang^3
#
#
#
# Elastic Constant Matrix: (Units=GPa)
#
#
# Indices 1 2 3 4 5 6 
#
# 1 101.6603 41.8951 20.6706 -3.8259 1.2938 14.3495
# 2 41.8951 186.7799 60.2334 -36.8116 -1.1993 25.5401
# 3 20.6706 60.2334 88.9786 -24.8000 -4.4446 14.7240
# 4 -3.8259 -36.8116 -24.8000 44.6789 7.3995 11.4415
# 5 1.2938 -1.1993 -4.4446 7.3995 28.9957 -3.8209
# 6 14.3495 25.5401 14.7240 11.4415 -3.8209 37.4154
#
#
#
# Elastic Compliance Matrix: (Units=1/GPa)
#
#
# Indices 1 2 3 4 5 6 
#
# 1 0.011194 -0.001901 -0.001036 -0.000360 -0.000985 -0.002578
# 2 -0.001901 0.009254 -0.002299 0.008657 -0.003102 -0.007647
# 3 -0.001036 -0.002299 0.016921 0.009530 -0.000902 -0.007698
# 4 -0.000360 0.008657 0.009530 0.042926 -0.012269 -0.023901
# 5 -0.000985 -0.003102 -0.000902 -0.012269 0.038788 0.010563
# 6 -0.002578 -0.007647 -0.007698 -0.023901 0.010563 0.044353
#
#
# Mechanical properties :
#
#
# Convention : Reuss Voigt Hill
#
# Bulk Modulus (GPa) = 37.18212 69.22412 53.20312
# Shear Modulus (GPa) = 27.34120 39.19265 33.26693
#
# Velocity S-wave (km/s) = 3.35389 4.01552 3.69953
# Velocity P-wave (km/s) = 5.50412 7.06959 6.33540
#
# Compressibility (1/GPa) = 0.02689465
#
# Stress axis : x y z
#
# Youngs Moduli (GPa) = 89.33509 108.06455 59.09877
#
# Poissons Ratio (x) = 0.20548 0.06124
# Poissons Ratio (y) = 0.16986 0.13588
# Poissons Ratio (z) = 0.09257 0.24846
#
# Static dielectric constant tensor:
#      x y z
#    x 1.991960 -0.049180 0.135250 
#    y -0.049180 2.149900 0.045340 
#    z 0.135250 0.045340 2.572340 
# 
# From -- ./inp_files/190116.got.cif
#   From: 2010.05.17/outbox.cif.g08.bks.cpg/sg2_96_cif.got.tgz:190116.got - 2010.06.03 11:33:40.
