data_PCOD9027532
_publ_section_title
;
Structure prediction by ZEFSAII (Michael W. Deem and Ramdas Pophale) SiO2 
 PCOD9027532
Probable space group: P -1
;
_chemical_formula_sum "Si O2"
_cell_formula_units_Z 16
_cell_length_a 16.411515
_cell_length_b 8.916477
_cell_length_c 9.494172
_cell_angle_alpha 107.549398
_cell_angle_beta 117.438031
_cell_angle_gamma 30.989999
_cell_volume 621.443123
_symmetry_space_group_name_H-M "P -1"
_symmetry_group_IT_number 2
_symmetry_cell_setting 'triclinic'
loop_
_space_group_symop_operation_xyz
x,y,z
-x,-y,-z
loop_
_atom_site_type_symbol
_atom_site_label
_atom_site_fract_x
_atom_site_fract_y
_atom_site_fract_z
Si Si1 0.538431 0.395481 0.198437
Si Si2 0.860133 0.055050 0.225443
Si Si3 0.669503 0.940461 0.362478
Si Si4 0.509469 0.182986 0.616203
Si Si5 0.001284 0.662017 0.964159
Si Si6 0.184360 0.809917 0.132117
Si Si7 0.658977 0.724246 0.822646
Si Si8 0.139791 0.615200 0.565581
O O1 0.676296 0.230741 0.139412
O O2 0.651697 0.131552 0.326828
O O3 0.495144 0.632311 0.284338
O O4 0.351675 0.579919 0.094862
O O5 0.857566 0.248863 0.278833
O O6 0.957079 0.839162 0.111075
O O7 0.973431 0.861537 0.402283
O O8 0.585982 0.071663 0.489323
O O9 0.530759 0.028929 0.197756
O O10 0.839709 0.588525 0.412648
O O11 0.313247 0.405204 0.551998
O O12 0.631161 0.892870 0.725506
O O13 0.197360 0.408650 0.000291
O O14 0.000000 0.500000 0.000000
O O15 0.872166 0.923704 0.817388
O O16 0.267243 0.560323 0.234128
O O17 0.000000 0.000000 0.000000
#
# Coordination Sequence:
#
# PCOD9027532 Si02
#       8
#     2   2   2   2   2   2   2   2
#     4  10  21  34  51  82 117 146 181 233 283 329
#     4  10  21  37  55  80 115 150 184 223 282 341
#     4  10  18  32  55  83 111 143 186 228 275 333
#     4  10  17  31  58  84 110 143 184 230 276 331
#     4  11  21  36  59  82 107 144 192 239 279 327
#     4   9  20  37  55  77 107 143 188 235 273 322
#     4   9  18  34  55  78 106 140 185 232 274 324
#     4   9  19  35  56  81 112 151 181 218 278 343
#
# _framework density 25.746524000000001
#
# number of rings (size 3 to 8) (size 9 to 14) (size 15 to 20)
#    0.000    2.250    0.000    4.125    0.000    1.000 
#    0.000    5.000    0.000   11.250    0.000    0.000 
#    0.000    0.000    0.000    0.000    0.000    0.000 
#
# Total GULP energy -89146.753498 kJ/mol
# GULP energy per Si atom -5571.672094 kJ/mol
# Density = 2.568792 g / cm^3
# Si number density = 25.746524 Si / 1000 Ang^3
#
#
#
# Elastic Constant Matrix: (Units=GPa)
#
#
# Indices 1 2 3 4 5 6 
#
# 1 146.4939 62.2358 32.6885 -10.9049 -6.5702 23.7651
# 2 62.2358 124.4273 33.2564 -16.7435 -14.4034 46.0343
# 3 32.6885 33.2564 42.5810 -8.1616 0.6331 -2.0501
# 4 -10.9049 -16.7435 -8.1616 50.0218 -4.2610 -5.9710
# 5 -6.5702 -14.4034 0.6331 -4.2610 35.8262 -24.3380
# 6 23.7651 46.0343 -2.0501 -5.9710 -24.3380 72.7495
#
#
#
# Elastic Compliance Matrix: (Units=1/GPa)
#
#
# Indices 1 2 3 4 5 6 
#
# 1 0.009389 -0.002795 -0.005082 0.000065 -0.000362 -0.001558
# 2 -0.002795 0.015888 -0.010344 0.001911 -0.000021 -0.009282
# 3 -0.005082 -0.010344 0.036432 0.002665 0.001298 0.009885
# 4 0.000065 0.001911 0.002665 0.021763 0.004853 0.002254
# 5 -0.000362 -0.000021 0.001298 0.004853 0.037240 0.013025
# 6 -0.001558 -0.009282 0.009885 0.002254 0.013025 0.024949
#
#
# Mechanical properties :
#
#
# Convention : Reuss Voigt Hill
#
# Bulk Modulus (GPa) = 39.57544 63.31818 51.44681
# Shear Modulus (GPa) = 26.24328 44.07426 35.15877
#
# Velocity S-wave (km/s) = 3.19610 4.14194 3.69938
# Velocity P-wave (km/s) = 5.38745 6.89351 6.18648
#
# Compressibility (1/GPa) = 0.02526820
#
# Stress axis : x y z
#
# Youngs Moduli (GPa) = 106.51001 62.93948 27.44833
#
# Poissons Ratio (x) = 0.17589 0.13949
# Poissons Ratio (y) = 0.29765 0.28392
# Poissons Ratio (z) = 0.54129 0.65104
#
# Static dielectric constant tensor:
#      x y z
#    x 2.139800 0.058300 -0.010230 
#    y 0.058300 2.046660 -0.055050 
#    z -0.010230 -0.055050 2.125380 
# 
# From -- ./inp_files/461483.got.cif
#   From: 2010.05.17/outbox.cif.g08.bks.cpg/sg2_231_cif.got.tgz:461483.got - 2010.06.03 11:33:40.
