data_PCOD9027852
_publ_section_title
;
Structure prediction by ZEFSAII (Michael W. Deem and Ramdas Pophale) SiO2 
 PCOD9027852
Probable space group: P -1
;
_chemical_formula_sum "Si O2"
_cell_formula_units_Z 15
_cell_length_a 8.428938
_cell_length_b 7.979303
_cell_length_c 13.865464
_cell_angle_alpha 46.068149
_cell_angle_beta 87.657726
_cell_angle_gamma 98.877638
_cell_volume 649.044375
_symmetry_space_group_name_H-M "P -1"
_symmetry_group_IT_number 2
_symmetry_cell_setting 'triclinic'
loop_
_space_group_symop_operation_xyz
x,y,z
-x,-y,-z
loop_
_atom_site_type_symbol
_atom_site_label
_atom_site_fract_x
_atom_site_fract_y
_atom_site_fract_z
Si Si1 0.686968 0.163167 0.230291
Si Si2 0.087617 0.199837 0.608421
Si Si3 0.800050 0.724411 0.021490
Si Si4 0.168438 0.047130 0.411916
Si Si5 0.500000 0.000000 0.500000
Si Si6 0.783790 0.462021 0.707980
Si Si7 0.529710 0.991905 0.887738
Si Si8 0.058557 0.202826 0.815121
O O1 0.776822 0.445859 0.112782
O O2 0.552145 0.098696 0.345636
O O3 0.610607 0.090846 0.154860
O O4 0.812264 0.001979 0.314532
O O5 0.149464 0.395423 0.447379
O O6 0.115661 0.314192 0.666758
O O7 0.898557 0.070338 0.640669
O O8 0.802251 0.752256 0.126844
O O9 0.654475 0.821447 0.941471
O O10 0.971063 0.919979 0.914614
O O11 0.305083 0.939456 0.499928
O O12 0.238935 0.335358 0.297836
O O13 0.000000 0.000000 0.500000
O O14 0.913201 0.324563 0.801232
O O15 0.622872 0.268162 0.757406
O O16 0.500000 0.000000 0.000000
#
# Coordination Sequence:
#
# PCOD9027852 Si02
#       8
#     2   2   2   2   1   2   2   2
#     4  12  26  44  70 103 139 187 237 286 357 421
#     4  11  23  42  71 105 134 180 234 292 361 421
#     4  10  24  43  63  96 136 186 238 283 346 425
#     4  10  22  44  66 104 140 179 230 278 358 423
#     4  12  26  42  74 108 142 188 230 296 354 418
#     4  10  22  42  64 101 135 180 228 294 354 419
#     4  11  26  44  64  95 141 187 237 289 345 416
#     4  10  22  41  69  97 135 184 232 294 354 413
#
# _framework density 23.110899
#
# number of rings (size 3 to 8) (size 9 to 14) (size 15 to 20)
#    0.000    1.333    2.667    2.400    7.467    3.200 
#    0.000    0.000    0.000    0.000    0.000    0.000 
#    0.000    0.000    0.000    0.000    0.000    0.000 
#
# Total GULP energy -83552.620344 kJ/mol
# GULP energy per Si atom -5570.174690 kJ/mol
# Density = 2.305830 g / cm^3
# Si number density = 23.110899 Si / 1000 Ang^3
#
#
#
# Elastic Constant Matrix: (Units=GPa)
#
#
# Indices 1 2 3 4 5 6 
#
# 1 84.1300 26.7221 22.4451 5.6988 20.9622 24.7291
# 2 26.7221 100.5380 62.0337 -3.6226 -2.1915 30.2869
# 3 22.4451 62.0337 104.8042 -0.4846 11.8947 14.5032
# 4 5.6988 -3.6226 -0.4846 48.1315 3.5706 6.9169
# 5 20.9622 -2.1915 11.8947 3.5706 22.1528 12.4849
# 6 24.7291 30.2869 14.5032 6.9169 12.4849 34.1704
#
#
#
# Elastic Compliance Matrix: (Units=1/GPa)
#
#
# Indices 1 2 3 4 5 6 
#
# 1 0.018285 -0.005462 0.001618 -0.000912 -0.017067 -0.002658
# 2 -0.005462 0.032674 -0.017781 0.004824 0.034709 -0.031119
# 3 0.001618 -0.017781 0.020213 -0.001765 -0.021971 0.014395
# 4 -0.000912 0.004824 -0.001765 0.022210 0.003599 -0.008678
# 5 -0.017067 0.034709 -0.021971 0.003599 0.102601 -0.047304
# 6 -0.002658 -0.031119 0.014395 -0.008678 -0.047304 0.071701
#
#
# Mechanical properties :
#
#
# Convention : Reuss Voigt Hill
#
# Bulk Modulus (GPa) = 35.81445 56.87489 46.34467
# Shear Modulus (GPa) = 15.61317 32.77568 24.19442
#
# Velocity S-wave (km/s) = 2.60200 3.76997 3.23907
# Velocity P-wave (km/s) = 4.95557 6.60403 5.83827
#
# Compressibility (1/GPa) = 0.02792169
#
# Stress axis : x y z
#
# Youngs Moduli (GPa) = 54.68918 30.60498 49.47313
#
# Poissons Ratio (x) = 0.16718 -0.08004
# Poissons Ratio (y) = 0.29874 0.87967
# Poissons Ratio (z) = -0.08847 0.54418
#
# Static dielectric constant tensor:
#      x y z
#    x 1.914850 -0.058230 -0.050950 
#    y -0.058230 1.919080 0.020800 
#    z -0.050950 0.020800 1.903000 
# 
# From -- ./inp_files/494304.got.cif
#   From: 2010.05.17/outbox.cif.g08.bks.cpg/sg2_248_cif.got.tgz:494304.got - 2010.06.03 11:33:40.
