data_PCOD9027195
_publ_section_title
;
Structure prediction by ZEFSAII (Michael W. Deem and Ramdas Pophale) SiO2 
 PCOD9027195
Probable space group: P -1
;
_chemical_formula_sum "Si O2"
_cell_formula_units_Z 16
_cell_length_a 21.465209
_cell_length_b 11.703957
_cell_length_c 9.704421
_cell_angle_alpha 45.796438
_cell_angle_beta 27.547815
_cell_angle_gamma 32.191867
_cell_volume 586.590135
_symmetry_space_group_name_H-M "P -1"
_symmetry_group_IT_number 2
_symmetry_cell_setting 'triclinic'
loop_
_space_group_symop_operation_xyz
x,y,z
-x,-y,-z
loop_
_atom_site_type_symbol
_atom_site_label
_atom_site_fract_x
_atom_site_fract_y
_atom_site_fract_z
Si Si1 0.831512 0.901667 0.206884
Si Si2 0.110804 0.167341 0.560329
Si Si3 0.263714 0.501437 0.690191
Si Si4 0.779072 0.244552 0.819837
Si Si5 0.715509 0.633308 0.950370
Si Si6 0.810438 0.974030 0.780356
Si Si7 0.223933 0.290784 0.736937
Si Si8 0.470095 0.616496 0.312352
O O1 0.820048 0.984368 0.313984
O O2 0.727270 0.834093 0.399309
O O3 0.043050 0.670494 0.988860
O O4 0.813984 0.061321 0.002245
O O5 0.190550 0.276971 0.343308
O O6 0.196068 0.040596 0.357323
O O7 0.887776 0.367285 0.815133
O O8 0.313429 0.380000 0.548125
O O9 0.311951 0.638731 0.531294
O O10 0.338989 0.332768 0.810524
O O11 0.969141 0.187021 0.481611
O O12 0.727317 0.204102 0.811473
O O13 0.625476 0.463150 0.017836
O O14 0.535994 0.739608 0.124406
O O15 0.738916 0.876751 0.081087
O O16 0.000000 0.500000 0.000000
O O17 0.500000 0.500000 0.500000
#
# Coordination Sequence:
#
# PCOD9027195 Si02
#       8
#     2   2   2   2   2   2   2   2
#     4   9  20  33  55  89 109 138 189 238 276 310
#     4  10  17  31  57  86 105 142 187 239 270 317
#     4   9  17  33  55  80 110 147 183 225 279 332
#     4  10  21  37  56  85 113 147 181 233 280 326
#     4   9  17  29  53  82 108 137 190 229 268 320
#     4  10  19  34  57  81 113 143 187 231 276 324
#     4   9  17  32  55  83 113 139 186 238 269 318
#     4  10  20  35  55  83 113 147 185 224 276 343
#
# _framework density 27.276284
#
# number of rings (size 3 to 8) (size 9 to 14) (size 15 to 20)
#    0.000    2.500    2.500    0.000    1.750    0.500 
#    0.000    2.500    0.000   23.250    0.000    0.000 
#    0.000    0.000    0.000    0.000    0.000    0.000 
#
# Total GULP energy -89372.908977 kJ/mol
# GULP energy per Si atom -5585.806811 kJ/mol
# Density = 2.721420 g / cm^3
# Si number density = 27.276284 Si / 1000 Ang^3
#
#
#
# Elastic Constant Matrix: (Units=GPa)
#
#
# Indices 1 2 3 4 5 6 
#
# 1 228.3160 37.8981 43.3805 -4.0374 27.2901 47.0847
# 2 37.8981 53.4234 11.8013 2.5881 15.9216 16.2403
# 3 43.3805 11.8013 65.8777 5.5476 4.8681 13.2471
# 4 -4.0374 2.5881 5.5476 40.4318 11.5397 2.3958
# 5 27.2901 15.9216 4.8681 11.5397 106.7076 17.9702
# 6 47.0847 16.2403 13.2471 2.3958 17.9702 42.2191
#
#
#
# Elastic Compliance Matrix: (Units=1/GPa)
#
#
# Indices 1 2 3 4 5 6 
#
# 1 0.006498 -0.002283 -0.002897 0.001643 -0.000465 -0.005355
# 2 -0.002283 0.022726 -0.001381 -0.000676 -0.001839 -0.004941
# 3 -0.002897 -0.001381 0.017919 -0.002759 0.000770 -0.002031
# 4 0.001643 -0.000676 -0.002759 0.026193 -0.002862 -0.000975
# 5 -0.000465 -0.001839 0.000770 -0.002862 0.010606 -0.003368
# 6 -0.005355 -0.004941 -0.002031 -0.000975 -0.003368 0.033685
#
#
# Mechanical properties :
#
#
# Convention : Reuss Voigt Hill
#
# Bulk Modulus (GPa) = 29.39456 59.30855 44.35155
# Shear Modulus (GPa) = 35.18867 54.84086 45.01477
#
# Velocity S-wave (km/s) = 3.59567 4.48880 4.06683
# Velocity P-wave (km/s) = 5.29513 6.97543 6.19254
#
# Compressibility (1/GPa) = 0.03401990
#
# Stress axis : x y z
#
# Youngs Moduli (GPa) = 153.88517 44.00263 55.80723
#
# Poissons Ratio (x) = 0.10045 0.16169
# Poissons Ratio (y) = 0.35130 0.07709
# Poissons Ratio (z) = 0.44585 0.06079
#
# Static dielectric constant tensor:
#      x y z
#    x 2.147520 -0.075310 0.165860 
#    y -0.075310 1.963300 0.639660 
#    z 0.165860 0.639660 1.199190 
# 
# From -- ./inp_files/345120.got.cif
#   From: 2010.05.17/outbox.cif.g08.bks.cpg/sg2_173_cif.got.tgz:345120.got - 2010.06.03 11:33:40.
