data_PCOD9027908
_publ_section_title
;
Structure prediction by ZEFSAII (Michael W. Deem and Ramdas Pophale) SiO2 
 PCOD9027908
Probable space group: P -1
;
_chemical_formula_sum "Si O2"
_cell_formula_units_Z 12
_cell_length_a 11.562001
_cell_length_b 11.492299
_cell_length_c 15.992951
_cell_angle_alpha 39.118419
_cell_angle_beta 34.337973
_cell_angle_gamma 27.015299
_cell_volume 537.726259
_symmetry_space_group_name_H-M "P -1"
_symmetry_group_IT_number 2
_symmetry_cell_setting 'triclinic'
loop_
_space_group_symop_operation_xyz
x,y,z
-x,-y,-z
loop_
_atom_site_type_symbol
_atom_site_label
_atom_site_fract_x
_atom_site_fract_y
_atom_site_fract_z
Si Si1 0.881462 0.880651 0.609060
Si Si2 0.778218 0.465802 0.550572
Si Si3 0.233848 0.610343 0.856128
Si Si4 0.414775 0.032082 0.420334
Si Si5 0.204159 0.201594 0.113303
Si Si6 0.696576 0.245215 0.086901
O O1 0.631774 0.040546 0.600485
O O2 0.771460 0.861399 0.769719
O O3 0.128433 0.617440 0.555865
O O4 0.000000 0.000000 0.500000
O O5 0.553738 0.451561 0.720215
O O6 0.089025 0.246334 0.531016
O O7 0.624290 0.759238 0.494874
O O8 0.224636 0.710602 0.896052
O O9 0.021944 0.788993 0.805057
O O10 0.140126 0.459470 0.009503
O O11 0.528562 0.163147 0.257437
O O12 0.500000 0.000000 0.000000
O O13 0.500000 0.500000 0.000000
O O14 0.000000 0.000000 0.000000
#
# Coordination Sequence:
#
# PCOD9027908 Si02
#       6
#     2   2   2   2   2   2
#     4  10  22  41  70 100 145 184 235 285 356 416
#     4  10  24  44  70 106 137 186 234 291 353 416
#     4  11  27  43  71 104 143 185 243 294 356 422
#     4  10  24  43  70 100 141 184 238 285 350 421
#     4  11  25  43  69 107 145 185 235 299 354 427
#     4  12  28  48  74 105 144 192 237 295 358 426
#
# _framework density 22.316189000000001
#
# number of rings (size 3 to 8) (size 9 to 14) (size 15 to 20)
#    1.000    0.333    0.000    4.000    9.333    5.333 
#    0.000    0.000    0.000    0.000    0.000    0.000 
#    0.000    0.000    0.000    0.000    0.000    0.000 
#
# Total GULP energy -66936.864231 kJ/mol
# GULP energy per Si atom -5578.072019 kJ/mol
# Density = 2.226540 g / cm^3
# Si number density = 22.316189 Si / 1000 Ang^3
#
#
#
# Elastic Constant Matrix: (Units=GPa)
#
#
# Indices 1 2 3 4 5 6 
#
# 1 155.8777 26.5085 18.2282 18.6742 -13.9642 -0.1297
# 2 26.5085 116.5764 9.5374 20.4425 -6.5508 -6.9042
# 3 18.2282 9.5374 82.4176 21.9311 -7.2003 1.6599
# 4 18.6742 20.4425 21.9311 46.5424 9.2196 -0.0890
# 5 -13.9642 -6.5508 -7.2003 9.2196 47.4573 -4.3335
# 6 -0.1297 -6.9042 1.6599 -0.0890 -4.3335 14.6813
#
#
#
# Elastic Compliance Matrix: (Units=1/GPa)
#
#
# Indices 1 2 3 4 5 6 
#
# 1 0.007185 -0.000957 -0.000557 -0.002686 0.002455 0.000385
# 2 -0.000957 0.010057 0.000425 -0.004735 0.002585 0.005407
# 3 -0.000557 0.000425 0.014520 -0.007502 0.003513 -0.000455
# 4 -0.002686 -0.004735 -0.007502 0.029902 -0.008738 -0.003800
# 5 0.002455 0.002585 0.003513 -0.008738 0.025130 0.008205
# 6 0.000385 0.005407 -0.000455 -0.003800 0.008205 0.073110
#
#
# Mechanical properties :
#
#
# Convention : Reuss Voigt Hill
#
# Bulk Modulus (GPa) = 33.80259 51.49109 42.64684
# Shear Modulus (GPa) = 29.07943 41.77604 35.42774
#
# Velocity S-wave (km/s) = 3.61371 4.33136 3.98871
# Velocity P-wave (km/s) = 5.70893 6.93814 6.35333
#
# Compressibility (1/GPa) = 0.02958353
#
# Stress axis : x y z
#
# Youngs Moduli (GPa) = 139.17774 99.43662 68.87211
#
# Poissons Ratio (x) = 0.09512 0.03837
# Poissons Ratio (y) = 0.13313 -0.02925
# Poissons Ratio (z) = 0.07753 -0.04223
#
# Static dielectric constant tensor:
#      x y z
#    x 1.876710 -0.082070 0.043870 
#    y -0.082070 1.957960 -0.106900 
#    z 0.043870 -0.106900 1.829110 
# 
# From -- ./inp_files/59099.got.cif
#   From: 2010.05.17/outbox.cif.g08.bks.cpg/sg2_30_cif.got.tgz:59099.got - 2010.06.03 11:33:40.
