data_PCOD9027173
_publ_section_title
;
Structure prediction by ZEFSAII (Michael W. Deem and Ramdas Pophale) SiO2 
 PCOD9027173
Probable space group: P -1
;
_chemical_formula_sum "Si O2"
_cell_formula_units_Z 12
_cell_length_a 15.803691
_cell_length_b 5.629341
_cell_length_c 5.599774
_cell_angle_alpha 82.392527
_cell_angle_beta 92.640244
_cell_angle_gamma 111.303391
_cell_volume 460.053204
_symmetry_space_group_name_H-M "P -1"
_symmetry_group_IT_number 2
_symmetry_cell_setting 'triclinic'
loop_
_space_group_symop_operation_xyz
x,y,z
-x,-y,-z
loop_
_atom_site_type_symbol
_atom_site_label
_atom_site_fract_x
_atom_site_fract_y
_atom_site_fract_z
Si Si1 0.876446 0.264745 0.952750
Si Si2 0.619090 0.365507 0.582690
Si Si3 0.275053 0.871170 0.737013
Si Si4 0.450031 0.286048 0.824416
Si Si5 0.965959 0.765407 0.706387
Si Si6 0.774222 0.811419 0.702946
O O1 0.933101 0.453853 0.724405
O O2 0.792980 0.038617 0.860662
O O3 0.817243 0.340896 0.139595
O O4 0.953499 0.183914 0.098940
O O5 0.676266 0.240822 0.445905
O O6 0.526744 0.195385 0.724516
O O7 0.586083 0.551934 0.388522
O O8 0.688285 0.553807 0.756980
O O9 0.361009 0.034991 0.891666
O O10 0.236885 0.069779 0.569929
O O11 0.500000 0.500000 0.000000
O O12 0.866396 0.761485 0.750471
O O13 0.000000 0.000000 0.500000
#
# Coordination Sequence:
#
# PCOD9027173 Si02
#       6
#     2   2   2   2   2   2
#     4  11  25  44  72 105 137 193 238 288 362 416
#     4  10  23  41  66 102 138 185 232 293 351 420
#     4  11  23  42  69 102 141 184 240 290 353 424
#     4  10  22  41  67 100 141 185 231 291 354 420
#     4  11  24  47  70 103 144 185 238 299 350 424
#     4  11  23  44  67  99 141 183 234 295 348 420
#
# _framework density 26.083940999999999
#
# number of rings (size 3 to 8) (size 9 to 14) (size 15 to 20)
#    0.000    1.333    1.667    3.000    0.000    6.667 
#    9.000    0.000    0.000    0.000    0.000    0.000 
#    0.000    0.000    0.000    0.000    0.000    0.000 
#
# Total GULP energy -66939.369156 kJ/mol
# GULP energy per Si atom -5578.280763 kJ/mol
# Density = 2.602457 g / cm^3
# Si number density = 26.083941 Si / 1000 Ang^3
#
#
#
# Elastic Constant Matrix: (Units=GPa)
#
#
# Indices 1 2 3 4 5 6 
#
# 1 194.5251 57.2656 70.4874 -14.6613 3.2748 37.2595
# 2 57.2656 102.4993 42.8564 -12.3123 8.5666 31.6440
# 3 70.4874 42.8564 46.0680 -9.1459 5.7661 15.7217
# 4 -14.6613 -12.3123 -9.1459 54.5424 15.8170 5.5582
# 5 3.2748 8.5666 5.7661 15.8170 18.9585 -0.9019
# 6 37.2595 31.6440 15.7217 5.5582 -0.9019 47.8486
#
#
#
# Elastic Compliance Matrix: (Units=1/GPa)
#
#
# Indices 1 2 3 4 5 6 
#
# 1 0.012745 0.003027 -0.020687 0.000591 0.001984 -0.005161
# 2 0.003027 0.020384 -0.017061 0.006822 -0.010770 -0.011228
# 3 -0.020687 -0.017061 0.071766 0.007083 -0.016327 0.002681
# 4 0.000591 0.006822 0.007083 0.031808 -0.032428 -0.011605
# 5 0.001984 -0.010770 -0.016327 -0.032428 0.090072 0.016407
# 6 -0.005161 -0.011228 0.002681 -0.011605 0.016407 0.033120
#
#
# Mechanical properties :
#
#
# Convention : Reuss Voigt Hill
#
# Bulk Modulus (GPa) = 28.20542 76.03458 52.12000
# Shear Modulus (GPa) = 14.65609 35.76878 25.21243
#
# Velocity S-wave (km/s) = 2.37298 3.70712 3.11237
# Velocity P-wave (km/s) = 4.28309 6.89470 5.73941
#
# Compressibility (1/GPa) = 0.03545418
#
# Stress axis : x y z
#
# Youngs Moduli (GPa) = 78.46012 49.05766 13.93409
#
# Poissons Ratio (x) = -0.14852 0.28826
# Poissons Ratio (y) = -0.23753 0.23773
# Poissons Ratio (z) = 1.62313 0.83698
#
# Static dielectric constant tensor:
#      x y z
#    x 1.988130 -0.092570 -0.065110 
#    y -0.092570 3.024300 -0.011450 
#    z -0.065110 -0.011450 2.108370 
# 
# From -- ./inp_files/11547.got.cif
#   From: 2010.05.17/outbox.cif.g08.bks.cpg/sg2_6_cif.got.tgz:11547.got - 2010.06.03 11:33:40.
