data_PCOD9027793
_publ_section_title
;
Structure prediction by ZEFSAII (Michael W. Deem and Ramdas Pophale) SiO2 
 PCOD9027793
Probable space group: P -1
;
_chemical_formula_sum "Si O2"
_cell_formula_units_Z 16
_cell_length_a 14.248224
_cell_length_b 8.923210
_cell_length_c 9.585477
_cell_angle_alpha 53.981065
_cell_angle_beta 125.299406
_cell_angle_gamma 90.026641
_cell_volume 690.045189
_symmetry_space_group_name_H-M "P -1"
_symmetry_group_IT_number 2
_symmetry_cell_setting 'triclinic'
loop_
_space_group_symop_operation_xyz
x,y,z
-x,-y,-z
loop_
_atom_site_type_symbol
_atom_site_label
_atom_site_fract_x
_atom_site_fract_y
_atom_site_fract_z
Si Si1 0.515883 0.451673 0.206692
Si Si2 0.577742 0.803452 0.568094
Si Si3 0.545537 0.142429 0.877674
Si Si4 0.121258 0.567536 0.702202
Si Si5 0.100087 0.806529 0.068130
Si Si6 0.816550 0.179046 0.586378
Si Si7 0.170779 0.147283 0.836316
Si Si8 0.139268 0.469298 0.085452
O O1 0.416318 0.388994 0.228916
O O2 0.503085 0.644988 0.186257
O O3 0.667572 0.245954 0.462135
O O4 0.500000 0.500000 0.000000
O O5 0.507749 0.820004 0.349471
O O6 0.725414 0.761098 0.684244
O O7 0.500000 0.000000 0.500000
O O8 0.500000 0.000000 0.000000
O O9 0.705979 0.997444 0.079405
O O10 0.189365 0.692046 0.627106
O O11 0.191498 0.318409 0.848599
O O12 0.968323 0.701860 0.444367
O O13 0.113958 0.574130 0.856161
O O14 0.149161 0.976776 0.998882
O O15 0.129623 0.729121 0.294451
O O16 0.176804 0.603884 0.147667
O O17 0.941876 0.934501 0.823453
O O18 0.000000 0.500000 0.000000
#
# Coordination Sequence:
#
# PCOD9027793 Si02
#       8
#     2   2   2   2   2   2   2   2
#     4  12  25  43  71  99 139 177 222 277 340 405
#     4  12  27  47  69  99 138 183 226 279 338 403
#     4  12  25  42  70  99 137 177 227 273 337 409
#     4  10  23  41  66  95 132 169 214 274 325 397
#     4  10  23  41  67  95 128 170 217 274 326 392
#     4  10  22  41  70  95 130 169 223 261 334 394
#     4  10  22  41  69  93 130 170 222 265 332 391
#     4  12  28  41  67  98 136 168 224 277 333 381
#
# _framework density 23.186886000000001
#
# number of rings (size 3 to 8) (size 9 to 14) (size 15 to 20)
#    0.000    1.000    0.000    5.625   10.500    3.000 
#    0.000    0.000    0.000    0.000    0.000    0.000 
#    0.000    0.000    0.000    0.000    0.000    0.000 
#
# Total GULP energy -89440.880517 kJ/mol
# GULP energy per Si atom -5590.055032 kJ/mol
# Density = 2.313411 g / cm^3
# Si number density = 23.186886 Si / 1000 Ang^3
#
#
#
# Elastic Constant Matrix: (Units=GPa)
#
#
# Indices 1 2 3 4 5 6 
#
# 1 131.9185 26.1457 29.5797 -8.7893 13.6125 -19.3344
# 2 26.1457 110.0670 35.0177 0.8156 -16.9865 -29.0844
# 3 29.5797 35.0177 80.5877 4.1127 -0.2307 -17.1385
# 4 -8.7893 0.8156 4.1127 31.4370 -16.5168 -3.4593
# 5 13.6125 -16.9865 -0.2307 -16.5168 48.7294 0.0745
# 6 -19.3344 -29.0844 -17.1385 -3.4593 0.0745 36.4648
#
#
#
# Elastic Compliance Matrix: (Units=1/GPa)
#
#
# Indices 1 2 3 4 5 6 
#
# 1 0.009129 -0.000918 -0.002387 0.002096 -0.002176 0.003190
# 2 -0.000918 0.013985 -0.003989 0.004371 0.006580 0.009194
# 3 -0.002387 -0.003989 0.015742 -0.003255 -0.001757 0.002646
# 4 0.002096 0.004371 -0.003255 0.041309 0.014914 0.006957
# 5 -0.002176 0.006580 -0.001757 0.014914 0.028463 0.004626
# 6 0.003190 0.009194 0.002646 0.006957 0.004626 0.038343
#
#
# Mechanical properties :
#
#
# Convention : Reuss Voigt Hill
#
# Bulk Modulus (GPa) = 41.20390 56.00659 48.60525
# Shear Modulus (GPa) = 29.47271 38.78159 34.12715
#
# Velocity S-wave (km/s) = 3.56911 4.09414 3.84061
# Velocity P-wave (km/s) = 5.89861 6.82321 6.37769
#
# Compressibility (1/GPa) = 0.02426955
#
# Stress axis : x y z
#
# Youngs Moduli (GPa) = 109.53801 71.50461 63.52336
#
# Poissons Ratio (x) = 0.06561 0.15163
# Poissons Ratio (y) = 0.10050 0.25340
# Poissons Ratio (z) = 0.26147 0.28524
#
# Static dielectric constant tensor:
#      x y z
#    x 1.948810 -0.001600 0.030840 
#    y -0.001600 1.890250 -0.004770 
#    z 0.030840 -0.004770 1.899280 
# 
# From -- ./inp_files/297710.got.cif
#   From: 2010.05.17/outbox.cif.g08.bks.cpg/sg2_149_cif.got.tgz:297710.got - 2010.06.03 11:33:40.
