data_PCOD9027537
_publ_section_title
;
Structure prediction by ZEFSAII (Michael W. Deem and Ramdas Pophale) SiO2 
 PCOD9027537
Probable space group: P -1
;
_chemical_formula_sum "Si O2"
_cell_formula_units_Z 12
_cell_length_a 17.605562
_cell_length_b 9.111808
_cell_length_c 5.047123
_cell_angle_alpha 70.314197
_cell_angle_beta 106.194907
_cell_angle_gamma 135.656719
_cell_volume 531.946912
_symmetry_space_group_name_H-M "P -1"
_symmetry_group_IT_number 2
_symmetry_cell_setting 'triclinic'
loop_
_space_group_symop_operation_xyz
x,y,z
-x,-y,-z
loop_
_atom_site_type_symbol
_atom_site_label
_atom_site_fract_x
_atom_site_fract_y
_atom_site_fract_z
Si Si1 0.616159 0.735621 0.430995
Si Si2 0.195314 0.202986 0.308313
Si Si3 0.922539 0.395577 0.737203
Si Si4 0.388370 0.903871 0.811174
Si Si5 0.194919 0.068919 0.902169
Si Si6 0.736246 0.377192 0.638509
O O1 0.500000 0.500000 0.500000
O O2 0.698334 0.756765 0.691172
O O3 0.682622 0.791731 0.187376
O O4 0.607394 0.907383 0.365827
O O5 0.135446 0.022823 0.586229
O O6 0.237570 0.413971 0.364774
O O7 0.153693 0.155887 0.998761
O O8 0.843458 0.435471 0.611876
O O9 0.000000 0.500000 0.500000
O O10 0.000000 0.500000 0.000000
O O11 0.847759 0.142726 0.865764
O O12 0.352462 0.760112 0.600784
O O13 0.302022 0.762321 0.047716
O O14 0.500000 0.000000 0.000000
#
# Coordination Sequence:
#
# PCOD9027537 Si02
#       6
#     2   2   2   2   2   2
#     4  10  23  41  67  95 138 182 226 269 345 407
#     4  10  22  41  68  92 141 177 218 278 351 395
#     4  12  25  45  75 101 130 183 237 287 354 402
#     4  12  25  42  69 101 143 182 231 273 341 415
#     4  10  22  44  64  96 136 175 225 281 342 405
#     4  12  24  47  66 102 140 177 229 296 331 411
#
# _framework density 22.558638999999999
#
# number of rings (size 3 to 8) (size 9 to 14) (size 15 to 20)
#    1.000    0.000    1.667    5.500    0.000    0.667 
#    0.000    5.000    0.000    0.000    0.000    0.000 
#    0.000    0.000    0.000    0.000    0.000    0.000 
#
# Total GULP energy -66888.376037 kJ/mol
# GULP energy per Si atom -5574.031336 kJ/mol
# Density = 2.250729 g / cm^3
# Si number density = 22.558639 Si / 1000 Ang^3
#
#
#
# Elastic Constant Matrix: (Units=GPa)
#
#
# Indices 1 2 3 4 5 6 
#
# 1 73.7530 61.5402 23.8919 -1.8545 -13.2322 -13.9301
# 2 61.5402 109.8931 33.2521 -6.4033 -19.2169 -13.6185
# 3 23.8919 33.2521 106.4408 7.2473 -43.9665 -6.1200
# 4 -1.8545 -6.4033 7.2473 45.4246 1.0068 -10.1681
# 5 -13.2322 -19.2169 -43.9665 1.0068 46.1273 0.5902
# 6 -13.9301 -13.6185 -6.1200 -10.1681 0.5902 32.0818
#
#
#
# Elastic Compliance Matrix: (Units=1/GPa)
#
#
# Indices 1 2 3 4 5 6 
#
# 1 0.026533 -0.013654 -0.001062 0.000584 0.000826 0.005692
# 2 -0.013654 0.018061 -0.001954 0.002758 0.001657 0.002209
# 3 -0.001062 -0.001954 0.016587 -0.003158 0.014752 0.000601
# 4 0.000584 0.002758 -0.003158 0.024947 -0.002350 0.008772
# 5 0.000826 0.001657 0.014752 -0.002350 0.036687 0.002456
# 6 0.005692 0.002209 0.000601 0.008772 0.002456 0.037430
#
#
# Mechanical properties :
#
#
# Convention : Reuss Voigt Hill
#
# Bulk Modulus (GPa) = 35.91606 58.60614 47.26110
# Shear Modulus (GPa) = 24.64693 36.15357 30.40025
#
# Velocity S-wave (km/s) = 3.30899 4.00765 3.67496
# Velocity P-wave (km/s) = 5.52766 6.88846 6.24523
#
# Compressibility (1/GPa) = 0.02784270
#
# Stress axis : x y z
#
# Youngs Moduli (GPa) = 37.68833 55.36706 60.28864
#
# Poissons Ratio (x) = 0.75596 0.06401
# Poissons Ratio (y) = 0.51458 0.11781
# Poissons Ratio (z) = 0.04002 0.10819
#
# Static dielectric constant tensor:
#      x y z
#    x 1.887240 -0.133820 -0.095710 
#    y -0.133820 2.832770 1.147720 
#    z -0.095710 1.147720 3.179170 
# 
# From -- ./inp_files/106750.got.cif
#   From: 2010.05.17/outbox.cif.g08.bks.cpg/sg2_54_cif.got.tgz:106750.got - 2010.06.03 11:33:40.
