data_PCOD9027326
_publ_section_title
;
Structure prediction by ZEFSAII (Michael W. Deem and Ramdas Pophale) SiO2 
 PCOD9027326
Probable space group: P -1
;
_chemical_formula_sum "Si O2"
_cell_formula_units_Z 12
_cell_length_a 5.116137
_cell_length_b 18.490524
_cell_length_c 11.741219
_cell_angle_alpha 25.481696
_cell_angle_beta 69.940025
_cell_angle_gamma 70.691950
_cell_volume 448.260327
_symmetry_space_group_name_H-M "P -1"
_symmetry_group_IT_number 2
_symmetry_cell_setting 'triclinic'
loop_
_space_group_symop_operation_xyz
x,y,z
-x,-y,-z
loop_
_atom_site_type_symbol
_atom_site_label
_atom_site_fract_x
_atom_site_fract_y
_atom_site_fract_z
Si Si1 0.690045 0.123183 0.420911
Si Si2 0.667100 0.188487 0.680050
Si Si3 0.155641 0.359692 0.095652
Si Si4 0.728020 0.132909 0.140705
Si Si5 0.227138 0.094281 0.741022
Si Si6 0.473367 0.513173 0.349464
O O1 0.412939 0.251960 0.269792
O O2 0.780407 0.088322 0.325828
O O3 0.928090 0.228120 0.288041
O O4 0.577783 0.942456 0.733800
O O5 0.532596 0.168757 0.603588
O O6 0.452290 0.322579 0.581530
O O7 0.987473 0.241657 0.562053
O O8 0.725073 0.027513 0.983232
O O9 0.291866 0.426038 0.862511
O O10 0.000000 0.500000 0.000000
O O11 0.880408 0.027777 0.168535
O O12 0.752971 0.331573 0.847693
O O13 0.500000 0.500000 0.500000
#
# Coordination Sequence:
#
# PCOD9027326 Si02
#       6
#     2   2   2   2   2   2
#     4  10  25  45  70 102 136 190 242 283 346 428
#     4  10  23  42  63  99 136 180 232 279 353 417
#     4  11  26  47  73 104 142 187 236 293 351 416
#     4  10  23  44  73 100 142 186 236 291 353 415
#     4  10  22  41  67  95 135 187 225 284 346 420
#     4  11  24  46  71 108 144 183 232 297 357 416
#
# _framework density 26.770161000000002
#
# number of rings (size 3 to 8) (size 9 to 14) (size 15 to 20)
#    0.000    1.667    1.667    0.500    4.667   11.333 
#    3.000    4.167    0.000    0.000    0.000    0.000 
#    0.000    0.000    0.000    0.000    0.000    0.000 
#
# Total GULP energy -66870.936884 kJ/mol
# GULP energy per Si atom -5572.578074 kJ/mol
# Density = 2.670923 g / cm^3
# Si number density = 26.770161 Si / 1000 Ang^3
#
#
#
# Elastic Constant Matrix: (Units=GPa)
#
#
# Indices 1 2 3 4 5 6 
#
# 1 147.0711 33.1124 7.2391 -15.9096 17.9438 25.6844
# 2 33.1124 153.1451 24.7338 -18.2266 15.5702 6.3541
# 3 7.2391 24.7338 89.3048 1.7652 23.6231 3.6962
# 4 -15.9096 -18.2266 1.7652 59.5615 -16.2168 -3.6775
# 5 17.9438 15.5702 23.6231 -16.2168 27.9903 -1.0448
# 6 25.6844 6.3541 3.6962 -3.6775 -1.0448 36.3536
#
#
#
# Elastic Compliance Matrix: (Units=1/GPa)
#
#
# Indices 1 2 3 4 5 6 
#
# 1 0.008948 -0.001282 0.001740 -0.000343 -0.006934 -0.006509
# 2 -0.001282 0.007382 -0.001767 0.001754 -0.000779 -0.000050
# 3 0.001740 -0.001767 0.016372 -0.005486 -0.017264 -0.003636
# 4 -0.000343 0.001754 -0.005486 0.022183 0.016847 0.003222
# 5 -0.006934 -0.000779 -0.017264 0.016847 0.065323 0.010372
# 6 -0.006509 -0.000050 -0.003636 0.003222 0.010372 0.033109
#
#
# Mechanical properties :
#
#
# Convention : Reuss Voigt Hill
#
# Bulk Modulus (GPa) = 33.24023 57.74351 45.49187
# Shear Modulus (GPa) = 30.12742 46.41012 38.26877
#
# Velocity S-wave (km/s) = 3.35835 4.16823 3.78502
# Velocity P-wave (km/s) = 5.24232 6.69197 6.01100
#
# Compressibility (1/GPa) = 0.03008403
#
# Stress axis : x y z
#
# Youngs Moduli (GPa) = 111.75936 135.45913 61.08145
#
# Poissons Ratio (x) = 0.17360 -0.10627
# Poissons Ratio (y) = 0.14322 0.10794
# Poissons Ratio (z) = -0.19445 0.23938
#
# Static dielectric constant tensor:
#      x y z
#    x 2.460230 -0.240120 -0.267610 
#    y -0.240120 2.328890 0.220400 
#    z -0.267610 0.220400 2.410560 
# 
# From -- ./inp_files/369261.got.cif
#   From: 2010.05.17/outbox.cif.g08.bks.cpg/sg2_185_cif.got.tgz:369261.got - 2010.06.03 11:33:40.
