data_PCOD9027867
_publ_section_title
;
Structure prediction by ZEFSAII (Michael W. Deem and Ramdas Pophale) SiO2 
 PCOD9027867
Probable space group: P -1
;
_chemical_formula_sum "Si O2"
_cell_formula_units_Z 15
_cell_length_a 13.040215
_cell_length_b 7.787457
_cell_length_c 13.076472
_cell_angle_alpha 133.990257
_cell_angle_beta 135.601012
_cell_angle_gamma 62.306913
_cell_volume 667.122569
_symmetry_space_group_name_H-M "P -1"
_symmetry_group_IT_number 2
_symmetry_cell_setting 'triclinic'
loop_
_space_group_symop_operation_xyz
x,y,z
-x,-y,-z
loop_
_atom_site_type_symbol
_atom_site_label
_atom_site_fract_x
_atom_site_fract_y
_atom_site_fract_z
Si Si1 0.500000 0.500000 0.500000
Si Si2 0.638706 0.265005 0.306524
Si Si3 0.336840 0.580953 0.929127
Si Si4 0.729124 0.506121 0.783293
Si Si5 0.102720 0.910194 0.187888
Si Si6 0.665760 0.750075 0.032379
Si Si7 0.847999 0.595366 0.466753
Si Si8 0.226496 0.060901 0.122650
O O1 0.578106 0.302197 0.391526
O O2 0.571939 0.366367 0.601810
O O3 0.771518 0.453029 0.448472
O O4 0.690142 0.000140 0.210096
O O5 0.505069 0.284237 0.137200
O O6 0.283025 0.457668 0.944832
O O7 0.253303 0.462361 0.725816
O O8 0.500000 0.500000 0.000000
O O9 0.308212 0.860253 0.035656
O O10 0.851390 0.325286 0.817609
O O11 0.694582 0.670728 0.724119
O O12 0.744729 0.708358 0.964319
O O13 0.203349 0.970745 0.184406
O O14 0.125812 0.131194 0.371377
O O15 0.936226 0.899064 0.021457
O O16 0.000000 0.500000 0.500000
#
# Coordination Sequence:
#
# PCOD9027867 Si02
#       8
#     1   2   2   2   2   2   2   2
#     4  10  24  40  68 104 138 172 240 300 350 402
#     4  10  22  44  66 100 138 185 230 295 351 419
#     4  12  24  43  71 104 134 187 237 290 355 426
#     4  11  23  43  68  99 136 183 233 291 353 415
#     4  11  25  44  68  98 143 186 231 286 355 435
#     4  10  22  41  69  98 133 180 243 281 345 425
#     4  12  25  44  66 102 146 178 228 293 359 419
#     4  11  24  46  69  98 138 184 238 289 351 428
#
# _framework density 22.484625000000001
#
# number of rings (size 3 to 8) (size 9 to 14) (size 15 to 20)
#    0.000    1.067    4.000    2.000    5.600    0.000 
#    0.000    3.333    0.000    0.000    0.000    0.000 
#    0.000    0.000    0.000    0.000    0.000    0.000 
#
# Total GULP energy -83573.518124 kJ/mol
# GULP energy per Si atom -5571.567875 kJ/mol
# Density = 2.243345 g / cm^3
# Si number density = 22.484625 Si / 1000 Ang^3
#
#
#
# Elastic Constant Matrix: (Units=GPa)
#
#
# Indices 1 2 3 4 5 6 
#
# 1 95.0344 33.3555 30.9446 9.3694 -9.5488 -8.3230
# 2 33.3555 158.3406 55.1378 18.2425 -8.9888 -17.5704
# 3 30.9446 55.1378 115.5343 11.6925 -22.3109 -18.2604
# 4 9.3694 18.2425 11.6925 40.8368 -6.0086 -3.6783
# 5 -9.5488 -8.9888 -22.3109 -6.0086 41.1434 2.4540
# 6 -8.3230 -17.5704 -18.2604 -3.6783 2.4540 40.8398
#
#
#
# Elastic Compliance Matrix: (Units=1/GPa)
#
#
# Indices 1 2 3 4 5 6 
#
# 1 0.012022 -0.001539 -0.002030 -0.001261 0.001127 0.000699
# 2 -0.001539 0.008134 -0.003112 -0.002347 -0.000707 0.001626
# 3 -0.002030 -0.003112 0.012286 -0.000589 0.005224 0.003374
# 4 -0.001261 -0.002347 -0.000589 0.026453 0.002697 0.000690
# 5 0.001127 -0.000707 0.005224 0.002697 0.027589 0.000846
# 6 0.000699 0.001626 0.003374 0.000690 0.000846 0.026848
#
#
# Mechanical properties :
#
#
# Convention : Reuss Voigt Hill
#
# Bulk Modulus (GPa) = 52.40760 67.53168 59.96964
# Shear Modulus (GPa) = 37.57896 41.19542 39.38719
#
# Velocity S-wave (km/s) = 4.09261 4.28502 4.18992
# Velocity P-wave (km/s) = 6.75954 7.38794 7.08071
#
# Compressibility (1/GPa) = 0.01908120
#
# Stress axis : x y z
#
# Youngs Moduli (GPa) = 83.17812 122.94183 81.39423
#
# Poissons Ratio (x) = 0.18920 0.16521
# Poissons Ratio (y) = 0.12801 0.25328
# Poissons Ratio (z) = 0.16883 0.38257
#
# Static dielectric constant tensor:
#      x y z
#    x 2.170650 0.044450 0.216070 
#    y 0.044450 1.833030 -0.020750 
#    z 0.216070 -0.020750 2.081820 
# 
# From -- ./inp_files/491555.got.cif
#   From: 2010.05.17/outbox.cif.g08.bks.cpg/sg2_246_cif.got.tgz:491555.got - 2010.06.03 11:33:40.
