data_PCOD9027868
_publ_section_title
;
Structure prediction by ZEFSAII (Michael W. Deem and Ramdas Pophale) SiO2 
 PCOD9027868
Probable space group: P -1
;
_chemical_formula_sum "Si O2"
_cell_formula_units_Z 11
_cell_length_a 13.283509
_cell_length_b 7.735463
_cell_length_c 8.304536
_cell_angle_alpha 37.024944
_cell_angle_beta 60.123969
_cell_angle_gamma 68.055467
_cell_volume 445.083583
_symmetry_space_group_name_H-M "P -1"
_symmetry_group_IT_number 2
_symmetry_cell_setting 'triclinic'
loop_
_space_group_symop_operation_xyz
x,y,z
-x,-y,-z
loop_
_atom_site_type_symbol
_atom_site_label
_atom_site_fract_x
_atom_site_fract_y
_atom_site_fract_z
Si Si1 0.239449 0.616505 0.120607
Si Si2 0.560884 0.404299 0.361133
Si Si3 0.892783 0.231212 0.558359
Si Si4 0.717101 0.907991 0.703752
Si Si5 0.500000 0.500000 0.000000
Si Si6 0.966176 0.178937 0.051220
O O1 0.180247 0.698898 0.273471
O O2 0.229258 0.275658 0.345472
O O3 0.165871 0.745841 0.936450
O O4 0.377097 0.676987 0.958878
O O5 0.500000 0.500000 0.500000
O O6 0.614367 0.096107 0.578035
O O7 0.657698 0.657478 0.050643
O O8 0.474661 0.411869 0.273511
O O9 0.960035 0.520164 0.233503
O O10 0.804450 0.105277 0.589933
O O11 0.986283 0.000681 0.705332
O O12 0.000000 0.000000 0.000000
#
# Coordination Sequence:
#
# PCOD9027868 Si02
#       6
#     2   2   2   2   1   2
#     4  10  23  42  65  99 137 175 237 285 339 427
#     4  11  24  45  69 102 144 188 241 290 343 428
#     4  11  23  43  69  97 136 184 224 288 357 406
#     4  11  25  42  69 103 137 183 235 289 356 417
#     4  10  24  42  70 100 136 188 226 288 358 400
#     4  10  22  41  69  98 133 181 230 283 349 417
#
# _framework density 24.714461
#
# number of rings (size 3 to 8) (size 9 to 14) (size 15 to 20)
#    0.000    1.455    0.000    4.909    0.000   14.545 
#    0.000    3.636    0.000    0.000    0.000    0.000 
#    0.000    0.000    0.000    0.000    0.000    0.000 
#
# Total GULP energy -61365.686464 kJ/mol
# GULP energy per Si atom -5578.698769 kJ/mol
# Density = 2.465821 g / cm^3
# Si number density = 24.714461 Si / 1000 Ang^3
#
#
#
# Elastic Constant Matrix: (Units=GPa)
#
#
# Indices 1 2 3 4 5 6 
#
# 1 137.1884 49.4338 27.2029 -10.8201 22.6541 -3.6368
# 2 49.4338 127.0596 41.8527 -3.4829 25.0311 -9.1136
# 3 27.2029 41.8527 116.1440 -17.3297 7.9529 1.6446
# 4 -10.8201 -3.4829 -17.3297 46.9212 -2.3443 3.9220
# 5 22.6541 25.0311 7.9529 -2.3443 54.7636 0.8057
# 6 -3.6368 -9.1136 1.6446 3.9220 0.8057 53.5387
#
#
#
# Elastic Compliance Matrix: (Units=1/GPa)
#
#
# Indices 1 2 3 4 5 6 
#
# 1 0.008911 -0.002733 -0.000730 0.001462 -0.002270 0.000090
# 2 -0.002733 0.010770 -0.003237 -0.001355 -0.003408 0.001898
# 3 -0.000730 -0.003237 0.010469 0.003579 0.000432 -0.001191
# 4 0.001462 -0.001355 0.003579 0.023058 0.000511 -0.001938
# 5 -0.002270 -0.003408 0.000432 0.000511 0.020732 -0.001097
# 6 0.000090 0.001898 -0.001191 -0.001938 -0.001097 0.019202
#
#
# Mechanical properties :
#
#
# Convention : Reuss Voigt Hill
#
# Bulk Modulus (GPa) = 59.69888 68.59678 64.14783
# Shear Modulus (GPa) = 44.59292 48.50489 46.54890
#
# Velocity S-wave (km/s) = 4.25234 4.43494 4.34460
# Velocity P-wave (km/s) = 6.95110 7.35125 7.15398
#
# Compressibility (1/GPa) = 0.01675073
#
# Stress axis : x y z
#
# Youngs Moduli (GPa) = 112.21773 92.84998 95.52345
#
# Poissons Ratio (x) = 0.25374 0.06975
# Poissons Ratio (y) = 0.30667 0.30917
# Poissons Ratio (z) = 0.08194 0.30052
#
# Static dielectric constant tensor:
#      x y z
#    x 2.030900 0.022360 -0.069170 
#    y 0.022360 1.980890 0.022310 
#    z -0.069170 0.022310 1.976680 
# 
# From -- ./inp_files/291379.got.cif
#   From: 2010.05.17/outbox.cif.g08.bks.cpg/sg2_146_cif.got.tgz:291379.got - 2010.06.03 11:33:40.
