data_PCOD9027160
_publ_section_title
;
Structure prediction by ZEFSAII (Michael W. Deem and Ramdas Pophale) SiO2 
 PCOD9027160
Probable space group: P -1
;
_chemical_formula_sum "Si O2"
_cell_formula_units_Z 15
_cell_length_a 14.150636
_cell_length_b 8.967307
_cell_length_c 11.957106
_cell_angle_alpha 41.269426
_cell_angle_beta 40.427092
_cell_angle_gamma 63.495863
_cell_volume 620.249568
_symmetry_space_group_name_H-M "P -1"
_symmetry_group_IT_number 2
_symmetry_cell_setting 'triclinic'
loop_
_space_group_symop_operation_xyz
x,y,z
-x,-y,-z
loop_
_atom_site_type_symbol
_atom_site_label
_atom_site_fract_x
_atom_site_fract_y
_atom_site_fract_z
Si Si1 0.837485 0.427487 0.127023
Si Si2 0.841958 0.478146 0.715096
Si Si3 0.725851 0.688430 0.889126
Si Si4 0.500000 0.000000 0.000000
Si Si5 0.455577 0.208276 0.361589
Si Si6 0.734011 0.501593 0.561931
Si Si7 0.062296 0.782118 0.050090
Si Si8 0.406888 0.958549 0.310592
O O1 0.797455 0.630271 0.973186
O O2 0.703741 0.288678 0.408454
O O3 0.000000 0.500000 0.000000
O O4 0.855915 0.234439 0.129224
O O5 0.731709 0.464472 0.719348
O O6 0.000000 0.500000 0.500000
O O7 0.824802 0.253280 0.935690
O O8 0.841180 0.690761 0.681088
O O9 0.588913 0.455232 0.114020
O O10 0.658456 0.912517 0.810420
O O11 0.616109 0.279075 0.739307
O O12 0.447114 0.047548 0.886935
O O13 0.321058 0.264132 0.522232
O O14 0.427445 0.131444 0.300574
O O15 0.500000 0.000000 0.500000
O O16 0.905218 0.560759 0.325731
O O17 0.000000 0.000000 0.000000
#
# Coordination Sequence:
#
# PCOD9027160 Si02
#       8
#     2   2   2   1   2   2   2   2
#     4  11  25  45  65  95 140 182 224 282 350 425
#     4   9  20  37  67  94 127 167 225 288 328 397
#     4  11  22  42  68 100 130 180 230 281 352 409
#     4  12  26  42  66  98 144 186 218 282 348 428
#     4  12  23  43  74 102 130 181 234 299 345 403
#     4  11  22  44  67 101 139 177 230 283 352 416
#     4  10  22  41  67 100 130 170 231 289 343 398
#     4  12  24  45  70  98 140 181 236 285 349 415
#
# _framework density 24.183812
#
# number of rings (size 3 to 8) (size 9 to 14) (size 15 to 20)
#    0.000    1.067    4.000    2.800    3.733    0.533 
#    2.400    2.667    0.000    0.000    0.000    0.000 
#    0.000    0.000    0.000    0.000    0.000    0.000 
#
# Total GULP energy -83593.804570 kJ/mol
# GULP energy per Si atom -5572.920305 kJ/mol
# Density = 2.412877 g / cm^3
# Si number density = 24.183812 Si / 1000 Ang^3
#
#
#
# Elastic Constant Matrix: (Units=GPa)
#
#
# Indices 1 2 3 4 5 6 
#
# 1 100.6764 28.1297 21.1926 -15.3747 24.1614 -0.5826
# 2 28.1297 102.5757 27.1436 -2.4903 19.6085 -4.1465
# 3 21.1926 27.1436 94.5777 18.1536 12.8820 14.0119
# 4 -15.3747 -2.4903 18.1536 54.4590 -2.7754 7.2158
# 5 24.1614 19.6085 12.8820 -2.7754 37.9504 0.7720
# 6 -0.5826 -4.1465 14.0119 7.2158 0.7720 39.2075
#
#
#
# Elastic Compliance Matrix: (Units=1/GPa)
#
#
# Indices 1 2 3 4 5 6 
#
# 1 0.013037 -0.001613 -0.002409 0.004051 -0.006358 0.000264
# 2 -0.001613 0.011855 -0.002920 0.000552 -0.004112 0.002253
# 3 -0.002409 -0.002920 0.013801 -0.004938 -0.001915 -0.004330
# 4 0.004051 0.000552 -0.004938 0.021474 0.000425 -0.002077
# 5 -0.006358 -0.004112 -0.001915 0.000425 0.033216 -0.000577
# 6 0.000264 0.002253 -0.004330 -0.002077 -0.000577 0.027689
#
#
# Mechanical properties :
#
#
# Convention : Reuss Voigt Hill
#
# Bulk Modulus (GPa) = 40.30988 50.08461 45.19724
# Shear Modulus (GPa) = 34.91000 41.08098 37.99549
#
# Velocity S-wave (km/s) = 3.80350 4.12600 3.96803
# Velocity P-wave (km/s) = 5.99943 6.59192 6.30264
#
# Compressibility (1/GPa) = 0.02480781
#
# Stress axis : x y z
#
# Youngs Moduli (GPa) = 76.70737 84.35494 72.45593
#
# Poissons Ratio (x) = 0.13609 0.17453
# Poissons Ratio (y) = 0.12375 0.21160
# Poissons Ratio (z) = 0.18477 0.24635
#
# Static dielectric constant tensor:
#      x y z
#    x 3.045970 -4.783720 -1.884770 
#    y -4.783720 26.119480 9.423230 
#    z -1.884770 9.423230 5.678440 
# 
# From -- ./inp_files/285733.got.cif
#   From: 2010.05.17/outbox.cif.g08.bks.cpg/sg2_143_cif.got.tgz:285733.got - 2010.06.03 11:33:40.
