data_PCOD9027673
_publ_section_title
;
Structure prediction by ZEFSAII (Michael W. Deem and Ramdas Pophale) SiO2 
 PCOD9027673
Probable space group: P -1
;
_chemical_formula_sum "Si O2"
_cell_formula_units_Z 12
_cell_length_a 10.644760
_cell_length_b 9.912528
_cell_length_c 18.977206
_cell_angle_alpha 23.160453
_cell_angle_beta 36.663837
_cell_angle_gamma 38.923143
_cell_volume 463.228153
_symmetry_space_group_name_H-M "P -1"
_symmetry_group_IT_number 2
_symmetry_cell_setting 'triclinic'
loop_
_space_group_symop_operation_xyz
x,y,z
-x,-y,-z
loop_
_atom_site_type_symbol
_atom_site_label
_atom_site_fract_x
_atom_site_fract_y
_atom_site_fract_z
Si Si1 0.271199 0.617807 0.006933
Si Si2 0.511033 0.787002 0.416312
Si Si3 0.625561 0.479350 0.253049
Si Si4 0.707878 0.237678 0.825209
Si Si5 0.099639 0.064948 0.262590
Si Si6 0.912928 0.630049 0.661889
O O1 0.297049 0.999288 0.785802
O O2 0.500000 0.500000 0.000000
O O3 0.235120 0.357257 0.085678
O O4 0.082944 0.574972 0.167604
O O5 0.500000 0.500000 0.500000
O O6 0.510237 0.621484 0.572773
O O7 0.287895 0.058207 0.385381
O O8 0.493759 0.466841 0.246496
O O9 0.859704 0.255661 0.260103
O O10 0.646088 0.885530 0.052986
O O11 0.848325 0.386663 0.746964
O O12 0.818763 0.128918 0.752727
O O13 0.087101 0.820305 0.454103
#
# Coordination Sequence:
#
# PCOD9027673 Si02
#       6
#     2   2   2   2   2   2
#     4  10  23  43  73  99 139 184 229 286 347 403
#     4  10  22  41  68  99 138 179 230 283 342 405
#     4  10  25  44  72 101 142 178 238 271 353 405
#     4  11  24  45  76  99 145 182 222 294 345 408
#     4  11  24  46  71 106 139 181 234 283 339 422
#     4  10  23  44  71 104 139 181 234 280 350 410
#
# _framework density 25.905162000000001
#
# number of rings (size 3 to 8) (size 9 to 14) (size 15 to 20)
#    0.000    1.667    0.000    2.500   14.000    2.667 
#    6.000    4.167    0.000    0.000    0.000    0.000 
#    0.000    0.000    0.000    0.000    0.000    0.000 
#
# Total GULP energy -67254.500102 kJ/mol
# GULP energy per Si atom -5604.541675 kJ/mol
# Density = 2.584620 g / cm^3
# Si number density = 25.905162 Si / 1000 Ang^3
#
#
#
# Elastic Constant Matrix: (Units=GPa)
#
#
# Indices 1 2 3 4 5 6 
#
# 1 90.1619 35.7052 11.0174 3.9102 9.6607 3.1536
# 2 35.7052 142.8760 51.7513 21.2391 -1.7395 20.3933
# 3 11.0174 51.7513 199.9708 21.3348 31.4257 26.5002
# 4 3.9102 21.2391 21.3348 31.4620 9.3778 -5.4991
# 5 9.6607 -1.7395 31.4257 9.3778 42.5078 -4.7996
# 6 3.1536 20.3933 26.5002 -5.4991 -4.7996 52.6690
#
#
#
# Elastic Compliance Matrix: (Units=1/GPa)
#
#
# Indices 1 2 3 4 5 6 
#
# 1 0.012848 -0.003783 0.000687 0.001694 -0.003938 0.000168
# 2 -0.003783 0.010119 -0.001874 -0.006767 0.003801 -0.003109
# 3 0.000687 -0.001874 0.007036 -0.002656 -0.005256 -0.003612
# 4 0.001694 -0.006767 -0.002656 0.041337 -0.006967 0.007536
# 5 -0.003938 0.003801 -0.005256 -0.006967 0.030388 0.003450
# 6 0.000168 -0.003109 -0.003612 0.007536 0.003450 0.023099
#
#
# Mechanical properties :
#
#
# Convention : Reuss Voigt Hill
#
# Bulk Modulus (GPa) = 49.84358 69.99519 59.91938
# Shear Modulus (GPa) = 35.34706 47.63009 41.48858
#
# Velocity S-wave (km/s) = 3.69789 4.29258 4.00629
# Velocity P-wave (km/s) = 6.12496 7.18657 6.67690
#
# Compressibility (1/GPa) = 0.02006277
#
# Stress axis : x y z
#
# Youngs Moduli (GPa) = 77.83300 98.82234 142.12891
#
# Poissons Ratio (x) = 0.37389 -0.09764
# Poissons Ratio (y) = 0.29447 0.26631
# Poissons Ratio (z) = -0.05347 0.18517
#
# Static dielectric constant tensor:
#      x y z
#    x 2.034270 -0.091180 -0.007270 
#    y -0.091180 2.042680 0.005100 
#    z -0.007270 0.005100 2.083090 
# 
# From -- ./inp_files/564607.got.cif
#   From: 2010.05.17/outbox.cif.g08.bks.cpg/sg2_283_cif.got.tgz:564607.got - 2010.06.03 11:33:40.
