data_PCOD9027581
_publ_section_title
;
Structure prediction by ZEFSAII (Michael W. Deem and Ramdas Pophale) SiO2 
 PCOD9027581
Probable space group: P -1
;
_chemical_formula_sum "Si O2"
_cell_formula_units_Z 14
_cell_length_a 5.756480
_cell_length_b 13.321412
_cell_length_c 12.905361
_cell_angle_alpha 133.292966
_cell_angle_beta 82.195530
_cell_angle_gamma 121.289536
_cell_volume 575.628170
_symmetry_space_group_name_H-M "P -1"
_symmetry_group_IT_number 2
_symmetry_cell_setting 'triclinic'
loop_
_space_group_symop_operation_xyz
x,y,z
-x,-y,-z
loop_
_atom_site_type_symbol
_atom_site_label
_atom_site_fract_x
_atom_site_fract_y
_atom_site_fract_z
Si Si1 0.719189 0.749357 0.948557
Si Si2 0.978061 0.341415 0.296323
Si Si3 0.543760 0.352324 0.410085
Si Si4 0.818242 0.055512 0.483864
Si Si5 0.101864 0.928137 0.741627
Si Si6 0.822111 0.600714 0.006411
Si Si7 0.060495 0.419172 0.790067
O O1 0.888908 0.757693 0.047874
O O2 0.388984 0.584654 0.868641
O O3 0.879635 0.723552 0.830123
O O4 0.756083 0.924590 0.076316
O O5 0.687192 0.327810 0.284211
O O6 0.879728 0.219643 0.317810
O O7 0.215154 0.544593 0.442604
O O8 0.500000 0.500000 0.500000
O O9 0.244706 0.174946 0.324930
O O10 0.769797 0.997953 0.326570
O O11 0.005888 0.262487 0.618623
O O12 0.500000 0.000000 0.500000
O O13 0.000000 0.000000 0.500000
O O14 0.860383 0.485779 0.843637
O O15 0.500000 0.500000 0.000000
O O16 0.002685 0.645599 0.131732
#
# Coordination Sequence:
#
# PCOD9027581 Si02
#       7
#     2   2   2   2   2   2   2
#     4  11  23  39  68  98 137 177 228 277 355 412
#     4  10  22  41  68  95 134 179 227 283 348 421
#     4   9  21  42  65  92 133 176 229 279 345 405
#     4  12  30  47  75 104 140 185 240 292 354 415
#     4  11  25  42  65  99 139 175 230 290 345 417
#     4   9  21  38  66  93 131 178 230 282 340 414
#     4  10  23  43  67  94 137 178 230 286 351 409
#
# _framework density 24.321255000000001
#
# number of rings (size 3 to 8) (size 9 to 14) (size 15 to 20)
#    0.000    1.714    0.000    2.143   12.000    7.429 
#    0.000    0.000    0.000    0.000    0.000    0.000 
#    0.000    0.000    0.000    0.000    0.000    0.000 
#
# Total GULP energy -78052.246412 kJ/mol
# GULP energy per Si atom -5575.160458 kJ/mol
# Density = 2.426590 g / cm^3
# Si number density = 24.321255 Si / 1000 Ang^3
#
#
#
# Elastic Constant Matrix: (Units=GPa)
#
#
# Indices 1 2 3 4 5 6 
#
# 1 99.3112 47.2627 31.0200 -3.0789 -30.9747 24.4385
# 2 47.2627 91.9457 37.0983 -3.8540 -5.1905 17.6967
# 3 31.0200 37.0983 146.5681 10.0156 -36.5154 16.0329
# 4 -3.0789 -3.8540 10.0156 44.9209 4.6778 -1.9777
# 5 -30.9747 -5.1905 -36.5154 4.6778 37.7260 -5.7746
# 6 24.4385 17.6967 16.0329 -1.9777 -5.7746 48.2753
#
#
#
# Elastic Compliance Matrix: (Units=1/GPa)
#
#
# Indices 1 2 3 4 5 6 
#
# 1 0.021013 -0.010154 0.003613 -0.002451 0.018742 -0.005974
# 2 -0.010154 0.017929 -0.005413 0.003222 -0.011646 -0.000896
# 3 0.003613 -0.005413 0.011272 -0.004213 0.013323 -0.002168
# 4 -0.002451 0.003222 -0.004213 0.024251 -0.008433 0.001443
# 5 0.018742 -0.011646 0.013323 -0.008433 0.053688 -0.003567
# 6 -0.005974 -0.000896 -0.002168 0.001443 -0.003567 0.024419
#
#
# Mechanical properties :
#
#
# Convention : Reuss Voigt Hill
#
# Bulk Modulus (GPa) = 38.01213 63.17632 50.59422
# Shear Modulus (GPa) = 26.99078 41.01405 34.00242
#
# Velocity S-wave (km/s) = 3.33492 4.11097 3.74311
# Velocity P-wave (km/s) = 5.52196 6.96890 6.28719
#
# Compressibility (1/GPa) = 0.02630739
#
# Stress axis : x y z
#
# Youngs Moduli (GPa) = 47.59040 55.77443 88.71267
#
# Poissons Ratio (x) = 0.56633 -0.32054
# Poissons Ratio (y) = 0.48323 0.48018
# Poissons Ratio (z) = -0.17195 0.30189
#
# Static dielectric constant tensor:
#      x y z
#    x 2.148930 -0.013710 0.026010 
#    y -0.013710 1.951450 -0.069100 
#    z 0.026010 -0.069100 2.052540 
# 
# From -- ./inp_files/428396.got.cif
#   From: 2010.05.17/outbox.cif.g08.bks.cpg/sg2_215_cif.got.tgz:428396.got - 2010.06.03 11:33:40.
