data_PCOD9027910
_publ_section_title
;
Structure prediction by ZEFSAII (Michael W. Deem and Ramdas Pophale) SiO2 
 PCOD9027910
Probable space group: P -1
;
_chemical_formula_sum "Si O2"
_cell_formula_units_Z 15
_cell_length_a 9.351623
_cell_length_b 13.005922
_cell_length_c 11.048128
_cell_angle_alpha 113.596874
_cell_angle_beta 68.666705
_cell_angle_gamma 144.642641
_cell_volume 710.804826
_symmetry_space_group_name_H-M "P -1"
_symmetry_group_IT_number 2
_symmetry_cell_setting 'triclinic'
loop_
_space_group_symop_operation_xyz
x,y,z
-x,-y,-z
loop_
_atom_site_type_symbol
_atom_site_label
_atom_site_fract_x
_atom_site_fract_y
_atom_site_fract_z
Si Si1 0.774229 0.709454 0.235500
Si Si2 0.254608 0.516717 0.589268
Si Si3 0.489564 0.912224 0.277602
Si Si4 0.911786 0.984846 0.150881
Si Si5 0.519341 0.176138 0.498392
Si Si6 0.693196 0.654387 0.653241
Si Si7 0.000000 0.000000 0.500000
Si Si8 0.985744 0.383848 0.864172
O O1 0.502373 0.522238 0.283830
O O2 0.896479 0.661179 0.136645
O O3 0.780819 0.804785 0.172528
O O4 0.937376 0.855480 0.362944
O O5 0.288248 0.635004 0.541406
O O6 0.531193 0.632866 0.597348
O O7 0.151167 0.348889 0.470629
O O8 0.127390 0.476126 0.734543
O O9 0.412022 0.801507 0.371956
O O10 0.294051 0.794996 0.175300
O O11 0.523795 0.058427 0.378217
O O12 0.734698 0.989871 0.197836
O O13 0.140585 0.160438 0.243117
O O14 0.000000 0.000000 0.000000
O O15 0.247729 0.076402 0.519157
O O16 0.000000 0.500000 0.000000
#
# Coordination Sequence:
#
# PCOD9027910 Si02
#       8
#     2   2   2   2   2   2   1   2
#     4  11  24  46  74  99 141 189 233 292 345 417
#     4  10  22  41  70 101 127 181 238 284 338 422
#     4  11  26  43  65 105 141 178 229 299 359 396
#     4  12  28  46  69 102 144 189 234 286 354 432
#     4  11  23  41  70 104 141 177 229 300 349 410
#     4  10  23  41  71 108 128 177 248 285 334 416
#     4  12  18  42  76 106 132 186 230 280 366 402
#     4  11  27  47  68  96 143 189 229 287 360 420
#
# _framework density 21.102837999999998
#
# number of rings (size 3 to 8) (size 9 to 14) (size 15 to 20)
#    0.000    1.067    4.000    0.800   11.200    2.133 
#    4.800    1.333    0.000    0.000    0.000    0.000 
#    0.000    0.000    0.000    0.000    0.000    0.000 
#
# Total GULP energy -83635.959142 kJ/mol
# GULP energy per Si atom -5575.730609 kJ/mol
# Density = 2.105481 g / cm^3
# Si number density = 21.102838 Si / 1000 Ang^3
#
#
#
# Elastic Constant Matrix: (Units=GPa)
#
#
# Indices 1 2 3 4 5 6 
#
# 1 74.3454 19.1791 25.6265 0.2434 -26.7987 -9.9460
# 2 19.1791 68.6929 33.1384 -0.6766 1.5212 -26.3597
# 3 25.6265 33.1384 128.2335 17.5824 -27.2182 -11.6351
# 4 0.2434 -0.6766 17.5824 26.1676 -11.0992 3.9813
# 5 -26.7987 1.5212 -27.2182 -11.0992 23.2317 2.0394
# 6 -9.9460 -26.3597 -11.6351 3.9813 2.0394 32.6288
#
#
#
# Elastic Compliance Matrix: (Units=1/GPa)
#
#
# Indices 1 2 3 4 5 6 
#
# 1 0.038071 -0.018054 0.007016 0.023172 0.065036 -0.007371
# 2 -0.018054 0.034409 -0.010680 -0.014063 -0.044328 0.022973
# 3 0.007016 -0.010680 0.014263 0.001904 0.026702 -0.003305
# 4 0.023172 -0.014063 0.001904 0.065166 0.062373 -0.015469
# 5 0.065036 -0.044328 0.026702 0.062373 0.184299 -0.025594
# 6 -0.007371 0.022973 -0.003305 -0.015469 -0.025594 0.049268
#
#
# Mechanical properties :
#
#
# Convention : Reuss Voigt Hill
#
# Bulk Modulus (GPa) = 23.09197 47.46221 35.27709
# Shear Modulus (GPa) = 11.27780 29.29413 20.28597
#
# Velocity S-wave (km/s) = 2.31426 3.72985 3.10383
# Velocity P-wave (km/s) = 4.25528 6.41005 5.44041
#
# Compressibility (1/GPa) = 0.04330510
#
# Stress axis : x y z
#
# Youngs Moduli (GPa) = 26.26681 29.06216 70.11116
#
# Poissons Ratio (x) = 0.52470 -0.49187
# Poissons Ratio (y) = 0.47423 0.74880
# Poissons Ratio (z) = -0.18428 0.31039
#
# Static dielectric constant tensor:
#      x y z
#    x 1.767910 -0.004020 -0.014160 
#    y -0.004020 1.849370 -0.025140 
#    z -0.014160 -0.025140 1.758740 
# 
# From -- ./inp_files/390956.got.cif
#   From: 2010.05.17/outbox.cif.g08.bks.cpg/sg2_196_cif.got.tgz:390956.got - 2010.06.03 11:33:40.
