data_PCOD9027054
_publ_section_title
;
Structure prediction by ZEFSAII (Michael W. Deem and Ramdas Pophale) SiO2 
 PCOD9027054
Probable space group: P -1
;
_chemical_formula_sum "Si O2"
_cell_formula_units_Z 16
_cell_length_a 5.598472
_cell_length_b 21.317504
_cell_length_c 9.293944
_cell_angle_alpha 49.405192
_cell_angle_beta 59.943306
_cell_angle_gamma 54.585625
_cell_volume 672.540496
_symmetry_space_group_name_H-M "P -1"
_symmetry_group_IT_number 2
_symmetry_cell_setting 'triclinic'
loop_
_space_group_symop_operation_xyz
x,y,z
-x,-y,-z
loop_
_atom_site_type_symbol
_atom_site_label
_atom_site_fract_x
_atom_site_fract_y
_atom_site_fract_z
Si Si1 0.836324 0.991751 0.803381
Si Si2 0.742710 0.717794 0.753973
Si Si3 0.411154 0.928541 0.548213
Si Si4 0.087942 0.696198 0.420912
Si Si5 0.667199 0.729469 0.097081
Si Si6 0.160512 0.568418 0.352899
Si Si7 0.592393 0.854454 0.169926
Si Si8 0.641045 0.545318 0.011852
O O1 0.663125 0.029829 0.650006
O O2 0.753104 0.085849 0.774505
O O3 0.149434 0.930466 0.732065
O O4 0.746618 0.925777 0.028809
O O5 0.598509 0.824669 0.620239
O O6 0.047799 0.689964 0.612182
O O7 0.740099 0.710160 0.937699
O O8 0.588762 0.650481 0.843050
O O9 0.500000 0.000000 0.500000
O O10 0.358150 0.722476 0.248711
O O11 0.162996 0.601359 0.464307
O O12 0.775416 0.769204 0.341165
O O13 0.635711 0.823186 0.037617
O O14 0.940867 0.655574 0.205480
O O15 0.468129 0.540334 0.216807
O O16 0.000000 0.500000 0.500000
O O17 0.500000 0.500000 0.000000
O O18 0.000000 0.500000 0.000000
#
# Coordination Sequence:
#
# PCOD9027054 Si02
#       8
#     2   2   2   2   2   2   2   2
#     4  10  22  41  66  95 144 187 251 309 376 452
#     4  12  25  48  75 109 154 193 263 323 389 474
#     4  11  24  42  65 107 142 198 251 309 380 457
#     4  11  24  45  71 104 142 192 251 306 384 460
#     4  11  25  45  72 107 142 199 249 313 393 460
#     4  11  26  50  75 107 152 193 251 320 390 477
#     4  10  22  43  66  99 140 194 245 315 375 455
#     4  12  28  52  81 121 155 208 263 330 409 480
#
# _framework density 23.790389000000001
#
# number of rings (size 3 to 8) (size 9 to 14) (size 15 to 20)
#    0.000    1.000    2.500    3.000    5.250    0.500 
#    9.000    3.125    0.000    0.000    0.000    0.000 
#    0.000    0.000    0.000    0.000    0.000    0.000 
#
# Total GULP energy -89282.006584 kJ/mol
# GULP energy per Si atom -5580.125412 kJ/mol
# Density = 2.373624 g / cm^3
# Si number density = 23.790389 Si / 1000 Ang^3
#
#
#
# Elastic Constant Matrix: (Units=GPa)
#
#
# Indices 1 2 3 4 5 6 
#
# 1 -107.2838 -42.4250 -225.1469 52.5608 -100.1026 -52.4626
# 2 -42.4250 125.5497 -90.8234 53.7818 -62.1426 -26.8752
# 3 -225.1469 -90.8234 -262.4533 99.5732 -154.0264 -89.5207
# 4 52.5608 53.7818 99.5732 47.4000 31.3482 7.8573
# 5 -100.1026 -62.1426 -154.0264 31.3482 -33.0325 -26.6905
# 6 -52.4626 -26.8752 -89.5207 7.8573 -26.6905 4.2511
#
#
#
# Elastic Compliance Matrix: (Units=1/GPa)
#
#
# Indices 1 2 3 4 5 6 
#
# 1 0.019883 -0.005515 -0.007327 0.005382 -0.007903 -0.003346
# 2 -0.005515 0.008354 -0.000884 -0.003625 0.003889 -0.002738
# 3 -0.007327 -0.000884 0.006443 -0.000195 -0.006375 0.000014
# 4 0.005382 -0.003625 -0.000195 0.017740 0.000478 0.009621
# 5 -0.007903 0.003889 -0.006375 0.000478 0.030405 -0.017164
# 6 -0.003346 -0.002738 0.000014 0.009621 -0.017164 0.051384
#
#
# Mechanical properties :
#
#
# Convention : Reuss Voigt Hill
#
# Bulk Modulus (GPa) = 138.32822 -106.77534 15.77644
# Shear Modulus (GPa) = 30.47501 11.33759 20.90630
#
# Velocity S-wave (km/s) = 3.58296 2.18540 2.96762
# Velocity P-wave (km/s) = 8.68260 6.21379 4.28815
#
# Compressibility (1/GPa) = 0.00722918
#
# Stress axis : x y z
#
# Youngs Moduli (GPa) = 50.29494 119.70516 155.20412
#
# Poissons Ratio (x) = 0.66018 1.13714
# Poissons Ratio (y) = 0.27738 0.13713
# Poissons Ratio (z) = 0.36850 0.10576
#
# Static dielectric constant tensor:
#      x y z
#    x 1.962760 -0.035390 0.038520 
#    y -0.035390 1.950410 -0.004390 
#    z 0.038520 -0.004390 1.823000 
# 
# From -- ./inp_files/52577.got.cif
#   From: 2010.05.17/outbox.cif.g08.bks.cpg/sg2_27_cif.got.tgz:52577.got - 2010.06.03 11:33:40.
