data_PCOD9027736
_publ_section_title
;
Structure prediction by ZEFSAII (Michael W. Deem and Ramdas Pophale) SiO2 
 PCOD9027736
Probable space group: P -1
;
_chemical_formula_sum "Si O2"
_cell_formula_units_Z 16
_cell_length_a 13.852331
_cell_length_b 5.441022
_cell_length_c 15.852308
_cell_angle_alpha 84.968583
_cell_angle_beta 37.924610
_cell_angle_gamma 100.464429
_cell_volume 667.330109
_symmetry_space_group_name_H-M "P -1"
_symmetry_group_IT_number 2
_symmetry_cell_setting 'triclinic'
loop_
_space_group_symop_operation_xyz
x,y,z
-x,-y,-z
loop_
_atom_site_type_symbol
_atom_site_label
_atom_site_fract_x
_atom_site_fract_y
_atom_site_fract_z
Si Si1 0.715608 0.357939 0.589059
Si Si2 0.395049 0.041335 0.175250
Si Si3 0.873261 0.610440 0.126521
Si Si4 0.022042 0.913266 0.393779
Si Si5 0.441162 0.351660 0.899816
Si Si6 0.833224 0.111530 0.380590
Si Si7 0.928759 0.923680 0.914849
Si Si8 0.497063 0.733407 0.555250
O O1 0.555799 0.416342 0.732026
O O2 0.893426 0.599055 0.486480
O O3 0.676639 0.082558 0.677641
O O4 0.749558 0.303160 0.471352
O O5 0.512991 0.359672 0.095936
O O6 0.222835 0.980556 0.243072
O O7 0.512360 0.156863 0.906481
O O8 0.683471 0.385014 0.270272
O O9 0.861923 0.814883 0.057195
O O10 0.952530 0.763981 0.154661
O O11 0.000000 0.500000 0.000000
O O12 0.959143 0.069801 0.363550
O O13 0.000000 0.000000 0.500000
O O14 0.242926 0.175957 0.019494
O O15 0.668850 0.832728 0.488816
O O16 0.941777 0.183805 0.217270
O O17 0.500000 0.500000 0.500000
O O18 0.500000 0.000000 0.500000
#
# Coordination Sequence:
#
# PCOD9027736 Si02
#       8
#     2   2   2   2   2   2   2   2
#     4  10  23  38  72 105 141 193 252 306 365 436
#     4  10  22  41  69 103 137 190 246 304 356 433
#     4  11  27  47  80 100 152 199 247 309 388 454
#     4  12  21  42  71 108 151 192 256 311 372 437
#     4  10  23  42  71  99 143 190 250 297 366 446
#     4  12  27  44  74 113 149 198 249 317 373 439
#     4  11  27  49  68 111 149 201 247 307 383 458
#     4  12  29  53  78 115 154 189 256 322 378 446
#
# _framework density 23.976140999999998
#
# number of rings (size 3 to 8) (size 9 to 14) (size 15 to 20)
#    0.750    0.250    3.750    1.125   12.250    1.000 
#    0.000    1.250    0.000    0.000    0.000    0.000 
#    0.000    0.000    0.000    0.000    0.000    0.000 
#
# Total GULP energy -89397.648241 kJ/mol
# GULP energy per Si atom -5587.353015 kJ/mol
# Density = 2.392157 g / cm^3
# Si number density = 23.976141 Si / 1000 Ang^3
#
#
#
# Elastic Constant Matrix: (Units=GPa)
#
#
# Indices 1 2 3 4 5 6 
#
# 1 76.7270 32.5714 30.4681 -11.9682 -22.3346 14.5279
# 2 32.5714 141.8923 25.2903 5.5170 -0.9755 18.0398
# 3 30.4681 25.2903 127.9240 3.7706 -16.3980 13.9462
# 4 -11.9682 5.5170 3.7706 35.6955 -1.3321 0.8790
# 5 -22.3346 -0.9755 -16.3980 -1.3321 42.3644 -7.1689
# 6 14.5279 18.0398 13.9462 0.8790 -7.1689 42.9642
#
#
#
# Elastic Compliance Matrix: (Units=1/GPa)
#
#
# Indices 1 2 3 4 5 6 
#
# 1 0.020421 -0.004078 -0.002783 0.008192 0.009362 -0.002895
# 2 -0.004078 0.008496 -0.000722 -0.002647 -0.002715 -0.002353
# 3 -0.002783 -0.000722 0.009043 -0.001679 0.001732 -0.001368
# 4 0.008192 -0.002647 -0.001679 0.031538 0.004427 -0.001020
# 5 0.009362 -0.002715 0.001732 0.004427 0.029672 0.002272
# 6 -0.002895 -0.002353 -0.001368 -0.001020 0.002272 0.026086
#
#
# Mechanical properties :
#
#
# Convention : Reuss Voigt Hill
#
# Bulk Modulus (GPa) = 43.87067 58.13366 51.00217
# Shear Modulus (GPa) = 33.77930 41.41905 37.59918
#
# Velocity S-wave (km/s) = 3.75757 4.16084 3.96434
# Velocity P-wave (km/s) = 6.09615 6.88350 6.50176
#
# Compressibility (1/GPa) = 0.02279427
#
# Stress axis : x y z
#
# Youngs Moduli (GPa) = 48.97010 117.70678 110.57788
#
# Poissons Ratio (x) = 0.47996 0.30777
# Poissons Ratio (y) = 0.19968 0.07982
# Poissons Ratio (z) = 0.13630 0.08497
#
# Static dielectric constant tensor:
#      x y z
#    x 1.970330 -0.023550 0.063160 
#    y -0.023550 1.966210 -0.028660 
#    z 0.063160 -0.028660 1.928010 
# 
# From -- ./inp_files/139080.got.cif
#   From: 2010.05.17/outbox.cif.g08.bks.cpg/sg2_70_cif.got.tgz:139080.got - 2010.06.03 11:33:40.
