data_PCOD9027730
_publ_section_title
;
Structure prediction by ZEFSAII (Michael W. Deem and Ramdas Pophale) SiO2 
 PCOD9027730
Probable space group: P -1
;
_chemical_formula_sum "Si O2"
_cell_formula_units_Z 16
_cell_length_a 9.625872
_cell_length_b 16.674819
_cell_length_c 6.820798
_cell_angle_alpha 124.540362
_cell_angle_beta 91.617513
_cell_angle_gamma 121.690679
_cell_volume 679.254269
_symmetry_space_group_name_H-M "P -1"
_symmetry_group_IT_number 2
_symmetry_cell_setting 'triclinic'
loop_
_space_group_symop_operation_xyz
x,y,z
-x,-y,-z
loop_
_atom_site_type_symbol
_atom_site_label
_atom_site_fract_x
_atom_site_fract_y
_atom_site_fract_z
Si Si1 0.336634 0.309789 0.783231
Si Si2 0.611167 0.476793 0.340138
Si Si3 0.168140 0.999676 0.023004
Si Si4 0.796454 0.949334 0.454385
Si Si5 0.507452 0.720952 0.613875
Si Si6 0.065351 0.789882 0.268476
Si Si7 0.845337 0.359002 0.698381
Si Si8 0.969950 0.272939 0.279625
O O1 0.320289 0.202518 0.765776
O O2 0.367774 0.293950 0.537005
O O3 0.145719 0.280158 0.772695
O O4 0.516561 0.435672 0.067419
O O5 0.500000 0.500000 0.500000
O O6 0.590987 0.371414 0.329750
O O7 0.817212 0.607475 0.512277
O O8 0.226629 0.028740 0.292504
O O9 0.348771 0.128600 0.106160
O O10 0.098999 0.857442 0.794722
O O11 0.000000 0.000000 0.000000
O O12 0.806731 0.055297 0.486031
O O13 0.000000 0.000000 0.500000
O O14 0.350706 0.680751 0.396215
O O15 0.148642 0.734745 0.299988
O O16 0.056083 0.758441 0.994515
O O17 0.880878 0.329289 0.442904
O O18 0.000000 0.500000 0.000000
#
# Coordination Sequence:
#
# PCOD9027730 Si02
#       8
#     2   2   2   2   2   2   2   2
#     4  10  22  41  69 103 135 170 228 297 340 398
#     4  12  24  39  67 103 136 171 233 290 344 397
#     4  10  22  41  70 101 135 169 225 296 349 395
#     4   8  18  35  62 100 127 167 218 275 348 403
#     4  11  27  45  68 105 138 179 234 279 345 415
#     4  10  22  42  70  97 133 180 229 280 349 404
#     4  12  28  46  66  96 145 195 228 272 340 421
#     4  11  25  44  68 100 138 185 228 281 346 410
#
# _framework density 23.555243999999998
#
# number of rings (size 3 to 8) (size 9 to 14) (size 15 to 20)
#    0.000    1.500    1.250    2.250   10.500    4.000 
#    0.000    5.625    0.000    0.000    0.000    0.000 
#    0.000    0.000    0.000    0.000    0.000    0.000 
#
# Total GULP energy -89338.779651 kJ/mol
# GULP energy per Si atom -5583.673728 kJ/mol
# Density = 2.350163 g / cm^3
# Si number density = 23.555244 Si / 1000 Ang^3
#
#
#
# Elastic Constant Matrix: (Units=GPa)
#
#
# Indices 1 2 3 4 5 6 
#
# 1 79.7385 32.1588 20.2279 5.7644 -1.4755 -9.6301
# 2 32.1588 137.2201 34.2441 8.7752 9.1506 -22.9033
# 3 20.2279 34.2441 121.4008 12.9311 3.6679 -3.5652
# 4 5.7644 8.7752 12.9311 46.4146 3.7575 -3.3764
# 5 -1.4755 9.1506 3.6679 3.7575 38.4807 -7.9273
# 6 -9.6301 -22.9033 -3.5652 -3.3764 -7.9273 39.5619
#
#
#
# Elastic Compliance Matrix: (Units=1/GPa)
#
#
# Indices 1 2 3 4 5 6 
#
# 1 0.014370 -0.002705 -0.001536 -0.000843 0.001854 0.002093
# 2 -0.002705 0.009220 -0.001941 -0.000462 -0.001196 0.004226
# 3 -0.001536 -0.001941 0.009245 -0.002048 -0.000471 -0.000933
# 4 -0.000843 -0.000462 -0.002048 0.022515 -0.001737 0.000916
# 5 0.001854 -0.001196 -0.000471 -0.001737 0.027608 0.005100
# 6 0.002093 0.004226 -0.000933 0.000916 0.005100 0.029249
#
#
# Mechanical properties :
#
#
# Convention : Reuss Voigt Hill
#
# Bulk Modulus (GPa) = 48.84608 56.84678 52.84643
# Shear Modulus (GPa) = 38.05362 41.67336 39.86349
#
# Velocity S-wave (km/s) = 4.02370 4.21072 4.11827
# Velocity P-wave (km/s) = 6.50912 6.91563 6.71545
#
# Compressibility (1/GPa) = 0.02047247
#
# Stress axis : x y z
#
# Youngs Moduli (GPa) = 69.59183 108.45612 108.16086
#
# Poissons Ratio (x) = 0.29333 0.16614
# Poissons Ratio (y) = 0.18822 0.20991
# Poissons Ratio (z) = 0.10690 0.21048
#
# Static dielectric constant tensor:
#      x y z
#    x 1.828030 -0.019110 -0.077090 
#    y -0.019110 2.043710 -0.017310 
#    z -0.077090 -0.017310 1.979460 
# 
# From -- ./inp_files/218660.got.cif
#   From: 2010.05.17/outbox.cif.g08.bks.cpg/sg2_110_cif.got.tgz:218660.got - 2010.06.03 11:33:40.
