data_PCOD9027597
_publ_section_title
;
Structure prediction by ZEFSAII (Michael W. Deem and Ramdas Pophale) SiO2 
 PCOD9027597
Probable space group: P -1
;
_chemical_formula_sum "Si O2"
_cell_formula_units_Z 16
_cell_length_a 22.916639
_cell_length_b 5.808069
_cell_length_c 7.608964
_cell_angle_alpha 56.909952
_cell_angle_beta 134.345955
_cell_angle_gamma 109.248003
_cell_volume 604.508910
_symmetry_space_group_name_H-M "P -1"
_symmetry_group_IT_number 2
_symmetry_cell_setting 'triclinic'
loop_
_space_group_symop_operation_xyz
x,y,z
-x,-y,-z
loop_
_atom_site_type_symbol
_atom_site_label
_atom_site_fract_x
_atom_site_fract_y
_atom_site_fract_z
Si Si1 0.736445 0.158537 0.020173
Si Si2 0.570193 0.775959 0.318000
Si Si3 0.084100 0.079973 0.924664
Si Si4 0.336063 0.762369 0.800477
Si Si5 0.094972 0.756946 0.455028
Si Si6 0.480945 0.322246 0.345028
Si Si7 0.164614 0.549358 0.106674
Si Si8 0.196212 0.397276 0.611770
O O1 0.670273 0.191840 0.020016
O O2 0.826443 0.175948 0.293566
O O3 0.742430 0.852411 0.085935
O O4 0.745059 0.384605 0.796593
O O5 0.556096 0.469829 0.347463
O O6 0.546377 0.697366 0.498227
O O7 0.646758 0.951188 0.374163
O O8 0.500000 0.000000 0.000000
O O9 0.988998 0.174716 0.648563
O O10 0.125728 0.356399 0.960433
O O11 0.085745 0.916091 0.183227
O O12 0.120493 0.846044 0.958897
O O13 0.249548 0.659550 0.610755
O O14 0.404505 0.509348 0.021171
O O15 0.119132 0.449939 0.554814
O O16 0.500000 0.000000 0.500000
O O17 0.170460 0.367934 0.370410
#
# Coordination Sequence:
#
# PCOD9027597 Si02
#       8
#     2   2   2   2   2   2   2   2
#     4  11  24  41  62  90 134 176 226 278 333 413
#     4   9  21  42  67  98 135 167 215 268 327 398
#     4  10  22  41  68  96 128 179 227 292 353 396
#     4  10  24  42  64  95 135 183 222 272 343 401
#     4   9  21  40  65  90 132 170 232 281 346 405
#     4  10  22  42  71 102 135 167 221 276 325 404
#     4  11  25  41  67  96 134 177 235 286 341 404
#     4  10  23  42  61  91 132 179 222 279 335 409
#
# _framework density 26.467763999999999
#
# number of rings (size 3 to 8) (size 9 to 14) (size 15 to 20)
#    0.000    2.000    1.250    0.000    5.250   10.500 
#    0.000    0.000    0.000    0.000    0.000    0.000 
#    0.000    0.000    0.000    0.000    0.000    0.000 
#
# Total GULP energy -89197.948495 kJ/mol
# GULP energy per Si atom -5574.871781 kJ/mol
# Density = 2.640752 g / cm^3
# Si number density = 26.467764 Si / 1000 Ang^3
#
#
#
# Elastic Constant Matrix: (Units=GPa)
#
#
# Indices 1 2 3 4 5 6 
#
# 1 120.6678 51.3657 26.2446 -12.3547 -4.4486 -0.4579
# 2 51.3657 117.1485 36.2033 -48.7343 -0.9512 17.2245
# 3 26.2446 36.2033 87.7572 -23.2669 3.4326 -0.7927
# 4 -12.3547 -48.7343 -23.2669 54.0314 -6.6144 -2.6019
# 5 -4.4486 -0.9512 3.4326 -6.6144 44.3867 7.8481
# 6 -0.4579 17.2245 -0.7927 -2.6019 7.8481 28.2380
#
#
#
# Elastic Compliance Matrix: (Units=1/GPa)
#
#
# Indices 1 2 3 4 5 6 
#
# 1 0.011016 -0.006508 -0.001597 -0.003875 -0.000160 0.003791
# 2 -0.006508 0.020810 -0.002669 0.016090 0.004640 -0.012681
# 3 -0.001597 -0.002669 0.013891 0.003179 -0.001285 0.002642
# 4 -0.003875 0.016090 0.003179 0.033863 0.006242 -0.008403
# 5 -0.000160 0.004640 -0.001285 0.006242 0.025291 -0.009323
# 6 0.003791 -0.012681 0.002642 -0.008403 -0.009323 0.045101
#
#
# Mechanical properties :
#
#
# Convention : Reuss Voigt Hill
#
# Bulk Modulus (GPa) = 41.37320 61.46676 51.41998
# Shear Modulus (GPa) = 27.84359 39.44856 33.64607
#
# Velocity S-wave (km/s) = 3.24694 3.86481 3.56927
# Velocity P-wave (km/s) = 5.45182 6.57186 6.03787
#
# Compressibility (1/GPa) = 0.02417023
#
# Stress axis : x y z
#
# Youngs Moduli (GPa) = 90.77385 48.05391 71.99073
#
# Poissons Ratio (x) = 0.31271 0.11496
# Poissons Ratio (y) = 0.59072 0.19214
# Poissons Ratio (z) = 0.14496 0.12825
#
# Static dielectric constant tensor:
#      x y z
#    x 2.044040 0.137160 0.048540 
#    y 0.137160 1.798360 -0.081650 
#    z 0.048540 -0.081650 2.158820 
# 
# From -- ./inp_files/141225.got.cif
#   From: 2010.05.17/outbox.cif.g08.bks.cpg/sg2_71_cif.got.tgz:141225.got - 2010.06.03 11:33:40.
