data_PCOD9027904
_publ_section_title
;
Structure prediction by ZEFSAII (Michael W. Deem and Ramdas Pophale) SiO2 
 PCOD9027904
Probable space group: P -1
;
_chemical_formula_sum "Si O2"
_cell_formula_units_Z 13
_cell_length_a 9.049503
_cell_length_b 14.951988
_cell_length_c 14.878198
_cell_angle_alpha 19.792040
_cell_angle_beta 122.451426
_cell_angle_gamma 127.319920
_cell_volume 537.797292
_symmetry_space_group_name_H-M "P -1"
_symmetry_group_IT_number 2
_symmetry_cell_setting 'triclinic'
loop_
_space_group_symop_operation_xyz
x,y,z
-x,-y,-z
loop_
_atom_site_type_symbol
_atom_site_label
_atom_site_fract_x
_atom_site_fract_y
_atom_site_fract_z
Si Si1 0.764291 0.697496 0.566003
Si Si2 0.324793 0.600585 0.853024
Si Si3 0.194112 0.088456 0.036287
Si Si4 0.774321 0.429742 0.512005
Si Si5 0.500000 0.500000 0.500000
Si Si6 0.846851 0.023336 0.661202
Si Si7 0.204747 0.721651 0.885349
O O1 0.609442 0.646929 0.486897
O O2 0.961501 0.765700 0.516143
O O3 0.786159 0.967707 0.379549
O O4 0.728198 0.421769 0.874898
O O5 0.298937 0.830342 0.558713
O O6 0.324156 0.729099 0.828980
O O7 0.500000 0.500000 0.000000
O O8 0.167858 0.287169 0.085675
O O9 0.306434 0.907812 0.200120
O O10 0.160645 0.010029 0.202760
O O11 0.286308 0.418583 0.734294
O O12 0.000000 0.000000 0.000000
O O13 0.705050 0.529497 0.486352
O O14 0.000000 0.500000 0.500000
O O15 0.000000 0.500000 0.000000
#
# Coordination Sequence:
#
# PCOD9027904 Si02
#       7
#     2   2   2   2   1   2   2
#     4  12  26  45  78 109 149 197 242 317 366 454
#     4  12  27  45  72 109 142 184 259 310 374 446
#     4  10  22  41  70 100 141 193 240 286 364 445
#     4  10  23  45  68  97 153 195 243 300 353 448
#     4  12  30  48  74 122 152 196 262 292 386 462
#     4  12  23  45  75 104 146 201 239 306 382 443
#     4  12  24  49  75 102 144 193 255 303 375 428
#
# _framework density 24.172677
#
# number of rings (size 3 to 8) (size 9 to 14) (size 15 to 20)
#    0.000    0.615    3.077    4.615    0.000   11.077 
#    0.000    0.000    0.000    0.000    0.000    0.000 
#    0.000    0.000    0.000    0.000    0.000    0.000 
#
# Total GULP energy -72411.536048 kJ/mol
# GULP energy per Si atom -5570.118158 kJ/mol
# Density = 2.411766 g / cm^3
# Si number density = 24.172677 Si / 1000 Ang^3
#
#
#
# Elastic Constant Matrix: (Units=GPa)
#
#
# Indices 1 2 3 4 5 6 
#
# 1 141.6604 39.1429 30.0428 19.8369 13.3776 -24.1922
# 2 39.1429 88.2446 19.8475 15.2647 3.2083 -12.4692
# 3 30.0428 19.8475 172.1966 16.7758 13.4933 -16.4476
# 4 19.8369 15.2647 16.7758 22.5188 -4.1653 -10.8034
# 5 13.3776 3.2083 13.4933 -4.1653 29.2811 0.2195
# 6 -24.1922 -12.4692 -16.4476 -10.8034 0.2195 44.4145
#
#
#
# Elastic Compliance Matrix: (Units=1/GPa)
#
#
# Indices 1 2 3 4 5 6 
#
# 1 0.009639 -0.002584 -0.000110 -0.006128 -0.004964 0.003018
# 2 -0.002584 0.013863 -0.000331 -0.006738 -0.001150 0.000729
# 3 -0.000110 -0.000331 0.006738 -0.004815 -0.003713 0.001190
# 4 -0.006128 -0.006738 -0.004815 0.064893 0.014923 0.008698
# 5 -0.004964 -0.001150 -0.003713 0.014923 0.040387 -0.000972
# 6 0.003018 0.000729 0.001190 0.008698 -0.000972 0.026925
#
#
# Mechanical properties :
#
#
# Convention : Reuss Voigt Hill
#
# Bulk Modulus (GPa) = 41.33732 64.46312 52.90022
# Shear Modulus (GPa) = 28.31949 40.11411 34.21680
#
# Velocity S-wave (km/s) = 3.42650 4.07809 3.76642
# Velocity P-wave (km/s) = 5.72648 6.99286 6.39111
#
# Compressibility (1/GPa) = 0.02419122
#
# Stress axis : x y z
#
# Youngs Moduli (GPa) = 103.74906 72.13464 148.40710
#
# Poissons Ratio (x) = 0.18638 0.01626
# Poissons Ratio (y) = 0.26807 0.04911
# Poissons Ratio (z) = 0.01136 0.02387
#
# Static dielectric constant tensor:
#      x y z
#    x 1.968270 -0.011540 0.055510 
#    y -0.011540 1.691060 0.104450 
#    z 0.055510 0.104450 1.883820 
# 
# From -- ./inp_files/503533.got.cif
#   From: 2010.05.17/outbox.cif.g08.bks.cpg/sg2_252_cif.got.tgz:503533.got - 2010.06.03 11:33:40.
