data_PCOD9027360
_publ_section_title
;
Structure prediction by ZEFSAII (Michael W. Deem and Ramdas Pophale) SiO2 
 PCOD9027360
Probable space group: P -1
;
_chemical_formula_sum "Si O2"
_cell_formula_units_Z 16
_cell_length_a 15.053658
_cell_length_b 11.868019
_cell_length_c 8.328656
_cell_angle_alpha 69.725522
_cell_angle_beta 114.085494
_cell_angle_gamma 150.975344
_cell_volume 658.910417
_symmetry_space_group_name_H-M "P -1"
_symmetry_group_IT_number 2
_symmetry_cell_setting 'triclinic'
loop_
_space_group_symop_operation_xyz
x,y,z
-x,-y,-z
loop_
_atom_site_type_symbol
_atom_site_label
_atom_site_fract_x
_atom_site_fract_y
_atom_site_fract_z
Si Si1 0.575109 0.848304 0.528981
Si Si2 0.850487 0.664768 0.575450
Si Si3 0.825190 0.599648 0.214670
Si Si4 0.291285 0.246114 0.425153
Si Si5 0.796685 0.295991 0.370703
Si Si6 0.419568 0.203473 0.060244
Si Si7 0.885217 0.269440 0.116414
Si Si8 0.844227 0.935681 0.920953
O O1 0.362509 0.609947 0.430837
O O2 0.705845 0.897810 0.489396
O O3 0.647841 0.059127 0.470125
O O4 0.584378 0.822805 0.736543
O O5 0.877239 0.702007 0.381684
O O6 0.840303 0.789618 0.578804
O O7 0.984976 0.709169 0.742261
O O8 0.754033 0.389867 0.289367
O O9 0.016481 0.805132 0.150060
O O10 0.638912 0.457976 0.063394
O O11 0.500000 0.500000 0.500000
O O12 0.278764 0.239458 0.229782
O O13 0.809382 0.253661 0.226251
O O14 0.000000 0.500000 0.500000
O O15 0.281907 0.174189 0.963136
O O16 0.297507 0.973151 0.995292
O O17 0.000000 0.500000 0.000000
O O18 0.000000 0.000000 0.000000
#
# Coordination Sequence:
#
# PCOD9027360 Si02
#       8
#     2   2   2   2   2   2   2   2
#     4   9  21  42  69  92 130 176 221 271 333 401
#     4  10  22  41  67  97 129 174 223 275 335 393
#     4  11  25  44  68  96 133 183 227 272 338 411
#     4   9  19  40  66  97 128 166 223 278 326 394
#     4  12  23  42  66  95 131 174 222 271 336 399
#     4  10  24  44  64 100 134 174 227 274 334 401
#     4  12  25  40  63  99 136 174 224 279 333 397
#     4  11  23  45  68  94 139 181 217 281 346 394
#
# _framework density 24.282509999999998
#
# number of rings (size 3 to 8) (size 9 to 14) (size 15 to 20)
#    0.000    1.500    1.250    4.500    1.750    2.500 
#    9.000    0.000    0.000    0.000    0.000    0.000 
#    0.000    0.000    0.000    0.000    0.000    0.000 
#
# Total GULP energy -89249.004629 kJ/mol
# GULP energy per Si atom -5578.062789 kJ/mol
# Density = 2.422724 g / cm^3
# Si number density = 24.282510 Si / 1000 Ang^3
#
#
#
# Elastic Constant Matrix: (Units=GPa)
#
#
# Indices 1 2 3 4 5 6 
#
# 1 125.5122 20.7579 25.4685 14.3633 -2.6350 -9.8532
# 2 20.7579 114.9076 34.4422 25.7850 7.6805 1.9725
# 3 25.4685 34.4422 77.4209 32.5136 -0.8641 -4.8548
# 4 14.3633 25.7850 32.5136 47.4668 -9.2786 2.6816
# 5 -2.6350 7.6805 -0.8641 -9.2786 33.4632 8.4704
# 6 -9.8532 1.9725 -4.8548 2.6816 8.4704 42.6451
#
#
#
# Elastic Compliance Matrix: (Units=1/GPa)
#
#
# Indices 1 2 3 4 5 6 
#
# 1 0.008765 -0.000811 -0.002020 -0.000915 0.000097 0.001871
# 2 -0.000811 0.010962 -0.002703 -0.004635 -0.003954 0.000075
# 3 -0.002020 -0.002703 0.020283 -0.012673 -0.003399 0.003439
# 4 -0.000915 -0.004635 -0.012673 0.035221 0.011957 -0.006029
# 5 0.000097 -0.003954 -0.003399 0.011957 0.036076 -0.008099
# 6 0.001871 0.000075 0.003439 -0.006029 -0.008099 0.026258
#
#
# Mechanical properties :
#
#
# Convention : Reuss Voigt Hill
#
# Bulk Modulus (GPa) = 34.55107 53.24198 43.89653
# Shear Modulus (GPa) = 31.58947 40.52650 36.05799
#
# Velocity S-wave (km/s) = 3.61073 4.08972 3.85767
# Velocity P-wave (km/s) = 5.62520 6.65393 6.16107
#
# Compressibility (1/GPa) = 0.02894266
#
# Stress axis : x y z
#
# Youngs Moduli (GPa) = 114.09025 91.22009 49.30223
#
# Poissons Ratio (x) = 0.07401 0.09958
# Poissons Ratio (y) = 0.09256 0.13325
# Poissons Ratio (z) = 0.23045 0.24655
#
# Static dielectric constant tensor:
#      x y z
#    x 2.115930 -0.321180 0.210290 
#    y -0.321180 0.092220 0.086770 
#    z 0.210290 0.086770 2.017520 
# 
# From -- ./inp_files/307394.got.cif
#   From: 2010.05.17/outbox.cif.g08.bks.cpg/sg2_154_cif.got.tgz:307394.got - 2010.06.03 11:33:40.
