data_PCOD9027613
_publ_section_title
;
Structure prediction by ZEFSAII (Michael W. Deem and Ramdas Pophale) SiO2 
 PCOD9027613
Probable space group: P -1
;
_chemical_formula_sum "Si O2"
_cell_formula_units_Z 14
_cell_length_a 8.064324
_cell_length_b 11.952153
_cell_length_c 8.371198
_cell_angle_alpha 78.046771
_cell_angle_beta 89.155872
_cell_angle_gamma 49.141726
_cell_volume 589.020614
_symmetry_space_group_name_H-M "P -1"
_symmetry_group_IT_number 2
_symmetry_cell_setting 'triclinic'
loop_
_space_group_symop_operation_xyz
x,y,z
-x,-y,-z
loop_
_atom_site_type_symbol
_atom_site_label
_atom_site_fract_x
_atom_site_fract_y
_atom_site_fract_z
Si Si1 0.818582 0.253772 0.990682
Si Si2 0.316461 0.217117 0.936785
Si Si3 0.689230 0.372224 0.414786
Si Si4 0.741213 0.091664 0.443473
Si Si5 0.722973 0.981210 0.801540
Si Si6 0.689595 0.532796 0.057828
Si Si7 0.923729 0.839868 0.288446
O O1 0.571850 0.330467 0.014678
O O2 0.900844 0.186721 0.831912
O O3 0.802239 0.400345 0.963582
O O4 0.014651 0.120482 0.141580
O O5 0.220226 0.383992 0.930735
O O6 0.195974 0.203898 0.798126
O O7 0.567071 0.114364 0.894763
O O8 0.308535 0.136799 0.113072
O O9 0.500000 0.500000 0.500000
O O10 0.635918 0.265629 0.397886
O O11 0.698148 0.450536 0.240139
O O12 0.925383 0.269603 0.533560
O O13 0.660576 0.052493 0.606259
O O14 0.000000 0.000000 0.500000
O O15 0.748707 0.011257 0.309226
#
# Coordination Sequence:
#
# PCOD9027613 Si02
#       7
#     2   2   2   2   2   2   2
#     4  10  22  42  66  97 124 173 228 263 319 382
#     4  10  24  44  65  96 135 171 212 271 325 395
#     4  11  21  41  65  99 131 167 216 274 316 384
#     4  10  22  41  68  97 127 169 220 276 313 379
#     4  10  22  45  64  97 127 172 215 267 324 378
#     4  11  23  43  65  99 131 171 216 269 332 379
#     4  10  22  42  64  98 128 173 217 260 336 376
#
# _framework density 23.768267999999999
#
# number of rings (size 3 to 8) (size 9 to 14) (size 15 to 20)
#    0.000    1.714    1.429    2.571    2.000    4.000 
#   25.714    2.857    0.000    0.000    0.000    0.000 
#    0.000    0.000    0.000    0.000    0.000    0.000 
#
# Total GULP energy -78313.663354 kJ/mol
# GULP energy per Si atom -5593.833097 kJ/mol
# Density = 2.371417 g / cm^3
# Si number density = 23.768268 Si / 1000 Ang^3
#
#
#
# Elastic Constant Matrix: (Units=GPa)
#
#
# Indices 1 2 3 4 5 6 
#
# 1 90.5382 52.2073 32.2411 -2.7910 11.0615 17.5697
# 2 52.2073 185.0639 57.8570 11.0624 -10.9385 30.9069
# 3 32.2411 57.8570 137.2526 0.0236 -21.1211 17.7864
# 4 -2.7910 11.0624 0.0236 30.4073 -5.1350 0.1829
# 5 11.0615 -10.9385 -21.1211 -5.1350 38.3728 -4.9870
# 6 17.5697 30.9069 17.7864 0.1829 -4.9870 55.5670
#
#
#
# Elastic Compliance Matrix: (Units=1/GPa)
#
#
# Indices 1 2 3 4 5 6 
#
# 1 0.015594 -0.003555 -0.002937 0.001515 -0.007270 -0.002671
# 2 -0.003555 0.007641 -0.001845 -0.002837 0.001497 -0.002392
# 3 -0.002937 -0.001845 0.009725 0.001373 0.005774 -0.000644
# 4 0.001515 -0.002837 0.001373 0.034775 0.004284 0.000930
# 5 -0.007270 0.001497 0.005774 0.004284 0.032663 0.002535
# 6 -0.002671 -0.002392 -0.000644 0.000930 0.002535 0.020602
#
#
# Mechanical properties :
#
#
# Convention : Reuss Voigt Hill
#
# Bulk Modulus (GPa) = 61.40538 77.49617 69.45077
# Shear Modulus (GPa) = 34.93966 42.90604 38.92285
#
# Velocity S-wave (km/s) = 3.83823 4.25335 4.05111
# Velocity P-wave (km/s) = 6.74788 7.53638 7.15300
#
# Compressibility (1/GPa) = 0.01628522
#
# Stress axis : x y z
#
# Youngs Moduli (GPa) = 64.12619 130.87706 102.82411
#
# Poissons Ratio (x) = 0.46529 0.30204
# Poissons Ratio (y) = 0.22798 0.18971
# Poissons Ratio (z) = 0.18837 0.24147
#
# Static dielectric constant tensor:
#      x y z
#    x 1.966330 0.004620 0.020940 
#    y 0.004620 1.931980 0.000750 
#    z 0.020940 0.000750 1.899650 
# 
# From -- ./inp_files/176238.got.cif
#   From: 2010.05.17/outbox.cif.g08.bks.cpg/sg2_89_cif.got.tgz:176238.got - 2010.06.03 11:33:40.
