data_PCOD9027440
_publ_section_title
;
Structure prediction by ZEFSAII (Michael W. Deem and Ramdas Pophale) SiO2 
 PCOD9027440
Probable space group: P -1
;
_chemical_formula_sum "Si O2"
_cell_formula_units_Z 12
_cell_length_a 9.499416
_cell_length_b 13.560743
_cell_length_c 9.228536
_cell_angle_alpha 32.474449
_cell_angle_beta 105.854059
_cell_angle_gamma 125.609487
_cell_volume 449.579801
_symmetry_space_group_name_H-M "P -1"
_symmetry_group_IT_number 2
_symmetry_cell_setting 'triclinic'
loop_
_space_group_symop_operation_xyz
x,y,z
-x,-y,-z
loop_
_atom_site_type_symbol
_atom_site_label
_atom_site_fract_x
_atom_site_fract_y
_atom_site_fract_z
Si Si1 0.815771 0.414154 0.646390
Si Si2 0.070310 0.167751 0.638140
Si Si3 0.669790 0.777069 0.841455
Si Si4 0.248024 0.587035 0.925383
Si Si5 0.465718 0.341139 0.542896
Si Si6 0.866722 0.185744 0.195146
O O1 0.900096 0.681080 0.400743
O O2 0.604591 0.284813 0.676357
O O3 0.000000 0.500000 0.500000
O O4 0.774387 0.226923 0.990909
O O5 0.224019 0.128179 0.732628
O O6 0.165698 0.382787 0.278758
O O7 0.842848 0.945033 0.804059
O O8 0.481484 0.750610 0.788407
O O9 0.794329 0.921970 0.548081
O O10 0.550666 0.504365 0.216206
O O11 0.191521 0.743017 0.766312
O O12 0.107421 0.412240 0.967127
O O13 0.500000 0.500000 0.500000
#
# Coordination Sequence:
#
# PCOD9027440 Si02
#       6
#     2   2   2   2   2   2
#     4  10  20  35  52  74 111 145 166 203 260 314
#     4   8  17  33  56  80 100 132 174 213 257 302
#     4  10  17  31  58  80  98 128 177 225 254 293
#     4   8  15  28  51  81 104 124 167 224 261 292
#     4   9  19  34  53  78 106 134 170 215 258 300
#     4   9  17  30  50  77 104 135 171 209 258 305
#
# _framework density 26.691590000000001
#
# number of rings (size 3 to 8) (size 9 to 14) (size 15 to 20)
#    0.000    3.000    0.000    2.500    0.000    2.667 
#    0.000    2.500    0.000   45.000    0.000    0.000 
#    0.000    0.000    0.000    0.000    0.000    0.000 
#
# Total GULP energy -66950.674279 kJ/mol
# GULP energy per Si atom -5579.222857 kJ/mol
# Density = 2.663084 g / cm^3
# Si number density = 26.691590 Si / 1000 Ang^3
#
#
#
# Elastic Constant Matrix: (Units=GPa)
#
#
# Indices 1 2 3 4 5 6 
#
# 1 172.0642 76.4041 36.0079 -10.8488 -12.9365 44.0473
# 2 76.4041 130.9686 54.5136 -19.8997 1.0168 55.3817
# 3 36.0079 54.5136 131.7156 5.6205 -3.2528 20.6003
# 4 -10.8488 -19.8997 5.6205 55.9330 15.3637 -0.0468
# 5 -12.9365 1.0168 -3.2528 15.3637 29.2094 -5.7225
# 6 44.0473 55.3817 20.6003 -0.0468 -5.7225 60.9915
#
#
#
# Elastic Compliance Matrix: (Units=1/GPa)
#
#
# Indices 1 2 3 4 5 6 
#
# 1 0.008446 -0.004330 -0.000099 -0.001011 0.004069 -0.001754
# 2 -0.004330 0.020181 -0.005631 0.010004 -0.011320 -0.014351
# 3 -0.000099 -0.005631 0.009872 -0.004062 0.003820 0.002205
# 4 -0.001011 0.010004 -0.004062 0.026235 -0.016719 -0.008530
# 5 0.004069 -0.011320 0.003820 -0.016719 0.047711 0.010514
# 6 -0.001754 -0.014351 0.002205 -0.008530 0.010514 0.030928
#
#
# Mechanical properties :
#
#
# Convention : Reuss Voigt Hill
#
# Bulk Modulus (GPa) = 54.40496 85.39996 69.90246
# Shear Modulus (GPa) = 29.47770 47.08162 38.27966
#
# Velocity S-wave (km/s) = 3.32683 4.20445 3.79112
# Velocity P-wave (km/s) = 5.93162 7.45885 6.73864
#
# Compressibility (1/GPa) = 0.01838068
#
# Stress axis : x y z
#
# Youngs Moduli (GPa) = 118.39627 49.55084 101.29223
#
# Poissons Ratio (x) = 0.21454 0.01004
# Poissons Ratio (y) = 0.51262 0.57036
# Poissons Ratio (z) = 0.01174 0.27901
#
# Static dielectric constant tensor:
#      x y z
#    x 2.129180 -0.058670 0.037090 
#    y -0.058670 2.218070 -0.041760 
#    z 0.037090 -0.041760 2.045180 
# 
# From -- ./inp_files/275029.got.cif
#   From: 2010.05.17/outbox.cif.g08.bks.cpg/sg2_138_cif.got.tgz:275029.got - 2010.06.03 11:33:40.
