data_PCOD9027189
_publ_section_title
;
Structure prediction by ZEFSAII (Michael W. Deem and Ramdas Pophale) SiO2 
 PCOD9027189
Probable space group: P -1
;
_chemical_formula_sum "Si O2"
_cell_formula_units_Z 13
_cell_length_a 14.861308
_cell_length_b 9.096744
_cell_length_c 7.648255
_cell_angle_alpha 53.047254
_cell_angle_beta 56.318183
_cell_angle_gamma 38.059571
_cell_volume 502.406233
_symmetry_space_group_name_H-M "P -1"
_symmetry_group_IT_number 2
_symmetry_cell_setting 'triclinic'
loop_
_space_group_symop_operation_xyz
x,y,z
-x,-y,-z
loop_
_atom_site_type_symbol
_atom_site_label
_atom_site_fract_x
_atom_site_fract_y
_atom_site_fract_z
Si Si1 0.237311 0.831443 0.286469
Si Si2 0.089711 0.276976 0.698024
Si Si3 0.500000 0.500000 0.500000
Si Si4 0.407676 0.041367 0.241972
Si Si5 0.156417 0.489856 0.968377
Si Si6 0.662730 0.931531 0.208039
Si Si7 0.041261 0.025674 0.671829
O O1 0.377551 0.594194 0.411712
O O2 0.115953 0.040678 0.413180
O O3 0.130020 0.820154 0.298038
O O4 0.306168 0.908996 0.033822
O O5 0.258949 0.137345 0.639855
O O6 0.000000 0.500000 0.500000
O O7 0.008839 0.380588 0.897625
O O8 0.070558 0.099137 0.764842
O O9 0.424215 0.800288 0.390977
O O10 0.496489 0.055138 0.281807
O O11 0.250645 0.308899 0.162200
O O12 0.500000 0.000000 0.000000
O O13 0.239771 0.324845 0.825832
O O14 0.136580 0.729909 0.799062
#
# Coordination Sequence:
#
# PCOD9027189 Si02
#       7
#     2   2   1   2   2   2   2
#     4  11  23  41  73  99 133 175 229 277 335 408
#     4  12  27  42  64  98 140 180 228 281 337 399
#     4  12  22  40  72 100 134 172 230 276 338 400
#     4  10  22  41  67 103 132 174 227 283 330 404
#     4  11  22  45  68  96 135 175 229 281 331 404
#     4  11  23  44  67  99 134 180 221 284 336 397
#     4  11  26  42  67 103 134 180 225 278 341 405
#
# _framework density 25.875477
#
# number of rings (size 3 to 8) (size 9 to 14) (size 15 to 20)
#    0.000    0.923    4.615    3.692    6.462    0.000 
#    0.000    3.077    0.000    0.000    0.000    0.000 
#    0.000    0.000    0.000    0.000    0.000    0.000 
#
# Total GULP energy -72441.501375 kJ/mol
# GULP energy per Si atom -5572.423183 kJ/mol
# Density = 2.581658 g / cm^3
# Si number density = 25.875477 Si / 1000 Ang^3
#
#
#
# Elastic Constant Matrix: (Units=GPa)
#
#
# Indices 1 2 3 4 5 6 
#
# 1 235.2175 48.4237 41.6231 -33.8503 11.0349 -35.2936
# 2 48.4237 56.2074 21.2310 -21.4884 -1.1800 -20.2294
# 3 41.6231 21.2310 89.5098 -21.2618 -2.8739 -16.4048
# 4 -33.8503 -21.4884 -21.2618 46.8599 -12.7911 5.2539
# 5 11.0349 -1.1800 -2.8739 -12.7911 43.8888 4.0571
# 6 -35.2936 -20.2294 -16.4048 5.2539 4.0571 37.1341
#
#
#
# Elastic Compliance Matrix: (Units=1/GPa)
#
#
# Indices 1 2 3 4 5 6 
#
# 1 0.005843 -0.002758 -0.001068 0.001685 -0.001446 0.003499
# 2 -0.002758 0.028348 -0.000940 0.010332 0.003428 0.010571
# 3 -0.001068 -0.000940 0.013898 0.005350 0.002380 0.003595
# 4 0.001685 0.010332 0.005350 0.031739 0.009074 0.004111
# 5 -0.001446 0.003428 0.002380 0.009074 0.026282 -0.002610
# 6 0.003499 0.010571 0.003595 0.004111 -0.002610 0.037306
#
#
# Mechanical properties :
#
#
# Convention : Reuss Voigt Hill
#
# Bulk Modulus (GPa) = 25.93498 67.05449 46.49474
# Shear Modulus (GPa) = 30.15679 43.55370 36.85524
#
# Velocity S-wave (km/s) = 3.41758 4.10714 3.77813
# Velocity P-wave (km/s) = 5.06142 6.96147 6.08605
#
# Compressibility (1/GPa) = 0.03855796
#
# Stress axis : x y z
#
# Youngs Moduli (GPa) = 171.13185 35.27553 71.95428
#
# Poissons Ratio (x) = 0.09727 0.07685
# Poissons Ratio (y) = 0.47190 0.06765
# Poissons Ratio (z) = 0.18277 0.03317
#
# Static dielectric constant tensor:
#      x y z
#    x 2.176930 0.038840 -0.021950 
#    y 0.038840 2.031650 -0.016010 
#    z -0.021950 -0.016010 2.100790 
# 
# From -- ./inp_files/289439.got.cif
#   From: 2010.05.17/outbox.cif.g08.bks.cpg/sg2_145_cif.got.tgz:289439.got - 2010.06.03 11:33:40.
