data_PCOD9027371
_publ_section_title
;
Structure prediction by ZEFSAII (Michael W. Deem and Ramdas Pophale) SiO2 
 PCOD9027371
Probable space group: P -1
;
_chemical_formula_sum "Si O2"
_cell_formula_units_Z 16
_cell_length_a 8.646414
_cell_length_b 14.752432
_cell_length_c 9.777518
_cell_angle_alpha 128.410749
_cell_angle_beta 52.733431
_cell_angle_gamma 138.343896
_cell_volume 625.171959
_symmetry_space_group_name_H-M "P -1"
_symmetry_group_IT_number 2
_symmetry_cell_setting 'triclinic'
loop_
_space_group_symop_operation_xyz
x,y,z
-x,-y,-z
loop_
_atom_site_type_symbol
_atom_site_label
_atom_site_fract_x
_atom_site_fract_y
_atom_site_fract_z
Si Si1 0.148123 0.945433 0.305503
Si Si2 0.267455 0.349604 0.733652
Si Si3 0.564230 0.250395 0.353343
Si Si4 0.241136 0.953307 0.562988
Si Si5 0.846336 0.541800 0.370518
Si Si6 0.990235 0.713253 0.699759
Si Si7 0.777956 0.853440 0.056153
Si Si8 0.253131 0.594457 0.047471
O O1 0.976698 0.785836 0.191148
O O2 0.375914 0.086918 0.245973
O O3 0.225081 0.917230 0.380665
O O4 0.000000 0.000000 0.500000
O O5 0.422140 0.289173 0.565384
O O6 0.226458 0.388255 0.636859
O O7 0.334135 0.489298 0.909774
O O8 0.674357 0.369117 0.286444
O O9 0.780923 0.265773 0.333369
O O10 0.500000 0.000000 0.500000
O O11 0.228791 0.082816 0.735751
O O12 0.064738 0.821798 0.633725
O O13 0.822067 0.567879 0.567177
O O14 0.123769 0.600978 0.256630
O O15 0.860327 0.750276 0.910563
O O16 0.505479 0.754951 0.044635
O O17 0.000000 0.000000 0.000000
O O18 0.000000 0.500000 0.000000
#
# Coordination Sequence:
#
# PCOD9027371 Si02
#       8
#     2   2   2   2   2   2   2   2
#     4  10  22  41  67  97 133 176 233 280 338 404
#     4  10  22  43  69  92 136 183 232 273 341 411
#     4  11  23  39  63 101 130 176 225 288 330 399
#     4  11  20  40  72  95 130 182 224 276 344 407
#     4  11  22  41  68  94 132 183 223 277 346 404
#     4  11  22  40  65  95 133 174 225 278 337 403
#     4  10  24  41  67 104 136 172 232 284 334 406
#     4  10  23  42  67 100 134 181 231 281 336 413
#
# _framework density 25.592959
#
# number of rings (size 3 to 8) (size 9 to 14) (size 15 to 20)
#    0.000    1.500    2.500    2.250    1.750    1.000 
#    9.000    1.875    0.000    0.000    0.000    0.000 
#    0.000    0.000    0.000    0.000    0.000    0.000 
#
# Total GULP energy -89199.246049 kJ/mol
# GULP energy per Si atom -5574.952878 kJ/mol
# Density = 2.553471 g / cm^3
# Si number density = 25.592959 Si / 1000 Ang^3
#
#
#
# Elastic Constant Matrix: (Units=GPa)
#
#
# Indices 1 2 3 4 5 6 
#
# 1 72.9952 39.2392 20.5903 -0.7669 -14.5178 -0.8001
# 2 39.2392 213.6239 12.7237 11.1191 4.3582 18.7334
# 3 20.5903 12.7237 117.7236 11.1298 -20.8256 6.0405
# 4 -0.7669 11.1191 11.1298 31.2912 0.6083 0.4355
# 5 -14.5178 4.3582 -20.8256 0.6083 35.7172 3.4896
# 6 -0.8001 18.7334 6.0405 0.4355 3.4896 25.7639
#
#
#
# Elastic Compliance Matrix: (Units=1/GPa)
#
#
# Indices 1 2 3 4 5 6 
#
# 1 0.017425 -0.003564 -0.001936 0.002226 0.006084 0.002725
# 2 -0.003564 0.005834 0.000110 -0.002110 -0.001658 -0.004118
# 3 -0.001936 0.000110 0.010344 -0.003830 0.005614 -0.003261
# 4 0.002226 -0.002110 -0.003830 0.034130 -0.001864 0.002177
# 5 0.006084 -0.001658 0.005614 -0.001864 0.034423 -0.004553
# 6 0.002725 -0.004118 -0.003261 0.002177 -0.004553 0.043238
#
#
# Mechanical properties :
#
#
# Convention : Reuss Voigt Hill
#
# Bulk Modulus (GPa) = 43.81683 61.04990 52.43336
# Shear Modulus (GPa) = 30.52827 40.67378 35.60102
#
# Velocity S-wave (km/s) = 3.45750 3.99087 3.73372
# Velocity P-wave (km/s) = 5.75299 6.71878 6.25456
#
# Compressibility (1/GPa) = 0.02282228
#
# Stress axis : x y z
#
# Youngs Moduli (GPa) = 57.38819 171.40674 96.67584
#
# Poissons Ratio (x) = 0.61096 0.18721
# Poissons Ratio (y) = 0.20455 -0.01067
# Poissons Ratio (z) = 0.11113 -0.01892
#
# Static dielectric constant tensor:
#      x y z
#    x 2.011490 0.043510 -0.024210 
#    y 0.043510 2.082870 0.010880 
#    z -0.024210 0.010880 2.037520 
# 
# From -- ./inp_files/399563.got.cif
#   From: 2010.05.17/outbox.cif.g08.bks.cpg/sg2_200_cif.got.tgz:399563.got - 2010.06.03 11:33:40.
