data_PCOD9027648
_publ_section_title
;
Structure prediction by ZEFSAII (Michael W. Deem and Ramdas Pophale) SiO2 
 PCOD9027648
Probable space group: P -1
;
_chemical_formula_sum "Si O2"
_cell_formula_units_Z 16
_cell_length_a 9.987511
_cell_length_b 14.068866
_cell_length_c 8.139584
_cell_angle_alpha 123.964530
_cell_angle_beta 133.451775
_cell_angle_gamma 49.305112
_cell_volume 616.758315
_symmetry_space_group_name_H-M "P -1"
_symmetry_group_IT_number 2
_symmetry_cell_setting 'triclinic'
loop_
_space_group_symop_operation_xyz
x,y,z
-x,-y,-z
loop_
_atom_site_type_symbol
_atom_site_label
_atom_site_fract_x
_atom_site_fract_y
_atom_site_fract_z
Si Si1 0.612047 0.847296 0.910252
Si Si2 0.169263 0.744131 0.775526
Si Si3 0.607499 0.264148 0.618846
Si Si4 0.662422 0.609335 0.903782
Si Si5 0.769155 0.520067 0.285061
Si Si6 0.555886 0.151050 0.767235
Si Si7 0.764609 0.374927 0.595540
Si Si8 0.772156 0.864232 0.733571
O O1 0.453803 0.807372 0.644072
O O2 0.684482 0.739227 0.008743
O O3 0.784046 0.817420 0.884427
O O4 0.500000 0.000000 0.000000
O O5 0.229999 0.616298 0.810976
O O6 0.091007 0.722558 0.511791
O O7 0.976749 0.850026 0.808976
O O8 0.357638 0.781628 0.964949
O O9 0.409611 0.383143 0.648739
O O10 0.684613 0.160286 0.727044
O O11 0.752203 0.314384 0.700304
O O12 0.801608 0.497270 0.782030
O O13 0.450901 0.599728 0.657392
O O14 0.717876 0.563395 0.094220
O O15 0.668533 0.801717 0.459713
O O16 0.000000 0.500000 0.500000
O O17 0.613329 0.012395 0.748641
#
# Coordination Sequence:
#
# PCOD9027648 Si02
#       8
#     2   2   2   2   2   2   2   2
#     4  10  22  41  68  98 136 181 232 292 349 421
#     4  12  24  42  71 103 140 185 238 298 353 428
#     4  10  22  43  66  99 137 181 242 284 352 429
#     4  10  22  43  69 101 140 186 235 288 363 428
#     4  12  25  43  70 105 145 189 237 298 360 432
#     4  10  22  44  73  94 141 195 235 291 350 426
#     4  10  22  41  69 103 140 178 234 302 359 425
#     4  10  24  45  69 102 143 188 247 285 352 433
#
# _framework density 25.942091999999999
#
# number of rings (size 3 to 8) (size 9 to 14) (size 15 to 20)
#    0.000    1.500    0.000    5.625    5.250    2.500 
#    2.250   13.125    0.000    0.000    0.000    0.000 
#    0.000    0.000    0.000    0.000    0.000    0.000 
#
# Total GULP energy -89328.564327 kJ/mol
# GULP energy per Si atom -5583.035270 kJ/mol
# Density = 2.588305 g / cm^3
# Si number density = 25.942092 Si / 1000 Ang^3
#
#
#
# Elastic Constant Matrix: (Units=GPa)
#
#
# Indices 1 2 3 4 5 6 
#
# 1 109.1805 36.5473 43.5586 -21.6514 -16.4647 10.2370
# 2 36.5473 53.6226 39.1120 0.0312 -1.4087 25.9901
# 3 43.5586 39.1120 162.3968 7.8218 1.7881 -3.4685
# 4 -21.6514 0.0312 7.8218 42.0231 3.9697 -3.5180
# 5 -16.4647 -1.4087 1.7881 3.9697 48.5788 -11.7160
# 6 10.2370 25.9901 -3.4685 -3.5180 -11.7160 38.2610
#
#
#
# Elastic Compliance Matrix: (Units=1/GPa)
#
#
# Indices 1 2 3 4 5 6 
#
# 1 0.016166 -0.013337 -0.001452 0.008635 0.006200 0.007295
# 2 -0.013337 0.051889 -0.009232 -0.007220 -0.010892 -0.036515
# 3 -0.001452 -0.009232 0.009013 -0.001869 0.000888 0.007577
# 4 0.008635 -0.007220 -0.001869 0.028901 0.001781 0.005627
# 5 0.006200 -0.010892 0.000888 0.001781 0.025520 0.013799
# 6 0.007295 -0.036515 0.007577 0.005627 0.013799 0.054419
#
#
# Mechanical properties :
#
#
# Convention : Reuss Voigt Hill
#
# Bulk Modulus (GPa) = 34.45240 62.62622 48.53931
# Shear Modulus (GPa) = 20.52326 39.50470 30.01398
#
# Velocity S-wave (km/s) = 2.81573 3.90654 3.40510
# Velocity P-wave (km/s) = 4.88676 6.67393 5.84901
#
# Compressibility (1/GPa) = 0.02902556
#
# Stress axis : x y z
#
# Youngs Moduli (GPa) = 61.85732 19.27188 110.95240
#
# Poissons Ratio (x) = 0.25702 0.16115
# Poissons Ratio (y) = 0.82498 1.02432
# Poissons Ratio (z) = 0.08984 0.17792
#
# Static dielectric constant tensor:
#      x y z
#    x 2.178810 -0.112200 -0.121200 
#    y -0.112200 2.170180 0.055310 
#    z -0.121200 0.055310 2.160640 
# 
# From -- ./inp_files/271140.got.cif
#   From: 2010.05.17/outbox.cif.g08.bks.cpg/sg2_136_cif.got.tgz:271140.got - 2010.06.03 11:33:40.
