data_PCOD9027638
_publ_section_title
;
Structure prediction by ZEFSAII (Michael W. Deem and Ramdas Pophale) SiO2 
 PCOD9027638
Probable space group: P -1
;
_chemical_formula_sum "Si O2"
_cell_formula_units_Z 16
_cell_length_a 18.668381
_cell_length_b 5.299915
_cell_length_c 12.615286
_cell_angle_alpha 77.672190
_cell_angle_beta 148.977719
_cell_angle_gamma 95.231283
_cell_volume 617.905291
_symmetry_space_group_name_H-M "P -1"
_symmetry_group_IT_number 2
_symmetry_cell_setting 'triclinic'
loop_
_space_group_symop_operation_xyz
x,y,z
-x,-y,-z
loop_
_atom_site_type_symbol
_atom_site_label
_atom_site_fract_x
_atom_site_fract_y
_atom_site_fract_z
Si Si1 0.679029 0.713873 0.692557
Si Si2 0.986961 0.136569 0.357280
Si Si3 0.691387 0.048569 0.014580
Si Si4 0.478881 0.242218 0.312274
Si Si5 0.865545 0.367477 0.535442
Si Si6 0.624738 0.620230 0.400471
Si Si7 0.654775 0.822915 0.208689
Si Si8 0.008263 0.282303 0.938316
O O1 0.593000 0.608267 0.687309
O O2 0.688677 0.574398 0.602706
O O3 0.586030 0.995704 0.519286
O O4 0.839263 0.731518 0.923176
O O5 0.073263 0.916302 0.408701
O O6 0.041527 0.411355 0.399016
O O7 0.000000 0.000000 0.500000
O O8 0.819955 0.167956 0.120614
O O9 0.657389 0.817958 0.917482
O O10 0.538203 0.230294 0.805005
O O11 0.720378 0.951320 0.181021
O O12 0.578721 0.343400 0.341541
O O13 0.689969 0.792766 0.382275
O O14 0.708259 0.506416 0.283576
O O15 0.885703 0.347188 0.689441
O O16 0.500000 0.000000 0.000000
O O17 0.000000 0.500000 0.000000
O O18 0.000000 0.000000 0.000000
#
# Coordination Sequence:
#
# PCOD9027638 Si02
#       8
#     2   2   2   2   2   2   2   2
#     4  10  23  42  65  99 136 179 245 295 358 422
#     4  12  26  47  75 107 150 193 248 309 367 448
#     4  10  23  41  66 102 140 180 241 292 370 426
#     4  10  22  41  68  98 132 182 239 301 357 420
#     4  12  27  49  75 109 148 200 246 307 375 442
#     4  10  22  41  69  95 137 184 236 301 355 435
#     4  10  23  46  67 104 142 187 242 297 368 442
#     4  12  28  48  75 109 151 198 245 303 371 450
#
# _framework density 25.893934999999999
#
# number of rings (size 3 to 8) (size 9 to 14) (size 15 to 20)
#    0.000    1.250    1.250    3.000    7.000    0.500 
#    4.500    0.000    0.000    0.000    0.000    0.000 
#    0.000    0.000    0.000    0.000    0.000    0.000 
#
# Total GULP energy -89198.496365 kJ/mol
# GULP energy per Si atom -5574.906023 kJ/mol
# Density = 2.583500 g / cm^3
# Si number density = 25.893935 Si / 1000 Ang^3
#
#
#
# Elastic Constant Matrix: (Units=GPa)
#
#
# Indices 1 2 3 4 5 6 
#
# 1 129.8006 37.7219 22.3919 0.4962 -0.2131 17.7204
# 2 37.7219 78.6828 22.0348 -1.0467 -2.6437 11.7109
# 3 22.3919 22.0348 121.2597 -9.5709 8.2262 12.7785
# 4 0.4962 -1.0467 -9.5709 33.0928 2.8065 -0.9953
# 5 -0.2131 -2.6437 8.2262 2.8065 45.7489 -1.0542
# 6 17.7204 11.7109 12.7785 -0.9953 -1.0542 46.8370
#
#
#
# Elastic Compliance Matrix: (Units=1/GPa)
#
#
# Indices 1 2 3 4 5 6 
#
# 1 0.009295 -0.003893 -0.000803 -0.000560 -0.000057 -0.002337
# 2 -0.003893 0.015442 -0.001991 -0.000186 0.001202 -0.001822
# 3 -0.000803 -0.001991 0.009291 0.002754 -0.001998 -0.001720
# 4 -0.000560 -0.000186 0.002754 0.031226 -0.002421 0.000116
# 5 -0.000057 0.001202 -0.001998 -0.002421 0.022452 0.000720
# 6 -0.002337 -0.001822 -0.001720 0.000116 0.000720 0.023178
#
#
# Mechanical properties :
#
#
# Convention : Reuss Voigt Hill
#
# Bulk Modulus (GPa) = 48.41737 54.89338 51.65537
# Shear Modulus (GPa) = 38.12600 41.64203 39.88401
#
# Velocity S-wave (km/s) = 3.84134 4.01456 3.92890
# Velocity P-wave (km/s) = 6.19786 6.53714 6.36976
#
# Compressibility (1/GPa) = 0.02065374
#
# Stress axis : x y z
#
# Youngs Moduli (GPa) = 107.58320 64.75720 107.63036
#
# Poissons Ratio (x) = 0.25209 0.08644
# Poissons Ratio (y) = 0.41880 0.21434
# Poissons Ratio (z) = 0.08640 0.12896
#
# Static dielectric constant tensor:
#      x y z
#    x 2.119870 -0.009920 0.090920 
#    y -0.009920 2.366690 0.090000 
#    z 0.090920 0.090000 2.115610 
# 
# From -- ./inp_files/539767.got.cif
#   From: 2010.05.17/outbox.cif.g08.bks.cpg/sg2_270_cif.got.tgz:539767.got - 2010.06.03 11:33:40.
