data_PCOD9027530
_publ_section_title
;
Structure prediction by ZEFSAII (Michael W. Deem and Ramdas Pophale) SiO2 
 PCOD9027530
Probable space group: P -1
;
_chemical_formula_sum "Si O2"
_cell_formula_units_Z 14
_cell_length_a 11.555501
_cell_length_b 9.658000
_cell_length_c 9.358944
_cell_angle_alpha 134.480998
_cell_angle_beta 53.036368
_cell_angle_gamma 125.032405
_cell_volume 573.682581
_symmetry_space_group_name_H-M "P -1"
_symmetry_group_IT_number 2
_symmetry_cell_setting 'triclinic'
loop_
_space_group_symop_operation_xyz
x,y,z
-x,-y,-z
loop_
_atom_site_type_symbol
_atom_site_label
_atom_site_fract_x
_atom_site_fract_y
_atom_site_fract_z
Si Si1 0.010271 0.482058 0.151008
Si Si2 0.623100 0.732650 0.409427
Si Si3 0.982275 0.273577 0.288535
Si Si4 0.247383 0.129978 0.139395
Si Si5 0.151469 0.922155 0.335373
Si Si6 0.347224 0.039686 0.706072
Si Si7 0.320463 0.508869 0.557929
O O1 0.844291 0.473211 0.320616
O O2 0.037826 0.307163 0.104749
O O3 0.118832 0.700699 0.262511
O O4 0.000000 0.500000 0.000000
O O5 0.656885 0.763183 0.241381
O O6 0.657643 0.547221 0.334587
O O7 0.500000 0.000000 0.500000
O O8 0.727068 0.926884 0.549779
O O9 0.097213 0.174308 0.215999
O O10 0.000000 0.500000 0.500000
O O11 0.810402 0.134002 0.324942
O O12 0.326526 0.321185 0.317038
O O13 0.204966 0.944052 0.146989
O O14 0.349617 0.094826 0.909793
O O15 0.000000 0.000000 0.500000
O O16 0.448304 0.698425 0.549344
#
# Coordination Sequence:
#
# PCOD9027530 Si02
#       7
#     2   2   2   2   2   2   2
#     4  12  24  39  68 101 136 168 224 280 330 395
#     4  10  22  41  68  92 130 178 219 272 331 400
#     4  12  24  44  68 104 138 173 225 282 338 400
#     4  11  24  44  75  96 137 181 227 279 339 402
#     4  11  20  44  71  96 130 181 228 269 330 406
#     4  12  27  44  67 100 140 177 228 281 342 400
#     4  10  22  44  65  96 134 175 224 271 334 402
#
# _framework density 24.403739000000002
#
# number of rings (size 3 to 8) (size 9 to 14) (size 15 to 20)
#    0.000    0.857    4.286    3.857    2.000    0.571 
#    0.000    9.286    0.000    0.000    0.000    0.000 
#    0.000    0.000    0.000    0.000    0.000    0.000 
#
# Total GULP energy -78300.725660 kJ/mol
# GULP energy per Si atom -5592.908976 kJ/mol
# Density = 2.434819 g / cm^3
# Si number density = 24.403739 Si / 1000 Ang^3
#
#
#
# Elastic Constant Matrix: (Units=GPa)
#
#
# Indices 1 2 3 4 5 6 
#
# 1 76.9569 42.1102 18.8717 -11.7264 -2.4837 17.5750
# 2 42.1102 173.7100 9.9196 -24.2424 2.0027 -0.4166
# 3 18.8717 9.9196 58.2653 -20.5401 -10.4256 1.9453
# 4 -11.7264 -24.2424 -20.5401 46.1225 -0.0484 16.2307
# 5 -2.4837 2.0027 -10.4256 -0.0484 31.3742 -6.7525
# 6 17.5750 -0.4166 1.9453 16.2307 -6.7525 51.9646
#
#
#
# Elastic Compliance Matrix: (Units=1/GPa)
#
#
# Indices 1 2 3 4 5 6 
#
# 1 0.018136 -0.003692 -0.004011 0.003432 -0.001215 -0.007243
# 2 -0.003692 0.007034 0.001034 0.003133 -0.000341 0.000244
# 3 -0.004011 0.001034 0.023333 0.010594 0.006975 -0.001911
# 4 0.003432 0.003133 0.010594 0.033039 0.001124 -0.011705
# 5 -0.001215 -0.000341 0.006975 0.001124 0.035055 0.004351
# 6 -0.007243 0.000244 -0.001911 -0.011705 0.004351 0.025989
#
#
# Mechanical properties :
#
#
# Convention : Reuss Voigt Hill
#
# Bulk Modulus (GPa) = 28.43854 50.08169 39.26011
# Shear Modulus (GPa) = 29.82475 41.76098 35.79287
#
# Velocity S-wave (km/s) = 3.49970 4.14122 3.83390
# Velocity P-wave (km/s) = 5.29237 6.59037 5.97671
#
# Compressibility (1/GPa) = 0.03516355
#
# Stress axis : x y z
#
# Youngs Moduli (GPa) = 55.13924 142.15870 42.85821
#
# Poissons Ratio (x) = 0.52483 0.17192
# Poissons Ratio (y) = 0.20356 -0.04429
# Poissons Ratio (z) = 0.22119 -0.14692
#
# Static dielectric constant tensor:
#      x y z
#    x 2.022280 -0.076740 0.000070 
#    y -0.076740 1.961670 0.009960 
#    z 0.000070 0.009960 2.011070 
# 
# From -- ./inp_files/245825.got.cif
#   From: 2010.05.17/outbox.cif.g08.bks.cpg/sg2_123_cif.got.tgz:245825.got - 2010.06.03 11:33:40.
