data_PCOD9027603
_publ_section_title
;
Structure prediction by ZEFSAII (Michael W. Deem and Ramdas Pophale) SiO2 
 PCOD9027603
Probable space group: P -1
;
_chemical_formula_sum "Si O2"
_cell_formula_units_Z 14
_cell_length_a 21.995509
_cell_length_b 21.806854
_cell_length_c 8.823806
_cell_angle_alpha 26.487529
_cell_angle_beta 152.770393
_cell_angle_gamma 161.497777
_cell_volume 574.092175
_symmetry_space_group_name_H-M "P -1"
_symmetry_group_IT_number 2
_symmetry_cell_setting 'triclinic'
loop_
_space_group_symop_operation_xyz
x,y,z
-x,-y,-z
loop_
_atom_site_type_symbol
_atom_site_label
_atom_site_fract_x
_atom_site_fract_y
_atom_site_fract_z
Si Si1 0.688738 0.948830 0.609052
Si Si2 0.314276 0.474378 0.839198
Si Si3 0.027793 0.657001 0.812176
Si Si4 0.349796 0.968628 0.343426
Si Si5 0.975377 0.680494 0.962205
Si Si6 0.051926 0.048375 0.325625
Si Si7 0.416773 0.589499 0.136249
O O1 0.527257 0.704976 0.753862
O O2 0.624206 0.006283 0.472905
O O3 0.771584 0.105478 0.310776
O O4 0.877064 0.012215 0.955784
O O5 0.159431 0.396138 0.540412
O O6 0.300214 0.533239 0.845229
O O7 0.251631 0.271836 0.200824
O O8 0.015283 0.616579 0.049794
O O9 0.000000 0.500000 0.000000
O O10 0.500000 0.000000 0.500000
O O11 0.401091 0.166817 0.980308
O O12 0.126513 0.762759 0.250797
O O13 0.746035 0.512421 0.872119
O O14 0.029085 0.876929 0.595920
O O15 0.000000 0.000000 0.500000
O O16 0.500000 0.500000 0.500000
#
# Coordination Sequence:
#
# PCOD9027603 Si02
#       7
#     2   2   2   2   2   2   2
#     4  10  23  44  67  96 139 177 225 288 341 407
#     4  10  22  41  68  96 134 176 220 280 342 406
#     4  11  28  45  63  93 141 196 225 269 344 414
#     4  11  25  40  67 106 132 177 240 290 342 407
#     4  12  24  42  70 100 140 180 227 284 343 416
#     4  11  19  40  69 102 131 167 222 291 355 399
#     4  11  23  43  74 106 132 176 231 295 355 408
#
# _framework density 24.386327000000001
#
# number of rings (size 3 to 8) (size 9 to 14) (size 15 to 20)
#    0.000    1.143    2.857    3.429    6.000    4.571 
#    0.000    3.571    0.000    0.000    0.000    0.000 
#    0.000    0.000    0.000    0.000    0.000    0.000 
#
# Total GULP energy -78184.718054 kJ/mol
# GULP energy per Si atom -5584.622718 kJ/mol
# Density = 2.433082 g / cm^3
# Si number density = 24.386327 Si / 1000 Ang^3
#
#
#
# Elastic Constant Matrix: (Units=GPa)
#
#
# Indices 1 2 3 4 5 6 
#
# 1 81.9049 43.1687 12.4906 -11.9226 10.3321 15.2647
# 2 43.1687 132.2252 15.6056 -18.6989 -21.9252 25.1679
# 3 12.4906 15.6056 52.1128 -12.5505 -1.1700 7.2910
# 4 -11.9226 -18.6989 -12.5505 37.8025 5.2048 -4.6296
# 5 10.3321 -21.9252 -1.1700 5.2048 30.3447 -1.6795
# 6 15.2647 25.1679 7.2910 -4.6296 -1.6795 39.6508
#
#
#
# Elastic Compliance Matrix: (Units=1/GPa)
#
#
# Indices 1 2 3 4 5 6 
#
# 1 0.018584 -0.006939 -0.001494 0.003281 -0.012106 -0.002605
# 2 -0.006939 0.012918 -0.000864 0.001813 0.011093 -0.004688
# 3 -0.001494 -0.000864 0.021555 0.006055 -0.000442 -0.002152
# 4 0.003281 0.001813 0.006055 0.031058 -0.004907 -0.000109
# 5 -0.012106 0.011093 -0.000442 -0.004907 0.045865 -0.000929
# 6 -0.002605 -0.004688 -0.002152 -0.000109 -0.000929 0.029543
#
#
# Mechanical properties :
#
#
# Convention : Reuss Voigt Hill
#
# Bulk Modulus (GPa) = 29.01412 45.41921 37.21666
# Shear Modulus (GPa) = 26.37085 34.55812 30.46448
#
# Velocity S-wave (km/s) = 3.29200 3.76854 3.53830
# Velocity P-wave (km/s) = 5.13549 6.13198 5.65572
#
# Compressibility (1/GPa) = 0.03446598
#
# Stress axis : x y z
#
# Youngs Moduli (GPa) = 53.80858 77.41004 46.39236
#
# Poissons Ratio (x) = 0.53711 0.06929
# Poissons Ratio (y) = 0.37335 0.04007
# Poissons Ratio (z) = 0.08037 0.06686
#
# Static dielectric constant tensor:
#      x y z
#    x 1.992470 0.000570 0.007770 
#    y 0.000570 2.003020 0.008840 
#    z 0.007770 0.008840 1.995780 
# 
# From -- ./inp_files/349665.got.cif
#   From: 2010.05.17/outbox.cif.g08.bks.cpg/sg2_175_cif.got.tgz:349665.got - 2010.06.03 11:33:40.
