data_PCOD9027428
_publ_section_title
;
Structure prediction by ZEFSAII (Michael W. Deem and Ramdas Pophale) SiO2 
 PCOD9027428
Probable space group: P -1
;
_chemical_formula_sum "Si O2"
_cell_formula_units_Z 16
_cell_length_a 7.731939
_cell_length_b 6.875526
_cell_length_c 19.940217
_cell_angle_alpha 56.252686
_cell_angle_beta 54.775215
_cell_angle_gamma 82.935189
_cell_volume 688.943517
_symmetry_space_group_name_H-M "P -1"
_symmetry_group_IT_number 2
_symmetry_cell_setting 'triclinic'
loop_
_space_group_symop_operation_xyz
x,y,z
-x,-y,-z
loop_
_atom_site_type_symbol
_atom_site_label
_atom_site_fract_x
_atom_site_fract_y
_atom_site_fract_z
Si Si1 0.195583 0.875350 0.470404
Si Si2 0.831691 0.162359 0.001848
Si Si3 0.849632 0.643102 0.356338
Si Si4 0.477317 0.675972 0.174244
Si Si5 0.969784 0.486428 0.779694
Si Si6 0.718565 0.160767 0.695441
Si Si7 0.683058 0.285729 0.150177
Si Si8 0.685578 0.058989 0.331321
O O1 0.167696 0.632306 0.566388
O O2 0.208371 0.787461 0.407468
O O3 0.434948 0.066221 0.396590
O O4 0.000000 0.000000 0.500000
O O5 0.818736 0.290822 0.051244
O O6 0.595155 0.961625 0.077762
O O7 0.898759 0.360164 0.890748
O O8 0.000000 0.000000 0.000000
O O9 0.883293 0.653360 0.267286
O O10 0.070987 0.806694 0.311283
O O11 0.671705 0.774421 0.394061
O O12 0.251497 0.557910 0.206731
O O13 0.416035 0.676648 0.266965
O O14 0.646445 0.528876 0.142801
O O15 0.127463 0.761320 0.700163
O O16 0.560467 0.886741 0.781992
O O17 0.752365 0.145013 0.223673
#
# Coordination Sequence:
#
# PCOD9027428 Si02
#       8
#     2   2   2   2   2   2   2   2
#     4  11  26  46  72 100 130 178 228 279 342 407
#     4  11  23  41  65 103 137 181 229 276 331 398
#     4  11  24  45  66  98 136 178 221 279 338 399
#     4  10  22  42  70  97 138 176 226 278 336 398
#     4  11  25  42  68  98 138 179 221 279 335 398
#     4   9  22  42  69  96 131 172 223 275 337 400
#     4  10  22  41  68 100 134 181 227 273 331 402
#     4  11  25  43  67  97 137 176 222 281 338 397
#
# _framework density 23.223965
#
# number of rings (size 3 to 8) (size 9 to 14) (size 15 to 20)
#    0.000    1.500    0.000    3.375    8.750    6.000 
#    2.250    0.000    0.000    0.000    0.000    0.000 
#    0.000    0.000    0.000    0.000    0.000    0.000 
#
# Total GULP energy -89409.756989 kJ/mol
# GULP energy per Si atom -5588.109812 kJ/mol
# Density = 2.317111 g / cm^3
# Si number density = 23.223965 Si / 1000 Ang^3
#
#
#
# Elastic Constant Matrix: (Units=GPa)
#
#
# Indices 1 2 3 4 5 6 
#
# 1 77.5955 55.0544 39.2433 0.1431 -18.3370 11.8302
# 2 55.0544 164.6863 70.7090 8.3264 -3.8580 -2.7222
# 3 39.2433 70.7090 96.9061 16.1458 -1.2648 8.7497
# 4 0.1431 8.3264 16.1458 41.4604 3.0993 -7.5655
# 5 -18.3370 -3.8580 -1.2648 3.0993 26.0452 -3.4852
# 6 11.8302 -2.7222 8.7497 -7.5655 -3.4852 40.8125
#
#
#
# Elastic Compliance Matrix: (Units=1/GPa)
#
#
# Indices 1 2 3 4 5 6 
#
# 1 0.023543 -0.005457 -0.005117 0.001058 0.014772 -0.004634
# 2 -0.005457 0.010376 -0.005882 0.001039 -0.002241 0.003536
# 3 -0.005117 -0.005882 0.018084 -0.006365 -0.003408 -0.004257
# 4 0.001058 0.001039 -0.006365 0.027638 -0.001885 0.006090
# 5 0.014772 -0.002241 -0.003408 -0.001885 0.048534 0.000094
# 6 -0.004634 0.003536 -0.004257 0.006090 0.000094 0.028131
#
#
# Mechanical properties :
#
#
# Convention : Reuss Voigt Hill
#
# Bulk Modulus (GPa) = 52.38563 74.35570 63.37067
# Shear Modulus (GPa) = 25.56481 33.27571 29.42026
#
# Velocity S-wave (km/s) = 3.32142 3.78936 3.56308
# Velocity P-wave (km/s) = 6.10858 7.15765 6.65383
#
# Compressibility (1/GPa) = 0.01908920
#
# Stress axis : x y z
#
# Youngs Moduli (GPa) = 42.47631 96.38070 55.29772
#
# Poissons Ratio (x) = 0.52598 0.28295
# Poissons Ratio (y) = 0.23181 0.32527
# Poissons Ratio (z) = 0.21734 0.56693
#
# Static dielectric constant tensor:
#      x y z
#    x 1.877150 -0.008860 -0.027110 
#    y -0.008860 1.892270 0.020470 
#    z -0.027110 0.020470 1.908360 
# 
# From -- ./inp_files/585531.got.cif
#   From: 2010.05.17/outbox.cif.g08.bks.cpg/sg2_293_cif.got.tgz:585531.got - 2010.06.03 11:33:40.
