data_PCOD9027864
_publ_section_title
;
Structure prediction by ZEFSAII (Michael W. Deem and Ramdas Pophale) SiO2 
 PCOD9027864
Probable space group: P -1
;
_chemical_formula_sum "Si O2"
_cell_formula_units_Z 14
_cell_length_a 11.310581
_cell_length_b 8.237323
_cell_length_c 17.471249
_cell_angle_alpha 130.827296
_cell_angle_beta 33.930724
_cell_angle_gamma 141.379716
_cell_volume 567.042699
_symmetry_space_group_name_H-M "P -1"
_symmetry_group_IT_number 2
_symmetry_cell_setting 'triclinic'
loop_
_space_group_symop_operation_xyz
x,y,z
-x,-y,-z
loop_
_atom_site_type_symbol
_atom_site_label
_atom_site_fract_x
_atom_site_fract_y
_atom_site_fract_z
Si Si1 0.414381 0.669925 0.640748
Si Si2 0.571753 0.419254 0.839982
Si Si3 0.223885 0.006099 0.311921
Si Si4 0.906323 0.643575 0.146684
Si Si5 0.418941 0.129192 0.981615
Si Si6 0.885877 0.411385 0.355383
Si Si7 0.635257 0.466208 0.648180
O O1 0.500000 0.500000 0.500000
O O2 0.627452 0.870251 0.648726
O O3 0.170185 0.482396 0.767812
O O4 0.316030 0.767937 0.656565
O O5 0.461267 0.595898 0.956919
O O6 0.617838 0.376041 0.715849
O O7 0.858244 0.581676 0.772916
O O8 0.405861 0.182317 0.914329
O O9 0.184969 0.217129 0.360678
O O10 0.998784 0.711305 0.362088
O O11 0.410590 0.985129 0.147180
O O12 0.647986 0.611178 0.246159
O O13 0.146122 0.936574 0.106060
O O14 0.000000 0.500000 0.000000
O O15 0.742772 0.359846 0.496588
#
# Coordination Sequence:
#
# PCOD9027864 Si02
#       7
#     2   2   2   2   2   2   2
#     4  11  22  40  67 103 130 163 225 277 329 394
#     4  10  25  42  64  93 137 181 218 264 336 415
#     4  10  22  41  69  98 128 174 225 282 330 377
#     4  11  22  40  67 102 128 164 223 286 330 377
#     4  10  22  46  59  97 133 174 228 263 337 396
#     4  11  23  44  66  97 138 177 218 276 335 401
#     4  11  22  41  66  97 131 171 228 272 332 394
#
# _framework density 24.689498
#
# number of rings (size 3 to 8) (size 9 to 14) (size 15 to 20)
#    0.000    1.429    5.714    0.857    2.000    4.571 
#    5.143    0.714    0.000    0.000    0.000    0.000 
#    0.000    0.000    0.000    0.000    0.000    0.000 
#
# Total GULP energy -78320.149294 kJ/mol
# GULP energy per Si atom -5594.296378 kJ/mol
# Density = 2.463330 g / cm^3
# Si number density = 24.689498 Si / 1000 Ang^3
#
#
#
# Elastic Constant Matrix: (Units=GPa)
#
#
# Indices 1 2 3 4 5 6 
#
# 1 94.9098 4.9643 17.0386 0.0758 27.0026 12.5677
# 2 4.9643 70.3009 9.6345 -1.2098 12.9605 -0.1193
# 3 17.0386 9.6345 146.1070 -4.8919 19.6079 1.2408
# 4 0.0758 -1.2098 -4.8919 29.4028 -10.4655 0.6397
# 5 27.0026 12.9605 19.6079 -10.4655 48.2846 -7.4511
# 6 12.5677 -0.1193 1.2408 0.6397 -7.4511 20.7931
#
#
#
# Elastic Compliance Matrix: (Units=1/GPa)
#
#
# Indices 1 2 3 4 5 6 
#
# 1 0.015741 0.001039 -0.000322 -0.003998 -0.011922 -0.013638
# 2 0.001039 0.015124 -0.000459 -0.001212 -0.005071 -0.002293
# 3 -0.000322 -0.000459 0.007307 0.000225 -0.002809 -0.001258
# 4 -0.003998 -0.001212 0.000225 0.037997 0.011533 0.005360
# 5 -0.011922 -0.005071 -0.002809 0.011533 0.035416 0.019681
# 6 -0.013638 -0.002293 -0.001258 0.005360 0.019681 0.063285
#
#
# Mechanical properties :
#
#
# Convention : Reuss Voigt Hill
#
# Bulk Modulus (GPa) = 25.84846 41.62138 33.73492
# Shear Modulus (GPa) = 26.70204 38.34144 32.52174
#
# Velocity S-wave (km/s) = 3.29221 3.94502 3.63330
# Velocity P-wave (km/s) = 4.99436 6.13559 5.59415
#
# Compressibility (1/GPa) = 0.03868702
#
# Stress axis : x y z
#
# Youngs Moduli (GPa) = 63.52905 66.11922 136.84799
#
# Poissons Ratio (x) = -0.06867 0.04410
# Poissons Ratio (y) = -0.06598 0.06282
# Poissons Ratio (z) = 0.02047 0.03035
#
# Static dielectric constant tensor:
#      x y z
#    x 1.997650 -0.006620 -0.024340 
#    y -0.006620 2.020240 0.009920 
#    z -0.024340 0.009920 1.914650 
# 
# From -- ./inp_files/172768.got.cif
#   From: 2010.05.17/outbox.cif.g08.bks.cpg/sg2_87_cif.got.tgz:172768.got - 2010.06.03 11:33:40.
