data_PCOD9027693
_publ_section_title
;
Structure prediction by ZEFSAII (Michael W. Deem and Ramdas Pophale) SiO2 
 PCOD9027693
Probable space group: P -1
;
_chemical_formula_sum "Si O2"
_cell_formula_units_Z 16
_cell_length_a 9.536265
_cell_length_b 22.509332
_cell_length_c 5.318969
_cell_angle_alpha 122.447221
_cell_angle_beta 49.302384
_cell_angle_gamma 130.469274
_cell_volume 645.696623
_symmetry_space_group_name_H-M "P -1"
_symmetry_group_IT_number 2
_symmetry_cell_setting 'triclinic'
loop_
_space_group_symop_operation_xyz
x,y,z
-x,-y,-z
loop_
_atom_site_type_symbol
_atom_site_label
_atom_site_fract_x
_atom_site_fract_y
_atom_site_fract_z
Si Si1 0.787782 0.918594 0.623263
Si Si2 0.899795 0.861054 0.742165
Si Si3 0.305567 0.953980 0.806577
Si Si4 0.199384 0.674883 0.095875
Si Si5 0.648250 0.594127 0.059775
Si Si6 0.242599 0.318648 0.369257
Si Si7 0.492043 0.153359 0.673199
Si Si8 0.085262 0.591547 0.539290
O O1 0.929176 0.869520 0.432217
O O2 0.643728 0.855687 0.433546
O O3 0.000000 0.000000 0.500000
O O4 0.659908 0.973717 0.890818
O O5 0.812337 0.772438 0.734081
O O6 0.094052 0.921303 0.809889
O O7 0.711049 0.889671 0.983903
O O8 0.344677 0.878794 0.649568
O O9 0.500000 0.000000 0.500000
O O10 0.379138 0.760950 0.159788
O O11 0.181114 0.614487 0.202501
O O12 0.980068 0.679336 0.361915
O O13 0.226511 0.645809 0.724519
O O14 0.626189 0.630134 0.430118
O O15 0.500000 0.500000 0.000000
O O16 0.637880 0.641793 0.936839
O O17 0.883031 0.605565 0.806439
O O18 0.000000 0.500000 0.500000
#
# Coordination Sequence:
#
# PCOD9027693 Si02
#       8
#     2   2   2   2   2   2   2   2
#     4  12  26  46  71 103 138 185 251 306 360 438
#     4  12  26  45  70 103 145 180 248 301 359 438
#     4  12  24  48  71  97 142 187 235 309 372 427
#     4  10  23  43  66 101 139 187 235 283 366 428
#     4  10  22  41  69 100 138 184 232 282 358 428
#     4  10  23  43  67 100 141 187 230 295 356 428
#     4  12  26  44  71 102 139 190 240 294 371 433
#     4  10  22  41  69  99 139 181 233 290 343 430
#
# _framework density 24.779440000000001
#
# number of rings (size 3 to 8) (size 9 to 14) (size 15 to 20)
#    0.000    1.000    3.750    2.250    3.500    2.000 
#    4.500    0.000    0.000    0.000    0.000    0.000 
#    0.000    0.000    0.000    0.000    0.000    0.000 
#
# Total GULP energy -89185.403106 kJ/mol
# GULP energy per Si atom -5574.087694 kJ/mol
# Density = 2.472304 g / cm^3
# Si number density = 24.779440 Si / 1000 Ang^3
#
#
#
# Elastic Constant Matrix: (Units=GPa)
#
#
# Indices 1 2 3 4 5 6 
#
# 1 142.9729 61.0523 36.9041 7.6072 28.2686 6.5779
# 2 61.0523 163.3864 26.3414 22.0300 34.5308 -5.5377
# 3 36.9041 26.3414 77.4372 13.2391 18.4886 5.4568
# 4 7.6072 22.0300 13.2391 39.9444 9.8582 5.1973
# 5 28.2686 34.5308 18.4886 9.8582 51.8267 4.2845
# 6 6.5779 -5.5377 5.4568 5.1973 4.2845 54.0458
#
#
#
# Elastic Compliance Matrix: (Units=1/GPa)
#
#
# Indices 1 2 3 4 5 6 
#
# 1 0.009425 -0.002746 -0.003171 0.001495 -0.002376 -0.001064
# 2 -0.002746 0.008463 -0.000268 -0.003419 -0.003547 0.001838
# 3 -0.003171 -0.000268 0.015913 -0.003694 -0.003012 -0.000654
# 4 0.001495 -0.003419 -0.003694 0.028827 -0.002477 -0.002735
# 5 -0.002376 -0.003547 -0.003012 -0.002477 0.024623 -0.001484
# 6 -0.001064 0.001838 -0.000654 -0.002735 -0.001484 0.019267
#
#
# Mechanical properties :
#
#
# Convention : Reuss Voigt Hill
#
# Bulk Modulus (GPa) = 46.66311 70.26578 58.46445
# Shear Modulus (GPa) = 39.67299 46.46327 43.06813
#
# Velocity S-wave (km/s) = 4.00565 4.33491 4.17353
# Velocity P-wave (km/s) = 6.34554 7.31254 6.84614
#
# Compressibility (1/GPa) = 0.02143020
#
# Stress axis : x y z
#
# Youngs Moduli (GPa) = 106.10590 118.16597 62.84282
#
# Poissons Ratio (x) = 0.32447 0.19926
# Poissons Ratio (y) = 0.29136 0.01686
# Poissons Ratio (z) = 0.33643 0.03170
#
# Static dielectric constant tensor:
#      x y z
#    x 1.891850 0.009290 0.147970 
#    y 0.009290 1.915820 -0.212010 
#    z 0.147970 -0.212010 1.743350 
# 
# From -- ./inp_files/53636.got.cif
#   From: 2010.05.17/outbox.cif.g08.bks.cpg/sg2_27_cif.got.tgz:53636.got - 2010.06.03 11:33:40.
