data_PCOD9027784
_publ_section_title
;
Structure prediction by ZEFSAII (Michael W. Deem and Ramdas Pophale) SiO2 
 PCOD9027784
Probable space group: P -1
;
_chemical_formula_sum "Si O2"
_cell_formula_units_Z 16
_cell_length_a 17.998332
_cell_length_b 7.899496
_cell_length_c 8.004592
_cell_angle_alpha 144.866785
_cell_angle_beta 88.400936
_cell_angle_gamma 97.865546
_cell_volume 641.693048
_symmetry_space_group_name_H-M "P -1"
_symmetry_group_IT_number 2
_symmetry_cell_setting 'triclinic'
loop_
_space_group_symop_operation_xyz
x,y,z
-x,-y,-z
loop_
_atom_site_type_symbol
_atom_site_label
_atom_site_fract_x
_atom_site_fract_y
_atom_site_fract_z
Si Si1 0.643811 0.760203 0.539686
Si Si2 0.902253 0.124738 0.130780
Si Si3 0.740242 0.333745 0.014436
Si Si4 0.511309 0.329715 0.694853
Si Si5 0.329315 0.312834 0.147102
Si Si6 0.840000 0.980595 0.549988
Si Si7 0.770419 0.207859 0.428579
Si Si8 0.039694 0.217701 0.423176
O O1 0.556408 0.655691 0.417572
O O2 0.658487 0.829994 0.790359
O O3 0.676452 0.090508 0.721464
O O4 0.687840 0.494329 0.271577
O O5 0.821354 0.173445 0.236702
O O6 0.943529 0.423826 0.270488
O O7 0.954361 0.107556 0.277965
O O8 0.910193 0.842822 0.790737
O O9 0.801254 0.107550 0.817959
O O10 0.796930 0.649562 0.226431
O O11 0.592821 0.467275 0.725829
O O12 0.500000 0.000000 0.500000
O O13 0.500000 0.500000 0.000000
O O14 0.262895 0.496331 0.321725
O O15 0.301289 0.066908 0.808850
O O16 0.924175 0.947778 0.566317
O O17 0.821947 0.189584 0.571580
#
# Coordination Sequence:
#
# PCOD9027784 Si02
#       8
#     2   2   2   2   2   2   2   2
#     4  11  25  46  70  94 133 175 218 276 325 405
#     4  10  23  42  63 102 128 182 218 275 325 394
#     4  10  24  37  70  97 127 170 223 264 335 386
#     4  12  28  46  72  98 133 177 219 273 333 402
#     4  12  28  45  67 102 133 178 216 280 328 400
#     4  11  24  40  65  98 138 174 219 276 321 410
#     4  12  27  41  67 100 143 167 224 274 339 383
#     4  10  22  41  69  91 138 173 232 262 324 399
#
# _framework density 24.934041000000001
#
# number of rings (size 3 to 8) (size 9 to 14) (size 15 to 20)
#    0.000    1.000    0.000    4.875   21.000    0.500 
#    0.000    3.750    0.000    7.500    0.000    0.000 
#    0.000    0.000    0.000    0.000    0.000    0.000 
#
# Total GULP energy -89321.983389 kJ/mol
# GULP energy per Si atom -5582.623962 kJ/mol
# Density = 2.487729 g / cm^3
# Si number density = 24.934041 Si / 1000 Ang^3
#
#
#
# Elastic Constant Matrix: (Units=GPa)
#
#
# Indices 1 2 3 4 5 6 
#
# 1 84.0790 25.7977 9.5165 -6.0699 -8.9310 -9.0863
# 2 25.7977 54.9416 22.8580 -14.1259 -4.0852 -31.8217
# 3 9.5165 22.8580 154.1382 16.2345 -7.6578 -1.9666
# 4 -6.0699 -14.1259 16.2345 37.3144 -5.1205 4.0307
# 5 -8.9310 -4.0852 -7.6578 -5.1205 32.0740 -6.3561
# 6 -9.0863 -31.8217 -1.9666 4.0307 -6.3561 46.2108
#
#
#
# Elastic Compliance Matrix: (Units=1/GPa)
#
#
# Indices 1 2 3 4 5 6 
#
# 1 0.014353 -0.008305 0.000480 -0.000406 0.002494 -0.002498
# 2 -0.008305 0.049855 -0.007900 0.019062 0.011594 0.032294
# 3 0.000480 -0.007900 0.008172 -0.006083 -0.000800 -0.004577
# 4 -0.000406 0.019062 -0.006083 0.036644 0.008855 0.010810
# 5 0.002494 0.011594 -0.000800 0.008855 0.037103 0.012771
# 6 -0.002498 0.032294 -0.004577 0.010810 0.012771 0.044006
#
#
# Mechanical properties :
#
#
# Convention : Reuss Voigt Hill
#
# Bulk Modulus (GPa) = 24.43172 45.50036 34.96604
# Shear Modulus (GPa) = 21.25613 38.78561 30.02087
#
# Velocity S-wave (km/s) = 2.92292 3.94830 3.47365
# Velocity P-wave (km/s) = 4.60555 6.25086 5.49019
#
# Compressibility (1/GPa) = 0.04093040
#
# Stress axis : x y z
#
# Youngs Moduli (GPa) = 69.67171 20.05810 122.36602
#
# Poissons Ratio (x) = 0.16658 -0.05876
# Poissons Ratio (y) = 0.57862 0.96672
# Poissons Ratio (z) = -0.03346 0.15846
#
# Static dielectric constant tensor:
#      x y z
#    x 2.010010 0.013470 0.027650 
#    y 0.013470 2.004910 -0.033840 
#    z 0.027650 -0.033840 1.892520 
# 
# From -- ./inp_files/217784.got.cif
#   From: 2010.05.17/outbox.cif.g08.bks.cpg/sg2_109_cif.got.tgz:217784.got - 2010.06.03 11:33:40.
