data_PCOD9027794
_publ_section_title
;
Structure prediction by ZEFSAII (Michael W. Deem and Ramdas Pophale) SiO2 
 PCOD9027794
Probable space group: P -1
;
_chemical_formula_sum "Si O2"
_cell_formula_units_Z 16
_cell_length_a 18.508383
_cell_length_b 15.296401
_cell_length_c 12.177912
_cell_angle_alpha 25.180013
_cell_angle_beta 43.861255
_cell_angle_gamma 29.998316
_cell_volume 700.790882
_symmetry_space_group_name_H-M "P -1"
_symmetry_group_IT_number 2
_symmetry_cell_setting 'triclinic'
loop_
_space_group_symop_operation_xyz
x,y,z
-x,-y,-z
loop_
_atom_site_type_symbol
_atom_site_label
_atom_site_fract_x
_atom_site_fract_y
_atom_site_fract_z
Si Si1 0.283806 0.656682 0.534929
Si Si2 0.260356 0.377123 0.684171
Si Si3 0.190992 0.216538 0.390856
Si Si4 0.961788 0.669862 0.959890
Si Si5 0.573611 0.442630 0.104187
Si Si6 0.681891 0.706049 0.638406
Si Si7 0.070802 0.719226 0.315097
Si Si8 0.525606 0.263815 0.893199
O O1 0.282198 0.460022 0.681439
O O2 0.362623 0.505311 0.737675
O O3 0.381495 0.690285 0.324106
O O4 0.121823 0.995404 0.341893
O O5 0.155274 0.325767 0.864755
O O6 0.165303 0.661084 0.384392
O O7 0.411143 0.056477 0.834782
O O8 0.251842 0.267851 0.362726
O O9 0.110683 0.462798 0.105646
O O10 0.063441 0.242766 0.547323
O O11 0.336258 0.877733 0.580958
O O12 0.000000 0.500000 0.000000
O O13 0.473712 0.676723 0.046670
O O14 0.500000 0.500000 0.000000
O O15 0.693699 0.447318 0.940285
O O16 0.794392 0.590014 0.546697
O O17 0.500000 0.000000 0.500000
O O18 0.000000 0.000000 0.000000
#
# Coordination Sequence:
#
# PCOD9027794 Si02
#       8
#     2   2   2   2   2   2   2   2
#     4  10  22  41  69  93 131 178 223 283 342 405
#     4  10  23  40  66  96 128 178 229 273 342 411
#     4  11  25  43  67  96 136 179 226 280 342 409
#     4  10  23  42  63  99 132 169 225 284 341 406
#     4  12  25  41  65  99 137 177 226 284 344 407
#     4  12  25  43  66  97 133 180 231 278 342 402
#     4  11  24  43  66  96 137 181 225 279 339 412
#     4  10  23  42  63  98 135 172 226 284 342 407
#
# _framework density 22.831346
#
# number of rings (size 3 to 8) (size 9 to 14) (size 15 to 20)
#    0.000    1.250    2.500    2.250    3.500    2.500 
#    0.000    0.000    0.000    0.000    0.000    0.000 
#    0.000    0.000    0.000    0.000    0.000    0.000 
#
# Total GULP energy -89345.267053 kJ/mol
# GULP energy per Si atom -5584.079191 kJ/mol
# Density = 2.277938 g / cm^3
# Si number density = 22.831346 Si / 1000 Ang^3
#
#
#
# Elastic Constant Matrix: (Units=GPa)
#
#
# Indices 1 2 3 4 5 6 
#
# 1 126.9202 24.5141 40.8441 -20.0935 12.4561 13.9862
# 2 24.5141 77.3135 30.0090 -21.9886 9.2433 14.7269
# 3 40.8441 30.0090 109.8876 -32.9007 22.0986 -2.4466
# 4 -20.0935 -21.9886 -32.9007 38.1149 -1.1192 -6.0925
# 5 12.4561 9.2433 22.0986 -1.1192 41.0513 0.6408
# 6 13.9862 14.7269 -2.4466 -6.0925 0.6408 34.6304
#
#
#
# Elastic Compliance Matrix: (Units=1/GPa)
#
#
# Indices 1 2 3 4 5 6 
#
# 1 0.009666 -0.000709 -0.002703 0.001764 -0.001216 -0.003460
# 2 -0.000709 0.017318 -0.002119 0.006763 -0.002266 -0.005996
# 3 -0.002703 -0.002119 0.015618 0.011470 -0.006879 0.005241
# 4 0.001764 0.006763 0.011470 0.041502 -0.007174 0.004656
# 5 -0.001216 -0.002266 -0.006879 -0.007174 0.028759 -0.000826
# 6 -0.003460 -0.005996 0.005241 0.004656 -0.000826 0.034029
#
#
# Mechanical properties :
#
#
# Convention : Reuss Voigt Hill
#
# Bulk Modulus (GPa) = 31.70672 56.09507 43.90089
# Shear Modulus (GPa) = 29.67930 37.34292 33.51111
#
# Velocity S-wave (km/s) = 3.60937 4.04864 3.83530
# Velocity P-wave (km/s) = 5.59353 6.81748 6.23561
#
# Compressibility (1/GPa) = 0.03153906
#
# Stress axis : x y z
#
# Youngs Moduli (GPa) = 103.45709 57.74287 64.02971
#
# Poissons Ratio (x) = 0.04096 0.17309
# Poissons Ratio (y) = 0.07338 0.13566
# Poissons Ratio (z) = 0.27968 0.12234
#
# Static dielectric constant tensor:
#      x y z
#    x 1.811280 -0.001800 0.000440 
#    y -0.001800 1.937670 0.014470 
#    z 0.000440 0.014470 1.918510 
# 
# From -- ./inp_files/382604.got.cif
#   From: 2010.05.17/outbox.cif.g08.bks.cpg/sg2_192_cif.got.tgz:382604.got - 2010.06.03 11:33:40.
