data_PCOD9027899
_publ_section_title
;
Structure prediction by ZEFSAII (Michael W. Deem and Ramdas Pophale) SiO2 
 PCOD9027899
Probable space group: P -1
;
_chemical_formula_sum "Si O2"
_cell_formula_units_Z 16
_cell_length_a 13.648253
_cell_length_b 14.645398
_cell_length_c 8.028861
_cell_angle_alpha 71.707678
_cell_angle_beta 39.006965
_cell_angle_gamma 46.218089
_cell_volume 634.702999
_symmetry_space_group_name_H-M "P -1"
_symmetry_group_IT_number 2
_symmetry_cell_setting 'triclinic'
loop_
_space_group_symop_operation_xyz
x,y,z
-x,-y,-z
loop_
_atom_site_type_symbol
_atom_site_label
_atom_site_fract_x
_atom_site_fract_y
_atom_site_fract_z
Si Si1 0.877014 0.135610 0.242568
Si Si2 0.849604 0.398825 0.994628
Si Si3 0.904688 0.446265 0.242361
Si Si4 0.340673 0.951348 0.274793
Si Si5 0.701923 0.928544 0.407439
Si Si6 0.800658 0.630456 0.815149
Si Si7 0.076340 0.852137 0.470955
Si Si8 0.624715 0.328034 0.146835
O O1 0.829969 0.047226 0.405231
O O2 0.719489 0.222337 0.237754
O O3 0.817497 0.216016 0.449482
O O4 0.127211 0.067756 0.900877
O O5 0.117436 0.242563 0.685907
O O6 0.748837 0.551785 0.014005
O O7 0.876385 0.382817 0.168585
O O8 0.686224 0.404076 0.099666
O O9 0.075722 0.355660 0.224167
O O10 0.643349 0.574944 0.583788
O O11 0.000000 0.500000 0.000000
O O12 0.405127 0.988313 0.323137
O O13 0.173284 0.078572 0.287994
O O14 0.556487 0.793922 0.998404
O O15 0.500000 0.000000 0.500000
O O16 0.000000 0.500000 0.500000
O O17 0.000000 0.000000 0.500000
O O18 0.245784 0.748517 0.154704
#
# Coordination Sequence:
#
# PCOD9027899 Si02
#       8
#     2   2   2   2   2   2   2   2
#     4  10  22  41  70 100 135 180 232 279 353 409
#     4  10  22  46  64 101 135 182 236 283 354 414
#     4  10  22  42  67  97 134 190 232 274 351 423
#     4  11  22  45  66 100 139 183 239 279 338 434
#     4  11  23  41  69 102 137 178 233 292 355 406
#     4  11  26  45  68 100 144 189 229 285 353 428
#     4  10  23  39  69 109 131 179 241 287 342 413
#     4  11  22  44  73 102 142 177 240 300 345 409
#
# _framework density 25.208642999999999
#
# number of rings (size 3 to 8) (size 9 to 14) (size 15 to 20)
#    0.000    1.500    2.500    3.000    5.250    3.000 
#    6.750    1.875    0.000    0.000    0.000    0.000 
#    0.000    0.000    0.000    0.000    0.000    0.000 
#
# Total GULP energy -89263.203189 kJ/mol
# GULP energy per Si atom -5578.950199 kJ/mol
# Density = 2.515127 g / cm^3
# Si number density = 25.208643 Si / 1000 Ang^3
#
#
#
# Elastic Constant Matrix: (Units=GPa)
#
#
# Indices 1 2 3 4 5 6 
#
# 1 133.0233 9.4058 49.9308 6.3708 19.3734 9.4017
# 2 9.4058 56.9467 21.8993 12.1946 -5.5048 20.6831
# 3 49.9308 21.8993 141.9462 28.0053 0.8308 15.4737
# 4 6.3708 12.1946 28.0053 29.2766 1.1182 -3.8575
# 5 19.3734 -5.5048 0.8308 1.1182 63.5271 5.0334
# 6 9.4017 20.6831 15.4737 -3.8575 5.0334 21.7200
#
#
#
# Elastic Compliance Matrix: (Units=1/GPa)
#
#
# Indices 1 2 3 4 5 6 
#
# 1 0.009203 -0.001106 -0.003513 0.002011 -0.002940 0.000610
# 2 -0.001106 0.039891 0.004830 -0.027586 0.007996 -0.047701
# 3 -0.003513 0.004830 0.012091 -0.014894 0.002781 -0.014983
# 4 0.002011 -0.027586 -0.014894 0.066297 -0.007907 0.049616
# 5 -0.002940 0.007996 0.002781 -0.007907 0.018545 -0.014024
# 6 0.000610 -0.047701 -0.014983 0.049616 -0.014024 0.113936
#
#
# Mechanical properties :
#
#
# Convention : Reuss Voigt Hill
#
# Bulk Modulus (GPa) = 16.23146 54.93198 35.58172
# Shear Modulus (GPa) = 17.85244 39.61676 28.73460
#
# Velocity S-wave (km/s) = 2.66407 3.96858 3.37986
# Velocity P-wave (km/s) = 3.98946 6.54506 5.42004
#
# Compressibility (1/GPa) = 0.06160876
#
# Stress axis : x y z
#
# Youngs Moduli (GPa) = 108.66113 25.06845 82.70787
#
# Poissons Ratio (x) = 0.02772 0.29052
# Poissons Ratio (y) = 0.12014 -0.39952
# Poissons Ratio (z) = 0.38169 -0.12109
#
# Static dielectric constant tensor:
#      x y z
#    x 1.965470 0.000770 0.052210 
#    y 0.000770 2.166850 -0.013450 
#    z 0.052210 -0.013450 2.069240 
# 
# From -- ./inp_files/315024.got.cif
#   From: 2010.05.17/outbox.cif.g08.bks.cpg/sg2_158_cif.got.tgz:315024.got - 2010.06.03 11:33:40.
