data_PCOD9027585
_publ_section_title
;
Structure prediction by ZEFSAII (Michael W. Deem and Ramdas Pophale) SiO2 
 PCOD9027585
Probable space group: P -1
;
_chemical_formula_sum "Si O2"
_cell_formula_units_Z 16
_cell_length_a 15.356437
_cell_length_b 8.931859
_cell_length_c 9.066721
_cell_angle_alpha 100.019771
_cell_angle_beta 37.529321
_cell_angle_gamma 92.678423
_cell_volume 737.327899
_symmetry_space_group_name_H-M "P -1"
_symmetry_group_IT_number 2
_symmetry_cell_setting 'triclinic'
loop_
_space_group_symop_operation_xyz
x,y,z
-x,-y,-z
loop_
_atom_site_type_symbol
_atom_site_label
_atom_site_fract_x
_atom_site_fract_y
_atom_site_fract_z
Si Si1 0.834237 0.475670 0.341942
Si Si2 0.131699 0.867426 0.260781
Si Si3 0.668484 0.668304 0.068952
Si Si4 0.650913 0.116047 0.818452
Si Si5 0.111068 0.558178 0.085809
Si Si6 0.657861 0.758570 0.759004
Si Si7 0.650805 0.223664 0.524786
Si Si8 0.329241 0.000151 0.781223
O O1 0.760210 0.651198 0.493179
O O2 0.733371 0.353560 0.500959
O O3 0.976704 0.464218 0.248255
O O4 0.856913 0.439783 0.131613
O O5 0.211404 0.815738 0.297816
O O6 0.074737 0.729785 0.227551
O O7 0.000000 0.000000 0.500000
O O8 0.265860 0.920109 0.995306
O O9 0.496485 0.689444 0.334121
O O10 0.721910 0.820371 0.090961
O O11 0.758456 0.525124 0.004799
O O12 0.676594 0.676546 0.880809
O O13 0.616980 0.123880 0.691861
O O14 0.681394 0.934243 0.779734
O O15 0.503397 0.217096 0.089628
O O16 0.730472 0.099365 0.283874
O O17 0.500000 0.000000 0.500000
#
# Coordination Sequence:
#
# PCOD9027585 Si02
#       8
#     2   2   2   2   2   2   2   2
#     4  11  25  45  63  95 139 180 226 290 349 418
#     4  12  25  46  71 100 139 187 235 285 348 426
#     4  10  23  42  68 102 132 178 230 291 341 412
#     4  10  23  41  68 100 130 185 231 287 340 413
#     4  11  27  44  65  97 139 182 226 286 358 411
#     4  10  22  41  68  95 137 172 232 285 346 403
#     4  10  23  43  67  99 137 178 232 285 347 412
#     4  10  22  45  69 101 139 175 234 292 336 411
#
# _framework density 21.69998
#
# number of rings (size 3 to 8) (size 9 to 14) (size 15 to 20)
#    0.000    1.500    2.500    0.750    7.000    4.000 
#    0.000    1.250    0.000    0.000    0.000    0.000 
#    0.000    0.000    0.000    0.000    0.000    0.000 
#
# Total GULP energy -89113.628317 kJ/mol
# GULP energy per Si atom -5569.601770 kJ/mol
# Density = 2.165059 g / cm^3
# Si number density = 21.699980 Si / 1000 Ang^3
#
#
#
# Elastic Constant Matrix: (Units=GPa)
#
#
# Indices 1 2 3 4 5 6 
#
# 1 109.2160 29.3960 37.6619 16.6640 -7.4541 14.4332
# 2 29.3960 55.9037 21.0101 2.4703 4.9081 17.4797
# 3 37.6619 21.0101 50.9176 18.8775 2.5733 5.9560
# 4 16.6640 2.4703 18.8775 29.0846 11.5440 7.6300
# 5 -7.4541 4.9081 2.5733 11.5440 17.7187 0.7820
# 6 14.4332 17.4797 5.9560 7.6300 0.7820 26.5320
#
#
#
# Elastic Compliance Matrix: (Units=1/GPa)
#
#
# Indices 1 2 3 4 5 6 
#
# 1 0.015972 -0.007687 -0.005003 -0.012387 0.017622 0.000542
# 2 -0.007687 0.036892 -0.016305 0.029912 -0.029506 -0.024195
# 3 -0.005003 -0.016305 0.039275 -0.031226 0.016472 0.013141
# 4 -0.012387 0.029912 -0.031226 0.094963 -0.069454 -0.031221
# 5 0.017622 -0.029506 0.016472 -0.069454 0.113877 0.022772
# 6 0.000542 -0.024195 0.013141 -0.031221 0.022772 0.058693
#
#
# Mechanical properties :
#
#
# Convention : Reuss Voigt Hill
#
# Bulk Modulus (GPa) = 29.28456 43.57481 36.42969
# Shear Modulus (GPa) = 11.65377 23.19836 17.42607
#
# Velocity S-wave (km/s) = 2.31993 3.27318 2.83688
# Velocity P-wave (km/s) = 4.54979 5.86593 5.24927
#
# Compressibility (1/GPa) = 0.03414768
#
# Stress axis : x y z
#
# Youngs Moduli (GPa) = 62.61129 27.10618 25.46126
#
# Poissons Ratio (x) = 0.20837 0.12739
# Poissons Ratio (y) = 0.48131 0.41515
# Poissons Ratio (z) = 0.31325 0.44197
#
# Static dielectric constant tensor:
#      x y z
#    x 1.795770 0.016710 -0.005890 
#    y 0.016710 1.779480 -0.064820 
#    z -0.005890 -0.064820 1.912250 
# 
# From -- ./inp_files/298644.got.cif
#   From: 2010.05.17/outbox.cif.g08.bks.cpg/sg2_150_cif.got.tgz:298644.got - 2010.06.03 11:33:40.
