data_PCOD9027435
_publ_section_title
;
Structure prediction by ZEFSAII (Michael W. Deem and Ramdas Pophale) SiO2 
 PCOD9027435
Probable space group: P -1
;
_chemical_formula_sum "Si O2"
_cell_formula_units_Z 11
_cell_length_a 5.358637
_cell_length_b 16.733063
_cell_length_c 4.752375
_cell_angle_alpha 104.281293
_cell_angle_beta 88.323360
_cell_angle_gamma 74.864353
_cell_volume 396.630701
_symmetry_space_group_name_H-M "P -1"
_symmetry_group_IT_number 2
_symmetry_cell_setting 'triclinic'
loop_
_space_group_symop_operation_xyz
x,y,z
-x,-y,-z
loop_
_atom_site_type_symbol
_atom_site_label
_atom_site_fract_x
_atom_site_fract_y
_atom_site_fract_z
Si Si1 0.297345 0.418230 0.727697
Si Si2 0.848351 0.881343 0.681158
Si Si3 0.218530 0.723938 0.278475
Si Si4 0.033016 0.604029 0.777653
Si Si5 0.339556 0.895085 0.367761
Si Si6 0.000000 0.000000 0.000000
O O1 0.575979 0.351415 0.629328
O O2 0.264688 0.516897 0.738878
O O3 0.081813 0.390855 0.524264
O O4 0.204035 0.412402 0.043696
O O5 0.585475 0.901754 0.539886
O O6 0.992056 0.782939 0.530152
O O7 0.087423 0.925472 0.619142
O O8 0.855007 0.918759 0.020956
O O9 0.361954 0.794588 0.230168
O O10 0.107679 0.682170 0.987902
O O11 0.265484 0.948768 0.137286
#
# Coordination Sequence:
#
# PCOD9027435 Si02
#       6
#     2   2   2   2   2   1
#     4  10  22  41  68 100 141 188 237 290 351 422
#     4  10  25  43  65 100 132 176 233 282 352 419
#     4  10  23  41  64  96 142 178 234 293 353 422
#     4  10  22  41  68 100 141 188 237 290 351 422
#     4  10  25  43  65 100 132 176 233 282 352 419
#     4  12  24  46  76  92 138 182 228 294 350 430
#
# _framework density 27.733609000000001
#
# number of rings (size 3 to 8) (size 9 to 14) (size 15 to 20)
#    1.091    0.727    0.000    2.727    0.000   10.182 
#    0.000    5.455    0.000    0.000    0.000    0.000 
#    0.000    0.000    0.000    0.000    0.000    0.000 
#
# Total GULP energy -61488.517098 kJ/mol
# GULP energy per Si atom -5589.865191 kJ/mol
# Density = 2.767049 g / cm^3
# Si number density = 27.733609 Si / 1000 Ang^3
#
#
#
# Elastic Constant Matrix: (Units=GPa)
#
#
# Indices 1 2 3 4 5 6 
#
# 1 139.4671 52.1699 66.0990 0.9509 30.5239 -26.3643
# 2 52.1699 148.2980 75.5812 32.5429 23.7073 -27.8720
# 3 66.0990 75.5812 139.4794 33.8693 33.1260 4.4627
# 4 0.9509 32.5429 33.8693 60.1336 18.3554 11.4269
# 5 30.5239 23.7073 33.1260 18.3554 65.3468 3.9743
# 6 -26.3643 -27.8720 4.4627 11.4269 3.9743 46.9764
#
#
#
# Elastic Compliance Matrix: (Units=1/GPa)
#
#
# Indices 1 2 3 4 5 6 
#
# 1 0.012018 -0.000070 -0.005648 0.002936 -0.003968 0.006862
# 2 -0.000070 0.012701 -0.005697 -0.005201 -0.000796 0.009370
# 3 -0.005648 -0.005697 0.014199 -0.003125 -0.001187 -0.007038
# 4 0.002936 -0.005201 -0.003125 0.023669 -0.004151 -0.006548
# 5 -0.003968 -0.000796 -0.001187 -0.004151 0.019408 -0.003219
# 6 0.006862 0.009370 -0.007038 -0.006548 -0.003219 0.033231
#
#
# Mechanical properties :
#
#
# Convention : Reuss Voigt Hill
#
# Bulk Modulus (GPa) = 62.15438 90.54941 76.35189
# Shear Modulus (GPa) = 34.86257 50.05099 42.45678
#
# Velocity S-wave (km/s) = 3.54934 4.25279 3.91689
# Velocity P-wave (km/s) = 6.26554 7.53894 6.93154
#
# Compressibility (1/GPa) = 0.01608897
#
# Stress axis : x y z
#
# Youngs Moduli (GPa) = 83.20557 78.73349 70.42697
#
# Poissons Ratio (x) = 0.00551 0.39776
# Poissons Ratio (y) = 0.00582 0.40122
# Poissons Ratio (z) = 0.46993 0.44855
#
# Static dielectric constant tensor:
#      x y z
#    x 2.232890 0.077740 -0.124560 
#    y 0.077740 2.224090 0.066050 
#    z -0.124560 0.066050 2.172470 
# 
# From -- ./inp_files/8616.got.cif
#   From: 2010.05.17/outbox.cif.g08.bks.cpg/sg2_5_cif.got.tgz:8616.got - 2010.06.03 11:33:40.
