data_PCOD9027565
_publ_section_title
;
Structure prediction by ZEFSAII (Michael W. Deem and Ramdas Pophale) SiO2 
 PCOD9027565
Probable space group: P -1
;
_chemical_formula_sum "Si O2"
_cell_formula_units_Z 14
_cell_length_a 5.467069
_cell_length_b 20.179128
_cell_length_c 8.786615
_cell_angle_alpha 51.029740
_cell_angle_beta 125.665323
_cell_angle_gamma 122.318807
_cell_volume 590.246336
_symmetry_space_group_name_H-M "P -1"
_symmetry_group_IT_number 2
_symmetry_cell_setting 'triclinic'
loop_
_space_group_symop_operation_xyz
x,y,z
-x,-y,-z
loop_
_atom_site_type_symbol
_atom_site_label
_atom_site_fract_x
_atom_site_fract_y
_atom_site_fract_z
Si Si1 0.463160 0.992382 0.677989
Si Si2 0.169416 0.398308 0.851053
Si Si3 0.590026 0.673666 0.671001
Si Si4 0.850809 0.875934 0.513335
Si Si5 0.711300 0.861889 0.150912
Si Si6 0.071541 0.747792 0.249258
Si Si7 0.566854 0.433650 0.497597
O O1 0.116797 0.923025 0.658753
O O2 0.500000 0.000000 0.500000
O O3 0.437317 0.084475 0.605626
O O4 0.669408 0.942354 0.918169
O O5 0.285975 0.496595 0.683883
O O6 0.177916 0.320213 0.849175
O O7 0.798057 0.387313 0.736537
O O8 0.345215 0.387354 0.083467
O O9 0.789149 0.771350 0.647635
O O10 0.243630 0.686814 0.500262
O O11 0.670535 0.639876 0.583521
O O12 0.906694 0.896582 0.324779
O O13 0.368708 0.807189 0.173518
O O14 0.887424 0.804058 0.198362
O O15 0.500000 0.500000 0.500000
#
# Coordination Sequence:
#
# PCOD9027565 Si02
#       7
#     2   2   2   2   2   2   2
#     4  11  26  43  69 100 137 183 233 286 341 405
#     4  10  22  41  68  94 141 176 222 284 337 405
#     4  10  22  45  67  98 134 178 229 277 344 408
#     4  10  25  44  65 101 136 179 233 283 341 414
#     4  11  25  45  71  98 143 184 226 286 342 401
#     4  10  25  42  71 105 137 181 234 280 341 403
#     4  10  23  42  65 102 134 176 226 279 344 407
#
# _framework density 23.718913000000001
#
# number of rings (size 3 to 8) (size 9 to 14) (size 15 to 20)
#    0.000    1.714    0.000    1.714   16.000    1.143 
#    5.143    0.000    0.000    0.000    0.000    0.000 
#    0.000    0.000    0.000    0.000    0.000    0.000 
#
# Total GULP energy -78149.705667 kJ/mol
# GULP energy per Si atom -5582.121833 kJ/mol
# Density = 2.366493 g / cm^3
# Si number density = 23.718913 Si / 1000 Ang^3
#
#
#
# Elastic Constant Matrix: (Units=GPa)
#
#
# Indices 1 2 3 4 5 6 
#
# 1 96.2380 33.9363 36.0239 -10.8430 -1.3192 -25.0123
# 2 33.9363 119.6400 23.4564 0.4817 8.5386 -21.5710
# 3 36.0239 23.4564 178.6227 -10.1219 -4.6015 -16.9811
# 4 -10.8430 0.4817 -10.1219 36.7206 4.8110 2.1135
# 5 -1.3192 8.5386 -4.6015 4.8110 15.3734 -6.9455
# 6 -25.0123 -21.5710 -16.9811 2.1135 -6.9455 50.3257
#
#
#
# Elastic Compliance Matrix: (Units=1/GPa)
#
#
# Indices 1 2 3 4 5 6 
#
# 1 0.013825 -0.002902 -0.001622 0.002845 0.003907 0.005499
# 2 -0.002902 0.010030 -0.000709 -0.000650 -0.004942 0.001963
# 3 -0.001622 -0.000709 0.006254 0.000859 0.002446 0.001301
# 4 0.002845 -0.000650 0.000859 0.029537 -0.008850 -0.001037
# 5 0.003907 -0.004942 0.002446 -0.008850 0.076884 0.011631
# 6 0.005499 0.001963 0.001301 -0.001037 0.011631 0.025533
#
#
# Mechanical properties :
#
#
# Convention : Reuss Voigt Hill
#
# Bulk Modulus (GPa) = 50.91348 64.59265 57.75306
# Shear Modulus (GPa) = 27.92077 40.55622 34.23849
#
# Velocity S-wave (km/s) = 3.43469 4.13954 3.80348
# Velocity P-wave (km/s) = 6.10257 7.08092 6.60987
#
# Compressibility (1/GPa) = 0.01964117
#
# Stress axis : x y z
#
# Youngs Moduli (GPa) = 72.33292 99.70225 159.89414
#
# Poissons Ratio (x) = 0.28935 0.25941
# Poissons Ratio (y) = 0.20992 0.11342
# Poissons Ratio (z) = 0.11735 0.07072
#
# Static dielectric constant tensor:
#      x y z
#    x 2.062240 0.104470 0.010930 
#    y 0.104470 2.015520 0.018460 
#    z 0.010930 0.018460 1.851730 
# 
# From -- ./inp_files/138828.got.cif
#   From: 2010.05.17/outbox.cif.g08.bks.cpg/sg2_70_cif.got.tgz:138828.got - 2010.06.03 11:33:40.
