data_PCOD9027788
_publ_section_title
;
Structure prediction by ZEFSAII (Michael W. Deem and Ramdas Pophale) SiO2 
 PCOD9027788
Probable space group: P -1
;
_chemical_formula_sum "Si O2"
_cell_formula_units_Z 14
_cell_length_a 18.142113
_cell_length_b 7.811191
_cell_length_c 9.631222
_cell_angle_alpha 34.226333
_cell_angle_beta 128.907924
_cell_angle_gamma 126.221553
_cell_volume 589.326967
_symmetry_space_group_name_H-M "P -1"
_symmetry_group_IT_number 2
_symmetry_cell_setting 'triclinic'
loop_
_space_group_symop_operation_xyz
x,y,z
-x,-y,-z
loop_
_atom_site_type_symbol
_atom_site_label
_atom_site_fract_x
_atom_site_fract_y
_atom_site_fract_z
Si Si1 0.077824 0.664158 0.088663
Si Si2 0.390945 0.535599 0.002164
Si Si3 0.713785 0.418253 0.710662
Si Si4 0.748961 0.835546 0.749632
Si Si5 0.198076 0.695336 0.695235
Si Si6 0.386384 0.267895 0.868906
Si Si7 0.001914 0.276031 0.523437
O O1 0.185568 0.657100 0.174201
O O2 0.053271 0.467240 0.329987
O O3 0.000000 0.500000 0.000000
O O4 0.053640 0.005458 0.820051
O O5 0.352586 0.219921 0.254005
O O6 0.499567 0.677286 0.062233
O O7 0.314543 0.750082 0.821480
O O8 0.375728 0.448755 0.880581
O O9 0.734869 0.647343 0.714232
O O10 0.664957 0.584122 0.417499
O O11 0.652643 0.092771 0.906590
O O12 0.798587 0.175476 0.542920
O O13 0.816938 0.662065 0.041181
O O14 0.112397 0.832138 0.576140
O O15 0.000000 0.500000 0.500000
#
# Coordination Sequence:
#
# PCOD9027788 Si02
#       7
#     2   2   2   2   2   2   2
#     4  12  27  46  69  98 141 182 221 278 344 401
#     4   9  26  43  71  92 138 174 218 262 346 392
#     4  12  26  43  68  99 136 167 226 275 327 383
#     4  10  23  42  68  92 131 177 214 263 329 397
#     4  10  22  41  69  92 132 171 223 264 330 396
#     4  11  26  43  68 102 131 172 218 278 329 395
#     4  12  26  43  70 101 132 176 235 279 334 395
#
# _framework density 23.755915000000002
#
# number of rings (size 3 to 8) (size 9 to 14) (size 15 to 20)
#    0.857    0.286    0.000    5.143    8.000    2.286 
#    0.000    0.000    0.000    0.000    0.000    0.000 
#    0.000    0.000    0.000    0.000    0.000    0.000 
#
# Total GULP energy -78163.395402 kJ/mol
# GULP energy per Si atom -5583.099672 kJ/mol
# Density = 2.370185 g / cm^3
# Si number density = 23.755915 Si / 1000 Ang^3
#
#
#
# Elastic Constant Matrix: (Units=GPa)
#
#
# Indices 1 2 3 4 5 6 
#
# 1 138.7505 54.1563 55.8336 23.3909 -10.7780 20.7508
# 2 54.1563 130.4257 61.1591 16.0298 -1.7331 2.2263
# 3 55.8336 61.1591 192.7772 15.4880 -32.6155 -5.6481
# 4 23.3909 16.0298 15.4880 25.8516 2.3331 -0.1748
# 5 -10.7780 -1.7331 -32.6155 2.3331 58.9877 5.8862
# 6 20.7508 2.2263 -5.6481 -0.1748 5.8862 46.3653
#
#
#
# Elastic Compliance Matrix: (Units=1/GPa)
#
#
# Indices 1 2 3 4 5 6 
#
# 1 0.011180 -0.002864 -0.001545 -0.007625 0.001938 -0.005329
# 2 -0.002864 0.010258 -0.002504 -0.002122 -0.001590 0.000678
# 3 -0.001545 -0.002504 0.007204 -0.001680 0.003571 0.001230
# 4 -0.007625 -0.002122 -0.001680 0.048356 -0.004705 0.004089
# 5 0.001938 -0.001590 0.003571 -0.004705 0.019708 -0.002875
# 6 -0.005329 0.000678 0.001230 0.004089 -0.002875 0.024450
#
#
# Mechanical properties :
#
#
# Convention : Reuss Voigt Hill
#
# Bulk Modulus (GPa) = 67.48924 89.36127 78.42525
# Shear Modulus (GPa) = 35.73460 45.62789 40.68124
#
# Velocity S-wave (km/s) = 3.88266 4.38733 4.14269
# Velocity P-wave (km/s) = 6.96930 7.96009 7.48111
#
# Compressibility (1/GPa) = 0.01481718
#
# Stress axis : x y z
#
# Youngs Moduli (GPa) = 89.44882 97.48088 138.80470
#
# Poissons Ratio (x) = 0.27915 0.21447
# Poissons Ratio (y) = 0.25615 0.34754
# Poissons Ratio (z) = 0.13821 0.24407
#
# Static dielectric constant tensor:
#      x y z
#    x 1.933590 -0.029940 0.009850 
#    y -0.029940 2.058760 -0.056700 
#    z 0.009850 -0.056700 2.005460 
# 
# From -- ./inp_files/124445.got.cif
#   From: 2010.05.17/outbox.cif.g08.bks.cpg/sg2_63_cif.got.tgz:124445.got - 2010.06.03 11:33:40.
