data_PCOD9027008
_publ_section_title
;
Structure prediction by ZEFSAII (Michael W. Deem and Ramdas Pophale) SiO2 
 PCOD9027008
Probable space group: P -1
;
_chemical_formula_sum "Si O2"
_cell_formula_units_Z 13
_cell_length_a 6.131478
_cell_length_b 7.721924
_cell_length_c 17.277256
_cell_angle_alpha 115.136633
_cell_angle_beta 42.149976
_cell_angle_gamma 105.733064
_cell_volume 495.674667
_symmetry_space_group_name_H-M "P -1"
_symmetry_group_IT_number 2
_symmetry_cell_setting 'triclinic'
loop_
_space_group_symop_operation_xyz
x,y,z
-x,-y,-z
loop_
_atom_site_type_symbol
_atom_site_label
_atom_site_fract_x
_atom_site_fract_y
_atom_site_fract_z
Si Si1 0.488916 0.963592 0.256164
Si Si2 0.392286 0.778675 0.873562
Si Si3 0.318786 0.442337 0.721517
Si Si4 0.625252 0.303223 0.889551
Si Si5 0.221960 0.856696 0.527080
Si Si6 0.128697 0.760695 0.704969
Si Si7 0.500000 0.000000 0.000000
O O1 0.561989 0.109896 0.195590
O O2 0.698589 0.046376 0.284952
O O3 0.108414 0.022918 0.386320
O O4 0.506195 0.756796 0.171446
O O5 0.319418 0.573234 0.822916
O O6 0.739541 0.790557 0.833510
O O7 0.189837 0.890876 0.013469
O O8 0.640290 0.301894 0.600441
O O9 0.273002 0.584438 0.685544
O O10 0.007929 0.319390 0.781067
O O11 0.500000 0.500000 0.000000
O O12 0.531537 0.142638 0.943201
O O13 0.151379 0.740265 0.603048
O O14 0.500000 0.000000 0.500000
#
# Coordination Sequence:
#
# PCOD9027008 Si02
#       7
#     2   2   2   2   2   2   1
#     4   9  21  42  64  94 133 171 214 267 323 390
#     4   9  21  40  65  94 130 173 216 270 326 386
#     4  11  23  41  65  98 130 167 226 267 318 401
#     4  11  23  43  68  99 130 169 228 276 330 395
#     4  11  22  41  63  94 136 174 209 265 330 391
#     4  10  22  41  66  94 130 174 213 267 326 388
#     4  10  22  44  66  92 134 174 216 276 338 376
#
# _framework density 26.226877999999999
#
# number of rings (size 3 to 8) (size 9 to 14) (size 15 to 20)
#    0.000    1.846    1.538    1.385    0.000    9.231 
#    5.538    4.615    0.000    0.000    0.000    0.000 
#    0.000    0.000    0.000    0.000    0.000    0.000 
#
# Total GULP energy -72575.039457 kJ/mol
# GULP energy per Si atom -5582.695343 kJ/mol
# Density = 2.616718 g / cm^3
# Si number density = 26.226878 Si / 1000 Ang^3
#
#
#
# Elastic Constant Matrix: (Units=GPa)
#
#
# Indices 1 2 3 4 5 6 
#
# 1 87.3914 36.8892 29.4030 4.6943 -1.2734 24.7840
# 2 36.8892 115.4015 27.4172 12.2078 6.0803 -0.5591
# 3 29.4030 27.4172 112.0137 11.5717 5.5778 8.8203
# 4 4.6943 12.2078 11.5717 38.9963 -2.0250 7.9283
# 5 -1.2734 6.0803 5.5778 -2.0250 47.7208 4.0693
# 6 24.7840 -0.5591 8.8203 7.9283 4.0693 63.4439
#
#
#
# Elastic Compliance Matrix: (Units=1/GPa)
#
#
# Indices 1 2 3 4 5 6 
#
# 1 0.016155 -0.004812 -0.002850 0.001794 0.001991 -0.006309
# 2 -0.004812 0.010925 -0.001211 -0.003109 -0.001736 0.002644
# 3 -0.002850 -0.001211 0.010277 -0.002402 -0.001229 0.000053
# 4 0.001794 -0.003109 -0.002402 0.028053 0.002260 -0.004045
# 5 0.001991 -0.001736 -0.001229 0.002260 0.021665 -0.002294
# 6 -0.006309 0.002644 0.000053 -0.004045 -0.002294 0.018895
#
#
# Mechanical properties :
#
#
# Convention : Reuss Voigt Hill
#
# Bulk Modulus (GPa) = 50.99692 55.80284 53.39988
# Shear Modulus (GPa) = 38.38646 44.77200 41.57923
#
# Velocity S-wave (km/s) = 3.82989 4.13619 3.98599
# Velocity P-wave (km/s) = 6.24853 6.64334 6.44896
#
# Compressibility (1/GPa) = 0.01960903
#
# Stress axis : x y z
#
# Youngs Moduli (GPa) = 61.90069 91.53644 97.30087
#
# Poissons Ratio (x) = 0.44048 0.27735
# Poissons Ratio (y) = 0.29787 0.11787
# Poissons Ratio (z) = 0.17644 0.11089
#
# Static dielectric constant tensor:
#      x y z
#    x 2.152670 0.085390 0.141260 
#    y 0.085390 2.344360 0.800300 
#    z 0.141260 0.800300 4.691120 
# 
# From -- ./inp_files/34008.got.cif
#   From: 2010.05.17/outbox.cif.g08.bks.cpg/sg2_18_cif.got.tgz:34008.got - 2010.06.03 11:33:40.
