data_PCOD9027350
_publ_section_title
;
Structure prediction by ZEFSAII (Michael W. Deem and Ramdas Pophale) SiO2 
 PCOD9027350
Probable space group: P -1
;
_chemical_formula_sum "Si O2"
_cell_formula_units_Z 14
_cell_length_a 6.231743
_cell_length_b 10.478915
_cell_length_c 14.130344
_cell_angle_alpha 53.666802
_cell_angle_beta 127.773277
_cell_angle_gamma 118.187027
_cell_volume 578.827516
_symmetry_space_group_name_H-M "P -1"
_symmetry_group_IT_number 2
_symmetry_cell_setting 'triclinic'
loop_
_space_group_symop_operation_xyz
x,y,z
-x,-y,-z
loop_
_atom_site_type_symbol
_atom_site_label
_atom_site_fract_x
_atom_site_fract_y
_atom_site_fract_z
Si Si1 0.272540 0.842913 0.499940
Si Si2 0.825355 0.062997 0.073530
Si Si3 0.967332 0.430839 0.914513
Si Si4 0.818566 0.204789 0.724682
Si Si5 0.253227 0.008034 0.704789
Si Si6 0.297108 0.500573 0.356045
Si Si7 0.212893 0.690438 0.728906
O O1 0.229813 0.787976 0.404182
O O2 0.330585 0.704360 0.648330
O O3 0.500000 0.000000 0.500000
O O4 0.996892 0.906476 0.429803
O O5 0.850340 0.071766 0.189339
O O6 0.959857 0.239237 0.995938
O O7 0.984303 0.922009 0.145178
O O8 0.500000 0.000000 0.000000
O O9 0.681067 0.442293 0.773127
O O10 0.203591 0.546583 0.865527
O O11 0.000000 0.500000 0.000000
O O12 0.907180 0.383141 0.709003
O O13 0.527393 0.140653 0.725109
O O14 0.327422 0.863752 0.726127
O O15 0.500000 0.500000 0.500000
O O16 0.118744 0.326741 0.367714
#
# Coordination Sequence:
#
# PCOD9027350 Si02
#       7
#     2   2   2   2   2   2   2
#     4  11  23  38  71 105 134 184 239 290 359 424
#     4  11  24  45  73 101 137 193 245 290 360 431
#     4  10  22  45  72 101 143 191 236 296 362 428
#     4  11  25  44  72 103 147 187 240 300 362 428
#     4  11  22  42  69 100 138 184 242 296 348 434
#     4  10  23  41  70 105 144 185 233 299 365 421
#     4  10  22  41  67  96 144 181 233 293 357 420
#
# _framework density 24.186826
#
# number of rings (size 3 to 8) (size 9 to 14) (size 15 to 20)
#    0.857    0.571    2.857    2.143    2.000    4.000 
#    0.000    3.571    0.000    0.000    0.000    0.000 
#    0.000    0.000    0.000    0.000    0.000    0.000 
#
# Total GULP energy -77958.989458 kJ/mol
# GULP energy per Si atom -5568.499247 kJ/mol
# Density = 2.413178 g / cm^3
# Si number density = 24.186826 Si / 1000 Ang^3
#
#
#
# Elastic Constant Matrix: (Units=GPa)
#
#
# Indices 1 2 3 4 5 6 
#
# 1 70.4442 12.3325 43.8121 -15.9094 4.8313 0.5319
# 2 12.3325 73.6500 36.3286 -0.3434 -10.2074 -10.9963
# 3 43.8121 36.3286 161.8400 -10.1924 -34.6855 -7.4825
# 4 -15.9094 -0.3434 -10.1924 42.7136 12.3922 -10.2109
# 5 4.8313 -10.2074 -34.6855 12.3922 45.5974 -1.7992
# 6 0.5319 -10.9963 -7.4825 -10.2109 -1.7992 34.1525
#
#
#
# Elastic Compliance Matrix: (Units=1/GPa)
#
#
# Indices 1 2 3 4 5 6 
#
# 1 0.021899 -0.001541 -0.007310 0.009497 -0.010813 -0.000169
# 2 -0.001541 0.016076 -0.002554 -0.000586 0.002159 0.004579
# 3 -0.007310 -0.002554 0.010556 -0.002509 0.008967 0.001327
# 4 0.009497 -0.000586 -0.002509 0.031523 -0.011299 0.007943
# 5 -0.010813 0.002159 0.008967 -0.011299 0.033500 0.001215
# 6 -0.000169 0.004579 0.001327 0.007943 0.001215 0.033487
#
#
# Mechanical properties :
#
#
# Convention : Reuss Voigt Hill
#
# Bulk Modulus (GPa) = 38.87710 54.54227 46.70969
# Shear Modulus (GPa) = 28.02310 38.72344 33.37327
#
# Velocity S-wave (km/s) = 3.40753 4.00561 3.71861
# Velocity P-wave (km/s) = 5.62052 6.63269 6.14747
#
# Compressibility (1/GPa) = 0.02572208
#
# Stress axis : x y z
#
# Youngs Moduli (GPa) = 45.66333 62.20587 94.73126
#
# Poissons Ratio (x) = 0.09586 0.69246
# Poissons Ratio (y) = 0.07037 0.24192
# Poissons Ratio (z) = 0.33379 0.15886
#
# Static dielectric constant tensor:
#      x y z
#    x 1.938640 -0.014220 -0.015240 
#    y -0.014220 1.868250 0.033400 
#    z -0.015240 0.033400 2.104120 
# 
# From -- ./inp_files/482050.got.cif
#   From: 2010.05.17/outbox.cif.g08.bks.cpg/sg2_242_cif.got.tgz:482050.got - 2010.06.03 11:33:40.
