data_PCOD9027901
_publ_section_title
;
Structure prediction by ZEFSAII (Michael W. Deem and Ramdas Pophale) SiO2 
 PCOD9027901
Probable space group: P -1
;
_chemical_formula_sum "Si O2"
_cell_formula_units_Z 14
_cell_length_a 21.318375
_cell_length_b 8.851224
_cell_length_c 6.150882
_cell_angle_alpha 54.369796
_cell_angle_beta 126.235384
_cell_angle_gamma 134.791397
_cell_volume 635.786034
_symmetry_space_group_name_H-M "P -1"
_symmetry_group_IT_number 2
_symmetry_cell_setting 'triclinic'
loop_
_space_group_symop_operation_xyz
x,y,z
-x,-y,-z
loop_
_atom_site_type_symbol
_atom_site_label
_atom_site_fract_x
_atom_site_fract_y
_atom_site_fract_z
Si Si1 0.281921 0.969163 0.377141
Si Si2 0.630120 0.640879 0.464914
Si Si3 0.798773 0.708763 0.595392
Si Si4 0.475591 0.175579 0.739307
Si Si5 0.843171 0.462207 0.225426
Si Si6 0.952961 0.738510 0.610348
Si Si7 0.131338 0.819324 0.828015
O O1 0.233257 0.752571 0.613525
O O2 0.293391 0.177245 0.359938
O O3 0.389695 0.056668 0.492268
O O4 0.220499 0.911979 0.086953
O O5 0.691092 0.627185 0.412589
O O6 0.562611 0.400657 0.632500
O O7 0.567745 0.746884 0.223398
O O8 0.852953 0.641166 0.599342
O O9 0.852787 0.974966 0.456988
O O10 0.804629 0.598304 0.921238
O O11 0.500000 0.000000 0.000000
O O12 0.927143 0.631345 0.410420
O O13 0.877103 0.366163 0.190263
O O14 0.041058 0.730359 0.869501
O O15 0.000000 0.000000 0.500000
#
# Coordination Sequence:
#
# PCOD9027901 Si02
#       7
#     2   2   2   2   2   2   2
#     4  10  22  41  70 100 138 175 220 284 337 401
#     4   9  20  39  66  99 138 174 213 281 336 398
#     4  11  24  42  67  99 137 180 230 271 340 399
#     4   9  18  39  70 104 133 176 221 274 343 404
#     4  12  24  43  68  95 137 185 229 282 332 399
#     4  10  26  42  66  99 137 182 234 278 335 404
#     4  11  24  45  64 100 138 180 231 281 340 393
#
# _framework density 22.019988000000001
#
# number of rings (size 3 to 8) (size 9 to 14) (size 15 to 20)
#    0.857    0.857    1.429    2.143    4.000    5.714 
#    2.571    0.714    0.000    6.857    0.000    0.000 
#    0.000    0.000    0.000    0.000    0.000    0.000 
#
# Total GULP energy -77957.706788 kJ/mol
# GULP energy per Si atom -5568.407628 kJ/mol
# Density = 2.196987 g / cm^3
# Si number density = 22.019988 Si / 1000 Ang^3
#
#
#
# Elastic Constant Matrix: (Units=GPa)
#
#
# Indices 1 2 3 4 5 6 
#
# 1 125.3218 68.4434 32.5298 -0.5771 11.1121 28.9074
# 2 68.4434 125.5055 62.5127 -18.7329 11.4435 -7.9616
# 3 32.5298 62.5127 80.2566 -17.7182 19.2519 -3.2937
# 4 -0.5771 -18.7329 -17.7182 38.6886 -4.7925 -0.8320
# 5 11.1121 11.4435 19.2519 -4.7925 26.3336 -4.8760
# 6 28.9074 -7.9616 -3.2937 -0.8320 -4.8760 24.2471
#
#
#
# Elastic Compliance Matrix: (Units=1/GPa)
#
#
# Indices 1 2 3 4 5 6 
#
# 1 0.032906 -0.023660 0.004818 -0.012161 -0.018694 -0.050521
# 2 -0.023660 0.030562 -0.014107 0.010876 0.016402 0.039998
# 3 0.004818 -0.014107 0.025504 0.002736 -0.015904 -0.010016
# 4 -0.012161 0.010876 0.002736 0.033694 0.008482 0.021303
# 5 -0.018694 0.016402 -0.015904 0.008482 0.058876 0.037642
# 6 -0.050521 0.039998 -0.010016 0.021303 0.037642 0.121547
#
#
# Mechanical properties :
#
#
# Convention : Reuss Voigt Hill
#
# Bulk Modulus (GPa) = 43.34142 73.11728 58.22935
# Shear Modulus (GPa) = 13.27395 29.02707 21.15051
#
# Velocity S-wave (km/s) = 2.45789 3.63466 3.10258
# Velocity P-wave (km/s) = 5.27072 7.13382 6.27184
#
# Compressibility (1/GPa) = 0.02307262
#
# Stress axis : x y z
#
# Youngs Moduli (GPa) = 30.39003 32.71996 39.21020
#
# Poissons Ratio (x) = 0.77415 -0.18890
# Poissons Ratio (y) = 0.71903 0.55315
# Poissons Ratio (z) = -0.14641 0.46159
#
# Static dielectric constant tensor:
#      x y z
#    x 1.908380 0.026650 -0.016890 
#    y 0.026650 1.788010 -0.007610 
#    z -0.016890 -0.007610 1.832380 
# 
# From -- ./inp_files/116689.got.cif
#   From: 2010.05.17/outbox.cif.g08.bks.cpg/sg2_59_cif.got.tgz:116689.got - 2010.06.03 11:33:40.
