data_PCOD9027734
_publ_section_title
;
Structure prediction by ZEFSAII (Michael W. Deem and Ramdas Pophale) SiO2 
 PCOD9027734
Probable space group: P -1
;
_chemical_formula_sum "Si O2"
_cell_formula_units_Z 10
_cell_length_a 10.319209
_cell_length_b 11.384844
_cell_length_c 11.228348
_cell_angle_alpha 28.517899
_cell_angle_beta 122.826905
_cell_angle_gamma 133.479239
_cell_volume 449.498403
_symmetry_space_group_name_H-M "P -1"
_symmetry_group_IT_number 2
_symmetry_cell_setting 'triclinic'
loop_
_space_group_symop_operation_xyz
x,y,z
-x,-y,-z
loop_
_atom_site_type_symbol
_atom_site_label
_atom_site_fract_x
_atom_site_fract_y
_atom_site_fract_z
Si Si1 0.284207 0.323877 0.042545
Si Si2 0.427354 0.204074 0.657712
Si Si3 0.803494 0.741528 0.673400
Si Si4 0.226677 0.691488 0.154888
Si Si5 0.110505 0.638800 0.551268
O O1 0.207760 0.325913 0.133901
O O2 0.213337 0.986557 0.282047
O O3 0.500000 0.500000 0.000000
O O4 0.648259 0.808990 0.498900
O O5 0.500000 0.500000 0.500000
O O6 0.602478 0.177871 0.784487
O O7 0.775676 0.510054 0.225611
O O8 0.253856 0.975536 0.853017
O O9 0.755598 0.472888 0.803496
O O10 0.000000 0.000000 0.500000
O O11 0.042057 0.473858 0.321330
O O12 0.000000 0.500000 0.500000
#
# Coordination Sequence:
#
# PCOD9027734 Si02
#       5
#     2   2   2   2   2
#     4  12  29  49  74 110 146 190 241 302 368 421
#     4   9  21  37  63 102 137 178 226 295 350 421
#     4  11  22  41  72 100 142 178 238 295 356 417
#     4  10  22  41  69 103 136 185 242 287 358 420
#     4  12  28  49  75 101 148 198 242 292 360 443
#
# _framework density 22.247019999999999
#
# number of rings (size 3 to 8) (size 9 to 14) (size 15 to 20)
#    0.000    1.200    2.000    2.400    8.400    6.400 
#    0.000    0.000    0.000    0.000    0.000    0.000 
#    0.000    0.000    0.000    0.000    0.000    0.000 
#
# Total GULP energy -55831.540019 kJ/mol
# GULP energy per Si atom -5583.154002 kJ/mol
# Density = 2.219638 g / cm^3
# Si number density = 22.247020 Si / 1000 Ang^3
#
#
#
# Elastic Constant Matrix: (Units=GPa)
#
#
# Indices 1 2 3 4 5 6 
#
# 1 83.2397 47.5369 57.0030 -0.9229 3.9375 25.4971
# 2 47.5369 137.8945 65.1869 -1.7957 18.3849 23.0756
# 3 57.0030 65.1869 137.1009 -26.2289 11.5384 7.4651
# 4 -0.9229 -1.7957 -26.2289 41.3262 12.9702 5.4497
# 5 3.9375 18.3849 11.5384 12.9702 35.9611 8.1391
# 6 25.4971 23.0756 7.4651 5.4497 8.1391 38.7157
#
#
#
# Elastic Compliance Matrix: (Units=1/GPa)
#
#
# Indices 1 2 3 4 5 6 
#
# 1 0.023574 -0.002378 -0.009751 -0.006247 0.006914 -0.012802
# 2 -0.002378 0.010868 -0.003850 -0.000610 -0.003062 -0.003439
# 3 -0.009751 -0.003850 0.015587 0.011028 -0.007228 0.005678
# 4 -0.006247 -0.000610 0.011028 0.035851 -0.015606 0.000586
# 5 0.006914 -0.003062 -0.007228 -0.015606 0.038186 -0.007166
# 6 -0.012802 -0.003439 0.005678 0.000586 -0.007166 0.036639
#
#
# Mechanical properties :
#
#
# Convention : Reuss Voigt Hill
#
# Bulk Modulus (GPa) = 55.33724 77.52096 66.42910
# Shear Modulus (GPa) = 25.16527 35.76782 30.46655
#
# Velocity S-wave (km/s) = 3.36694 4.01404 3.70464
# Velocity P-wave (km/s) = 6.32796 7.51029 6.94434
#
# Compressibility (1/GPa) = 0.01807101
#
# Stress axis : x y z
#
# Youngs Moduli (GPa) = 42.41986 92.01593 64.15438
#
# Poissons Ratio (x) = 0.21883 0.62554
# Poissons Ratio (y) = 0.10088 0.24701
# Poissons Ratio (z) = 0.41362 0.35428
#
# Static dielectric constant tensor:
#      x y z
#    x 1.951220 0.041980 0.108030 
#    y 0.041980 1.810220 0.045590 
#    z 0.108030 0.045590 1.907440 
# 
# From -- ./inp_files/22763.got.cif
#   From: 2010.05.17/outbox.cif.g08.bks.cpg/sg2_12_cif.got.tgz:22763.got - 2010.06.03 11:33:40.
