data_PCOD9027584
_publ_section_title
;
Structure prediction by ZEFSAII (Michael W. Deem and Ramdas Pophale) SiO2 
 PCOD9027584
Probable space group: P -1
;
_chemical_formula_sum "Si O2"
_cell_formula_units_Z 16
_cell_length_a 10.901802
_cell_length_b 13.495133
_cell_length_c 20.341079
_cell_angle_alpha 154.091244
_cell_angle_beta 148.220029
_cell_angle_gamma 36.531496
_cell_volume 678.744633
_symmetry_space_group_name_H-M "P -1"
_symmetry_group_IT_number 2
_symmetry_cell_setting 'triclinic'
loop_
_space_group_symop_operation_xyz
x,y,z
-x,-y,-z
loop_
_atom_site_type_symbol
_atom_site_label
_atom_site_fract_x
_atom_site_fract_y
_atom_site_fract_z
Si Si1 0.674754 0.933598 0.702764
Si Si2 0.287612 0.023989 0.472213
Si Si3 0.857277 0.731865 0.128792
Si Si4 0.132133 0.607532 0.533415
Si Si5 0.609728 0.096724 0.913117
Si Si6 0.163343 0.852849 0.826182
Si Si7 0.779325 0.672995 0.916738
Si Si8 0.454331 0.352860 0.329409
O O1 0.764347 0.658922 0.593133
O O2 0.666096 0.084861 0.855146
O O3 0.889963 0.973688 0.779028
O O4 0.431009 0.988878 0.585116
O O5 0.130069 0.273634 0.534685
O O6 0.500000 0.000000 0.500000
O O7 0.084713 0.854153 0.284081
O O8 0.962567 0.475739 0.048159
O O9 0.670311 0.841474 0.163706
O O10 0.705436 0.695897 0.972750
O O11 0.177466 0.659023 0.661320
O O12 0.293066 0.749034 0.647405
O O13 0.684035 0.834552 0.815378
O O14 0.744563 0.224470 0.105211
O O15 0.271786 0.065586 0.974619
O O16 0.672079 0.538278 0.728962
O O17 0.500000 0.500000 0.500000
#
# Coordination Sequence:
#
# PCOD9027584 Si02
#       8
#     2   2   2   2   2   2   2   2
#     4  12  26  45  68 105 139 179 227 283 345 407
#     4  12  25  43  69 101 139 172 229 285 333 408
#     4  11  22  42  67 102 133 176 231 280 341 400
#     4  12  23  44  72  98 132 186 226 280 342 398
#     4  11  24  42  69  98 138 179 221 285 345 405
#     4  11  23  46  67  95 136 181 237 272 335 411
#     4  10  22  41  68  95 136 181 228 282 335 395
#     4  11  21  39  64  98 134 172 225 278 339 407
#
# _framework density 23.572932999999999
#
# number of rings (size 3 to 8) (size 9 to 14) (size 15 to 20)
#    0.000    0.750    5.000    2.250    0.000    4.500 
#    2.250    0.625    0.000    0.000    0.000    0.000 
#    0.000    0.000    0.000    0.000    0.000    0.000 
#
# Total GULP energy -89119.812995 kJ/mol
# GULP energy per Si atom -5569.988312 kJ/mol
# Density = 2.351928 g / cm^3
# Si number density = 23.572933 Si / 1000 Ang^3
#
#
#
# Elastic Constant Matrix: (Units=GPa)
#
#
# Indices 1 2 3 4 5 6 
#
# 1 94.4064 13.7243 47.0740 -9.1072 -33.4014 -16.6327
# 2 13.7243 102.6474 35.2832 -18.2834 -11.0443 0.9038
# 3 47.0740 35.2832 95.9606 -15.4586 -21.5067 -4.4939
# 4 -9.1072 -18.2834 -15.4586 36.0150 5.0854 2.6429
# 5 -33.4014 -11.0443 -21.5067 5.0854 45.4719 6.3143
# 6 -16.6327 0.9038 -4.4939 2.6429 6.3143 22.4296
#
#
#
# Elastic Compliance Matrix: (Units=1/GPa)
#
#
# Indices 1 2 3 4 5 6 
#
# 1 0.019149 0.000832 -0.007074 0.000148 0.009510 0.010055
# 2 0.000832 0.011916 -0.003816 0.004537 0.001410 -0.001559
# 3 -0.007074 -0.003816 0.016002 0.003131 0.001466 -0.002667
# 4 0.000148 0.004537 0.003131 0.031737 -0.000432 -0.003064
# 5 0.009510 0.001410 0.001466 -0.000432 0.030223 -0.001169
# 6 0.010055 -0.001559 -0.002667 -0.003064 -0.001169 0.052258
#
#
# Mechanical properties :
#
#
# Convention : Reuss Voigt Hill
#
# Bulk Modulus (GPa) = 37.10206 53.90859 45.50533
# Shear Modulus (GPa) = 26.26276 33.91215 30.08746
#
# Velocity S-wave (km/s) = 3.34144 3.79701 3.57649
# Velocity P-wave (km/s) = 5.53719 6.49165 6.03332
#
# Compressibility (1/GPa) = 0.02695268
#
# Stress axis : x y z
#
# Youngs Moduli (GPa) = 52.22242 83.92087 62.49234
#
# Poissons Ratio (x) = -0.06983 0.44204
# Poissons Ratio (y) = -0.04346 0.23845
# Poissons Ratio (z) = 0.36940 0.32021
#
# Static dielectric constant tensor:
#      x y z
#    x 1.946040 -0.006980 0.089600 
#    y -0.006980 1.900540 -0.004840 
#    z 0.089600 -0.004840 2.105870 
# 
# From -- ./inp_files/595667.got.cif
#   From: 2010.05.17/outbox.cif.g08.bks.cpg/sg2_298_cif.got.tgz:595667.got - 2010.06.03 11:33:40.
