data_PCOD9027355
_publ_section_title
;
Structure prediction by ZEFSAII (Michael W. Deem and Ramdas Pophale) SiO2 
 PCOD9027355
Probable space group: P -1
;
_chemical_formula_sum "Si O2"
_cell_formula_units_Z 16
_cell_length_a 9.520216
_cell_length_b 12.024851
_cell_length_c 15.388329
_cell_angle_alpha 27.785370
_cell_angle_beta 85.432257
_cell_angle_gamma 96.329155
_cell_volume 754.174207
_symmetry_space_group_name_H-M "P -1"
_symmetry_group_IT_number 2
_symmetry_cell_setting 'triclinic'
loop_
_space_group_symop_operation_xyz
x,y,z
-x,-y,-z
loop_
_atom_site_type_symbol
_atom_site_label
_atom_site_fract_x
_atom_site_fract_y
_atom_site_fract_z
Si Si1 0.465546 0.728787 0.238262
Si Si2 0.796087 0.086367 0.298691
Si Si3 0.292778 0.592638 0.774741
Si Si4 0.749393 0.251022 0.522356
Si Si5 0.412355 0.452929 0.261229
Si Si6 0.055163 0.057367 0.207559
Si Si7 0.580999 0.032613 0.182803
Si Si8 0.857286 0.587186 0.438281
O O1 0.487568 0.545809 0.289247
O O2 0.288978 0.589921 0.374270
O O3 0.568454 0.816291 0.259510
O O4 0.500000 0.000000 0.000000
O O5 0.754934 0.267827 0.241265
O O6 0.969885 0.167893 0.204804
O O7 0.697908 0.062242 0.233123
O O8 0.738283 0.800045 0.541206
O O9 0.267523 0.709758 0.604606
O O10 0.467805 0.620471 0.749783
O O11 0.186661 0.289801 0.992715
O O12 0.803558 0.519292 0.388706
O O13 0.587858 0.065785 0.699361
O O14 0.869053 0.119053 0.627117
O O15 0.384635 0.692257 0.055185
O O16 0.927902 0.876854 0.271052
O O17 0.000000 0.500000 0.500000
#
# Coordination Sequence:
#
# PCOD9027355 Si02
#       8
#     2   2   2   2   2   2   2   2
#     4   9  19  37  64  97 125 156 206 257 317 379
#     4  12  26  42  64  95 126 163 224 263 296 376
#     4  12  26  42  64  92 126 173 218 251 310 377
#     4  10  22  42  67  93 128 164 206 256 320 382
#     4  11  22  41  66  93 126 164 207 265 315 362
#     4  11  24  45  64  90 132 167 203 268 317 365
#     4  10  22  41  67  97 125 162 205 262 321 372
#     4   9  19  38  64  92 127 162 201 256 318 379
#
# _framework density 21.215257999999999
#
# number of rings (size 3 to 8) (size 9 to 14) (size 15 to 20)
#    0.000    1.500    3.750    0.750    1.750    5.000 
#    2.250    0.000    0.000    0.000    0.000    0.000 
#    0.000    0.000    0.000    0.000    0.000    0.000 
#
# Total GULP energy -89422.165406 kJ/mol
# GULP energy per Si atom -5588.885338 kJ/mol
# Density = 2.116697 g / cm^3
# Si number density = 21.215258 Si / 1000 Ang^3
#
#
#
# Elastic Constant Matrix: (Units=GPa)
#
#
# Indices 1 2 3 4 5 6 
#
# 1 56.7220 4.4330 4.9487 7.9484 -0.0862 -10.6017
# 2 4.4330 79.1829 8.8045 3.3653 11.1767 -16.2742
# 3 4.9487 8.8045 83.8861 3.7258 -1.1355 15.5335
# 4 7.9484 3.3653 3.7258 21.7101 -6.9382 -2.4894
# 5 -0.0862 11.1767 -1.1355 -6.9382 22.5345 -1.6837
# 6 -10.6017 -16.2742 15.5335 -2.4894 -1.6837 30.5855
#
#
#
# Elastic Compliance Matrix: (Units=1/GPa)
#
#
# Indices 1 2 3 4 5 6 
#
# 1 0.020307 0.001533 -0.002655 -0.006986 -0.002332 0.008506
# 2 0.001533 0.016508 -0.003678 -0.004135 -0.008866 0.010358
# 3 -0.002655 -0.003678 0.014463 -0.001723 0.001243 -0.010294
# 4 -0.006986 -0.004135 -0.001723 0.055938 0.019300 0.001869
# 5 -0.002332 -0.008866 0.001243 0.019300 0.054652 -0.001578
# 6 0.008506 0.010358 -0.010294 0.001869 -0.001578 0.046448
#
#
# Mechanical properties :
#
#
# Convention : Reuss Voigt Hill
#
# Bulk Modulus (GPa) = 23.99335 28.46260 26.22797
# Shear Modulus (GPa) = 21.56939 28.40633 24.98786
#
# Velocity S-wave (km/s) = 3.19202 3.66315 3.43567
# Velocity P-wave (km/s) = 4.99193 5.59792 5.30359
#
# Compressibility (1/GPa) = 0.04167822
#
# Stress axis : x y z
#
# Youngs Moduli (GPa) = 49.24413 60.57598 69.14128
#
# Poissons Ratio (x) = -0.09284 0.18358
# Poissons Ratio (y) = -0.07547 0.25427
# Poissons Ratio (z) = 0.13075 0.22277
#
# Static dielectric constant tensor:
#      x y z
#    x 1.747370 -0.011330 0.015520 
#    y -0.011330 1.800690 -0.023750 
#    z 0.015520 -0.023750 1.741090 
# 
# From -- ./inp_files/206722.got.cif
#   From: 2010.05.17/outbox.cif.g08.bks.cpg/sg2_104_cif.got.tgz:206722.got - 2010.06.03 11:33:40.
