data_PCOD9027154
_publ_section_title
;
Structure prediction by ZEFSAII (Michael W. Deem and Ramdas Pophale) SiO2 
 PCOD9027154
Probable space group: P -1
;
_chemical_formula_sum "Si O2"
_cell_formula_units_Z 12
_cell_length_a 6.000464
_cell_length_b 15.558124
_cell_length_c 15.119456
_cell_angle_alpha 29.725211
_cell_angle_beta 132.114002
_cell_angle_gamma 132.595426
_cell_volume 501.766444
_symmetry_space_group_name_H-M "P -1"
_symmetry_group_IT_number 2
_symmetry_cell_setting 'triclinic'
loop_
_space_group_symop_operation_xyz
x,y,z
-x,-y,-z
loop_
_atom_site_type_symbol
_atom_site_label
_atom_site_fract_x
_atom_site_fract_y
_atom_site_fract_z
Si Si1 0.630516 0.117419 0.344452
Si Si2 0.459689 0.652467 0.421539
Si Si3 0.789548 0.914554 0.154323
Si Si4 0.629611 0.453750 0.944931
Si Si5 0.185095 0.251823 0.868260
Si Si6 0.623389 0.770364 0.556283
O O1 0.003443 0.188150 0.390082
O O2 0.500000 0.000000 0.500000
O O3 0.563073 0.964144 0.386305
O O4 0.517801 0.297428 0.128849
O O5 0.500000 0.500000 0.500000
O O6 0.756894 0.817836 0.325551
O O7 0.467887 0.669333 0.515745
O O8 0.122871 0.676327 0.281259
O O9 0.733742 0.769513 0.191848
O O10 0.500000 0.000000 0.000000
O O11 0.075921 0.065132 0.059370
O O12 0.489033 0.355880 0.905670
O O13 0.534403 0.640510 0.735572
O O14 0.000000 0.500000 0.000000
#
# Coordination Sequence:
#
# PCOD9027154 Si02
#       6
#     2   2   2   2   2   2
#     4  10  24  44  70  95 128 188 234 282 352 413
#     4  11  24  41  66 104 141 180 229 290 352 421
#     4   9  21  38  62  99 132 177 224 277 342 419
#     4  10  23  44  68  98 138 181 229 291 345 415
#     4  10  22  41  66  99 137 184 224 283 354 409
#     4  10  24  44  64  99 141 174 231 295 337 414
#
# _framework density 23.915507999999999
#
# number of rings (size 3 to 8) (size 9 to 14) (size 15 to 20)
#    0.000    2.000    0.000    1.000    9.333    4.667 
#    0.000    3.333    0.000    0.000    0.000    0.000 
#    0.000    0.000    0.000    0.000    0.000    0.000 
#
# Total GULP energy -66833.984403 kJ/mol
# GULP energy per Si atom -5569.498700 kJ/mol
# Density = 2.386108 g / cm^3
# Si number density = 23.915508 Si / 1000 Ang^3
#
#
#
# Elastic Constant Matrix: (Units=GPa)
#
#
# Indices 1 2 3 4 5 6 
#
# 1 80.6312 27.9378 45.2778 6.3785 -17.6389 -15.8661
# 2 27.9378 139.5160 49.4650 12.2816 8.0801 -7.1442
# 3 45.2778 49.4650 150.4406 6.3376 -35.1283 -1.5936
# 4 6.3785 12.2816 6.3376 31.3045 8.0792 -4.5831
# 5 -17.6389 8.0801 -35.1283 8.0792 46.0334 -7.4703
# 6 -15.8661 -7.1442 -1.5936 -4.5831 -7.4703 22.3437
#
#
#
# Elastic Compliance Matrix: (Units=1/GPa)
#
#
# Indices 1 2 3 4 5 6 
#
# 1 0.020155 -0.002506 -0.002870 -0.002549 0.008981 0.015786
# 2 -0.002506 0.009249 -0.003454 -0.001238 -0.005172 -0.001052
# 3 -0.002870 -0.003454 0.010601 -0.002291 0.007967 -0.000192
# 4 -0.002549 -0.001238 -0.002291 0.035914 -0.008459 0.002169
# 5 0.008981 -0.005172 0.007967 -0.008459 0.036177 0.015652
# 6 0.015786 -0.001052 -0.000192 0.002169 0.015652 0.061293
#
#
# Mechanical properties :
#
#
# Convention : Reuss Voigt Hill
#
# Bulk Modulus (GPa) = 44.75145 68.43879 56.59512
# Shear Modulus (GPa) = 25.18946 36.46347 30.82646
#
# Velocity S-wave (km/s) = 3.24893 3.90895 3.59412
# Velocity P-wave (km/s) = 5.72949 7.00373 6.39841
#
# Compressibility (1/GPa) = 0.02234564
#
# Stress axis : x y z
#
# Youngs Moduli (GPa) = 49.61598 108.12560 94.32769
#
# Poissons Ratio (x) = 0.27093 0.27074
# Poissons Ratio (y) = 0.12432 0.32576
# Poissons Ratio (z) = 0.14241 0.37341
#
# Static dielectric constant tensor:
#      x y z
#    x 1.751890 -0.047970 -0.086470 
#    y -0.047970 2.024930 -0.023700 
#    z -0.086470 -0.023700 2.066510 
# 
# From -- ./inp_files/71750.got.cif
#   From: 2010.05.17/outbox.cif.g08.bks.cpg/sg2_36_cif.got.tgz:71750.got - 2010.06.03 11:33:40.
