data_PCOD9027849
_publ_section_title
;
Structure prediction by ZEFSAII (Michael W. Deem and Ramdas Pophale) SiO2 
 PCOD9027849
Probable space group: P -1
;
_chemical_formula_sum "Si O2"
_cell_formula_units_Z 14
_cell_length_a 14.678821
_cell_length_b 15.490688
_cell_length_c 9.609868
_cell_angle_alpha 45.568386
_cell_angle_beta 112.444909
_cell_angle_gamma 148.335675
_cell_volume 672.433100
_symmetry_space_group_name_H-M "P -1"
_symmetry_group_IT_number 2
_symmetry_cell_setting 'triclinic'
loop_
_space_group_symop_operation_xyz
x,y,z
-x,-y,-z
loop_
_atom_site_type_symbol
_atom_site_label
_atom_site_fract_x
_atom_site_fract_y
_atom_site_fract_z
Si Si1 0.398357 0.766463 0.640947
Si Si2 0.038729 0.137784 0.746366
Si Si3 0.894722 0.557221 0.916877
Si Si4 0.282364 0.643783 0.394167
Si Si5 0.822374 0.739552 0.602022
Si Si6 0.556794 0.679973 0.922186
Si Si7 0.745140 0.209802 0.012223
O O1 0.315353 0.699838 0.513323
O O2 0.527081 0.779276 0.717245
O O3 0.500000 0.000000 0.500000
O O4 0.202353 0.525615 0.896684
O O5 0.176948 0.401547 0.578597
O O6 0.159265 0.203200 0.613116
O O7 0.803756 0.932579 0.810587
O O8 0.000000 0.000000 0.000000
O O9 0.910109 0.698634 0.688964
O O10 0.110287 0.725219 0.890887
O O11 0.736357 0.306702 0.012605
O O12 0.525092 0.910663 0.180987
O O13 0.169461 0.628920 0.257639
O O14 0.601479 0.497446 0.833532
O O15 0.000000 0.000000 0.500000
O O16 0.500000 0.500000 0.000000
#
# Coordination Sequence:
#
# PCOD9027849 Si02
#       7
#     2   2   2   2   2   2   2
#     4  11  24  42  68  98 134 179 231 288 343 420
#     4  12  27  46  69 104 144 184 235 296 357 413
#     4  10  22  42  67  98 129 176 235 272 353 425
#     4  11  24  41  64 102 143 174 231 294 350 414
#     4  11  24  45  73  99 136 182 238 286 339 430
#     4  11  25  46  74 102 137 189 238 282 355 426
#     4  10  22  41  69  97 133 184 219 285 355 413
#
# _framework density 20.819914000000001
#
# number of rings (size 3 to 8) (size 9 to 14) (size 15 to 20)
#    0.000    1.143    4.286    0.857    6.000    2.286 
#    2.571    0.000    0.000    0.000    0.000    0.000 
#    0.000    0.000    0.000    0.000    0.000    0.000 
#
# Total GULP energy -78019.911643 kJ/mol
# GULP energy per Si atom -5572.850832 kJ/mol
# Density = 2.077253 g / cm^3
# Si number density = 20.819914 Si / 1000 Ang^3
#
#
#
# Elastic Constant Matrix: (Units=GPa)
#
#
# Indices 1 2 3 4 5 6 
#
# 1 87.1428 40.4380 37.4189 -2.3688 12.8782 -11.3999
# 2 40.4380 105.9582 46.5387 -7.3909 1.4875 -22.4627
# 3 37.4189 46.5387 120.6471 11.0039 -2.5443 -8.5431
# 4 -2.3688 -7.3909 11.0039 53.4676 -14.8895 -1.4787
# 5 12.8782 1.4875 -2.5443 -14.8895 35.0312 0.2924
# 6 -11.3999 -22.4627 -8.5431 -1.4787 0.2924 24.8170
#
#
#
# Elastic Compliance Matrix: (Units=1/GPa)
#
#
# Indices 1 2 3 4 5 6 
#
# 1 0.016034 -0.004125 -0.003255 -0.000890 -0.006355 0.002533
# 2 -0.004125 0.015352 -0.004172 0.003660 0.002028 0.010759
# 3 -0.003255 -0.004172 0.011065 -0.002760 0.001018 -0.001639
# 4 -0.000890 0.003660 -0.002760 0.022470 0.009495 0.003181
# 5 -0.006355 0.002028 0.001018 0.009495 0.034910 -0.000579
# 6 0.002533 0.010759 -0.001639 0.003181 -0.000579 0.050829
#
#
# Mechanical properties :
#
#
# Convention : Reuss Voigt Hill
#
# Bulk Modulus (GPa) = 51.69023 62.50434 57.09729
# Shear Modulus (GPa) = 27.74512 35.28668 31.51590
#
# Velocity S-wave (km/s) = 3.65447 4.12132 3.89490
# Velocity P-wave (km/s) = 6.53361 7.26180 6.90731
#
# Compressibility (1/GPa) = 0.01934602
#
# Stress axis : x y z
#
# Youngs Moduli (GPa) = 62.36835 65.13817 90.37881
#
# Poissons Ratio (x) = 0.26872 0.29419
# Poissons Ratio (y) = 0.25729 0.37703
# Poissons Ratio (z) = 0.20302 0.27173
#
# Static dielectric constant tensor:
#      x y z
#    x 1.438260 0.673140 -0.107340 
#    y 0.673140 0.682570 0.297590 
#    z -0.107340 0.297590 1.826610 
# 
# From -- ./inp_files/199963.got.cif
#   From: 2010.05.17/outbox.cif.g08.bks.cpg/sg2_100_cif.got.tgz:199963.got - 2010.06.03 11:33:40.
