data_PCOD9027361
_publ_section_title
;
Structure prediction by ZEFSAII (Michael W. Deem and Ramdas Pophale) SiO2 
 PCOD9027361
Probable space group: P -1
;
_chemical_formula_sum "Si O2"
_cell_formula_units_Z 10
_cell_length_a 10.958576
_cell_length_b 13.341150
_cell_length_c 21.115919
_cell_angle_alpha 153.926922
_cell_angle_beta 18.549547
_cell_angle_gamma 144.717596
_cell_volume 417.702172
_symmetry_space_group_name_H-M "P -1"
_symmetry_group_IT_number 2
_symmetry_cell_setting 'triclinic'
loop_
_space_group_symop_operation_xyz
x,y,z
-x,-y,-z
loop_
_atom_site_type_symbol
_atom_site_label
_atom_site_fract_x
_atom_site_fract_y
_atom_site_fract_z
Si Si1 0.397357 0.896092 0.056955
Si Si2 0.400055 0.820565 0.673864
Si Si3 0.458929 0.966246 0.585122
Si Si4 0.373982 0.644730 0.332365
Si Si5 0.728778 0.700324 0.570229
O O1 0.925575 0.923348 0.313183
O O2 0.547388 0.060257 0.127367
O O3 0.552956 0.620989 0.832650
O O4 0.500000 0.000000 0.000000
O O5 0.461290 0.919955 0.631635
O O6 0.746473 0.784513 0.536556
O O7 0.374239 0.550490 0.523977
O O8 0.000000 0.000000 0.000000
O O9 0.300358 0.789526 0.517578
O O10 0.296373 0.238400 0.796552
O O11 0.079502 0.652804 0.422101
#
# Coordination Sequence:
#
# PCOD9027361 Si02
#       5
#     2   2   2   2   2
#     4  11  23  41  68  97 129 168 211 270 332 381
#     4  11  24  44  65  91 133 177 214 263 320 380
#     4  10  24  41  64  98 130 166 219 263 317 394
#     4  10  22  41  67  97 130 166 213 272 323 378
#     4  10  24  41  65  97 129 170 221 262 316 390
#
# _framework density 23.940501000000001
#
# number of rings (size 3 to 8) (size 9 to 14) (size 15 to 20)
#    0.000    1.600    0.000    3.000    0.000   20.000 
#    0.000    6.000    0.000    0.000    0.000    0.000 
#    0.000    0.000    0.000    0.000    0.000    0.000 
#
# Total GULP energy -55668.443657 kJ/mol
# GULP energy per Si atom -5566.844366 kJ/mol
# Density = 2.388601 g / cm^3
# Si number density = 23.940501 Si / 1000 Ang^3
#
#
#
# Elastic Constant Matrix: (Units=GPa)
#
#
# Indices 1 2 3 4 5 6 
#
# 1 241.3457 93.5610 58.9469 9.5516 26.5115 -33.4357
# 2 93.5610 153.0434 76.8652 44.2159 12.7923 -32.8291
# 3 58.9469 76.8652 73.8951 29.5701 11.1444 -7.6035
# 4 9.5516 44.2159 29.5701 61.1414 3.6375 -0.3874
# 5 26.5115 12.7923 11.1444 3.6375 39.8149 2.9510
# 6 -33.4357 -32.8291 -7.6035 -0.3874 2.9510 60.1431
#
#
#
# Elastic Compliance Matrix: (Units=1/GPa)
#
#
# Indices 1 2 3 4 5 6 
#
# 1 0.006269 -0.002475 -0.002698 0.002305 -0.002979 0.001954
# 2 -0.002475 0.018208 -0.013804 -0.006044 -0.000290 0.006793
# 3 -0.002698 -0.013804 0.031765 -0.004880 -0.001846 -0.004960
# 4 0.002305 -0.006044 -0.004880 0.022718 -0.000118 -0.002483
# 5 -0.002979 -0.000290 -0.001846 -0.000118 0.027974 -0.003421
# 6 0.001954 0.006793 -0.004960 -0.002483 -0.003421 0.020946
#
#
# Mechanical properties :
#
#
# Convention : Reuss Voigt Hill
#
# Bulk Modulus (GPa) = 54.68397 103.00337 78.84367
# Shear Modulus (GPa) = 29.08190 48.14728 38.61459
#
# Velocity S-wave (km/s) = 3.48912 4.48942 4.02050
# Velocity P-wave (km/s) = 6.25485 8.36608 7.38629
#
# Compressibility (1/GPa) = 0.01828689
#
# Stress axis : x y z
#
# Youngs Moduli (GPa) = 159.52567 54.92230 31.48152
#
# Poissons Ratio (x) = 0.13592 0.08495
# Poissons Ratio (y) = 0.39480 0.43457
# Poissons Ratio (z) = 0.43045 0.75814
#
# Static dielectric constant tensor:
#      x y z
#    x 1.966290 0.024720 -0.104430 
#    y 0.024720 2.002740 0.029070 
#    z -0.104430 0.029070 2.238760 
# 
# From -- ./inp_files/558159.got.cif
#   From: 2010.05.17/outbox.cif.g08.bks.cpg/sg2_280_cif.got.tgz:558159.got - 2010.06.03 11:33:40.
