data_PCOD9027348
_publ_section_title
;
Structure prediction by ZEFSAII (Michael W. Deem and Ramdas Pophale) SiO2 
 PCOD9027348
Probable space group: P -1
;
_chemical_formula_sum "Si O2"
_cell_formula_units_Z 16
_cell_length_a 21.575760
_cell_length_b 9.301146
_cell_length_c 5.188533
_cell_angle_alpha 119.959393
_cell_angle_beta 47.364428
_cell_angle_gamma 129.649496
_cell_volume 585.634832
_symmetry_space_group_name_H-M "P -1"
_symmetry_group_IT_number 2
_symmetry_cell_setting 'triclinic'
loop_
_space_group_symop_operation_xyz
x,y,z
-x,-y,-z
loop_
_atom_site_type_symbol
_atom_site_label
_atom_site_fract_x
_atom_site_fract_y
_atom_site_fract_z
Si Si1 0.909394 0.617806 0.357169
Si Si2 0.493922 0.228987 0.816032
Si Si3 0.714339 0.887953 0.150041
Si Si4 0.865882 0.374769 0.776844
Si Si5 0.387879 0.448883 0.550269
Si Si6 0.201255 0.254726 0.589022
Si Si7 0.648978 0.143759 0.356518
Si Si8 0.905157 0.076054 0.115477
O O1 0.886133 0.521431 0.615518
O O2 0.828183 0.660414 0.494535
O O3 0.911907 0.471565 0.006380
O O4 0.006780 0.811088 0.222151
O O5 0.540484 0.334892 0.508489
O O6 0.586694 0.241877 0.710568
O O7 0.417431 0.014094 0.801798
O O8 0.441007 0.338130 0.177969
O O9 0.646682 0.667109 0.193843
O O10 0.663274 0.015879 0.416234
O O11 0.805689 0.986152 0.160647
O O12 0.757150 0.882428 0.748752
O O13 0.903564 0.231662 0.451173
O O14 0.752924 0.271274 0.061898
O O15 0.287972 0.401000 0.647575
O O16 0.105502 0.112035 0.882266
#
# Coordination Sequence:
#
# PCOD9027348 Si02
#       8
#     2   2   2   2   2   2   2   2
#     4  12  29  44  75 108 142 189 243 291 347 425
#     4  10  22  41  67  96 141 170 244 289 349 431
#     4  11  23  42  74  97 143 187 232 289 362 418
#     4  12  26  48  71 104 147 187 235 299 356 415
#     4  10  22  43  65 101 136 183 227 299 352 414
#     4  11  24  45  70 100 146 185 230 292 356 420
#     4  11  22  43  67 100 134 186 229 294 353 422
#     4  11  25  46  72 102 140 187 235 290 350 426
#
# _framework density 27.320777
#
# number of rings (size 3 to 8) (size 9 to 14) (size 15 to 20)
#    0.000    1.000    2.500    3.375    7.000    1.500 
#    0.000    1.250    0.000    0.000    0.000    0.000 
#    0.000    0.000    0.000    0.000    0.000    0.000 
#
# Total GULP energy -89596.156571 kJ/mol
# GULP energy per Si atom -5599.759786 kJ/mol
# Density = 2.725859 g / cm^3
# Si number density = 27.320777 Si / 1000 Ang^3
#
#
#
# Elastic Constant Matrix: (Units=GPa)
#
#
# Indices 1 2 3 4 5 6 
#
# 1 90.7479 13.4918 12.8760 -13.0375 -8.3033 -6.0859
# 2 13.4918 123.8151 41.4697 -21.8199 -3.3040 -6.8304
# 3 12.8760 41.4697 89.9120 -19.5514 -3.1183 5.5250
# 4 -13.0375 -21.8199 -19.5514 52.9785 -4.1339 -4.2509
# 5 -8.3033 -3.3040 -3.1183 -4.1339 42.8937 -4.3655
# 6 -6.0859 -6.8304 5.5250 -4.2509 -4.3655 45.9561
#
#
#
# Elastic Compliance Matrix: (Units=1/GPa)
#
#
# Indices 1 2 3 4 5 6 
#
# 1 0.012012 -0.000272 -0.001013 0.002859 0.002730 0.002196
# 2 -0.000272 0.010144 -0.004131 0.002846 0.000939 0.002321
# 3 -0.001013 -0.004131 0.013994 0.003092 0.000588 -0.002089
# 4 0.002859 0.002846 0.003092 0.022388 0.003443 0.002828
# 5 0.002730 0.000939 0.000588 0.003443 0.024603 0.003086
# 6 0.002196 0.002321 -0.002089 0.002828 0.003086 0.023201
#
#
# Mechanical properties :
#
#
# Convention : Reuss Voigt Hill
#
# Bulk Modulus (GPa) = 39.49866 48.90558 44.20212
# Shear Modulus (GPa) = 39.80472 44.14147 41.97310
#
# Velocity S-wave (km/s) = 3.82113 4.02391 3.92383
# Velocity P-wave (km/s) = 5.82725 6.28717 6.06157
#
# Compressibility (1/GPa) = 0.02531731
#
# Stress axis : x y z
#
# Youngs Moduli (GPa) = 83.25352 98.57563 71.46152
#
# Poissons Ratio (x) = 0.02677 0.07242
# Poissons Ratio (y) = 0.02261 0.29522
# Poissons Ratio (z) = 0.08437 0.40723
#
# Static dielectric constant tensor:
#      x y z
#    x 2.177480 -0.031610 0.007490 
#    y -0.031610 2.161900 -0.015030 
#    z 0.007490 -0.015030 2.162890 
# 
# From -- ./inp_files/122963.got.cif
#   From: 2010.05.17/outbox.cif.g08.bks.cpg/sg2_62_cif.got.tgz:122963.got - 2010.06.03 11:33:40.
