data_PCOD9027711
_publ_section_title
;
Structure prediction by ZEFSAII (Michael W. Deem and Ramdas Pophale) SiO2 
 PCOD9027711
Probable space group: P -1
;
_chemical_formula_sum "Si O2"
_cell_formula_units_Z 16
_cell_length_a 11.842892
_cell_length_b 12.602176
_cell_length_c 9.358924
_cell_angle_alpha 94.552656
_cell_angle_beta 120.898602
_cell_angle_gamma 129.773237
_cell_volume 723.854762
_symmetry_space_group_name_H-M "P -1"
_symmetry_group_IT_number 2
_symmetry_cell_setting 'triclinic'
loop_
_space_group_symop_operation_xyz
x,y,z
-x,-y,-z
loop_
_atom_site_type_symbol
_atom_site_label
_atom_site_fract_x
_atom_site_fract_y
_atom_site_fract_z
Si Si1 0.814974 0.916907 0.478938
Si Si2 0.672177 0.351677 0.881607
Si Si3 0.578828 0.819304 0.792312
Si Si4 0.989508 0.128273 0.227712
Si Si5 0.542190 0.031478 0.698435
Si Si6 0.176035 0.539726 0.698680
Si Si7 0.653384 0.492666 0.611775
Si Si8 0.879822 0.163876 0.450705
O O1 0.574790 0.776347 0.246935
O O2 0.824932 0.834854 0.596269
O O3 0.887374 0.083396 0.576221
O O4 0.000000 0.000000 0.500000
O O5 0.667340 0.223798 0.821800
O O6 0.702260 0.455615 0.784126
O O7 0.823682 0.452377 0.129171
O O8 0.409568 0.712849 0.802119
O O9 0.459836 0.667123 0.584163
O O10 0.628777 0.971143 0.787537
O O11 0.819075 0.944190 0.013527
O O12 0.861344 0.094063 0.278437
O O13 0.113174 0.307391 0.258582
O O14 0.500000 0.000000 0.500000
O O15 0.327936 0.901911 0.646533
O O16 0.000000 0.500000 0.500000
O O17 0.098698 0.370364 0.601458
O O18 0.500000 0.500000 0.500000
#
# Coordination Sequence:
#
# PCOD9027711 Si02
#       8
#     2   2   2   2   2   2   2   2
#     4   9  19  42  65  99 139 182 238 291 350 423
#     4  11  25  44  72 103 145 191 236 303 364 418
#     4  12  26  45  74 105 143 197 241 293 365 426
#     4  11  24  45  74 104 146 192 241 298 355 430
#     4  11  23  43  69 100 145 186 238 292 362 429
#     4  12  25  44  71 109 143 187 247 296 355 434
#     4  12  26  49  72 108 152 185 242 301 362 436
#     4  10  22  41  69 101 143 186 238 295 349 426
#
# _framework density 22.103884000000001
#
# number of rings (size 3 to 8) (size 9 to 14) (size 15 to 20)
#    0.000    1.000    5.000    2.250    1.750    3.500 
#    0.000    4.375    0.000    0.000    0.000    0.000 
#    0.000    0.000    0.000    0.000    0.000    0.000 
#
# Total GULP energy -89133.082578 kJ/mol
# GULP energy per Si atom -5570.817661 kJ/mol
# Density = 2.205357 g / cm^3
# Si number density = 22.103884 Si / 1000 Ang^3
#
#
#
# Elastic Constant Matrix: (Units=GPa)
#
#
# Indices 1 2 3 4 5 6 
#
# 1 43.0503 18.1186 17.8510 -5.6707 3.2089 -6.3432
# 2 18.1186 167.0746 53.8213 -7.6677 -5.3139 -1.2563
# 3 17.8510 53.8213 121.3484 -2.0598 -10.5256 -6.8233
# 4 -5.6707 -7.6677 -2.0598 31.2842 2.1762 0.8567
# 5 3.2089 -5.3139 -10.5256 2.1762 22.1614 -2.4414
# 6 -6.3432 -1.2563 -6.8233 0.8567 -2.4414 33.9998
#
#
#
# Elastic Compliance Matrix: (Units=1/GPa)
#
#
# Indices 1 2 3 4 5 6 
#
# 1 0.026990 -0.001781 -0.003412 0.004545 -0.005990 0.003740
# 2 -0.001781 0.007178 -0.002902 0.001235 0.000408 -0.000651
# 3 -0.003412 -0.002902 0.010555 -0.001039 0.005108 0.001767
# 4 0.004545 0.001235 -0.001039 0.033326 -0.004178 -0.000455
# 5 -0.005990 0.000408 0.005108 -0.004178 0.049318 0.003569
# 6 0.003740 -0.000651 0.001767 -0.000455 0.003569 0.030708
#
#
# Mechanical properties :
#
#
# Convention : Reuss Voigt Hill
#
# Bulk Modulus (GPa) = 35.04971 56.78390 45.91681
# Shear Modulus (GPa) = 27.20697 33.60124 30.40411
#
# Velocity S-wave (km/s) = 3.51218 3.90314 3.71281
# Velocity P-wave (km/s) = 5.68669 6.78661 6.26085
#
# Compressibility (1/GPa) = 0.02853091
#
# Stress axis : x y z
#
# Youngs Moduli (GPa) = 37.05128 139.31250 94.74579
#
# Poissons Ratio (x) = 0.24818 0.32330
# Poissons Ratio (y) = 0.06601 0.27494
# Poissons Ratio (z) = 0.12643 0.40427
#
# Static dielectric constant tensor:
#      x y z
#    x 2.070330 -0.093130 0.167550 
#    y -0.093130 1.923910 -0.109270 
#    z 0.167550 -0.109270 1.993220 
# 
# From -- ./inp_files/262591.got.cif
#   From: 2010.05.17/outbox.cif.g08.bks.cpg/sg2_132_cif.got.tgz:262591.got - 2010.06.03 11:33:40.
