data_PCOD9027412
_publ_section_title
;
Structure prediction by ZEFSAII (Michael W. Deem and Ramdas Pophale) SiO2 
 PCOD9027412
Probable space group: P -1
;
_chemical_formula_sum "Si O2"
_cell_formula_units_Z 15
_cell_length_a 7.235099
_cell_length_b 13.927643
_cell_length_c 19.731405
_cell_angle_alpha 155.925806
_cell_angle_beta 126.703250
_cell_angle_gamma 44.402276
_cell_volume 557.001427
_symmetry_space_group_name_H-M "P -1"
_symmetry_group_IT_number 2
_symmetry_cell_setting 'triclinic'
loop_
_space_group_symop_operation_xyz
x,y,z
-x,-y,-z
loop_
_atom_site_type_symbol
_atom_site_label
_atom_site_fract_x
_atom_site_fract_y
_atom_site_fract_z
Si Si1 0.190475 0.099972 0.401572
Si Si2 0.352500 0.589130 0.176812
Si Si3 0.818427 0.813336 0.690039
Si Si4 0.347378 0.881410 0.727666
Si Si5 0.500000 0.500000 0.000000
Si Si6 0.968705 0.526699 0.884563
Si Si7 0.312581 0.272070 0.176961
Si Si8 0.150838 0.661271 0.786309
O O1 0.269390 0.989720 0.269029
O O2 0.224599 0.355375 0.584186
O O3 0.883102 0.173240 0.382554
O O4 0.347005 0.869640 0.342648
O O5 0.067002 0.670156 0.199123
O O6 0.589301 0.382791 0.145976
O O7 0.381934 0.477173 0.035643
O O8 0.564790 0.849098 0.699033
O O9 0.000000 0.500000 0.500000
O O10 0.018050 0.836779 0.801886
O O11 0.509332 0.688057 0.702805
O O12 0.201955 0.182191 0.924747
O O13 0.245020 0.499750 0.908016
O O14 0.840465 0.507874 0.773056
O O15 0.094905 0.241503 0.152948
O O16 0.500000 0.000000 0.000000
#
# Coordination Sequence:
#
# PCOD9027412 Si02
#       8
#     2   2   2   2   1   2   2   2
#     4  11  24  42  68  99 139 183 220 283 333 402
#     4  12  26  42  69  99 139 177 231 274 345 405
#     4   9  22  42  67  97 132 178 227 273 332 396
#     4  10  22  41  67  99 133 172 232 275 341 398
#     4  12  24  44  68  92 136 178 222 276 344 388
#     4  11  24  43  68 100 132 178 223 286 336 406
#     4   9  20  42  66  97 132 173 227 282 336 391
#     4  10  22  46  67  99 138 180 225 282 334 404
#
# _framework density 26.929912000000002
#
# number of rings (size 3 to 8) (size 9 to 14) (size 15 to 20)
#    0.000    1.600    2.667    0.800    3.733    4.800 
#    2.400    2.667    0.000    0.000    0.000    0.000 
#    0.000    0.000    0.000    0.000    0.000    0.000 
#
# Total GULP energy -83830.698451 kJ/mol
# GULP energy per Si atom -5588.713230 kJ/mol
# Density = 2.686862 g / cm^3
# Si number density = 26.929912 Si / 1000 Ang^3
#
#
#
# Elastic Constant Matrix: (Units=GPa)
#
#
# Indices 1 2 3 4 5 6 
#
# 1 153.6623 41.9327 -9.7867 -7.6622 -25.3778 8.9085
# 2 41.9327 137.5216 4.4169 -22.1026 -1.9950 13.0461
# 3 -9.7867 4.4169 51.9177 3.5800 -3.1067 3.3722
# 4 -7.6622 -22.1026 3.5800 29.4553 -0.4669 0.0956
# 5 -25.3778 -1.9950 -3.1067 -0.4669 36.6890 -1.8994
# 6 8.9085 13.0461 3.3722 0.0956 -1.8994 44.1708
#
#
#
# Elastic Compliance Matrix: (Units=1/GPa)
#
#
# Indices 1 2 3 4 5 6 
#
# 1 0.008314 -0.002407 0.002161 0.000188 0.005760 -0.000884
# 2 -0.002407 0.009298 -0.001632 0.006536 -0.001328 -0.002208
# 3 0.002161 -0.001632 0.020289 -0.003076 0.003014 -0.001367
# 4 0.000188 0.006536 -0.003076 0.039293 0.000632 -0.001791
# 5 0.005760 -0.001328 0.003014 0.000632 0.031449 0.000352
# 6 -0.000884 -0.002208 -0.001367 -0.001791 0.000352 0.023593
#
#
# Mechanical properties :
#
#
# Convention : Reuss Voigt Hill
#
# Bulk Modulus (GPa) = 29.28563 46.24748 37.76655
# Shear Modulus (GPa) = 33.92757 42.49895 38.21326
#
# Velocity S-wave (km/s) = 3.55328 3.97688 3.77103
# Velocity P-wave (km/s) = 5.26619 6.18854 5.74590
#
# Compressibility (1/GPa) = 0.03414644
#
# Stress axis : x y z
#
# Youngs Moduli (GPa) = 120.27830 107.54470 49.28868
#
# Poissons Ratio (x) = 0.25885 -0.10652
# Poissons Ratio (y) = 0.28950 0.08042
# Poissons Ratio (z) = -0.25993 0.17546
#
# Static dielectric constant tensor:
#      x y z
#    x 2.024200 0.016130 -0.012220 
#    y 0.016130 2.165670 0.049060 
#    z -0.012220 0.049060 2.032210 
# 
# From -- ./inp_files/549330.got.cif
#   From: 2010.05.17/outbox.cif.g08.bks.cpg/sg2_275_cif.got.tgz:549330.got - 2010.06.03 11:33:40.
