data_PCOD9027044
_publ_section_title
;
Structure prediction by ZEFSAII (Michael W. Deem and Ramdas Pophale) SiO2 
 PCOD9027044
Probable space group: P -1
;
_chemical_formula_sum "Si O2"
_cell_formula_units_Z 14
_cell_length_a 7.325926
_cell_length_b 11.725738
_cell_length_c 13.425901
_cell_angle_alpha 33.660481
_cell_angle_beta 120.395953
_cell_angle_gamma 111.103402
_cell_volume 546.861509
_symmetry_space_group_name_H-M "P -1"
_symmetry_group_IT_number 2
_symmetry_cell_setting 'triclinic'
loop_
_space_group_symop_operation_xyz
x,y,z
-x,-y,-z
loop_
_atom_site_type_symbol
_atom_site_label
_atom_site_fract_x
_atom_site_fract_y
_atom_site_fract_z
Si Si1 0.697281 0.103182 0.025126
Si Si2 0.682150 0.962141 0.491789
Si Si3 0.104062 0.457808 0.739679
Si Si4 0.641689 0.921325 0.827123
Si Si5 0.924691 0.096316 0.623127
Si Si6 0.132286 0.499111 0.141850
Si Si7 0.300914 0.676974 0.333339
O O1 0.723843 0.310660 0.947102
O O2 0.782751 0.184421 0.886367
O O3 0.837155 0.923841 0.255779
O O4 0.500000 0.000000 0.000000
O O5 0.721053 0.720751 0.654266
O O6 0.500000 0.000000 0.500000
O O7 0.580758 0.097549 0.273760
O O8 0.893289 0.026931 0.552749
O O9 0.186252 0.668828 0.573810
O O10 0.011502 0.498249 0.798206
O O11 0.914392 0.422831 0.636601
O O12 0.277577 0.256803 0.943692
O O13 0.819252 0.934205 0.781024
O O14 0.629961 0.150783 0.700925
O O15 0.000000 0.500000 0.000000
O O16 0.500000 0.500000 0.500000
#
# Coordination Sequence:
#
# PCOD9027044 Si02
#       7
#     2   2   2   2   2   2   2
#     4  11  23  42  67 103 140 171 231 285 336 415
#     4  10  22  41  66  95 133 181 227 276 340 402
#     4  11  24  40  68  98 132 177 229 280 342 405
#     4  11  22  45  66  93 141 177 224 286 337 405
#     4  11  23  43  66  99 133 177 229 278 342 406
#     4  11  20  44  71  94 137 187 219 286 345 395
#     4  11  23  44  66  95 138 182 222 279 348 401
#
# _framework density 25.600629000000001
#
# number of rings (size 3 to 8) (size 9 to 14) (size 15 to 20)
#    0.000    1.143    4.286    3.857    0.000    1.714 
#   10.286    0.000    0.000    0.000    0.000    0.000 
#    0.000    0.000    0.000    0.000    0.000    0.000 
#
# Total GULP energy -78180.139476 kJ/mol
# GULP energy per Si atom -5584.295677 kJ/mol
# Density = 2.554236 g / cm^3
# Si number density = 25.600629 Si / 1000 Ang^3
#
#
#
# Elastic Constant Matrix: (Units=GPa)
#
#
# Indices 1 2 3 4 5 6 
#
# 1 58.0767 19.2253 17.8731 8.9320 -3.9576 0.6101
# 2 19.2253 161.0723 65.8541 19.3597 21.9418 22.9720
# 3 17.8731 65.8541 182.7818 -4.5525 26.3191 21.0198
# 4 8.9320 19.3597 -4.5525 61.8365 7.4288 9.4884
# 5 -3.9576 21.9418 26.3191 7.4288 39.7881 1.0066
# 6 0.6101 22.9720 21.0198 9.4884 1.0066 40.3391
#
#
#
# Elastic Compliance Matrix: (Units=1/GPa)
#
#
# Indices 1 2 3 4 5 6 
#
# 1 0.019453 -0.002071 -0.002298 -0.003372 0.005158 0.002747
# 2 -0.002071 0.008360 -0.002035 -0.001603 -0.003089 -0.003215
# 3 -0.002298 -0.002035 0.007504 0.002550 -0.004465 -0.003205
# 4 -0.003372 -0.001603 0.002550 0.018598 -0.004493 -0.004627
# 5 0.005158 -0.003089 -0.004465 -0.004493 0.031034 0.004290
# 6 0.002747 -0.003215 -0.003205 -0.004627 0.004290 0.029230
#
#
# Mechanical properties :
#
#
# Convention : Reuss Voigt Hill
#
# Bulk Modulus (GPa) = 44.43009 67.53731 55.98370
# Shear Modulus (GPa) = 37.17752 48.32461 42.75106
#
# Velocity S-wave (km/s) = 3.81492 4.34940 4.09090
# Velocity P-wave (km/s) = 6.06610 7.18759 6.65053
#
# Compressibility (1/GPa) = 0.02250727
#
# Stress axis : x y z
#
# Youngs Moduli (GPa) = 51.40651 119.62371 133.26479
#
# Poissons Ratio (x) = 0.24777 0.30631
# Poissons Ratio (y) = 0.10648 0.27115
# Poissons Ratio (z) = 0.11816 0.24340
#
# Static dielectric constant tensor:
#      x y z
#    x 2.163950 0.027210 -0.003320 
#    y 0.027210 2.082940 -0.003950 
#    z -0.003320 -0.003950 1.983180 
# 
# From -- ./inp_files/184624.got.cif
#   From: 2010.05.17/outbox.cif.g08.bks.cpg/sg2_93_cif.got.tgz:184624.got - 2010.06.03 11:33:40.
