data_PCOD9027601
_publ_section_title
;
Structure prediction by ZEFSAII (Michael W. Deem and Ramdas Pophale) SiO2 
 PCOD9027601
Probable space group: P -1
;
_chemical_formula_sum "Si O2"
_cell_formula_units_Z 12
_cell_length_a 11.970735
_cell_length_b 10.176612
_cell_length_c 5.197121
_cell_angle_alpha 122.426237
_cell_angle_beta 96.095936
_cell_angle_gamma 62.708189
_cell_volume 466.612465
_symmetry_space_group_name_H-M "P -1"
_symmetry_group_IT_number 2
_symmetry_cell_setting 'triclinic'
loop_
_space_group_symop_operation_xyz
x,y,z
-x,-y,-z
loop_
_atom_site_type_symbol
_atom_site_label
_atom_site_fract_x
_atom_site_fract_y
_atom_site_fract_z
Si Si1 0.324493 0.275900 0.722759
Si Si2 0.034448 0.162870 0.216324
Si Si3 0.125201 0.027273 0.598308
Si Si4 0.222307 0.492651 0.457008
Si Si5 0.389135 0.882435 0.431850
Si Si6 0.580929 0.402456 0.173784
O O1 0.228277 0.359971 0.546690
O O2 0.462177 0.225115 0.564784
O O3 0.351678 0.086505 0.638822
O O4 0.285477 0.401567 0.101984
O O5 0.917180 0.346805 0.461714
O O6 0.135511 0.097077 0.397188
O O7 0.088066 0.171041 0.961415
O O8 0.000000 0.000000 0.000000
O O9 0.269049 0.870030 0.522342
O O10 0.000000 0.000000 0.500000
O O11 0.289489 0.590364 0.735396
O O12 0.395926 0.795967 0.063242
O O13 0.500000 0.500000 0.500000
O O14 0.500000 0.500000 0.000000
#
# Coordination Sequence:
#
# PCOD9027601 Si02
#       6
#     2   2   2   2   2   2
#     4  11  27  44  70 104 141 190 214 291 353 415
#     4  10  22  41  68  96 132 177 224 285 340 393
#     4  10  22  41  68  97 128 183 227 278 332 402
#     4  12  23  47  68 104 141 175 242 282 343 413
#     4  11  25  47  70 101 147 179 234 274 358 418
#     4  12  23  39  65 102 129 174 226 280 334 396
#
# _framework density 25.717274
#
# number of rings (size 3 to 8) (size 9 to 14) (size 15 to 20)
#    0.000    1.000    3.333    3.000    0.000   12.000 
#    0.000    5.000    0.000    0.000    0.000    0.000 
#    0.000    0.000    0.000    0.000    0.000    0.000 
#
# Total GULP energy -66924.790829 kJ/mol
# GULP energy per Si atom -5577.065902 kJ/mol
# Density = 2.565874 g / cm^3
# Si number density = 25.717274 Si / 1000 Ang^3
#
#
#
# Elastic Constant Matrix: (Units=GPa)
#
#
# Indices 1 2 3 4 5 6 
#
# 1 71.1729 1.8935 21.1925 11.4028 -14.9906 -18.2534
# 2 1.8935 108.2606 57.3861 -7.6743 -7.9693 -18.7895
# 3 21.1925 57.3861 176.6174 -2.1165 -23.2323 -16.5818
# 4 11.4028 -7.6743 -2.1165 58.2559 -2.3715 -3.7977
# 5 -14.9906 -7.9693 -23.2323 -2.3715 36.4934 12.4510
# 6 -18.2534 -18.7895 -16.5818 -3.7977 12.4510 40.2370
#
#
#
# Elastic Compliance Matrix: (Units=1/GPa)
#
#
# Indices 1 2 3 4 5 6 
#
# 1 0.017445 0.001768 -0.001535 -0.002640 0.004162 0.006570
# 2 0.001768 0.012158 -0.003742 0.001436 -0.000714 0.005294
# 3 -0.001535 -0.003742 0.007482 0.000193 0.003470 -0.000416
# 4 -0.002640 0.001436 0.000193 0.017962 0.000105 0.001215
# 5 0.004162 -0.000714 0.003470 0.000105 0.033709 -0.007437
# 6 0.006570 0.005294 -0.000416 0.001215 -0.007437 0.032550
#
#
# Mechanical properties :
#
#
# Convention : Reuss Voigt Hill
#
# Bulk Modulus (GPa) = 33.26038 57.44388 45.35213
# Shear Modulus (GPa) = 36.14171 45.36919 40.75545
#
# Velocity S-wave (km/s) = 3.75286 4.20474 3.98521
# Velocity P-wave (km/s) = 5.63381 6.77925 6.23290
#
# Compressibility (1/GPa) = 0.03006580
#
# Stress axis : x y z
#
# Youngs Moduli (GPa) = 57.32395 82.25320 133.65970
#
# Poissons Ratio (x) = -0.14543 0.20518
# Poissons Ratio (y) = -0.10135 0.50016
# Poissons Ratio (z) = 0.08800 0.30780
#
# Static dielectric constant tensor:
#      x y z
#    x 0.726990 -1.042050 0.144910 
#    y -1.042050 1.162120 0.135740 
#    z 0.144910 0.135740 1.988820 
# 
# From -- ./inp_files/94216.got.cif
#   From: 2010.05.17/outbox.cif.g08.bks.cpg/sg2_48_cif.got.tgz:94216.got - 2010.06.03 11:33:40.
