data_PCOD9027265
_publ_section_title
;
Structure prediction by ZEFSAII (Michael W. Deem and Ramdas Pophale) SiO2 
 PCOD9027265
Probable space group: P -1
;
_chemical_formula_sum "Si O2"
_cell_formula_units_Z 16
_cell_length_a 18.419714
_cell_length_b 8.244573
_cell_length_c 6.977591
_cell_angle_alpha 81.010118
_cell_angle_beta 122.095046
_cell_angle_gamma 122.960470
_cell_volume 739.938133
_symmetry_space_group_name_H-M "P -1"
_symmetry_group_IT_number 2
_symmetry_cell_setting 'triclinic'
loop_
_space_group_symop_operation_xyz
x,y,z
-x,-y,-z
loop_
_atom_site_type_symbol
_atom_site_label
_atom_site_fract_x
_atom_site_fract_y
_atom_site_fract_z
Si Si1 0.127112 0.695984 0.718879
Si Si2 0.718027 0.899112 0.017848
Si Si3 0.398899 0.377639 0.753836
Si Si4 0.082490 0.401555 0.434526
Si Si5 0.423631 0.120033 0.513815
Si Si6 0.636385 0.315877 0.571562
Si Si7 0.876242 0.599720 0.943910
Si Si8 0.098132 0.139021 0.748509
O O1 0.127923 0.623601 0.521026
O O2 0.030815 0.714009 0.608155
O O3 0.236667 0.881866 0.887130
O O4 0.099377 0.530837 0.868087
O O5 0.684797 0.763525 0.181780
O O6 0.818152 0.910222 0.079277
O O7 0.631712 0.848248 0.750710
O O8 0.408593 0.235792 0.642949
O O9 0.380532 0.537648 0.606818
O O10 0.500000 0.500000 0.000000
O O11 0.081310 0.368654 0.216038
O O12 0.148652 0.337189 0.653617
O O13 0.544628 0.226448 0.616194
O O14 0.377329 0.883100 0.505221
O O15 0.752012 0.465122 0.782081
O O16 0.923732 0.801958 0.088552
O O17 0.000000 0.000000 0.500000
#
# Coordination Sequence:
#
# PCOD9027265 Si02
#       8
#     2   2   2   2   2   2   2   2
#     4  10  22  41  67  93 136 172 225 280 335 401
#     4  12  24  46  68  98 136 181 224 281 342 404
#     4  12  27  45  71 103 135 184 231 282 344 410
#     4  10  22  43  64  96 131 178 223 281 337 403
#     4  11  26  48  71 101 140 182 228 289 340 409
#     4  11  24  48  71 102 140 178 231 284 347 404
#     4  11  23  41  68  97 129 182 222 277 344 407
#     4  11  24  42  64  96 135 174 223 279 339 402
#
# _framework density 21.623427
#
# number of rings (size 3 to 8) (size 9 to 14) (size 15 to 20)
#    0.000    1.000    3.750    2.250    3.500    1.000 
#    2.250    0.000    0.000    0.000    0.000    0.000 
#    0.000    0.000    0.000    0.000    0.000    0.000 
#
# Total GULP energy -89170.139564 kJ/mol
# GULP energy per Si atom -5573.133723 kJ/mol
# Density = 2.157421 g / cm^3
# Si number density = 21.623427 Si / 1000 Ang^3
#
#
#
# Elastic Constant Matrix: (Units=GPa)
#
#
# Indices 1 2 3 4 5 6 
#
# 1 82.4713 33.0684 56.4920 14.2975 -8.1363 -26.1682
# 2 33.0684 73.7128 32.9907 0.5188 -13.3200 -22.1538
# 3 56.4920 32.9907 112.9254 18.0063 -14.0514 -23.5150
# 4 14.2975 0.5188 18.0063 40.3785 -6.6424 9.9808
# 5 -8.1363 -13.3200 -14.0514 -6.6424 48.8887 2.2147
# 6 -26.1682 -22.1538 -23.5150 9.9808 2.2147 34.0246
#
#
#
# Elastic Compliance Matrix: (Units=1/GPa)
#
#
# Indices 1 2 3 4 5 6 
#
# 1 0.024284 -0.003629 -0.006699 -0.009267 -0.000786 0.014454
# 2 -0.003629 0.019055 -0.001654 0.000398 0.003799 0.008109
# 3 -0.006699 -0.001654 0.014908 -0.005334 0.001744 0.005525
# 4 -0.009267 0.000398 -0.005334 0.036179 0.002916 -0.021357
# 5 -0.000786 0.003799 0.001744 0.002916 0.022221 0.000773
# 6 0.014454 0.008109 0.005525 -0.021357 0.000773 0.055820
#
#
# Mechanical properties :
#
#
# Convention : Reuss Voigt Hill
#
# Bulk Modulus (GPa) = 29.16760 57.13464 43.15112
# Shear Modulus (GPa) = 24.05486 34.42894 29.24190
#
# Velocity S-wave (km/s) = 3.33895 3.99457 3.68139
# Velocity P-wave (km/s) = 5.32757 6.91053 6.17002
#
# Compressibility (1/GPa) = 0.03428461
#
# Stress axis : x y z
#
# Youngs Moduli (GPa) = 41.17882 52.47952 67.07986
#
# Poissons Ratio (x) = 0.19045 0.44934
# Poissons Ratio (y) = 0.14944 0.11092
# Poissons Ratio (z) = 0.27584 0.08678
#
# Static dielectric constant tensor:
#      x y z
#    x 1.933120 -0.075610 -0.069090 
#    y -0.075610 2.018730 0.008190 
#    z -0.069090 0.008190 1.836770 
# 
# From -- ./inp_files/106780.got.cif
#   From: 2010.05.17/outbox.cif.g08.bks.cpg/sg2_54_cif.got.tgz:106780.got - 2010.06.03 11:33:40.
