data_PCOD9027370
_publ_section_title
;
Structure prediction by ZEFSAII (Michael W. Deem and Ramdas Pophale) SiO2 
 PCOD9027370
Probable space group: P -1
;
_chemical_formula_sum "Si O2"
_cell_formula_units_Z 16
_cell_length_a 8.289240
_cell_length_b 13.789154
_cell_length_c 15.190490
_cell_angle_alpha 25.405996
_cell_angle_beta 94.281036
_cell_angle_gamma 84.179166
_cell_volume 682.546633
_symmetry_space_group_name_H-M "P -1"
_symmetry_group_IT_number 2
_symmetry_cell_setting 'triclinic'
loop_
_space_group_symop_operation_xyz
x,y,z
-x,-y,-z
loop_
_atom_site_type_symbol
_atom_site_label
_atom_site_fract_x
_atom_site_fract_y
_atom_site_fract_z
Si Si1 0.689873 0.418563 0.027966
Si Si2 0.122886 0.740855 0.673800
Si Si3 0.539552 0.574860 0.609320
Si Si4 0.065480 0.360312 0.855778
Si Si5 0.338012 0.252020 0.818190
Si Si6 0.821139 0.636777 0.461100
Si Si7 0.813202 0.153658 0.091320
Si Si8 0.480457 0.814070 0.580865
O O1 0.818239 0.435963 0.093000
O O2 0.758247 0.167308 0.181846
O O3 0.500000 0.500000 0.000000
O O4 0.659533 0.591338 0.801498
O O5 0.064808 0.598426 0.713660
O O6 0.301257 0.773748 0.625005
O O7 0.000000 0.000000 0.500000
O O8 0.392780 0.480221 0.651788
O O9 0.632432 0.634773 0.481292
O O10 0.488599 0.810211 0.479581
O O11 0.665575 0.339247 0.866766
O O12 0.253879 0.211964 0.939619
O O13 0.938997 0.444863 0.696190
O O14 0.987475 0.209737 0.038922
O O15 0.189202 0.356523 0.650297
O O16 0.500000 0.000000 0.000000
O O17 0.844597 0.884413 0.282369
O O18 0.500000 0.000000 0.500000
#
# Coordination Sequence:
#
# PCOD9027370 Si02
#       8
#     2   2   2   2   2   2   2   2
#     4   9  21  38  65  92 132 172 223 269 327 394
#     4  11  23  41  65  97 137 174 221 273 336 406
#     4  10  22  44  70 100 133 170 230 284 325 406
#     4  11  26  46  65  98 143 175 223 283 334 413
#     4  12  24  48  70  99 131 176 233 288 338 390
#     4  11  24  44  72  93 132 177 221 278 348 399
#     4  10  22  43  66  99 132 181 220 270 342 403
#     4  10  22  41  67  97 133 175 222 271 337 398
#
# _framework density 23.441623
#
# number of rings (size 3 to 8) (size 9 to 14) (size 15 to 20)
#    0.000    1.500    2.500    1.500    8.750    1.000 
#    6.750    0.000    0.000    0.000    0.000    0.000 
#    0.000    0.000    0.000    0.000    0.000    0.000 
#
# Total GULP energy -89092.970838 kJ/mol
# GULP energy per Si atom -5568.310677 kJ/mol
# Density = 2.338827 g / cm^3
# Si number density = 23.441623 Si / 1000 Ang^3
#
#
#
# Elastic Constant Matrix: (Units=GPa)
#
#
# Indices 1 2 3 4 5 6 
#
# 1 77.3661 34.9343 1.7631 -7.1900 -16.0849 -1.0076
# 2 34.9343 129.7386 -3.1097 -0.2123 -5.6163 -0.9688
# 3 1.7631 -3.1097 18.9138 -0.7624 -0.8902 1.4435
# 4 -7.1900 -0.2123 -0.7624 32.0242 8.2616 -2.5863
# 5 -16.0849 -5.6163 -0.8902 8.2616 30.6382 -0.9267
# 6 -1.0076 -0.9688 1.4435 -2.5863 -0.9267 39.7656
#
#
#
# Elastic Compliance Matrix: (Units=1/GPa)
#
#
# Indices 1 2 3 4 5 6 
#
# 1 0.016572 -0.004178 -0.001862 0.001789 0.007418 0.000675
# 2 -0.004178 0.008861 0.001802 -0.000757 -0.000313 -0.000012
# 3 -0.001862 0.001802 0.053541 0.000533 0.000707 -0.001896
# 4 0.001789 -0.000757 0.000533 0.033933 -0.008273 0.002022
# 5 0.007418 -0.000313 0.000707 -0.008273 0.038743 0.000519
# 6 0.000675 -0.000012 -0.001896 0.002022 0.000519 0.025377
#
#
# Mechanical properties :
#
#
# Convention : Reuss Voigt Hill
#
# Bulk Modulus (GPa) = 14.18479 32.57713 23.38096
# Shear Modulus (GPa) = 23.92329 33.31430 28.61880
#
# Velocity S-wave (km/s) = 3.19807 3.77392 3.49786
# Velocity P-wave (km/s) = 4.43859 5.73735 5.12925
#
# Compressibility (1/GPa) = 0.07049807
#
# Stress axis : x y z
#
# Youngs Moduli (GPa) = 60.34349 112.85337 18.67740
#
# Poissons Ratio (x) = 0.47148 0.03478
# Poissons Ratio (y) = 0.25210 -0.03366
# Poissons Ratio (z) = 0.11236 -0.20336
#
# Static dielectric constant tensor:
#      x y z
#    x 1.938600 -0.070120 0.068350 
#    y -0.070120 2.095980 -0.157160 
#    z 0.068350 -0.157160 2.104740 
# 
# From -- ./inp_files/499737.got.cif
#   From: 2010.05.17/outbox.cif.g08.bks.cpg/sg2_250_cif.got.tgz:499737.got - 2010.06.03 11:33:40.
