data_PCOD9027796
_publ_section_title
;
Structure prediction by ZEFSAII (Michael W. Deem and Ramdas Pophale) SiO2 
 PCOD9027796
Probable space group: P -1
;
_chemical_formula_sum "Si O2"
_cell_formula_units_Z 16
_cell_length_a 18.051575
_cell_length_b 9.469654
_cell_length_c 9.612770
_cell_angle_alpha 79.596549
_cell_angle_beta 148.806541
_cell_angle_gamma 115.515346
_cell_volume 703.278223
_symmetry_space_group_name_H-M "P -1"
_symmetry_group_IT_number 2
_symmetry_cell_setting 'triclinic'
loop_
_space_group_symop_operation_xyz
x,y,z
-x,-y,-z
loop_
_atom_site_type_symbol
_atom_site_label
_atom_site_fract_x
_atom_site_fract_y
_atom_site_fract_z
Si Si1 0.707073 0.161523 0.166660
Si Si2 0.794357 0.322323 0.583392
Si Si3 0.622363 0.747290 0.497760
Si Si4 0.231677 0.506309 0.890250
Si Si5 0.595675 0.018254 0.508879
Si Si6 0.913582 0.704368 0.035957
Si Si7 0.803937 0.931459 0.491436
Si Si8 0.704517 0.579456 0.296881
O O1 0.702334 0.207812 0.314054
O O2 0.765661 0.029034 0.295620
O O3 0.811124 0.348926 0.229363
O O4 0.542574 0.066125 0.822155
O O5 0.723020 0.208909 0.626777
O O6 0.755787 0.468777 0.488914
O O7 0.987028 0.370799 0.865364
O O8 0.427197 0.609168 0.239427
O O9 0.651810 0.829208 0.376787
O O10 0.679280 0.905400 0.665106
O O11 0.737766 0.669420 0.702453
O O12 0.118649 0.366488 0.846655
O O13 0.246725 0.437430 0.778636
O O14 0.500000 0.000000 0.500000
O O15 0.039737 0.910484 0.204509
O O16 0.815393 0.778949 0.477676
O O17 0.500000 0.500000 0.000000
#
# Coordination Sequence:
#
# PCOD9027796 Si02
#       8
#     2   2   2   2   2   2   2   2
#     4   9  20  40  69  91 128 172 230 258 335 405
#     4  10  22  41  69  93 134 185 221 278 339 402
#     4  11  22  43  70  93 131 189 229 264 339 415
#     4  10  23  41  70  98 128 178 228 281 328 406
#     4  11  22  38  66 104 133 170 226 287 335 400
#     4  11  24  43  67  95 139 179 228 272 343 409
#     4  11  22  40  72  95 127 181 225 280 329 402
#     4  11  22  40  68 103 133 168 234 284 333 396
#
# _framework density 22.750598
#
# number of rings (size 3 to 8) (size 9 to 14) (size 15 to 20)
#    0.000    1.500    3.750    1.875    1.750    7.000 
#    4.500    4.375    0.000    0.000    0.000    0.000 
#    0.000    0.000    0.000    0.000    0.000    0.000 
#
# Total GULP energy -89341.270430 kJ/mol
# GULP energy per Si atom -5583.829402 kJ/mol
# Density = 2.269882 g / cm^3
# Si number density = 22.750598 Si / 1000 Ang^3
#
#
#
# Elastic Constant Matrix: (Units=GPa)
#
#
# Indices 1 2 3 4 5 6 
#
# 1 104.4485 66.2528 15.9528 -24.7307 11.8856 14.0359
# 2 66.2528 146.2597 20.5383 -17.3117 15.4278 -13.0802
# 3 15.9528 20.5383 79.3472 -24.7725 18.3920 -2.1527
# 4 -24.7307 -17.3117 -24.7725 33.2793 -4.1702 8.0525
# 5 11.8856 15.4278 18.3920 -4.1702 25.5590 -3.6588
# 6 14.0359 -13.0802 -2.1527 8.0525 -3.6588 43.6874
#
#
#
# Elastic Compliance Matrix: (Units=1/GPa)
#
#
# Indices 1 2 3 4 5 6 
#
# 1 0.020532 -0.008385 0.004361 0.016313 -0.006747 -0.012464
# 2 -0.008385 0.011184 -0.001864 -0.003519 -0.001154 0.006503
# 3 0.004361 -0.001864 0.020592 0.017157 -0.013673 -0.005252
# 4 0.016313 -0.003519 0.017157 0.055751 -0.011096 -0.016654
# 5 -0.006747 -0.001154 -0.013673 -0.011096 0.052069 0.007555
# 6 -0.012464 0.006503 -0.005252 -0.016654 0.007555 0.032285
#
#
# Mechanical properties :
#
#
# Convention : Reuss Voigt Hill
#
# Bulk Modulus (GPa) = 24.67177 59.50480 42.08829
# Shear Modulus (GPa) = 22.96747 35.65925 29.31336
#
# Velocity S-wave (km/s) = 3.18076 3.96333 3.59341
# Velocity P-wave (km/s) = 4.93535 6.86703 5.97970
#
# Compressibility (1/GPa) = 0.04053215
#
# Stress axis : x y z
#
# Youngs Moduli (GPa) = 48.70465 89.41428 48.56320
#
# Poissons Ratio (x) = 0.74975 -0.21179
# Poissons Ratio (y) = 0.40839 0.09051
# Poissons Ratio (z) = -0.21241 0.16665
#
# Static dielectric constant tensor:
#      x y z
#    x 1.835640 -0.047550 0.003410 
#    y -0.047550 1.861480 -0.000560 
#    z 0.003410 -0.000560 1.935190 
# 
# From -- ./inp_files/298443.got.cif
#   From: 2010.05.17/outbox.cif.g08.bks.cpg/sg2_150_cif.got.tgz:298443.got - 2010.06.03 11:33:40.
