data_PCOD9027636
_publ_section_title
;
Structure prediction by ZEFSAII (Michael W. Deem and Ramdas Pophale) SiO2 
 PCOD9027636
Probable space group: P -1
;
_chemical_formula_sum "Si O2"
_cell_formula_units_Z 10
_cell_length_a 10.943623
_cell_length_b 9.749516
_cell_length_c 8.265184
_cell_angle_alpha 48.439087
_cell_angle_beta 99.311990
_cell_angle_gamma 136.119754
_cell_volume 362.428527
_symmetry_space_group_name_H-M "P -1"
_symmetry_group_IT_number 2
_symmetry_cell_setting 'triclinic'
loop_
_space_group_symop_operation_xyz
x,y,z
-x,-y,-z
loop_
_atom_site_type_symbol
_atom_site_label
_atom_site_fract_x
_atom_site_fract_y
_atom_site_fract_z
Si Si1 0.210114 0.225692 0.598416
Si Si2 0.318909 0.707362 0.454887
Si Si3 0.763608 0.845590 0.785491
Si Si4 0.193474 0.740011 0.725316
Si Si5 0.346662 0.102516 0.961025
O O1 0.255849 0.431913 0.589203
O O2 0.275917 0.108530 0.772917
O O3 0.389253 0.517533 0.275757
O O4 0.949357 0.919686 0.744260
O O5 0.182464 0.605742 0.662834
O O6 0.572473 0.019379 0.328689
O O7 0.309935 0.845190 0.199113
O O8 0.808148 0.056134 0.500784
O O9 0.500000 0.500000 0.000000
O O10 0.791034 0.964876 0.876740
O O11 0.000000 0.500000 0.000000
#
# Coordination Sequence:
#
# PCOD9027636 Si02
#       5
#     2   2   2   2   2
#     4  11  23  42  68  97 133 175 221 272 330 394
#     4  10  22  42  67  98 133 169 222 274 324 394
#     4  11  24  43  65  96 135 173 221 276 329 390
#     4  10  22  41  68  98 132 176 218 269 334 395
#     4  10  23  41  66  99 130 172 221 273 332 392
#
# _framework density 27.591646999999998
#
# number of rings (size 3 to 8) (size 9 to 14) (size 15 to 20)
#    0.000    1.600    0.000    3.600    0.000    5.600 
#    0.000   16.000    0.000    3.600    0.000    0.000 
#    0.000    0.000    0.000    0.000    0.000    0.000 
#
# Total GULP energy -56098.392965 kJ/mol
# GULP energy per Si atom -5609.839297 kJ/mol
# Density = 2.752885 g / cm^3
# Si number density = 27.591647 Si / 1000 Ang^3
#
#
#
# Elastic Constant Matrix: (Units=GPa)
#
#
# Indices 1 2 3 4 5 6 
#
# 1 141.6079 53.4375 72.9322 7.2462 -21.2060 18.6780
# 2 53.4375 119.5754 44.9096 -10.5581 -4.4934 15.4166
# 3 72.9322 44.9096 219.1263 17.1347 -10.1235 13.3800
# 4 7.2462 -10.5581 17.1347 37.1956 12.8891 -6.8038
# 5 -21.2060 -4.4934 -10.1235 12.8891 70.2978 -0.6817
# 6 18.6780 15.4166 13.3800 -6.8038 -0.6817 58.1018
#
#
#
# Elastic Compliance Matrix: (Units=1/GPa)
#
#
# Indices 1 2 3 4 5 6 
#
# 1 0.010612 -0.003840 -0.002161 -0.003727 0.003306 -0.002292
# 2 -0.003840 0.011089 -0.001402 0.004932 -0.001564 -0.000826
# 3 -0.002161 -0.001402 0.005876 -0.003026 0.000653 -0.000633
# 4 -0.003727 0.004932 -0.003026 0.033783 -0.007396 0.004455
# 5 0.003306 -0.001564 0.000653 -0.007396 0.016558 -0.001470
# 6 -0.002292 -0.000826 -0.000633 0.004455 -0.001470 0.018818
#
#
# Mechanical properties :
#
#
# Convention : Reuss Voigt Hill
#
# Bulk Modulus (GPa) = 78.30681 91.42980 84.86831
# Shear Modulus (GPa) = 43.17891 53.72103 48.44997
#
# Velocity S-wave (km/s) = 3.96021 4.41727 4.19497
# Velocity P-wave (km/s) = 7.02518 7.69579 7.36812
#
# Compressibility (1/GPa) = 0.01277028
#
# Stress axis : x y z
#
# Youngs Moduli (GPa) = 94.23427 90.18089 170.19610
#
# Poissons Ratio (x) = 0.34630 0.36777
# Poissons Ratio (y) = 0.36187 0.23863
# Poissons Ratio (z) = 0.20362 0.12644
#
# Static dielectric constant tensor:
#      x y z
#    x 2.064560 -0.046350 -0.002730 
#    y -0.046350 2.276900 -0.026890 
#    z -0.002730 -0.026890 2.058660 
# 
# From -- ./inp_files/144051.got.cif
#   From: 2010.05.17/outbox.cif.g08.bks.cpg/sg2_73_cif.got.tgz:144051.got - 2010.06.03 11:33:40.
