data_PCOD9027406
_publ_section_title
;
Structure prediction by ZEFSAII (Michael W. Deem and Ramdas Pophale) SiO2 
 PCOD9027406
Probable space group: P -1
;
_chemical_formula_sum "Si O2"
_cell_formula_units_Z 16
_cell_length_a 13.753077
_cell_length_b 10.342387
_cell_length_c 8.449160
_cell_angle_alpha 43.599358
_cell_angle_beta 62.406934
_cell_angle_gamma 84.706816
_cell_volume 673.867078
_symmetry_space_group_name_H-M "P -1"
_symmetry_group_IT_number 2
_symmetry_cell_setting 'triclinic'
loop_
_space_group_symop_operation_xyz
x,y,z
-x,-y,-z
loop_
_atom_site_type_symbol
_atom_site_label
_atom_site_fract_x
_atom_site_fract_y
_atom_site_fract_z
Si Si1 0.427357 0.282598 0.444169
Si Si2 0.024165 0.963059 0.703135
Si Si3 0.390827 0.545897 0.617751
Si Si4 0.220964 0.388563 0.164776
Si Si5 0.374409 0.859570 0.141083
Si Si6 0.196750 0.985550 0.015216
Si Si7 0.074381 0.638948 0.167547
Si Si8 0.563940 0.315081 0.041244
O O1 0.529278 0.269355 0.491166
O O2 0.469540 0.525843 0.176520
O O3 0.448185 0.196689 0.338787
O O4 0.296949 0.193977 0.690188
O O5 0.921382 0.998778 0.847172
O O6 0.149935 0.153608 0.474332
O O7 0.000000 0.000000 0.500000
O O8 0.025296 0.754136 0.967873
O O9 0.500000 0.500000 0.500000
O O10 0.333372 0.639495 0.447753
O O11 0.284390 0.396589 0.939682
O O12 0.128340 0.499595 0.153051
O O13 0.326316 0.529592 0.076784
O O14 0.267246 0.933288 0.152955
O O15 0.398009 0.826397 0.970763
O O16 0.500000 0.000000 0.000000
O O17 0.166470 0.825993 0.035445
O O18 0.000000 0.500000 0.500000
#
# Coordination Sequence:
#
# PCOD9027406 Si02
#       8
#     2   2   2   2   2   2   2   2
#     4  10  22  41  67  98 140 191 252 297 378 458
#     4  12  31  51  77 116 154 202 262 334 398 457
#     4  11  24  44  68 105 152 200 247 314 391 461
#     4  11  26  49  77 109 153 203 260 320 392 470
#     4  12  25  41  68 110 153 192 252 318 386 456
#     4  12  26  46  74 105 148 205 256 322 385 469
#     4  12  27  52  81 112 152 206 273 321 385 473
#     4  10  22  43  69 101 139 195 245 308 376 464
#
# _framework density 23.743556000000002
#
# number of rings (size 3 to 8) (size 9 to 14) (size 15 to 20)
#    0.000    0.750    5.000    1.125    5.250    3.000 
#    0.000    0.000    0.000    0.000    0.000    0.000 
#    0.000    0.000    0.000    0.000    0.000    0.000 
#
# Total GULP energy -89198.086877 kJ/mol
# GULP energy per Si atom -5574.880430 kJ/mol
# Density = 2.368951 g / cm^3
# Si number density = 23.743556 Si / 1000 Ang^3
#
#
#
# Elastic Constant Matrix: (Units=GPa)
#
#
# Indices 1 2 3 4 5 6 
#
# 1 86.7888 16.7597 47.7521 4.4825 14.5354 -14.1690
# 2 16.7597 58.5415 39.2976 12.5036 -0.2328 -16.2258
# 3 47.7521 39.2976 173.7647 20.3602 -0.1250 -21.4858
# 4 4.4825 12.5036 20.3602 37.6625 -5.3375 -4.3474
# 5 14.5354 -0.2328 -0.1250 -5.3375 44.7889 -0.0679
# 6 -14.1690 -16.2258 -21.4858 -4.3474 -0.0679 43.0907
#
#
#
# Elastic Compliance Matrix: (Units=1/GPa)
#
#
# Indices 1 2 3 4 5 6 
#
# 1 0.014937 -0.001218 -0.003516 0.000154 -0.004841 0.002708
# 2 -0.001218 0.022375 -0.003448 -0.004755 -0.000056 0.005826
# 3 -0.003516 -0.003448 0.007946 -0.002466 0.000853 0.001260
# 4 0.000154 -0.004755 -0.002466 0.029946 0.003487 0.000057
# 5 -0.004841 -0.000056 0.000853 0.003487 0.024315 -0.000797
# 6 0.002708 0.005826 0.001260 0.000057 -0.000797 0.026924
#
#
# Mechanical properties :
#
#
# Convention : Reuss Voigt Hill
#
# Bulk Modulus (GPa) = 34.60834 58.52375 46.56604
# Shear Modulus (GPa) = 32.80020 39.46079 36.13050
#
# Velocity S-wave (km/s) = 3.72080 4.08113 3.90513
# Velocity P-wave (km/s) = 5.75036 6.84904 6.32361
#
# Compressibility (1/GPa) = 0.02889477
#
# Stress axis : x y z
#
# Youngs Moduli (GPa) = 66.94841 44.69218 125.84343
#
# Poissons Ratio (x) = 0.05442 0.44248
# Poissons Ratio (y) = 0.08151 0.43393
# Poissons Ratio (z) = 0.23540 0.15411
#
# Static dielectric constant tensor:
#      x y z
#    x 1.979970 0.027640 0.066010 
#    y 0.027640 1.929790 0.019520 
#    z 0.066010 0.019520 1.993820 
# 
# From -- ./inp_files/304521.got.cif
#   From: 2010.05.17/outbox.cif.g08.bks.cpg/sg2_153_cif.got.tgz:304521.got - 2010.06.03 11:33:40.
