data_PCOD9027367
_publ_section_title
;
Structure prediction by ZEFSAII (Michael W. Deem and Ramdas Pophale) SiO2 
 PCOD9027367
Probable space group: P -1
;
_chemical_formula_sum "Si O2"
_cell_formula_units_Z 16
_cell_length_a 11.335388
_cell_length_b 11.823370
_cell_length_c 8.796564
_cell_angle_alpha 107.357649
_cell_angle_beta 82.967053
_cell_angle_gamma 38.835365
_cell_volume 568.257998
_symmetry_space_group_name_H-M "P -1"
_symmetry_group_IT_number 2
_symmetry_cell_setting 'triclinic'
loop_
_space_group_symop_operation_xyz
x,y,z
-x,-y,-z
loop_
_atom_site_type_symbol
_atom_site_label
_atom_site_fract_x
_atom_site_fract_y
_atom_site_fract_z
Si Si1 0.149924 0.273820 0.090627
Si Si2 0.839356 0.500182 0.985385
Si Si3 0.316378 0.447239 0.272574
Si Si4 0.691124 0.390827 0.307203
Si Si5 0.097886 0.039835 0.440048
Si Si6 0.339726 0.179592 0.305479
Si Si7 0.517088 0.799927 0.425428
Si Si8 0.763198 0.150356 0.969636
O O1 0.169949 0.238042 0.255177
O O2 0.012770 0.305232 0.010941
O O3 0.053939 0.484047 0.128204
O O4 0.409057 0.056167 0.900359
O O5 0.622473 0.729687 0.213872
O O6 0.752832 0.485099 0.866511
O O7 0.255334 0.374509 0.323164
O O8 0.136834 0.692673 0.471143
O O9 0.597457 0.213923 0.131895
O O10 0.500000 0.500000 0.500000
O O11 0.631592 0.581020 0.387153
O O12 0.660692 0.364344 0.128336
O O13 0.957691 0.113150 0.169559
O O14 0.246860 0.995604 0.515039
O O15 0.268161 0.859569 0.203253
O O16 0.000000 0.000000 0.500000
O O17 0.392960 0.171185 0.467302
#
# Coordination Sequence:
#
# PCOD9027367 Si02
#       8
#     2   2   2   2   2   2   2   2
#     4   9  21  44  66  94 130 173 209 280 353 386
#     4  10  22  41  67  97 133 170 218 278 336 406
#     4  11  23  43  66  96 137 177 224 268 327 399
#     4  11  25  44  64  97 139 174 227 277 328 383
#     4  12  26  41  65  97 141 178 224 275 329 383
#     4  10  22  41  68  94 127 174 216 275 334 403
#     4  12  24  40  66 101 128 177 227 270 328 400
#     4  11  23  42  66  93 132 184 218 273 327 393
#
# _framework density 28.156224000000002
#
# number of rings (size 3 to 8) (size 9 to 14) (size 15 to 20)
#    0.000    1.250    1.250    4.500    3.500    3.000 
#    0.000    0.000    0.000    0.000    0.000    0.000 
#    0.000    0.000    0.000    0.000    0.000    0.000 
#
# Total GULP energy -89248.509013 kJ/mol
# GULP energy per Si atom -5578.031813 kJ/mol
# Density = 2.809214 g / cm^3
# Si number density = 28.156224 Si / 1000 Ang^3
#
#
#
# Elastic Constant Matrix: (Units=GPa)
#
#
# Indices 1 2 3 4 5 6 
#
# 1 37.1217 26.7893 49.8493 -2.4650 -2.0602 -22.7453
# 2 26.7893 112.2305 45.8075 13.5048 2.7657 -24.3608
# 3 49.8493 45.8075 194.9505 -7.6177 -4.3186 -22.2835
# 4 -2.4650 13.5048 -7.6177 49.8612 -17.9309 5.4652
# 5 -2.0602 2.7657 -4.3186 -17.9309 50.2150 -2.0871
# 6 -22.7453 -24.3608 -22.2835 5.4652 -2.0871 56.9781
#
#
#
# Elastic Compliance Matrix: (Units=1/GPa)
#
#
# Indices 1 2 3 4 5 6 
#
# 1 0.055470 -0.005776 -0.010929 0.002045 0.003021 0.015314
# 2 -0.005776 0.012088 -0.001307 -0.005029 -0.002697 0.002735
# 3 -0.010929 -0.001307 0.008095 0.001541 0.000792 -0.001875
# 4 0.002045 -0.005029 0.001541 0.025470 0.009471 -0.002827
# 5 0.003021 -0.002697 0.000792 0.009471 0.023650 0.000320
# 6 0.015314 0.002735 -0.001875 -0.002827 0.000320 0.024383
#
#
# Mechanical properties :
#
#
# Convention : Reuss Voigt Hill
#
# Bulk Modulus (GPa) = 25.23503 65.46611 45.35057
# Shear Modulus (GPa) = 25.20296 46.20128 35.70212
#
# Velocity S-wave (km/s) = 2.99509 4.05519 3.56476
# Velocity P-wave (km/s) = 4.57632 6.72514 5.75197
#
# Compressibility (1/GPa) = 0.03962745
#
# Stress axis : x y z
#
# Youngs Moduli (GPa) = 18.02772 82.72942 123.53749
#
# Poissons Ratio (x) = 0.47787 1.35018
# Poissons Ratio (y) = 0.10413 0.16145
# Poissons Ratio (z) = 0.19703 0.10812
#
# Static dielectric constant tensor:
#      x y z
#    x 2.410820 -0.178900 0.115360 
#    y -0.178900 2.296150 -0.085570 
#    z 0.115360 -0.085570 2.198340 
# 
# From -- ./inp_files/47154.got.cif
#   From: 2010.05.17/outbox.cif.g08.bks.cpg/sg2_24_cif.got.tgz:47154.got - 2010.06.03 11:33:40.
