data_PCOD9027077
_publ_section_title
;
Structure prediction by ZEFSAII (Michael W. Deem and Ramdas Pophale) SiO2 
 PCOD9027077
Probable space group: P -1
;
_chemical_formula_sum "Si O2"
_cell_formula_units_Z 16
_cell_length_a 12.481664
_cell_length_b 10.989678
_cell_length_c 6.645882
_cell_angle_alpha 92.261672
_cell_angle_beta 47.849034
_cell_angle_gamma 92.725224
_cell_volume 675.050738
_symmetry_space_group_name_H-M "P -1"
_symmetry_group_IT_number 2
_symmetry_cell_setting 'triclinic'
loop_
_space_group_symop_operation_xyz
x,y,z
-x,-y,-z
loop_
_atom_site_type_symbol
_atom_site_label
_atom_site_fract_x
_atom_site_fract_y
_atom_site_fract_z
Si Si1 0.290044 0.017697 0.724931
Si Si2 0.841545 0.554905 0.453161
Si Si3 0.496209 0.122452 0.812111
Si Si4 0.281352 0.505758 0.784060
Si Si5 0.480094 0.410104 0.827447
Si Si6 0.043859 0.898916 0.286251
Si Si7 0.141831 0.654632 0.274330
Si Si8 0.277782 0.192589 0.422543
O O1 0.388271 0.042960 0.798509
O O2 0.293022 0.152644 0.630940
O O3 0.354228 0.930524 0.465340
O O4 0.142056 0.956387 0.989105
O O5 0.847377 0.538783 0.202916
O O6 0.815902 0.423832 0.588363
O O7 0.726273 0.664687 0.622279
O O8 0.987917 0.602903 0.379361
O O9 0.515194 0.268738 0.782956
O O10 0.404125 0.123853 0.138017
O O11 0.327259 0.417594 0.900324
O O12 0.406639 0.530502 0.469342
O O13 0.250809 0.626572 0.954570
O O14 0.500000 0.500000 0.000000
O O15 0.127666 0.798174 0.303322
O O16 0.888228 0.847331 0.409295
O O17 0.000000 0.000000 0.500000
#
# Coordination Sequence:
#
# PCOD9027077 Si02
#       8
#     2   2   2   2   2   2   2   2
#     4  11  24  43  67 100 131 178 227 271 335 401
#     4  10  22  41  67 100 132 172 219 275 340 396
#     4  11  23  42  66  96 135 172 225 277 330 401
#     4  11  21  40  62  95 129 173 223 270 334 402
#     4  11  24  40  63  94 135 179 223 278 338 396
#     4  11  23  46  65  95 134 174 223 272 333 396
#     4  10  22  41  66  96 134 169 220 279 333 399
#     4  11  22  42  69  98 134 173 219 272 333 402
#
# _framework density 23.701920000000001
#
# number of rings (size 3 to 8) (size 9 to 14) (size 15 to 20)
#    0.000    1.250    1.250    4.875    0.000    1.000 
#   13.500    0.000    0.000    0.000    0.000    0.000 
#    0.000    0.000    0.000    0.000    0.000    0.000 
#
# Total GULP energy -89133.206264 kJ/mol
# GULP energy per Si atom -5570.825392 kJ/mol
# Density = 2.364797 g / cm^3
# Si number density = 23.701920 Si / 1000 Ang^3
#
#
#
# Elastic Constant Matrix: (Units=GPa)
#
#
# Indices 1 2 3 4 5 6 
#
# 1 56.3318 28.1771 32.9709 -0.2647 3.2628 -2.7168
# 2 28.1771 120.0665 85.6892 13.3568 20.6043 -9.4339
# 3 32.9709 85.6892 148.6665 -1.7412 -2.0050 -19.5048
# 4 -0.2647 13.3568 -1.7412 40.4022 0.7958 -6.8556
# 5 3.2628 20.6043 -2.0050 0.7958 29.2325 -7.2188
# 6 -2.7168 -9.4339 -19.5048 -6.8556 -7.2188 30.8867
#
#
#
# Elastic Compliance Matrix: (Units=1/GPa)
#
#
# Indices 1 2 3 4 5 6 
#
# 1 0.020986 -0.002470 -0.003393 0.000630 -0.001142 -0.001178
# 2 -0.002470 0.022030 -0.013579 -0.008930 -0.017977 -0.008247
# 3 -0.003393 -0.013579 0.017012 0.006797 0.013647 0.010995
# 4 0.000630 -0.008930 0.006797 0.029556 0.008390 0.010141
# 5 -0.001142 -0.017977 0.013647 0.008390 0.051918 0.017023
# 6 -0.001178 -0.008247 0.010995 0.010141 0.017023 0.042927
#
#
# Mechanical properties :
#
#
# Convention : Reuss Voigt Hill
#
# Bulk Modulus (GPa) = 47.29621 68.74879 58.02250
# Shear Modulus (GPa) = 21.70522 31.98611 26.84566
#
# Velocity S-wave (km/s) = 3.02943 3.67756 3.36912
# Velocity P-wave (km/s) = 5.67755 6.86303 6.29824
#
# Compressibility (1/GPa) = 0.02114334
#
# Stress axis : x y z
#
# Youngs Moduli (GPa) = 47.65138 45.39349 58.78283
#
# Poissons Ratio (x) = 0.11212 0.19946
# Poissons Ratio (y) = 0.11770 0.79820
# Poissons Ratio (z) = 0.16169 0.61639
#
# Static dielectric constant tensor:
#      x y z
#    x 1.955230 -0.125290 -0.011940 
#    y -0.125290 1.900730 -0.001510 
#    z -0.011940 -0.001510 1.943840 
# 
# From -- ./inp_files/70318.got.cif
#   From: 2010.05.17/outbox.cif.g08.bks.cpg/sg2_36_cif.got.tgz:70318.got - 2010.06.03 11:33:40.
