data_PCOD9027373
_publ_section_title
;
Structure prediction by ZEFSAII (Michael W. Deem and Ramdas Pophale) SiO2 
 PCOD9027373
Probable space group: P -1
;
_chemical_formula_sum "Si O2"
_cell_formula_units_Z 14
_cell_length_a 11.292994
_cell_length_b 7.792972
_cell_length_c 15.130605
_cell_angle_alpha 144.626212
_cell_angle_beta 47.909621
_cell_angle_gamma 128.307247
_cell_volume 563.657107
_symmetry_space_group_name_H-M "P -1"
_symmetry_group_IT_number 2
_symmetry_cell_setting 'triclinic'
loop_
_space_group_symop_operation_xyz
x,y,z
-x,-y,-z
loop_
_atom_site_type_symbol
_atom_site_label
_atom_site_fract_x
_atom_site_fract_y
_atom_site_fract_z
Si Si1 0.825205 0.555230 0.888179
Si Si2 0.067614 0.842175 0.022350
Si Si3 0.412822 0.707830 0.810515
Si Si4 0.580815 0.197252 0.458279
Si Si5 0.702054 0.148582 0.637932
Si Si6 0.518098 0.404969 0.077886
Si Si7 0.906337 0.170816 0.378135
O O1 0.804265 0.238096 0.712993
O O2 0.642514 0.575370 0.016889
O O3 0.903168 0.836460 0.908017
O O4 0.928763 0.606511 0.946582
O O5 0.230857 0.707514 0.872155
O O6 0.016963 0.946521 0.188107
O O7 0.532604 0.524257 0.624503
O O8 0.489950 0.055435 0.923742
O O9 0.401323 0.565618 0.854348
O O10 0.770821 0.203476 0.383328
O O11 0.500000 0.000000 0.500000
O O12 0.476988 0.052421 0.364933
O O13 0.808817 0.048664 0.464130
O O14 0.649430 0.472041 0.777474
O O15 0.000000 0.500000 0.500000
#
# Coordination Sequence:
#
# PCOD9027373 Si02
#       7
#     2   2   2   2   2   2   2
#     4  11  24  44  65 102 140 181 219 277 352 400
#     4  11  25  42  72 101 136 179 230 276 336 406
#     4  11  23  43  68 105 127 177 239 277 319 405
#     4  10  22  41  67  97 134 174 226 274 334 397
#     4  11  21  43  69  99 129 184 224 270 337 408
#     4  11  22  40  72  97 135 174 234 279 328 401
#     4  11  20  39  66 102 129 175 218 275 331 400
#
# _framework density 24.837796999999998
#
# number of rings (size 3 to 8) (size 9 to 14) (size 15 to 20)
#    0.000    1.143    5.714    1.286    4.000    0.571 
#    0.000    1.429    0.000    0.000    0.000    0.000 
#    0.000    0.000    0.000    0.000    0.000    0.000 
#
# Total GULP energy -78213.252392 kJ/mol
# GULP energy per Si atom -5586.660885 kJ/mol
# Density = 2.478127 g / cm^3
# Si number density = 24.837797 Si / 1000 Ang^3
#
#
#
# Elastic Constant Matrix: (Units=GPa)
#
#
# Indices 1 2 3 4 5 6 
#
# 1 89.5095 21.8780 8.6272 12.0674 26.5778 40.4528
# 2 21.8780 60.7374 20.2554 -11.6382 6.4201 7.6658
# 3 8.6272 20.2554 97.9731 13.8868 7.4466 -0.7219
# 4 12.0674 -11.6382 13.8868 35.3974 7.4154 4.9067
# 5 26.5778 6.4201 7.4466 7.4154 39.8198 2.4077
# 6 40.4528 7.6658 -0.7219 4.9067 2.4077 41.0782
#
#
#
# Elastic Compliance Matrix: (Units=1/GPa)
#
#
# Indices 1 2 3 4 5 6 
#
# 1 0.031293 -0.007340 0.000695 -0.005939 -0.017051 -0.027726
# 2 -0.007340 0.023279 -0.005892 0.012311 -0.000124 0.001317
# 3 0.000695 -0.005892 0.012432 -0.007136 -0.000602 0.001521
# 4 -0.005939 0.012311 -0.007136 0.038025 -0.003713 -0.000899
# 5 -0.017051 -0.000124 -0.000602 -0.003713 0.036404 0.015114
# 6 -0.027726 0.001317 0.001521 -0.000899 0.015114 0.050650
#
#
# Mechanical properties :
#
#
# Convention : Reuss Voigt Hill
#
# Bulk Modulus (GPa) = 23.84916 38.86015 31.35465
# Shear Modulus (GPa) = 21.63244 36.42306 29.02775
#
# Velocity S-wave (km/s) = 2.95439 3.83356 3.42232
# Velocity P-wave (km/s) = 4.61093 5.93923 5.31673
#
# Compressibility (1/GPa) = 0.04193020
#
# Stress axis : x y z
#
# Youngs Moduli (GPa) = 31.95621 42.95661 80.43519
#
# Poissons Ratio (x) = 0.31531 -0.05594
# Poissons Ratio (y) = 0.23457 0.47395
# Poissons Ratio (z) = -0.02222 0.25312
#
# Static dielectric constant tensor:
#      x y z
#    x 2.064440 0.001730 0.080160 
#    y 0.001730 1.996740 -0.004230 
#    z 0.080160 -0.004230 1.976700 
# 
# From -- ./inp_files/567099.got.cif
#   From: 2010.05.17/outbox.cif.g08.bks.cpg/sg2_284_cif.got.tgz:567099.got - 2010.06.03 11:33:40.
