data_PCOD9027605
_publ_section_title
;
Structure prediction by ZEFSAII (Michael W. Deem and Ramdas Pophale) SiO2 
 PCOD9027605
Probable space group: P -1
;
_chemical_formula_sum "Si O2"
_cell_formula_units_Z 14
_cell_length_a 21.667284
_cell_length_b 13.802969
_cell_length_c 6.956956
_cell_angle_alpha 91.279525
_cell_angle_beta 81.076966
_cell_angle_gamma 19.545169
_cell_volume 591.569571
_symmetry_space_group_name_H-M "P -1"
_symmetry_group_IT_number 2
_symmetry_cell_setting 'triclinic'
loop_
_space_group_symop_operation_xyz
x,y,z
-x,-y,-z
loop_
_atom_site_type_symbol
_atom_site_label
_atom_site_fract_x
_atom_site_fract_y
_atom_site_fract_z
Si Si1 0.413692 0.276866 0.192135
Si Si2 0.885784 0.263641 0.311398
Si Si3 0.784031 0.882264 0.086901
Si Si4 0.679436 0.161796 0.807960
Si Si5 0.298391 0.640894 0.833784
Si Si6 0.299416 0.330745 0.896191
Si Si7 0.155543 0.037760 0.677206
O O1 0.187349 0.628880 0.428379
O O2 0.580718 0.115042 0.149969
O O3 0.522332 0.017286 0.212113
O O4 0.378604 0.303904 0.986781
O O5 0.771492 0.342242 0.267326
O O6 0.786685 0.503292 0.257380
O O7 0.134348 0.888688 0.106838
O O8 0.745912 0.008819 0.291526
O O9 0.000000 0.500000 0.000000
O O10 0.817750 0.906986 0.895735
O O11 0.538390 0.286574 0.783453
O O12 0.809706 0.019839 0.569247
O O13 0.500000 0.500000 0.000000
O O14 0.263520 0.789537 0.730396
O O15 0.095986 0.590414 0.125377
#
# Coordination Sequence:
#
# PCOD9027605 Si02
#       7
#     2   2   2   2   2   2   2
#     4  11  23  41  68  94 135 177 221 279 335 397
#     4  10  22  41  68  96 135 173 219 280 336 395
#     4  12  26  47  68 102 136 179 230 278 338 406
#     4  12  26  41  70 100 135 182 224 272 342 398
#     4  10  22  44  66 104 135 175 225 274 337 411
#     4  10  23  43  63 100 131 175 229 271 334 407
#     4  11  24  45  68  98 143 172 224 286 332 401
#
# _framework density 23.665855000000001
#
# number of rings (size 3 to 8) (size 9 to 14) (size 15 to 20)
#    0.000    1.143    2.857    2.571    4.000    0.571 
#    5.143    2.857    0.000    0.000    0.000    0.000 
#    0.000    0.000    0.000    0.000    0.000    0.000 
#
# Total GULP energy -78417.247975 kJ/mol
# GULP energy per Si atom -5601.231998 kJ/mol
# Density = 2.361199 g / cm^3
# Si number density = 23.665855 Si / 1000 Ang^3
#
#
#
# Elastic Constant Matrix: (Units=GPa)
#
#
# Indices 1 2 3 4 5 6 
#
# 1 115.7901 2.7204 30.1841 1.0516 0.6372 -8.8462
# 2 2.7204 66.3200 18.3869 -4.2552 -11.1309 11.6170
# 3 30.1841 18.3869 135.6963 1.6605 -10.5236 11.9573
# 4 1.0516 -4.2552 1.6605 24.9012 1.1809 -5.0604
# 5 0.6372 -11.1309 -10.5236 1.1809 20.9276 1.8413
# 6 -8.8462 11.6170 11.9573 -5.0604 1.8413 40.7507
#
#
#
# Elastic Compliance Matrix: (Units=1/GPa)
#
#
# Indices 1 2 3 4 5 6 
#
# 1 0.009545 -0.000582 -0.002490 0.000399 -0.002149 0.003115
# 2 -0.000582 0.018002 -0.001151 0.001690 0.009370 -0.005134
# 3 -0.002490 -0.001151 0.008701 -0.001510 0.004200 -0.003143
# 4 0.000399 0.001690 -0.001510 0.041747 -0.002699 0.005354
# 5 -0.002149 0.009370 0.004200 -0.002699 0.055733 -0.007224
# 6 0.003115 -0.005134 -0.003143 0.005354 -0.007224 0.028593
#
#
# Mechanical properties :
#
#
# Convention : Reuss Voigt Hill
#
# Bulk Modulus (GPa) = 35.97116 46.70993 41.34054
# Shear Modulus (GPa) = 27.77237 35.08355 31.42796
#
# Velocity S-wave (km/s) = 3.42939 3.85444 3.64811
# Velocity P-wave (km/s) = 5.55999 6.29199 5.93728
#
# Compressibility (1/GPa) = 0.02780005
#
# Stress axis : x y z
#
# Youngs Moduli (GPa) = 104.76215 55.54995 114.93543
#
# Poissons Ratio (x) = 0.03233 0.28625
# Poissons Ratio (y) = 0.06096 0.13234
# Poissons Ratio (z) = 0.26091 0.06396
#
# Static dielectric constant tensor:
#      x y z
#    x 1.927120 -0.028350 -0.000950 
#    y -0.028350 1.869770 -0.018860 
#    z -0.000950 -0.018860 1.888660 
# 
# From -- ./inp_files/124238.got.cif
#   From: 2010.05.17/outbox.cif.g08.bks.cpg/sg2_63_cif.got.tgz:124238.got - 2010.06.03 11:33:40.
