data_PCOD9027281
_publ_section_title
;
Structure prediction by ZEFSAII (Michael W. Deem and Ramdas Pophale) SiO2 
 PCOD9027281
Probable space group: P -1
;
_chemical_formula_sum "Si O2"
_cell_formula_units_Z 16
_cell_length_a 14.819942
_cell_length_b 9.319734
_cell_length_c 11.519921
_cell_angle_alpha 85.744899
_cell_angle_beta 151.308075
_cell_angle_gamma 82.322864
_cell_volume 693.098854
_symmetry_space_group_name_H-M "P -1"
_symmetry_group_IT_number 2
_symmetry_cell_setting 'triclinic'
loop_
_space_group_symop_operation_xyz
x,y,z
-x,-y,-z
loop_
_atom_site_type_symbol
_atom_site_label
_atom_site_fract_x
_atom_site_fract_y
_atom_site_fract_z
Si Si1 0.472943 0.381072 0.388828
Si Si2 0.411230 0.945921 0.512704
Si Si3 0.661299 0.430675 0.382701
Si Si4 0.953657 0.529191 0.151063
Si Si5 0.840802 0.837838 0.594050
Si Si6 0.124078 0.880002 0.510034
Si Si7 0.459991 0.243180 0.899041
Si Si8 0.763055 0.774382 0.113990
O O1 0.500000 0.500000 0.500000
O O2 0.636810 0.200071 0.578085
O O3 0.480233 0.445446 0.264149
O O4 0.250081 0.381636 0.158906
O O5 0.500000 0.000000 0.500000
O O6 0.227442 0.085892 0.361233
O O7 0.588876 0.872325 0.816915
O O8 0.751820 0.261986 0.432423
O O9 0.592674 0.577725 0.209342
O O10 0.847282 0.444419 0.664783
O O11 0.900810 0.608305 0.214965
O O12 0.004415 0.345001 0.219294
O O13 0.640069 0.834576 0.301562
O O14 0.918504 0.952684 0.605660
O O15 0.921617 0.853552 0.313242
O O16 0.294923 0.847686 0.804327
O O17 0.347989 0.243359 0.894255
#
# Coordination Sequence:
#
# PCOD9027281 Si02
#       8
#     2   2   2   2   2   2   2   2
#     4  11  24  45  70  94 125 175 227 267 322 394
#     4  11  25  47  69  93 136 175 214 279 332 379
#     4  10  22  41  67  94 131 174 217 263 324 389
#     4   9  23  43  65  97 133 167 221 269 322 389
#     4  11  23  43  64 100 137 169 215 274 334 377
#     4  11  21  40  65  98 132 174 213 266 323 391
#     4  11  23  40  69  96 139 172 213 271 324 394
#     4  10  23  45  68  95 133 177 221 257 331 390
#
# _framework density 23.084731000000001
#
# number of rings (size 3 to 8) (size 9 to 14) (size 15 to 20)
#    0.000    1.500    2.500    1.500    3.500    8.500 
#    4.500    1.250    0.000    0.000    0.000    0.000 
#    0.000    0.000    0.000    0.000    0.000    0.000 
#
# Total GULP energy -89493.742448 kJ/mol
# GULP energy per Si atom -5593.358903 kJ/mol
# Density = 2.303219 g / cm^3
# Si number density = 23.084731 Si / 1000 Ang^3
#
#
#
# Elastic Constant Matrix: (Units=GPa)
#
#
# Indices 1 2 3 4 5 6 
#
# 1 84.7915 45.5409 4.5424 -4.3685 -2.6631 1.4682
# 2 45.5409 176.3459 10.5388 -9.1166 6.7466 -14.5080
# 3 4.5424 10.5388 28.5293 6.7933 18.3525 -3.6417
# 4 -4.3685 -9.1166 6.7933 35.3066 5.4907 5.4461
# 5 -2.6631 6.7466 18.3525 5.4907 24.7105 2.8823
# 6 1.4682 -14.5080 -3.6417 5.4461 2.8823 45.3471
#
#
#
# Elastic Compliance Matrix: (Units=1/GPa)
#
#
# Indices 1 2 3 4 5 6 
#
# 1 0.014528 -0.003820 -0.006275 0.001317 0.007305 -0.002819
# 2 -0.003820 0.007048 -0.000297 0.001464 -0.002715 0.002351
# 3 -0.006275 -0.000297 0.075669 -0.008332 -0.056198 0.010757
# 4 0.001317 0.001464 -0.008332 0.031160 -0.000532 -0.003952
# 5 0.007305 -0.002715 -0.056198 -0.000532 0.085132 -0.010965
# 6 -0.002819 0.002351 0.010757 -0.003952 -0.010965 0.024931
#
#
# Mechanical properties :
#
#
# Convention : Reuss Voigt Hill
#
# Bulk Modulus (GPa) = 13.07866 45.65678 29.36772
# Shear Modulus (GPa) = 17.55995 36.34248 26.95121
#
# Velocity S-wave (km/s) = 2.76102 3.97206 3.42056
# Velocity P-wave (km/s) = 3.98022 6.39196 5.32444
#
# Compressibility (1/GPa) = 0.07646045
#
# Stress axis : x y z
#
# Youngs Moduli (GPa) = 68.83454 141.88531 13.21545
#
# Poissons Ratio (x) = 0.54201 0.08292
# Poissons Ratio (y) = 0.26295 0.00393
# Poissons Ratio (z) = 0.43191 0.04221
#
# Static dielectric constant tensor:
#      x y z
#    x 1.822880 -0.025800 -0.007640 
#    y -0.025800 1.885890 0.000730 
#    z -0.007640 0.000730 1.899860 
# 
# From -- ./inp_files/447558.got.cif
#   From: 2010.05.17/outbox.cif.g08.bks.cpg/sg2_224_cif.got.tgz:447558.got - 2010.06.03 11:33:40.
