data_PCOD9027944
_publ_section_title
;
Structure prediction by ZEFSAII (Michael W. Deem and Ramdas Pophale) SiO2 
 PCOD9027944
Probable space group: P -1
;
_chemical_formula_sum "Si O2"
_cell_formula_units_Z 16
_cell_length_a 16.252371
_cell_length_b 11.910217
_cell_length_c 17.213974
_cell_angle_alpha 155.574643
_cell_angle_beta 42.269875
_cell_angle_gamma 120.618402
_cell_volume 747.451096
_symmetry_space_group_name_H-M "P -1"
_symmetry_group_IT_number 2
_symmetry_cell_setting 'triclinic'
loop_
_space_group_symop_operation_xyz
x,y,z
-x,-y,-z
loop_
_atom_site_type_symbol
_atom_site_label
_atom_site_fract_x
_atom_site_fract_y
_atom_site_fract_z
Si Si1 0.349726 0.891638 0.842682
Si Si2 0.251457 0.273074 0.673241
Si Si3 0.336417 0.716357 0.971656
Si Si4 0.908638 0.174579 0.251788
Si Si5 0.912038 0.781962 0.646132
Si Si6 0.362788 0.515017 0.466158
Si Si7 0.577525 0.027942 0.796855
Si Si8 0.067165 0.081565 0.764280
O O1 0.500000 0.500000 0.500000
O O2 0.464420 0.683610 0.806762
O O3 0.409927 0.115434 0.958009
O O4 0.217349 0.978476 0.048192
O O5 0.351511 0.077147 0.404485
O O6 0.206437 0.070392 0.627363
O O7 0.322289 0.419611 0.769338
O O8 0.090628 0.589683 0.950648
O O9 0.174715 0.054638 0.271939
O O10 0.390091 0.731872 0.030098
O O11 0.950239 0.421372 0.404437
O O12 0.691087 0.138724 0.235470
O O13 0.934908 0.932197 0.150089
O O14 0.000000 0.000000 0.000000
O O15 0.735115 0.405032 0.491046
O O16 0.055578 0.788071 0.557409
O O17 0.345587 0.290678 0.397605
#
# Coordination Sequence:
#
# PCOD9027944 Si02
#       8
#     2   2   2   2   2   2   2   2
#     4  10  17  31  59  93 123 148 188 259 317 349
#     4  10  22  42  60  85 126 160 212 252 287 375
#     4  11  19  35  63 100 117 151 204 261 317 343
#     4  12  24  38  58  91 127 161 203 253 309 366
#     4  11  20  37  62  90 122 155 205 259 305 363
#     4  11  19  34  59  97 125 145 196 269 308 351
#     4  11  18  32  60  93 118 147 197 253 313 349
#     4  10  23  42  58  81 123 173 199 244 306 363
#
# _framework density 21.406084
#
# number of rings (size 3 to 8) (size 9 to 14) (size 15 to 20)
#    0.000    1.250    5.000    5.250    0.000    0.000 
#    2.250    2.500    0.000    1.500    0.000    0.000 
#    0.000    0.000    0.000    0.000    0.000    0.000 
#
# Total GULP energy -89332.349875 kJ/mol
# GULP energy per Si atom -5583.271867 kJ/mol
# Density = 2.135736 g / cm^3
# Si number density = 21.406084 Si / 1000 Ang^3
#
#
#
# Elastic Constant Matrix: (Units=GPa)
#
#
# Indices 1 2 3 4 5 6 
#
# 1 118.3462 54.8022 27.8117 0.2289 29.2001 20.1435
# 2 54.8022 125.8511 33.7027 -9.7932 23.5052 26.0673
# 3 27.8117 33.7027 69.4106 -10.7533 29.4908 11.3046
# 4 0.2289 -9.7932 -10.7533 15.9541 -2.5720 -2.7431
# 5 29.2001 23.5052 29.4908 -2.5720 40.6038 2.0376
# 6 20.1435 26.0673 11.3046 -2.7431 2.0376 28.3185
#
#
#
# Elastic Compliance Matrix: (Units=1/GPa)
#
#
# Indices 1 2 3 4 5 6 
#
# 1 0.012808 -0.003319 -0.000249 -0.004546 -0.007101 -0.005885
# 2 -0.003319 0.012303 -0.001317 0.004884 -0.003081 -0.007744
# 3 -0.000249 -0.001317 0.024875 0.012311 -0.016035 -0.006194
# 4 -0.004546 0.004884 0.012311 0.073625 -0.003898 0.001235
# 5 -0.007101 -0.003081 -0.016035 -0.003898 0.042373 0.010862
# 6 -0.005885 -0.007744 -0.006194 0.001235 0.010862 0.048438
#
#
# Mechanical properties :
#
#
# Convention : Reuss Voigt Hill
#
# Bulk Modulus (GPa) = 24.86571 60.69345 42.77958
# Shear Modulus (GPa) = 21.04396 30.12801 25.58599
#
# Velocity S-wave (km/s) = 3.13882 3.75567 3.46101
# Velocity P-wave (km/s) = 4.97771 6.87180 5.99997
#
# Compressibility (1/GPa) = 0.04021603
#
# Stress axis : x y z
#
# Youngs Moduli (GPa) = 78.07732 81.27884 40.20049
#
# Poissons Ratio (x) = 0.26976 0.01001
# Poissons Ratio (y) = 0.25913 0.05296
# Poissons Ratio (z) = 0.01943 0.10707
#
# Static dielectric constant tensor:
#      x y z
#    x 1.905570 -0.000120 0.018660 
#    y -0.000120 1.773260 0.035440 
#    z 0.018660 0.035440 1.837600 
# 
# From -- ./inp_files/530796.got.cif
#   From: 2010.05.17/outbox.cif.g08.bks.cpg/sg2_266_cif.got.tgz:530796.got - 2010.06.03 11:33:40.
