data_PCOD9027192
_publ_section_title
;
Structure prediction by ZEFSAII (Michael W. Deem and Ramdas Pophale) SiO2 
 PCOD9027192
Probable space group: P -1
;
_chemical_formula_sum "Si O2"
_cell_formula_units_Z 10
_cell_length_a 9.073365
_cell_length_b 5.203740
_cell_length_c 8.858296
_cell_angle_alpha 112.452629
_cell_angle_beta 100.429952
_cell_angle_gamma 99.828385
_cell_volume 366.682980
_symmetry_space_group_name_H-M "P -1"
_symmetry_group_IT_number 2
_symmetry_cell_setting 'triclinic'
loop_
_space_group_symop_operation_xyz
x,y,z
-x,-y,-z
loop_
_atom_site_type_symbol
_atom_site_label
_atom_site_fract_x
_atom_site_fract_y
_atom_site_fract_z
Si Si1 0.115627 0.691031 0.842347
Si Si2 0.422186 0.165991 0.395774
Si Si3 0.516323 0.713264 0.190605
Si Si4 0.800032 0.647943 0.929517
Si Si5 0.832793 0.779369 0.447656
O O1 0.143363 0.536037 0.657630
O O2 0.935108 0.656616 0.836219
O O3 0.167468 0.526200 0.956398
O O4 0.194009 0.029657 0.944959
O O5 0.500000 0.500000 0.500000
O O6 0.241271 0.130557 0.392186
O O7 0.500000 0.000000 0.500000
O O8 0.472538 0.015089 0.224748
O O9 0.362762 0.525641 0.207411
O O10 0.686001 0.773542 0.308653
O O11 0.500000 0.500000 0.000000
O O12 0.000000 0.000000 0.500000
#
# Coordination Sequence:
#
# PCOD9027192 Si02
#       5
#     2   2   2   2   2
#     4  10  22  41  68 100 138 180 227 295 345 422
#     4  10  25  46  69 103 146 188 232 293 362 429
#     4  11  23  44  74 103 141 185 243 291 353 422
#     4  10  22  41  67 104 138 173 236 292 353 399
#     4  11  24  45  72 104 146 189 240 290 368 424
#
# _framework density 27.271515000000001
#
# number of rings (size 3 to 8) (size 9 to 14) (size 15 to 20)
#    0.000    1.600    2.000    1.200    2.800    4.000 
#    0.000   19.000    0.000    0.000    0.000    0.000 
#    0.000    0.000    0.000    0.000    0.000    0.000 
#
# Total GULP energy -55943.012365 kJ/mol
# GULP energy per Si atom -5594.301237 kJ/mol
# Density = 2.720944 g / cm^3
# Si number density = 27.271515 Si / 1000 Ang^3
#
#
#
# Elastic Constant Matrix: (Units=GPa)
#
#
# Indices 1 2 3 4 5 6 
#
# 1 208.2366 50.8370 100.4502 29.1042 5.7478 -0.8619
# 2 50.8370 139.6703 52.7983 36.1469 17.0022 -30.4314
# 3 100.4502 52.7983 157.3146 43.2623 -3.8281 -29.9078
# 4 29.1042 36.1469 43.2623 70.3699 -10.5199 1.8754
# 5 5.7478 17.0022 -3.8281 -10.5199 81.1566 16.5551
# 6 -0.8619 -30.4314 -29.9078 1.8754 16.5551 40.8741
#
#
#
# Elastic Compliance Matrix: (Units=1/GPa)
#
#
# Indices 1 2 3 4 5 6 
#
# 1 0.008125 -0.003058 -0.006210 0.002465 0.001604 -0.007412
# 2 -0.003058 0.013691 0.002437 -0.008673 -0.006728 0.015035
# 3 -0.006210 0.002437 0.014381 -0.008393 -0.003324 0.013937
# 4 0.002465 -0.008673 -0.008393 0.024428 0.007849 -0.016846
# 5 0.001604 -0.006728 -0.003324 0.007849 0.017509 -0.014859
# 6 -0.007412 0.015035 0.013937 -0.016846 -0.014859 0.052492
#
#
# Mechanical properties :
#
#
# Convention : Reuss Voigt Hill
#
# Bulk Modulus (GPa) = 44.37452 101.48804 72.93128
# Shear Modulus (GPa) = 32.93866 58.55586 45.74726
#
# Velocity S-wave (km/s) = 3.47912 4.63876 4.10014
# Velocity P-wave (km/s) = 5.69611 8.12314 7.01538
#
# Compressibility (1/GPa) = 0.02253546
#
# Stress axis : x y z
#
# Youngs Moduli (GPa) = 123.08218 73.04297 69.53822
#
# Poissons Ratio (x) = 0.22336 0.43180
# Poissons Ratio (y) = 0.37638 -0.16949
# Poissons Ratio (z) = 0.76428 -0.17803
#
# Static dielectric constant tensor:
#      x y z
#    x 2.281890 0.016970 -0.216900 
#    y 0.016970 2.286350 -0.125540 
#    z -0.216900 -0.125540 2.412640 
# 
# From -- ./inp_files/26232.got.cif
#   From: 2010.05.17/outbox.cif.g08.bks.cpg/sg2_14_cif.got.tgz:26232.got - 2010.06.03 11:33:40.
