data_PCOD9027273
_publ_section_title
;
Structure prediction by ZEFSAII (Michael W. Deem and Ramdas Pophale) SiO2 
 PCOD9027273
Probable space group: P -1
;
_chemical_formula_sum "Si O2"
_cell_formula_units_Z 14
_cell_length_a 19.641639
_cell_length_b 10.643064
_cell_length_c 17.308629
_cell_angle_alpha 149.544044
_cell_angle_beta 159.560330
_cell_angle_gamma 39.424164
_cell_volume 627.634054
_symmetry_space_group_name_H-M "P -1"
_symmetry_group_IT_number 2
_symmetry_cell_setting 'triclinic'
loop_
_space_group_symop_operation_xyz
x,y,z
-x,-y,-z
loop_
_atom_site_type_symbol
_atom_site_label
_atom_site_fract_x
_atom_site_fract_y
_atom_site_fract_z
Si Si1 0.292123 0.024103 0.826956
Si Si2 0.903905 0.785434 0.669055
Si Si3 0.080539 0.837300 0.348793
Si Si4 0.619879 0.057021 0.408785
Si Si5 0.734461 0.028691 0.751645
Si Si6 0.197519 0.788832 0.763346
Si Si7 0.760680 0.455418 0.881644
O O1 0.142447 0.964546 0.564946
O O2 0.236553 0.831877 0.736242
O O3 0.301825 0.300579 0.019310
O O4 0.500000 0.000000 0.000000
O O5 0.776658 0.920298 0.547014
O O6 0.898596 0.503625 0.484646
O O7 0.788670 0.802924 0.637823
O O8 0.128569 0.926473 0.002888
O O9 0.273165 0.843519 0.504751
O O10 0.940374 0.013451 0.255791
O O11 0.950855 0.563486 0.086925
O O12 0.599940 0.287949 0.566077
O O13 0.411203 0.871342 0.074550
O O14 0.800609 0.276539 0.898987
O O15 0.500000 0.000000 0.500000
#
# Coordination Sequence:
#
# PCOD9027273 Si02
#       7
#     2   2   2   2   2   2   2
#     4  11  22  40  66  94 120 167 215 262 320 369
#     4  10  23  41  62  97 131 164 216 265 303 388
#     4  11  23  42  65  93 128 169 214 264 322 372
#     4  11  24  42  63  96 132 176 207 255 327 374
#     4  10  22  41  67  94 126 169 212 262 326 368
#     4  11  23  41  65  92 135 164 218 262 310 383
#     4  10  23  43  63  95 131 158 218 269 310 381
#
# _framework density 22.305993999999998
#
# number of rings (size 3 to 8) (size 9 to 14) (size 15 to 20)
#    0.000    1.429    1.429    4.286    2.000    6.286 
#    2.571    0.000    0.000    0.000    0.000    0.000 
#    0.000    0.000    0.000    0.000    0.000    0.000 
#
# Total GULP energy -78268.861206 kJ/mol
# GULP energy per Si atom -5590.632943 kJ/mol
# Density = 2.225522 g / cm^3
# Si number density = 22.305994 Si / 1000 Ang^3
#
#
#
# Elastic Constant Matrix: (Units=GPa)
#
#
# Indices 1 2 3 4 5 6 
#
# 1 47.7565 4.6052 26.2708 -4.9385 -14.8561 -3.2050
# 2 4.6052 71.6636 37.3806 1.7900 -5.1630 6.7337
# 3 26.2708 37.3806 139.9018 -22.3220 -16.8240 1.6120
# 4 -4.9385 1.7900 -22.3220 44.5001 -2.5334 2.5446
# 5 -14.8561 -5.1630 -16.8240 -2.5334 33.0316 -10.4826
# 6 -3.2050 6.7337 1.6120 2.5446 -10.4826 20.4947
#
#
#
# Elastic Compliance Matrix: (Units=1/GPa)
#
#
# Indices 1 2 3 4 5 6 
#
# 1 0.028504 -0.000184 -0.003367 0.001638 0.015108 0.012307
# 2 -0.000184 0.017190 -0.005256 -0.003131 -0.002221 -0.006010
# 3 -0.003367 -0.005256 0.010472 0.005216 0.003954 0.001751
# 4 0.001638 -0.003131 0.005216 0.025665 0.004941 0.000215
# 5 0.015108 -0.002221 0.003954 0.004941 0.047515 0.026470
# 6 0.012307 -0.006010 0.001751 0.000215 0.026470 0.066067
#
#
# Mechanical properties :
#
#
# Convention : Reuss Voigt Hill
#
# Bulk Modulus (GPa) = 25.93872 43.98169 34.96021
# Shear Modulus (GPa) = 22.13580 32.34296 27.23938
#
# Velocity S-wave (km/s) = 3.15361 3.81197 3.49831
# Velocity P-wave (km/s) = 4.99141 6.25581 5.65903
#
# Compressibility (1/GPa) = 0.03855240
#
# Stress axis : x y z
#
# Youngs Moduli (GPa) = 35.08218 58.17183 95.49371
#
# Poissons Ratio (x) = 0.01072 0.32153
# Poissons Ratio (y) = 0.00647 0.50190
# Poissons Ratio (z) = 0.11812 0.30574
#
# Static dielectric constant tensor:
#      x y z
#    x 1.845410 0.006000 -0.005330 
#    y 0.006000 1.839590 -0.011680 
#    z -0.005330 -0.011680 1.833870 
# 
# From -- ./inp_files/559745.got.cif
#   From: 2010.05.17/outbox.cif.g08.bks.cpg/sg2_280_cif.got.tgz:559745.got - 2010.06.03 11:33:40.
