data_PCOD9027312
_publ_section_title
;
Structure prediction by ZEFSAII (Michael W. Deem and Ramdas Pophale) SiO2 
 PCOD9027312
Probable space group: P -1
;
_chemical_formula_sum "Si O2"
_cell_formula_units_Z 16
_cell_length_a 5.204748
_cell_length_b 15.510601
_cell_length_c 11.070650
_cell_angle_alpha 106.911527
_cell_angle_beta 104.888274
_cell_angle_gamma 62.427813
_cell_volume 750.038235
_symmetry_space_group_name_H-M "P -1"
_symmetry_group_IT_number 2
_symmetry_cell_setting 'triclinic'
loop_
_space_group_symop_operation_xyz
x,y,z
-x,-y,-z
loop_
_atom_site_type_symbol
_atom_site_label
_atom_site_fract_x
_atom_site_fract_y
_atom_site_fract_z
Si Si1 0.286482 0.742753 0.004117
Si Si2 0.620395 0.007997 0.152821
Si Si3 0.007358 0.867157 0.785309
Si Si4 0.182306 0.212772 0.832988
Si Si5 0.686325 0.340866 0.377375
Si Si6 0.675147 0.521477 0.923654
Si Si7 0.002656 0.457968 0.350977
Si Si8 0.102456 0.621286 0.320725
O O1 0.508203 0.782401 0.106367
O O2 0.057824 0.733497 0.068614
O O3 0.110239 0.817105 0.908205
O O4 0.501584 0.638450 0.930487
O O5 0.852503 0.055034 0.186422
O O6 0.341983 0.078965 0.226973
O O7 0.762210 0.901045 0.190250
O O8 0.500000 0.000000 0.000000
O O9 0.145449 0.776577 0.671043
O O10 0.060997 0.272331 0.718525
O O11 0.338858 0.384403 0.333071
O O12 0.744923 0.369954 0.532634
O O13 0.824216 0.392382 0.320547
O O14 0.690419 0.450340 0.785674
O O15 0.500000 0.500000 0.000000
O O16 0.000000 0.500000 0.000000
O O17 0.913655 0.557162 0.300273
O O18 0.000000 0.500000 0.500000
#
# Coordination Sequence:
#
# PCOD9027312 Si02
#       8
#     2   2   2   2   2   2   2   2
#     4  12  22  40  62  96 130 170 213 270 323 395
#     4  12  23  44  70  97 128 171 221 284 341 391
#     4  12  24  43  70  96 131 165 232 283 323 398
#     4  12  25  40  66  97 129 170 219 265 346 386
#     4  11  25  44  68 100 129 185 222 266 330 392
#     4  12  24  39  59  95 135 172 210 257 324 394
#     4  10  22  41  67  95 131 178 226 256 314 394
#     4  11  24  44  66  94 144 174 216 271 322 399
#
# _framework density 21.332246999999999
#
# number of rings (size 3 to 8) (size 9 to 14) (size 15 to 20)
#    0.000    0.500    5.000    4.125    0.000    8.000 
#    0.000    1.250    0.000    0.000    0.000    0.000 
#    0.000    0.000    0.000    0.000    0.000    0.000 
#
# Total GULP energy -89472.928101 kJ/mol
# GULP energy per Si atom -5592.058006 kJ/mol
# Density = 2.128369 g / cm^3
# Si number density = 21.332247 Si / 1000 Ang^3
#
#
#
# Elastic Constant Matrix: (Units=GPa)
#
#
# Indices 1 2 3 4 5 6 
#
# 1 119.6385 23.2361 29.8672 -9.8389 -14.9861 -2.5400
# 2 23.2361 157.3410 24.8752 -16.9717 -7.7251 3.5132
# 3 29.8672 24.8752 73.1869 -6.0553 -7.9002 7.7874
# 4 -9.8389 -16.9717 -6.0553 35.4378 -0.8994 -7.0567
# 5 -14.9861 -7.7251 -7.9002 -0.8994 29.3979 1.9395
# 6 -2.5400 3.5132 7.7874 -7.0567 1.9395 42.1284
#
#
#
# Elastic Compliance Matrix: (Units=1/GPa)
#
#
# Indices 1 2 3 4 5 6 
#
# 1 0.010052 -0.000520 -0.003455 0.002352 0.004032 0.001496
# 2 -0.000520 0.007103 -0.001843 0.003005 0.001187 0.000166
# 3 -0.003455 -0.001843 0.016318 0.000386 0.002357 -0.003115
# 4 0.002352 0.003005 0.000386 0.031433 0.002727 0.004959
# 5 0.004032 0.001187 0.002357 0.002727 0.037203 -0.001548
# 6 0.001496 0.000166 -0.003115 0.004959 -0.001548 0.025291
#
#
# Mechanical properties :
#
#
# Convention : Reuss Voigt Hill
#
# Bulk Modulus (GPa) = 45.79320 56.23592 51.01456
# Shear Modulus (GPa) = 34.17313 39.53870 36.85591
#
# Velocity S-wave (km/s) = 4.00678 4.30987 4.16108
# Velocity P-wave (km/s) = 6.55125 7.15442 6.85947
#
# Compressibility (1/GPa) = 0.02183730
#
# Stress axis : x y z
#
# Youngs Moduli (GPa) = 99.47967 140.79544 61.28331
#
# Poissons Ratio (x) = 0.07322 0.21173
# Poissons Ratio (y) = 0.05174 0.11292
# Poissons Ratio (z) = 0.34369 0.25944
#
# Static dielectric constant tensor:
#      x y z
#    x 1.815340 -0.004010 -0.002210 
#    y -0.004010 1.793450 0.006220 
#    z -0.002210 0.006220 1.783790 
# 
# From -- ./inp_files/367868.got.cif
#   From: 2010.05.17/outbox.cif.g08.bks.cpg/sg2_184_cif.got.tgz:367868.got - 2010.06.03 11:33:40.
