data_PCOD9027034
_publ_section_title
;
Structure prediction by ZEFSAII (Michael W. Deem and Ramdas Pophale) SiO2 
 PCOD9027034
Probable space group: P -1
;
_chemical_formula_sum "Si O2"
_cell_formula_units_Z 14
_cell_length_a 8.059515
_cell_length_b 21.299488
_cell_length_c 6.180130
_cell_angle_alpha 112.922801
_cell_angle_beta 121.844363
_cell_angle_gamma 44.778027
_cell_volume 634.586899
_symmetry_space_group_name_H-M "P -1"
_symmetry_group_IT_number 2
_symmetry_cell_setting 'triclinic'
loop_
_space_group_symop_operation_xyz
x,y,z
-x,-y,-z
loop_
_atom_site_type_symbol
_atom_site_label
_atom_site_fract_x
_atom_site_fract_y
_atom_site_fract_z
Si Si1 0.836685 0.562726 0.774285
Si Si2 0.737202 0.464342 0.276648
Si Si3 0.468579 0.244237 0.215672
Si Si4 0.740146 0.894692 0.488501
Si Si5 0.931735 0.737663 0.716636
Si Si6 0.907847 0.181728 0.754222
Si Si7 0.139677 0.899312 0.007038
O O1 0.687690 0.534278 0.515426
O O2 0.661098 0.663669 0.870806
O O3 0.036376 0.553045 0.733911
O O4 0.000000 0.500000 0.000000
O O5 0.867361 0.367696 0.344096
O O6 0.500000 0.500000 0.000000
O O7 0.274784 0.248881 0.245060
O O8 0.677894 0.233828 0.497726
O O9 0.595788 0.165191 0.024685
O O10 0.774003 0.813572 0.522477
O O11 0.826794 0.874086 0.270588
O O12 0.965854 0.883459 0.748245
O O13 0.500000 0.000000 0.500000
O O14 0.089803 0.757146 0.993248
O O15 0.866297 0.121000 0.775813
O O16 0.000000 0.000000 0.000000
#
# Coordination Sequence:
#
# PCOD9027034 Si02
#       7
#     2   2   2   2   2   2   2
#     4  10  23  41  63  97 131 166 213 267 325 383
#     4  10  22  41  66  95 129 168 216 263 324 393
#     4  10  23  40  63  91 125 169 208 259 320 379
#     4  10  24  39  60  90 123 163 207 262 316 377
#     4  10  23  39  63  95 122 167 210 258 321 379
#     4  10  23  41  60  87 128 159 211 262 312 375
#     4  10  24  39  61  90 118 167 213 256 315 375
#
# _framework density 22.061595000000001
#
# number of rings (size 3 to 8) (size 9 to 14) (size 15 to 20)
#    0.000    2.000    0.000    0.857    6.000   12.000 
#    0.000    0.000    0.000    0.000    0.000    0.000 
#    0.000    0.000    0.000    0.000    0.000    0.000 
#
# Total GULP energy -78092.924420 kJ/mol
# GULP energy per Si atom -5578.066030 kJ/mol
# Density = 2.201138 g / cm^3
# Si number density = 22.061595 Si / 1000 Ang^3
#
#
#
# Elastic Constant Matrix: (Units=GPa)
#
#
# Indices 1 2 3 4 5 6 
#
# 1 72.2846 46.0993 12.5837 -4.3109 -2.3219 11.4097
# 2 46.0993 173.9826 25.0231 -9.5908 -18.3754 21.9926
# 3 12.5837 25.0231 68.7219 -9.8138 13.3765 9.6590
# 4 -4.3109 -9.5908 -9.8138 30.7580 3.3012 -0.7797
# 5 -2.3219 -18.3754 13.3765 3.3012 41.2603 -4.0464
# 6 11.4097 21.9926 9.6590 -0.7797 -4.0464 27.2852
#
#
#
# Elastic Compliance Matrix: (Units=1/GPa)
#
#
# Indices 1 2 3 4 5 6 
#
# 1 0.017149 -0.004002 -0.000831 0.000901 -0.000990 -0.003772
# 2 -0.004002 0.008000 -0.002324 0.000709 0.003703 -0.003383
# 3 -0.000831 -0.002324 0.018746 0.005878 -0.008165 -0.005458
# 4 0.000901 0.000709 0.005878 0.035162 -0.004618 -0.002709
# 5 -0.000990 0.003703 -0.008165 -0.004618 0.029291 0.004532
# 6 -0.003772 -0.003383 -0.005458 -0.002709 0.004532 0.043480
#
#
# Mechanical properties :
#
#
# Convention : Reuss Voigt Hill
#
# Bulk Modulus (GPa) = 33.80805 53.60016 43.70410
# Shear Modulus (GPa) = 28.40871 35.27956 31.84414
#
# Velocity S-wave (km/s) = 3.59235 4.00326 3.80336
# Velocity P-wave (km/s) = 5.70651 6.76140 6.25623
#
# Compressibility (1/GPa) = 0.02957875
#
# Stress axis : x y z
#
# Youngs Moduli (GPa) = 58.31340 124.99688 53.34571
#
# Poissons Ratio (x) = 0.50028 0.04435
# Poissons Ratio (y) = 0.23339 0.12399
# Poissons Ratio (z) = 0.04848 0.29052
#
# Static dielectric constant tensor:
#      x y z
#    x 1.927260 -0.032750 -0.045270 
#    y -0.032750 1.939600 0.043320 
#    z -0.045270 0.043320 1.816000 
# 
# From -- ./inp_files/38324.got.cif
#   From: 2010.05.17/outbox.cif.g08.bks.cpg/sg2_20_cif.got.tgz:38324.got - 2010.06.03 11:33:40.
