data_PCOD9027416
_publ_section_title
;
Structure prediction by ZEFSAII (Michael W. Deem and Ramdas Pophale) SiO2 
 PCOD9027416
Probable space group: P -1
;
_chemical_formula_sum "Si O2"
_cell_formula_units_Z 16
_cell_length_a 4.915108
_cell_length_b 6.841826
_cell_length_c 22.200664
_cell_angle_alpha 101.466861
_cell_angle_beta 112.456828
_cell_angle_gamma 79.063275
_cell_volume 670.827746
_symmetry_space_group_name_H-M "P -1"
_symmetry_group_IT_number 2
_symmetry_cell_setting 'triclinic'
loop_
_space_group_symop_operation_xyz
x,y,z
-x,-y,-z
loop_
_atom_site_type_symbol
_atom_site_label
_atom_site_fract_x
_atom_site_fract_y
_atom_site_fract_z
Si Si1 0.383667 0.139159 0.721144
Si Si2 0.894941 0.586129 0.584335
Si Si3 0.008638 0.927131 0.064967
Si Si4 0.425088 0.343197 0.933723
Si Si5 0.813470 0.469388 0.194595
Si Si6 0.213145 0.987424 0.357096
Si Si7 0.393026 0.314070 0.556734
Si Si8 0.647536 0.793799 0.809913
O O1 0.286707 0.351038 0.756844
O O2 0.672078 0.116981 0.701999
O O3 0.101679 0.080616 0.657060
O O4 0.455679 0.968620 0.767375
O O5 0.663481 0.430290 0.566378
O O6 0.826342 0.687246 0.518688
O O7 0.214824 0.456689 0.600415
O O8 0.838392 0.772533 0.635878
O O9 0.270818 0.742216 0.078438
O O10 0.717515 0.840739 0.059067
O O11 0.113948 0.102108 0.124822
O O12 0.000000 0.000000 0.000000
O O13 0.211311 0.444270 0.870058
O O14 0.500000 0.500000 0.000000
O O15 0.575226 0.314157 0.174841
O O16 0.148363 0.363701 0.224316
O O17 0.467153 0.900178 0.419944
#
# Coordination Sequence:
#
# PCOD9027416 Si02
#       8
#     2   2   2   2   2   2   2   2
#     4  12  28  44  65  98 136 178 230 286 324 414
#     4  10  22  41  67  99 136 174 222 280 336 397
#     4  12  24  43  70 102 138 168 221 281 340 415
#     4  12  24  43  70 102 138 168 221 281 340 415
#     4  12  26  46  70  95 134 179 225 280 346 400
#     4  12  25  42  68  96 134 180 228 274 340 396
#     4  10  22  41  67  99 136 174 222 280 336 397
#     4  12  26  46  70  95 134 179 225 280 346 400
#
# _framework density 23.851130000000001
#
# number of rings (size 3 to 8) (size 9 to 14) (size 15 to 20)
#    0.000    0.500    1.250    7.125    1.750    6.000 
#    0.000    5.000    0.000    0.000    0.000    0.000 
#    0.000    0.000    0.000    0.000    0.000    0.000 
#
# Total GULP energy -89641.867757 kJ/mol
# GULP energy per Si atom -5602.616735 kJ/mol
# Density = 2.379684 g / cm^3
# Si number density = 23.851130 Si / 1000 Ang^3
#
#
#
# Elastic Constant Matrix: (Units=GPa)
#
#
# Indices 1 2 3 4 5 6 
#
# 1 104.5968 17.4626 -0.4015 -1.0443 -8.4756 -5.6394
# 2 17.4626 69.3979 8.6127 0.1879 -11.5141 -14.5916
# 3 -0.4015 8.6127 46.3859 -3.4436 -4.3601 -0.5739
# 4 -1.0443 0.1879 -3.4436 29.4746 -6.0218 -5.7042
# 5 -8.4756 -11.5141 -4.3601 -6.0218 29.8348 1.9872
# 6 -5.6394 -14.5916 -0.5739 -5.7042 1.9872 54.1086
#
#
#
# Elastic Compliance Matrix: (Units=1/GPa)
#
#
# Indices 1 2 3 4 5 6 
#
# 1 0.010152 -0.002160 0.000793 0.001043 0.002343 0.000508
# 2 -0.002160 0.017101 -0.002499 0.001509 0.005638 0.004312
# 3 0.000793 -0.002499 0.022579 0.003320 0.003239 -0.000121
# 4 0.001043 0.001509 0.003320 0.036885 0.008534 0.004126
# 5 0.002343 0.005638 0.003239 0.008534 0.038470 0.001286
# 6 0.000508 0.004312 -0.000121 0.004126 0.001286 0.020084
#
#
# Mechanical properties :
#
#
# Convention : Reuss Voigt Hill
#
# Bulk Modulus (GPa) = 23.75305 30.19201 26.97253
# Shear Modulus (GPa) = 29.93387 35.66407 32.79897
#
# Velocity S-wave (km/s) = 3.54648 3.87108 3.71233
# Velocity P-wave (km/s) = 5.17209 5.71545 5.45055
#
# Compressibility (1/GPa) = 0.04209985
#
# Stress axis : x y z
#
# Youngs Moduli (GPa) = 98.50411 58.47477 44.28989
#
# Poissons Ratio (x) = 0.12632 -0.03512
# Poissons Ratio (y) = 0.21279 0.11066
# Poissons Ratio (z) = -0.07811 0.14611
#
# Static dielectric constant tensor:
#      x y z
#    x 1.851650 -0.026270 -0.009170 
#    y -0.026270 1.915440 -0.020950 
#    z -0.009170 -0.020950 1.970040 
# 
# From -- ./inp_files/603342.got.cif
#   From: 2010.05.17/outbox.cif.g08.bks.cpg/sg2_302_cif.got.tgz:603342.got - 2010.06.03 11:33:40.
