data_PCOD9027952
_publ_section_title
;
Structure prediction by ZEFSAII (Michael W. Deem and Ramdas Pophale) SiO2 
 PCOD9027952
Probable space group: P -1
;
_chemical_formula_sum "Si O2"
_cell_formula_units_Z 16
_cell_length_a 5.772272
_cell_length_b 5.772280
_cell_length_c 21.063710
_cell_angle_alpha 91.691079
_cell_angle_beta 75.946449
_cell_angle_gamma 102.800042
_cell_volume 663.681369
_symmetry_space_group_name_H-M "P -1"
_symmetry_group_IT_number 2
_symmetry_cell_setting 'triclinic'
loop_
_space_group_symop_operation_xyz
x,y,z
-x,-y,-z
loop_
_atom_site_type_symbol
_atom_site_label
_atom_site_fract_x
_atom_site_fract_y
_atom_site_fract_z
Si Si1 0.116423 0.625599 0.188750
Si Si2 0.285271 0.853986 0.768452
Si Si3 0.027426 0.552870 0.395931
Si Si4 0.622433 0.553724 0.731549
Si Si5 0.814358 0.805173 0.311248
Si Si6 0.948805 0.923356 0.104069
Si Si7 0.774957 0.138528 0.503206
Si Si8 0.358265 0.221838 0.003207
O O1 0.350759 0.551777 0.201636
O O2 0.906191 0.387339 0.204183
O O3 0.040825 0.790818 0.249999
O O4 0.106223 0.750003 0.123726
O O5 0.551181 0.801183 0.749999
O O6 0.229151 0.024919 0.828293
O O7 0.246571 0.947603 0.701638
O O8 0.146793 0.442557 0.328292
O O9 0.227719 0.714378 0.429825
O O10 0.873732 0.729947 0.376273
O O11 0.870678 0.340617 0.445754
O O12 0.408474 0.389619 0.704185
O O13 0.786377 0.816433 0.054245
O O14 0.144207 0.157545 0.070176
O O15 0.500000 0.000000 0.500000
O O16 0.000000 0.000000 0.500000
O O17 0.500000 0.500000 0.000000
O O18 0.500000 0.000000 0.000000
#
# Coordination Sequence:
#
# PCOD9027952 Si02
#       8
#     2   2   2   2   2   2   2   2
#     4   9  21  41  63 101 142 185 234 301 379 463
#     4  10  22  41  70 105 144 187 243 303 394 471
#     4  10  25  47  73 103 154 190 252 321 381 470
#     4  10  22  41  70 105 144 187 243 303 394 471
#     4   9  21  41  63 101 142 185 234 301 379 463
#     4  10  25  47  73 103 154 190 252 321 381 470
#     4  11  28  48  77 112 145 206 267 319 397 459
#     4  11  28  48  77 112 145 206 267 319 397 459
#
# _framework density 24.107956999999999
#
# number of rings (size 3 to 8) (size 9 to 14) (size 15 to 20)
#    0.000    2.000    0.000    0.000    7.000   13.000 
#    0.000    0.000    0.000    0.000    0.000    0.000 
#    0.000    0.000    0.000    0.000    0.000    0.000 
#
# Total GULP energy -89361.894559 kJ/mol
# GULP energy per Si atom -5585.118410 kJ/mol
# Density = 2.405309 g / cm^3
# Si number density = 24.107957 Si / 1000 Ang^3
#
#
#
# Elastic Constant Matrix: (Units=GPa)
#
#
# Indices 1 2 3 4 5 6 
#
# 1 118.0312 77.4743 68.3732 -8.6394 27.7931 0.1782
# 2 77.4743 126.7553 66.0881 -26.0020 14.4648 13.6990
# 3 68.3732 66.0881 149.2264 -32.2993 37.3562 -9.9325
# 4 -8.6394 -26.0020 -32.2993 40.1593 -13.2756 3.7248
# 5 27.7931 14.4648 37.3562 -13.2756 44.3236 0.3890
# 6 0.1782 13.6990 -9.9325 3.7248 0.3890 57.5310
#
#
#
# Elastic Compliance Matrix: (Units=1/GPa)
#
#
# Indices 1 2 3 4 5 6 
#
# 1 0.018869 -0.010809 -0.003591 -0.008671 -0.007896 0.002510
# 2 -0.010809 0.017750 -0.002761 0.009491 0.006202 -0.005326
# 3 -0.003591 -0.002761 0.012280 0.005215 -0.005657 0.002489
# 4 -0.008671 0.009491 0.005215 0.036689 0.008966 -0.003769
# 5 -0.007896 0.006202 -0.005657 0.008966 0.032970 -0.003232
# 6 0.002510 -0.005326 0.002489 -0.003769 -0.003232 0.019338
#
#
# Mechanical properties :
#
#
# Convention : Reuss Voigt Hill
#
# Bulk Modulus (GPa) = 68.60734 90.87599 79.74167
# Shear Modulus (GPa) = 28.23612 40.54125 34.38869
#
# Velocity S-wave (km/s) = 3.42605 4.10525 3.78093
# Velocity P-wave (km/s) = 6.64609 7.76196 7.22560
#
# Compressibility (1/GPa) = 0.01457570
#
# Stress axis : x y z
#
# Youngs Moduli (GPa) = 52.99803 56.33646 81.43245
#
# Poissons Ratio (x) = 0.60895 0.29244
# Poissons Ratio (y) = 0.57287 0.22486
# Poissons Ratio (z) = 0.19033 0.15556
#
# Static dielectric constant tensor:
#      x y z
#    x 2.012910 -0.068680 -0.019550 
#    y -0.068680 1.986970 0.016450 
#    z -0.019550 0.016450 1.926850 
# 
# From -- ./inp_files/581030.got.cif
#   From: 2010.05.17/outbox.cif.g08.bks.cpg/sg2_291_cif.got.tgz:581030.got - 2010.06.03 11:33:40.
