data_PCOD9027592
_publ_section_title
;
Structure prediction by ZEFSAII (Michael W. Deem and Ramdas Pophale) SiO2 
 PCOD9027592
Probable space group: P -1
;
_chemical_formula_sum "Si O2"
_cell_formula_units_Z 14
_cell_length_a 21.261490
_cell_length_b 8.599221
_cell_length_c 12.571480
_cell_angle_alpha 142.649936
_cell_angle_beta 153.052030
_cell_angle_gamma 40.638708
_cell_volume 621.311234
_symmetry_space_group_name_H-M "P -1"
_symmetry_group_IT_number 2
_symmetry_cell_setting 'triclinic'
loop_
_space_group_symop_operation_xyz
x,y,z
-x,-y,-z
loop_
_atom_site_type_symbol
_atom_site_label
_atom_site_fract_x
_atom_site_fract_y
_atom_site_fract_z
Si Si1 0.159536 0.388188 0.717133
Si Si2 0.441619 0.433680 0.665346
Si Si3 0.292776 0.939359 0.824787
Si Si4 0.475893 0.716290 0.671095
Si Si5 0.807020 0.924029 0.587186
Si Si6 0.871915 0.064576 0.979233
Si Si7 0.700598 0.001687 0.892773
O O1 0.188999 0.125566 0.688574
O O2 0.000000 0.500000 0.500000
O O3 0.227213 0.314480 0.663427
O O4 0.191252 0.627347 0.965365
O O5 0.514440 0.601300 0.782600
O O6 0.357699 0.258625 0.369640
O O7 0.337343 0.640393 0.692396
O O8 0.563768 0.233747 0.800124
O O9 0.435543 0.061442 0.100674
O O10 0.243243 0.982005 0.894700
O O11 0.500000 0.500000 0.500000
O O12 0.311893 0.836157 0.491674
O O13 0.810409 0.899836 0.706274
O O14 0.960649 0.975561 0.810295
O O15 0.819179 0.018655 0.992105
#
# Coordination Sequence:
#
# PCOD9027592 Si02
#       7
#     2   2   2   2   2   2   2
#     4  10  22  42  70  95 126 169 228 274 321 394
#     4  11  24  41  62  99 136 177 220 267 334 397
#     4  12  24  40  69 100 132 174 216 281 334 388
#     4  12  22  40  71  97 129 168 228 280 319 389
#     4  10  22  41  68  96 123 171 231 267 323 387
#     4  10  23  43  68  92 133 178 216 276 328 391
#     4  11  25  42  62  98 141 174 215 269 340 399
#
# _framework density 22.532990999999999
#
# number of rings (size 3 to 8) (size 9 to 14) (size 15 to 20)
#    0.000    1.143    2.857    3.429    4.000    1.143 
#    0.000    3.571    0.000    0.000    0.000    0.000 
#    0.000    0.000    0.000    0.000    0.000    0.000 
#
# Total GULP energy -78201.082341 kJ/mol
# GULP energy per Si atom -5585.791596 kJ/mol
# Density = 2.248170 g / cm^3
# Si number density = 22.532991 Si / 1000 Ang^3
#
#
#
# Elastic Constant Matrix: (Units=GPa)
#
#
# Indices 1 2 3 4 5 6 
#
# 1 127.1698 53.5006 35.7031 3.5809 -33.1950 -9.7702
# 2 53.5006 113.2813 42.4301 1.1849 -12.6196 -32.5364
# 3 35.7031 42.4301 81.5581 -1.2627 -30.2604 -15.9002
# 4 3.5809 1.1849 -1.2627 33.7784 -4.3784 -4.3965
# 5 -33.1950 -12.6196 -30.2604 -4.3784 43.6483 3.9841
# 6 -9.7702 -32.5364 -15.9002 -4.3965 3.9841 33.7449
#
#
#
# Elastic Compliance Matrix: (Units=1/GPa)
#
#
# Indices 1 2 3 4 5 6 
#
# 1 0.012062 -0.005663 -0.000055 -0.000467 0.007722 -0.002966
# 2 -0.005663 0.016579 -0.005261 0.000901 -0.004210 0.012481
# 3 -0.000055 -0.005261 0.020404 0.003030 0.012573 0.003436
# 4 -0.000467 0.000901 0.003030 0.031070 0.004605 0.005666
# 5 0.007722 -0.004210 0.012573 0.004605 0.036711 0.000367
# 6 -0.002966 0.012481 0.003436 0.005666 0.000367 0.043124
#
#
# Mechanical properties :
#
#
# Convention : Reuss Voigt Hill
#
# Bulk Modulus (GPa) = 36.91609 65.03075 50.97342
# Shear Modulus (GPa) = 26.18668 34.92602 30.55635
#
# Velocity S-wave (km/s) = 3.41273 3.94127 3.68648
# Velocity P-wave (km/s) = 5.65223 7.04517 6.38678
#
# Compressibility (1/GPa) = 0.02708846
#
# Stress axis : x y z
#
# Youngs Moduli (GPa) = 82.90273 60.31693 49.01049
#
# Poissons Ratio (x) = 0.34159 0.00267
# Poissons Ratio (y) = 0.46949 0.25783
# Poissons Ratio (z) = 0.00452 0.31731
#
# Static dielectric constant tensor:
#      x y z
#    x 1.847030 -0.009250 0.004130 
#    y -0.009250 1.851320 0.005710 
#    z 0.004130 0.005710 1.930690 
# 
# From -- ./inp_files/281552.got.cif
#   From: 2010.05.17/outbox.cif.g08.bks.cpg/sg2_141_cif.got.tgz:281552.got - 2010.06.03 11:33:40.
