data_PCOD9027984
_publ_section_title
;
Structure prediction by ZEFSAII (Michael W. Deem and Ramdas Pophale) SiO2 
 PCOD9027984
Probable space group: P -1
;
_chemical_formula_sum "Si O2"
_cell_formula_units_Z 16
_cell_length_a 8.889215
_cell_length_b 7.322901
_cell_length_c 12.453806
_cell_angle_alpha 66.678796
_cell_angle_beta 61.832856
_cell_angle_gamma 87.383828
_cell_volume 646.220331
_symmetry_space_group_name_H-M "P -1"
_symmetry_group_IT_number 2
_symmetry_cell_setting 'triclinic'
loop_
_space_group_symop_operation_xyz
x,y,z
-x,-y,-z
loop_
_atom_site_type_symbol
_atom_site_label
_atom_site_fract_x
_atom_site_fract_y
_atom_site_fract_z
Si Si1 0.153716 0.532839 0.854020
Si Si2 0.706445 0.994513 0.933663
Si Si3 0.288067 0.125214 0.822675
Si Si4 0.682358 0.072421 0.698654
Si Si5 0.417543 0.457600 0.923107
Si Si6 0.095173 0.652179 0.610300
Si Si7 0.326015 0.335068 0.558920
Si Si8 0.293566 0.328783 0.326678
O O1 0.213110 0.329091 0.832544
O O2 0.315589 0.611484 0.859811
O O3 0.115584 0.655407 0.732462
O O4 0.000000 0.500000 0.000000
O O5 0.778615 0.102771 0.774987
O O6 0.778927 0.035611 0.021368
O O7 0.707639 0.756338 0.975530
O O8 0.500000 0.000000 0.000000
O O9 0.495194 0.135456 0.755760
O O10 0.272517 0.135736 0.697005
O O11 0.786170 0.174641 0.538129
O O12 0.659071 0.837218 0.732205
O O13 0.585154 0.461059 0.792067
O O14 0.500000 0.500000 0.000000
O O15 0.167910 0.456015 0.592717
O O16 0.902097 0.653917 0.636172
O O17 0.500000 0.500000 0.500000
O O18 0.339132 0.279882 0.443737
#
# Coordination Sequence:
#
# PCOD9027984 Si02
#       8
#     2   2   2   2   2   2   2   2
#     4  10  22  41  70  94 128 176 223 279 332 394
#     4   9  19  37  62  92 123 171 213 265 328 387
#     4   9  20  38  66  89 125 173 221 264 329 392
#     4  11  22  40  66  99 138 173 220 275 342 402
#     4  11  21  39  63  97 126 167 233 274 319 395
#     4  11  24  42  65 100 135 175 224 278 337 397
#     4  11  21  43  65  92 126 176 224 276 335 390
#     4  12  25  39  65 102 135 173 224 279 335 406
#
# _framework density 24.759357000000001
#
# number of rings (size 3 to 8) (size 9 to 14) (size 15 to 20)
#    0.000    1.500    2.500    3.750    3.500    0.500 
#    0.000    0.000    0.000    1.500    0.000    0.000 
#    0.000    0.000    0.000    0.000    0.000    0.000 
#
# Total GULP energy -89161.502315 kJ/mol
# GULP energy per Si atom -5572.593895 kJ/mol
# Density = 2.470300 g / cm^3
# Si number density = 24.759357 Si / 1000 Ang^3
#
#
#
# Elastic Constant Matrix: (Units=GPa)
#
#
# Indices 1 2 3 4 5 6 
#
# 1 105.2122 19.7800 57.4334 5.3096 15.2309 -10.6170
# 2 19.7800 59.5232 20.1374 12.1145 -4.5600 -8.1856
# 3 57.4334 20.1374 211.6418 9.2791 50.3263 0.2095
# 4 5.3096 12.1145 9.2791 27.9097 -5.2292 4.2261
# 5 15.2309 -4.5600 50.3263 -5.2292 63.8255 11.7977
# 6 -10.6170 -8.1856 0.2095 4.2261 11.7977 21.0597
#
#
#
# Elastic Compliance Matrix: (Units=1/GPa)
#
#
# Indices 1 2 3 4 5 6 
#
# 1 0.012507 -0.002021 -0.002439 -0.002365 -0.002802 0.007588
# 2 -0.002021 0.021077 -0.001156 -0.009631 0.000475 0.008852
# 3 -0.002439 -0.001156 0.006926 -0.002657 -0.005527 0.001881
# 4 -0.002365 -0.009631 -0.002657 0.046023 0.009322 -0.019367
# 5 -0.002802 0.000475 -0.005527 0.009322 0.024602 -0.016826
# 6 0.007588 0.008852 0.001881 -0.019367 -0.016826 0.068044
#
#
# Mechanical properties :
#
#
# Convention : Reuss Voigt Hill
#
# Bulk Modulus (GPa) = 34.15675 63.45320 48.80497
# Shear Modulus (GPa) = 24.97885 41.16075 33.06980
#
# Velocity S-wave (km/s) = 3.17971 4.08172 3.65862
# Velocity P-wave (km/s) = 5.22553 6.92080 6.13203
#
# Compressibility (1/GPa) = 0.02927679
#
# Stress axis : x y z
#
# Youngs Moduli (GPa) = 79.95683 47.44578 144.38725
#
# Poissons Ratio (x) = 0.09587 0.35219
# Poissons Ratio (y) = 0.16156 0.16697
# Poissons Ratio (z) = 0.19503 0.05487
#
# Static dielectric constant tensor:
#      x y z
#    x 2.061110 -0.004140 0.118300 
#    y -0.004140 2.396570 -0.335050 
#    z 0.118300 -0.335050 3.353000 
# 
# From -- ./inp_files/381273.got.cif
#   From: 2010.05.17/outbox.cif.g08.bks.cpg/sg2_191_cif.got.tgz:381273.got - 2010.06.03 11:33:40.
