data_PCOD9027169
_publ_section_title
;
Structure prediction by ZEFSAII (Michael W. Deem and Ramdas Pophale) SiO2 
 PCOD9027169
Probable space group: P -1
;
_chemical_formula_sum "Si O2"
_cell_formula_units_Z 14
_cell_length_a 5.678729
_cell_length_b 12.642793
_cell_length_c 11.587289
_cell_angle_alpha 75.854848
_cell_angle_beta 81.687148
_cell_angle_gamma 47.432418
_cell_volume 593.857343
_symmetry_space_group_name_H-M "P -1"
_symmetry_group_IT_number 2
_symmetry_cell_setting 'triclinic'
loop_
_space_group_symop_operation_xyz
x,y,z
-x,-y,-z
loop_
_atom_site_type_symbol
_atom_site_label
_atom_site_fract_x
_atom_site_fract_y
_atom_site_fract_z
Si Si1 0.367445 0.038370 0.126774
Si Si2 0.404742 0.713352 0.388419
Si Si3 0.939860 0.051813 0.304034
Si Si4 0.233376 0.285970 0.210506
Si Si5 0.918005 0.729923 0.261417
Si Si6 0.702645 0.496458 0.888051
Si Si7 0.261674 0.673878 0.648824
O O1 0.658260 0.906265 0.221774
O O2 0.221698 0.196573 0.137705
O O3 0.090413 0.035263 0.172610
O O4 0.500000 0.000000 0.000000
O O5 0.722383 0.684658 0.337560
O O6 0.438101 0.640716 0.526362
O O7 0.225223 0.685038 0.319992
O O8 0.137417 0.890029 0.378259
O O9 0.565140 0.158319 0.284254
O O10 0.966004 0.151643 0.354976
O O11 0.197790 0.411126 0.115103
O O12 0.971221 0.357387 0.311456
O O13 0.026177 0.662437 0.143320
O O14 0.490505 0.588838 0.764469
O O15 0.500000 0.500000 0.000000
#
# Coordination Sequence:
#
# PCOD9027169 Si02
#       7
#     2   2   2   2   2   2   2
#     4  10  22  41  67 100 138 182 234 287 344 410
#     4  11  24  46  71 105 146 176 239 289 348 416
#     4   9  20  40  63 107 133 177 230 285 352 409
#     4  10  22  43  67  98 135 181 236 276 356 408
#     4  11  27  45  71 107 140 187 227 294 351 403
#     4  11  28  47  66  99 141 184 236 284 350 423
#     4  10  24  42  71  99 134 191 228 287 348 416
#
# _framework density 23.574683
#
# number of rings (size 3 to 8) (size 9 to 14) (size 15 to 20)
#    0.000    1.714    1.429    0.429   12.000    5.143 
#    0.000    0.000    0.000    0.000    0.000    0.000 
#    0.000    0.000    0.000    0.000    0.000    0.000 
#
# Total GULP energy -78147.177994 kJ/mol
# GULP energy per Si atom -5581.941285 kJ/mol
# Density = 2.352103 g / cm^3
# Si number density = 23.574683 Si / 1000 Ang^3
#
#
#
# Elastic Constant Matrix: (Units=GPa)
#
#
# Indices 1 2 3 4 5 6 
#
# 1 94.3292 10.9923 52.7285 -4.1501 -25.0046 3.5344
# 2 10.9923 98.7410 12.0411 -5.6079 -6.4348 25.3613
# 3 52.7285 12.0411 156.1699 5.0333 -31.3872 15.6377
# 4 -4.1501 -5.6079 5.0333 28.8360 -6.6250 -4.8346
# 5 -25.0046 -6.4348 -31.3872 -6.6250 32.1033 -3.4163
# 6 3.5344 25.3613 15.6377 -4.8346 -3.4163 34.6955
#
#
#
# Elastic Compliance Matrix: (Units=1/GPa)
#
#
# Indices 1 2 3 4 5 6 
#
# 1 0.015432 -0.000980 -0.003613 0.005289 0.009644 0.002460
# 2 -0.000980 0.012671 0.000545 0.001059 0.001559 -0.009107
# 3 -0.003613 0.000545 0.009114 -0.001371 0.005520 -0.003786
# 4 0.005289 0.001059 -0.001371 0.039600 0.011800 0.005985
# 5 0.009644 0.001559 0.005520 0.011800 0.046981 0.001661
# 6 0.002460 -0.009107 -0.003786 0.005985 0.001661 0.037932
#
#
# Mechanical properties :
#
#
# Convention : Reuss Voigt Hill
#
# Bulk Modulus (GPa) = 34.34109 55.64043 44.99076
# Shear Modulus (GPa) = 27.84985 37.35883 32.60434
#
# Velocity S-wave (km/s) = 3.44080 3.98515 3.72294
# Velocity P-wave (km/s) = 5.51217 6.69539 6.13238
#
# Compressibility (1/GPa) = 0.02911963
#
# Stress axis : x y z
#
# Youngs Moduli (GPa) = 64.80002 78.92064 109.72295
#
# Poissons Ratio (x) = 0.07736 0.39647
# Poissons Ratio (y) = 0.06352 -0.05980
# Poissons Ratio (z) = 0.23415 -0.04301
#
# Static dielectric constant tensor:
#      x y z
#    x 2.037330 0.048630 0.012510 
#    y 0.048630 1.922780 -0.004060 
#    z 0.012510 -0.004060 1.869750 
# 
# From -- ./inp_files/28426.got.cif
#   From: 2010.05.17/outbox.cif.g08.bks.cpg/sg2_15_cif.got.tgz:28426.got - 2010.06.03 11:33:40.
