data_PCOD9027780
_publ_section_title
;
Structure prediction by ZEFSAII (Michael W. Deem and Ramdas Pophale) SiO2 
 PCOD9027780
Probable space group: P -1
;
_chemical_formula_sum "Si O2"
_cell_formula_units_Z 16
_cell_length_a 17.041507
_cell_length_b 18.950526
_cell_length_c 5.066882
_cell_angle_alpha 103.784007
_cell_angle_beta 101.622399
_cell_angle_gamma 22.652218
_cell_volume 611.317020
_symmetry_space_group_name_H-M "P -1"
_symmetry_group_IT_number 2
_symmetry_cell_setting 'triclinic'
loop_
_space_group_symop_operation_xyz
x,y,z
-x,-y,-z
loop_
_atom_site_type_symbol
_atom_site_label
_atom_site_fract_x
_atom_site_fract_y
_atom_site_fract_z
Si Si1 0.388757 0.350967 0.959193
Si Si2 0.660043 0.297902 0.584334
Si Si3 0.314137 0.264524 0.500023
Si Si4 0.039280 0.283011 0.131831
Si Si5 0.932967 0.641960 0.288448
Si Si6 0.745507 0.320767 0.164724
Si Si7 0.197185 0.962160 0.300255
Si Si8 0.372824 0.931744 0.756183
O O1 0.443778 0.274897 0.217141
O O2 0.179300 0.568382 0.967105
O O3 0.347969 0.310943 0.728571
O O4 0.598348 0.213693 0.893808
O O5 0.706321 0.286589 0.312713
O O6 0.420073 0.484509 0.655060
O O7 0.792974 0.117478 0.582708
O O8 0.705766 0.324520 0.847628
O O9 0.255365 0.249993 0.646338
O O10 0.522744 0.085613 0.319363
O O11 0.130211 0.428535 0.311693
O O12 0.063871 0.328713 0.976267
O O13 0.233760 0.070627 0.028380
O O14 0.044609 0.309606 0.451317
O O15 0.979672 0.147491 0.182917
O O16 0.229676 0.006054 0.535673
#
# Coordination Sequence:
#
# PCOD9027780 Si02
#       8
#     2   2   2   2   2   2   2   2
#     4  10  24  43  61  92 134 170 215 266 319 384
#     4  10  23  44  70 100 133 163 211 266 312 370
#     4   9  21  41  65  92 126 165 222 272 326 386
#     4  11  25  43  63  93 129 168 219 272 323 379
#     4  10  22  41  69  91 122 173 214 276 336 372
#     4  10  23  44  69 102 131 162 214 265 309 374
#     4  11  25  41  68  96 129 181 208 258 320 383
#     4  11  25  41  63  93 133 170 219 263 315 393
#
# _framework density 26.172999999999998
#
# number of rings (size 3 to 8) (size 9 to 14) (size 15 to 20)
#    0.000    1.750    1.250    0.750    8.750    4.500 
#    2.250    0.000    0.000    0.000    0.000    0.000 
#    0.000    0.000    0.000    0.000    0.000    0.000 
#
# Total GULP energy -89625.310193 kJ/mol
# GULP energy per Si atom -5601.581887 kJ/mol
# Density = 2.611343 g / cm^3
# Si number density = 26.173000 Si / 1000 Ang^3
#
#
#
# Elastic Constant Matrix: (Units=GPa)
#
#
# Indices 1 2 3 4 5 6 
#
# 1 64.1683 31.2688 17.1040 -10.4069 -12.3013 -9.2107
# 2 31.2688 133.9505 9.5953 -2.0554 8.6921 -19.3742
# 3 17.1040 9.5953 70.8953 -4.7829 -7.7776 -5.2725
# 4 -10.4069 -2.0554 -4.7829 37.7109 0.3644 -8.2395
# 5 -12.3013 8.6921 -7.7776 0.3644 26.1694 -5.5821
# 6 -9.2107 -19.3742 -5.2725 -8.2395 -5.5821 48.1654
#
#
#
# Elastic Compliance Matrix: (Units=1/GPa)
#
#
# Indices 1 2 3 4 5 6 
#
# 1 0.023000 -0.005232 -0.002666 0.006606 0.012646 0.004597
# 2 -0.005232 0.009345 -0.000464 -0.000503 -0.005265 0.002011
# 3 -0.002666 -0.000464 0.015463 0.001535 0.003839 0.001704
# 4 0.006606 -0.000503 0.001535 0.029972 0.004785 0.006911
# 5 0.012646 -0.005265 0.003839 0.004785 0.048507 0.007161
# 6 0.004597 0.002011 0.001704 0.006911 0.007161 0.024649
#
#
# Mechanical properties :
#
#
# Convention : Reuss Voigt Hill
#
# Bulk Modulus (GPa) = 32.17266 42.77229 37.47247
# Shear Modulus (GPa) = 28.08659 36.47887 32.28273
#
# Velocity S-wave (km/s) = 3.27939 3.73736 3.51584
# Velocity P-wave (km/s) = 5.16316 5.91620 5.55246
#
# Compressibility (1/GPa) = 0.03108229
#
# Stress axis : x y z
#
# Youngs Moduli (GPa) = 43.47873 107.00952 64.67171
#
# Poissons Ratio (x) = 0.55990 0.17240
# Poissons Ratio (y) = 0.22749 0.03004
# Poissons Ratio (z) = 0.11591 0.04970
#
# Static dielectric constant tensor:
#      x y z
#    x 2.083140 0.001290 -0.035180 
#    y 0.001290 2.099210 0.027200 
#    z -0.035180 0.027200 2.001800 
# 
# From -- ./inp_files/112493.got.cif
#   From: 2010.05.17/outbox.cif.g08.bks.cpg/sg2_57_cif.got.tgz:112493.got - 2010.06.03 11:33:40.
