data_PCOD9027475
_publ_section_title
;
Structure prediction by ZEFSAII (Michael W. Deem and Ramdas Pophale) SiO2 
 PCOD9027475
Probable space group: P -1
;
_chemical_formula_sum "Si O2"
_cell_formula_units_Z 12
_cell_length_a 18.117828
_cell_length_b 8.956730
_cell_length_c 7.642124
_cell_angle_alpha 97.146429
_cell_angle_beta 121.270432
_cell_angle_gamma 36.346412
_cell_volume 511.862087
_symmetry_space_group_name_H-M "P -1"
_symmetry_group_IT_number 2
_symmetry_cell_setting 'triclinic'
loop_
_space_group_symop_operation_xyz
x,y,z
-x,-y,-z
loop_
_atom_site_type_symbol
_atom_site_label
_atom_site_fract_x
_atom_site_fract_y
_atom_site_fract_z
Si Si1 0.518029 0.258091 0.619231
Si Si2 0.845340 0.769283 0.710310
Si Si3 0.349365 0.682191 0.973571
Si Si4 0.136390 0.928024 0.130610
Si Si5 0.389613 0.305510 0.832004
Si Si6 0.022178 0.707189 0.376207
O O1 0.330004 0.563255 0.340135
O O2 0.478160 0.222583 0.742662
O O3 0.665645 0.986700 0.618204
O O4 0.599375 0.292510 0.793947
O O5 0.895193 0.584288 0.585467
O O6 0.855314 0.933377 0.719633
O O7 0.000000 0.500000 0.000000
O O8 0.376657 0.461971 0.976674
O O9 0.500000 0.500000 0.000000
O O10 0.159584 0.010918 0.699019
O O11 0.000000 0.000000 0.000000
O O12 0.071514 0.090238 0.887840
O O13 0.185742 0.565547 0.594848
O O14 0.500000 0.000000 0.000000
#
# Coordination Sequence:
#
# PCOD9027475 Si02
#       6
#     2   2   2   2   2   2
#     4  11  22  44  70 101 133 174 229 264 351 394
#     4  10  22  41  68 103 136 168 212 289 337 394
#     4  10  23  45  69  91 135 187 222 265 326 410
#     4  11  22  41  70 105 131 172 212 291 336 390
#     4  11  26  45  67  97 136 183 225 274 318 402
#     4  11  23  46  67 100 138 168 230 273 342 391
#
# _framework density 23.443818
#
# number of rings (size 3 to 8) (size 9 to 14) (size 15 to 20)
#    0.000    1.333    5.000    1.000    2.333    0.667 
#    6.000    3.333    0.000    0.000    0.000    0.000 
#    0.000    0.000    0.000    0.000    0.000    0.000 
#
# Total GULP energy -66961.829714 kJ/mol
# GULP energy per Si atom -5580.152476 kJ/mol
# Density = 2.339046 g / cm^3
# Si number density = 23.443818 Si / 1000 Ang^3
#
#
#
# Elastic Constant Matrix: (Units=GPa)
#
#
# Indices 1 2 3 4 5 6 
#
# 1 132.8052 54.7079 76.7011 -15.7570 25.2969 2.4014
# 2 54.7079 118.5550 43.2727 -32.4739 9.1508 3.8549
# 3 76.7011 43.2727 151.6979 -32.5166 26.4035 -4.4083
# 4 -15.7570 -32.4739 -32.5166 43.0156 -10.5694 7.8410
# 5 25.2969 9.1508 26.4035 -10.5694 51.9228 -2.0186
# 6 2.4014 3.8549 -4.4083 7.8410 -2.0186 28.4007
#
#
#
# Elastic Compliance Matrix: (Units=1/GPa)
#
#
# Indices 1 2 3 4 5 6 
#
# 1 0.012749 -0.004650 -0.005307 -0.003605 -0.003447 -0.000520
# 2 -0.004650 0.013079 0.000257 0.009459 0.001606 -0.003839
# 3 -0.005307 0.000257 0.010780 0.005914 -0.001724 0.000332
# 4 -0.003605 0.009459 0.005914 0.036332 0.004096 -0.009801
# 5 -0.003447 0.001606 -0.001724 0.004096 0.022377 0.000265
# 6 -0.000520 -0.003839 0.000332 -0.009801 0.000265 0.038552
#
#
# Mechanical properties :
#
#
# Convention : Reuss Voigt Hill
#
# Bulk Modulus (GPa) = 58.11965 83.60239 70.86102
# Shear Modulus (GPa) = 31.44557 39.89292 35.66925
#
# Velocity S-wave (km/s) = 3.66637 4.12957 3.90484
# Velocity P-wave (km/s) = 6.53972 7.64696 7.11491
#
# Compressibility (1/GPa) = 0.01720589
#
# Stress axis : x y z
#
# Youngs Moduli (GPa) = 78.43698 76.45921 92.76561
#
# Poissons Ratio (x) = 0.35556 0.49235
# Poissons Ratio (y) = 0.36476 -0.02383
# Poissons Ratio (z) = 0.41630 -0.01964
#
# Static dielectric constant tensor:
#      x y z
#    x 2.154820 -0.342520 0.076780 
#    y -0.342520 2.371540 -0.089850 
#    z 0.076780 -0.089850 1.890650 
# 
# From -- ./inp_files/162680.got.cif
#   From: 2010.05.17/outbox.cif.g08.bks.cpg/sg2_82_cif.got.tgz:162680.got - 2010.06.03 11:33:40.
