data_PCOD9027996
_publ_section_title
;
Structure prediction by ZEFSAII (Michael W. Deem and Ramdas Pophale) SiO2 
 PCOD9027996
Probable space group: P -1
;
_chemical_formula_sum "Si O2"
_cell_formula_units_Z 10
_cell_length_a 19.250583
_cell_length_b 14.490446
_cell_length_c 11.512727
_cell_angle_alpha 147.720427
_cell_angle_beta 22.868184
_cell_angle_gamma 160.725095
_cell_volume 404.512445
_symmetry_space_group_name_H-M "P -1"
_symmetry_group_IT_number 2
_symmetry_cell_setting 'triclinic'
loop_
_space_group_symop_operation_xyz
x,y,z
-x,-y,-z
loop_
_atom_site_type_symbol
_atom_site_label
_atom_site_fract_x
_atom_site_fract_y
_atom_site_fract_z
Si Si1 0.714593 0.899950 0.557669
Si Si2 0.703303 0.280110 0.609422
Si Si3 0.652326 0.248470 0.244691
Si Si4 0.226536 0.423052 0.981133
Si Si5 0.672008 0.473380 0.658550
O O1 0.491225 0.830415 0.742722
O O2 0.531994 0.695746 0.733750
O O3 0.835169 0.822688 0.220666
O O4 0.982512 0.223364 0.532812
O O5 0.584904 0.245028 0.630197
O O6 0.500545 0.025932 0.743929
O O7 0.772812 0.515673 0.820061
O O8 0.983657 0.372738 0.255558
O O9 0.583064 0.367210 0.551762
O O10 0.000000 0.500000 0.000000
O O11 0.500000 0.500000 0.000000
#
# Coordination Sequence:
#
# PCOD9027996 Si02
#       5
#     2   2   2   2   2
#     4  11  24  45  66  96 134 169 214 267 320 380
#     4  11  23  41  65  97 130 168 218 265 317 384
#     4  12  26  43  68  97 130 172 216 265 323 383
#     4  10  22  41  70  95 128 174 212 263 324 379
#     4  12  26  43  68  97 130 172 216 265 323 383
#
# _framework density 24.721117
#
# number of rings (size 3 to 8) (size 9 to 14) (size 15 to 20)
#    0.000    0.800    0.000    7.800    0.000    8.000 
#    0.000    7.000    0.000    0.000    0.000    0.000 
#    0.000    0.000    0.000    0.000    0.000    0.000 
#
# Total GULP energy -55978.971496 kJ/mol
# GULP energy per Si atom -5597.897150 kJ/mol
# Density = 2.466485 g / cm^3
# Si number density = 24.721117 Si / 1000 Ang^3
#
#
#
# Elastic Constant Matrix: (Units=GPa)
#
#
# Indices 1 2 3 4 5 6 
#
# 1 76.9554 7.1857 -6.5088 6.7992 -0.3280 18.2891
# 2 7.1857 109.0132 14.8200 8.0747 2.0234 2.3102
# 3 -6.5088 14.8200 119.0965 22.2187 -4.2081 10.9803
# 4 6.7992 8.0747 22.2187 40.5300 6.3222 6.4128
# 5 -0.3280 2.0234 -4.2081 6.3222 34.2523 9.5886
# 6 18.2891 2.3102 10.9803 6.4128 9.5886 37.2079
#
#
#
# Elastic Compliance Matrix: (Units=1/GPa)
#
#
# Indices 1 2 3 4 5 6 
#
# 1 0.015653 -0.001029 0.002461 -0.002932 0.003505 -0.008755
# 2 -0.001029 0.009473 -0.001110 -0.001097 -0.000673 0.000608
# 3 0.002461 -0.001110 0.010237 -0.005709 0.003546 -0.004092
# 4 -0.002932 -0.001097 -0.005709 0.029506 -0.006015 -0.000341
# 5 0.003505 -0.000673 0.003546 -0.006015 0.033720 -0.010381
# 6 -0.008755 0.000608 -0.004092 -0.000341 -0.010381 0.035083
#
#
# Mechanical properties :
#
#
# Convention : Reuss Voigt Hill
#
# Bulk Modulus (GPa) = 27.77137 37.33986 32.55562
# Shear Modulus (GPa) = 34.47562 41.70258 38.08910
#
# Velocity S-wave (km/s) = 3.73846 4.11167 3.92950
# Velocity P-wave (km/s) = 5.46745 6.13827 5.81255
#
# Compressibility (1/GPa) = 0.03600831
#
# Stress axis : x y z
#
# Youngs Moduli (GPa) = 63.88385 105.56518 97.68562
#
# Poissons Ratio (x) = 0.10860 -0.24045
# Poissons Ratio (y) = 0.06572 0.10844
# Poissons Ratio (z) = -0.15725 0.11719
#
# Static dielectric constant tensor:
#      x y z
#    x 1.891520 0.034620 0.017560 
#    y 0.034620 2.043830 0.020270 
#    z 0.017560 0.020270 1.994330 
# 
# From -- ./inp_files/144242.got.cif
#   From: 2010.05.17/outbox.cif.g08.bks.cpg/sg2_73_cif.got.tgz:144242.got - 2010.06.03 11:33:40.
