data_PCOD9027137
_publ_section_title
;
Structure prediction by ZEFSAII (Michael W. Deem and Ramdas Pophale) SiO2 
 PCOD9027137
Probable space group: P -1
;
_chemical_formula_sum "Si O2"
_cell_formula_units_Z 16
_cell_length_a 8.245094
_cell_length_b 14.534529
_cell_length_c 15.471793
_cell_angle_alpha 27.799711
_cell_angle_beta 126.496629
_cell_angle_gamma 126.156306
_cell_volume 684.988661
_symmetry_space_group_name_H-M "P -1"
_symmetry_group_IT_number 2
_symmetry_cell_setting 'triclinic'
loop_
_space_group_symop_operation_xyz
x,y,z
-x,-y,-z
loop_
_atom_site_type_symbol
_atom_site_label
_atom_site_fract_x
_atom_site_fract_y
_atom_site_fract_z
Si Si1 0.688943 0.392411 0.131442
Si Si2 0.653986 0.948427 0.699885
Si Si3 0.410547 0.977710 0.203136
Si Si4 0.937092 0.314638 0.422307
Si Si5 0.302203 0.613896 0.345822
Si Si6 0.910950 0.727969 0.830536
Si Si7 0.775098 0.775756 0.557868
Si Si8 0.320071 0.696192 0.087413
O O1 0.583395 0.160219 0.293438
O O2 0.846089 0.448633 0.211987
O O3 0.500000 0.500000 0.000000
O O4 0.803528 0.491694 0.000926
O O5 0.774343 0.838794 0.759195
O O6 0.707700 0.933121 0.830649
O O7 0.740814 0.180012 0.514614
O O8 0.311505 0.779817 0.284779
O O9 0.601371 0.904182 0.374529
O O10 0.488838 0.154529 0.014426
O O11 0.099718 0.444609 0.427583
O O12 0.069429 0.197691 0.496423
O O13 0.500000 0.500000 0.500000
O O14 0.297243 0.721879 0.161479
O O15 0.889511 0.802938 0.663950
O O16 0.128312 0.745345 0.931168
O O17 0.674066 0.540153 0.722781
#
# Coordination Sequence:
#
# PCOD9027137 Si02
#       8
#     2   2   2   2   2   2   2   2
#     4  10  22  41  66  98 140 181 219 276 355 416
#     4  11  27  41  65 102 143 180 226 276 356 426
#     4  12  26  44  70 106 138 184 234 286 342 417
#     4  11  23  44  68  97 137 182 229 285 343 408
#     4  11  23  49  74 100 134 182 241 295 339 391
#     4  11  23  43  68  99 143 183 221 293 349 416
#     4  11  24  41  71 107 138 179 235 287 348 407
#     4  11  23  45  74 100 134 179 239 290 344 400
#
# _framework density 23.358049999999999
#
# number of rings (size 3 to 8) (size 9 to 14) (size 15 to 20)
#    0.000    1.000    5.000    2.625    7.000    1.500 
#    0.000    0.625    0.000    0.000    0.000    0.000 
#    0.000    0.000    0.000    0.000    0.000    0.000 
#
# Total GULP energy -89367.599674 kJ/mol
# GULP energy per Si atom -5585.474980 kJ/mol
# Density = 2.330489 g / cm^3
# Si number density = 23.358050 Si / 1000 Ang^3
#
#
#
# Elastic Constant Matrix: (Units=GPa)
#
#
# Indices 1 2 3 4 5 6 
#
# 1 48.8197 42.1876 14.5812 -6.3742 -22.5278 -4.2760
# 2 42.1876 135.4398 26.7676 4.0211 -15.4175 -0.9175
# 3 14.5812 26.7676 79.3882 -5.4379 -21.5755 14.8375
# 4 -6.3742 4.0211 -5.4379 36.5930 7.2664 -11.4975
# 5 -22.5278 -15.4175 -21.5755 7.2664 47.8963 -8.9601
# 6 -4.2760 -0.9175 14.8375 -11.4975 -8.9601 38.3133
#
#
#
# Elastic Compliance Matrix: (Units=1/GPa)
#
#
# Indices 1 2 3 4 5 6 
#
# 1 0.038570 -0.010280 -0.000884 0.007953 0.015160 0.010333
# 2 -0.010280 0.010889 -0.002316 -0.003379 -0.002142 -0.001504
# 3 -0.000884 -0.002316 0.015865 -0.000168 0.005044 -0.005169
# 4 0.007953 -0.003379 -0.000168 0.032439 -0.000376 0.010518
# 5 0.015160 -0.002142 0.005044 -0.000376 0.030922 0.006806
# 6 0.010333 -0.001504 -0.005169 0.010518 0.006806 0.033968
#
#
# Mechanical properties :
#
#
# Convention : Reuss Voigt Hill
#
# Bulk Modulus (GPa) = 26.06588 47.85783 36.96186
# Shear Modulus (GPa) = 24.70350 36.56794 30.63572
#
# Velocity S-wave (km/s) = 3.25561 3.96098 3.62549
# Velocity P-wave (km/s) = 5.03145 6.43836 5.77788
#
# Compressibility (1/GPa) = 0.03836433
#
# Stress axis : x y z
#
# Youngs Moduli (GPa) = 25.92691 91.83311 63.03220
#
# Poissons Ratio (x) = 0.94401 0.05575
# Poissons Ratio (y) = 0.26652 0.14597
# Poissons Ratio (z) = 0.02293 0.21267
#
# Static dielectric constant tensor:
#      x y z
#    x 1.526940 -0.058850 -0.025100 
#    y -0.058850 1.922880 -0.060330 
#    z -0.025100 -0.060330 1.913090 
# 
# From -- ./inp_files/505174.got.cif
#   From: 2010.05.17/outbox.cif.g08.bks.cpg/sg2_253_cif.got.tgz:505174.got - 2010.06.03 11:33:40.
