data_PCOD9027607
_publ_section_title
;
Structure prediction by ZEFSAII (Michael W. Deem and Ramdas Pophale) SiO2 
 PCOD9027607
Probable space group: P -1
;
_chemical_formula_sum "Si O2"
_cell_formula_units_Z 16
_cell_length_a 6.322839
_cell_length_b 19.947404
_cell_length_c 20.100735
_cell_angle_alpha 22.932395
_cell_angle_beta 115.296307
_cell_angle_gamma 100.633220
_cell_volume 718.933258
_symmetry_space_group_name_H-M "P -1"
_symmetry_group_IT_number 2
_symmetry_cell_setting 'triclinic'
loop_
_space_group_symop_operation_xyz
x,y,z
-x,-y,-z
loop_
_atom_site_type_symbol
_atom_site_label
_atom_site_fract_x
_atom_site_fract_y
_atom_site_fract_z
Si Si1 0.937386 0.923427 0.857247
Si Si2 0.556899 0.500280 0.902788
Si Si3 0.344762 0.282417 0.391395
Si Si4 0.849649 0.561188 0.172665
Si Si5 0.061632 0.798627 0.655715
Si Si6 0.412026 0.393184 0.770551
Si Si7 0.236628 0.795090 0.297422
Si Si8 0.689125 0.918216 0.033793
O O1 0.682737 0.118724 0.601887
O O2 0.945014 0.026171 0.833130
O O3 0.841795 0.767535 0.996932
O O4 0.259058 0.779403 0.002628
O O5 0.700292 0.534755 0.829153
O O6 0.404051 0.392761 0.953677
O O7 0.285648 0.722960 0.694055
O O8 0.778097 0.383607 0.099720
O O9 0.152586 0.384876 0.338424
O O10 0.220166 0.173353 0.435329
O O11 0.795040 0.492358 0.298412
O O12 0.000000 0.000000 0.500000
O O13 0.400943 0.564843 0.564602
O O14 0.327166 0.256828 0.845008
O O15 0.019434 0.811030 0.199035
O O16 0.410453 0.875377 0.213009
O O17 0.500000 0.000000 0.000000
#
# Coordination Sequence:
#
# PCOD9027607 Si02
#       8
#     2   2   2   2   2   2   2   2
#     4  12  24  43  66 103 139 180 234 283 350 422
#     4  10  22  42  64 100 134 177 236 286 345 413
#     4  11  25  43  68 101 139 182 232 289 346 421
#     4  11  24  43  67  98 139 184 233 285 353 412
#     4  10  22  41  68  96 135 180 226 289 351 408
#     4  12  26  46  73 103 141 189 230 292 353 414
#     4  11  25  45  70 104 137 179 238 284 351 423
#     4  11  24  48  72 103 140 182 233 291 350 420
#
# _framework density 22.255196000000002
#
# number of rings (size 3 to 8) (size 9 to 14) (size 15 to 20)
#    0.000    1.000    2.500    3.750    0.000    8.000 
#    2.250    0.000    0.000    0.000    0.000    0.000 
#    0.000    0.000    0.000    0.000    0.000    0.000 
#
# Total GULP energy -89500.830136 kJ/mol
# GULP energy per Si atom -5593.801883 kJ/mol
# Density = 2.220454 g / cm^3
# Si number density = 22.255196 Si / 1000 Ang^3
#
#
#
# Elastic Constant Matrix: (Units=GPa)
#
#
# Indices 1 2 3 4 5 6 
#
# 1 97.7542 48.3892 44.3156 -0.5258 -6.9844 -14.0330
# 2 48.3892 133.2954 36.6324 -14.6893 -4.9801 12.8879
# 3 44.3156 36.6324 76.3210 0.2986 -9.4369 -8.3963
# 4 -0.5258 -14.6893 0.2986 37.2058 6.8520 -9.8240
# 5 -6.9844 -4.9801 -9.4369 6.8520 28.5991 2.4917
# 6 -14.0330 12.8879 -8.3963 -9.8240 2.4917 37.8604
#
#
#
# Elastic Compliance Matrix: (Units=1/GPa)
#
#
# Indices 1 2 3 4 5 6 
#
# 1 0.016489 -0.004782 -0.006529 -0.000047 0.000507 0.006246
# 2 -0.004782 0.010926 -0.003139 0.002948 -0.000538 -0.005387
# 3 -0.006529 -0.003139 0.019191 -0.001727 0.004417 0.002166
# 4 -0.000047 0.002948 -0.001727 0.031506 -0.008254 0.007315
# 5 0.000507 -0.000538 0.004417 -0.008254 0.038722 -0.003340
# 6 0.006246 -0.005387 0.002166 0.007315 -0.003340 0.033160
#
#
# Mechanical properties :
#
#
# Convention : Reuss Voigt Hill
#
# Bulk Modulus (GPa) = 56.47288 62.89390 59.68339
# Shear Modulus (GPa) = 27.05674 32.60195 29.82935
#
# Velocity S-wave (km/s) = 3.49054 3.83157 3.66503
# Velocity P-wave (km/s) = 6.45565 6.92071 6.69222
#
# Compressibility (1/GPa) = 0.01770761
#
# Stress axis : x y z
#
# Youngs Moduli (GPa) = 60.64519 91.52304 52.10673
#
# Poissons Ratio (x) = 0.43764 0.34023
# Poissons Ratio (y) = 0.28999 0.16354
# Poissons Ratio (z) = 0.39598 0.28725
#
# Static dielectric constant tensor:
#      x y z
#    x 1.822500 0.009110 -0.002960 
#    y 0.009110 1.800320 0.019430 
#    z -0.002960 0.019430 1.822900 
# 
# From -- ./inp_files/584293.got.cif
#   From: 2010.05.17/outbox.cif.g08.bks.cpg/sg2_293_cif.got.tgz:584293.got - 2010.06.03 11:33:40.
