data_PCOD9027634
_publ_section_title
;
Structure prediction by ZEFSAII (Michael W. Deem and Ramdas Pophale) SiO2 
 PCOD9027634
Probable space group: P -1
;
_chemical_formula_sum "Si O2"
_cell_formula_units_Z 12
_cell_length_a 13.752570
_cell_length_b 9.566883
_cell_length_c 5.484336
_cell_angle_alpha 63.836630
_cell_angle_beta 97.054145
_cell_angle_gamma 56.204470
_cell_volume 468.112084
_symmetry_space_group_name_H-M "P -1"
_symmetry_group_IT_number 2
_symmetry_cell_setting 'triclinic'
loop_
_space_group_symop_operation_xyz
x,y,z
-x,-y,-z
loop_
_atom_site_type_symbol
_atom_site_label
_atom_site_fract_x
_atom_site_fract_y
_atom_site_fract_z
Si Si1 0.055481 0.265515 0.237304
Si Si2 0.685599 0.664647 0.303750
Si Si3 0.833401 0.310833 0.943314
Si Si4 0.417948 0.945837 0.276179
Si Si5 0.191481 0.013071 0.965964
Si Si6 0.438014 0.400741 0.058070
O O1 0.137455 0.161790 0.595214
O O2 0.136394 0.128684 0.122945
O O3 0.000000 0.500000 0.000000
O O4 0.938962 0.259839 0.210199
O O5 0.822434 0.463717 0.625329
O O6 0.565475 0.841645 0.313475
O O7 0.628506 0.572031 0.235123
O O8 0.682858 0.800147 0.992562
O O9 0.686250 0.465474 0.897214
O O10 0.850760 0.120733 0.984155
O O11 0.449434 0.843320 0.628747
O O12 0.350182 0.880910 0.146997
O O13 0.500000 0.500000 0.000000
#
# Coordination Sequence:
#
# PCOD9027634 Si02
#       6
#     2   2   2   2   2   2
#     4  12  29  49  74 103 141 190 241 293 356 420
#     4  10  22  41  68  97 144 179 236 291 352 422
#     4  11  26  44  70 105 138 186 236 293 354 417
#     4  10  23  41  65 105 136 188 233 289 357 414
#     4  12  27  46  75 103 145 185 238 295 352 428
#     4  11  23  39  70  99 144 180 232 289 352 425
#
# _framework density 25.634888
#
# number of rings (size 3 to 8) (size 9 to 14) (size 15 to 20)
#    0.000    1.000    0.000    5.000   11.667    2.667 
#    0.000    0.000    0.000    0.000    0.000    0.000 
#    0.000    0.000    0.000    0.000    0.000    0.000 
#
# Total GULP energy -67130.602576 kJ/mol
# GULP energy per Si atom -5594.216881 kJ/mol
# Density = 2.557654 g / cm^3
# Si number density = 25.634888 Si / 1000 Ang^3
#
#
#
# Elastic Constant Matrix: (Units=GPa)
#
#
# Indices 1 2 3 4 5 6 
#
# 1 96.6591 19.2042 5.8401 -1.2597 8.1104 10.6545
# 2 19.2042 104.2696 20.6970 6.4718 -12.3806 12.2140
# 3 5.8401 20.6970 126.1853 16.0888 1.7128 -12.6524
# 4 -1.2597 6.4718 16.0888 30.9935 14.4289 1.8347
# 5 8.1104 -12.3806 1.7128 14.4289 36.7388 8.3852
# 6 10.6545 12.2140 -12.6524 1.8347 8.3852 36.5003
#
#
#
# Elastic Compliance Matrix: (Units=1/GPa)
#
#
# Indices 1 2 3 4 5 6 
#
# 1 0.011495 -0.002461 -0.000707 0.003435 -0.004232 -0.001978
# 2 -0.002461 0.012380 -0.001947 -0.005116 0.008118 -0.005707
# 3 -0.000707 -0.001947 0.009309 -0.004669 -0.000091 0.004340
# 4 0.003435 -0.005116 -0.004669 0.045305 -0.020400 0.001500
# 5 -0.004232 0.008118 -0.000091 -0.020400 0.041175 -0.009946
# 6 -0.001978 -0.005707 0.004340 0.001500 -0.009946 0.033598
#
#
# Mechanical properties :
#
#
# Convention : Reuss Voigt Hill
#
# Bulk Modulus (GPa) = 43.56528 46.51074 45.03801
# Shear Modulus (GPa) = 29.21527 39.60472 34.40999
#
# Velocity S-wave (km/s) = 3.37956 3.93485 3.66773
# Velocity P-wave (km/s) = 5.67979 6.23113 5.96184
#
# Compressibility (1/GPa) = 0.02295406
#
# Stress axis : x y z
#
# Youngs Moduli (GPa) = 86.99348 80.77474 107.42727
#
# Poissons Ratio (x) = 0.19877 0.07598
# Poissons Ratio (y) = 0.21407 0.20914
# Poissons Ratio (z) = 0.06153 0.15726
#
# Static dielectric constant tensor:
#      x y z
#    x 2.072890 -0.068140 -0.037650 
#    y -0.068140 2.051080 -0.026060 
#    z -0.037650 -0.026060 2.051640 
# 
# From -- ./inp_files/22633.got.cif
#   From: 2010.05.17/outbox.cif.g08.bks.cpg/sg2_12_cif.got.tgz:22633.got - 2010.06.03 11:33:40.
