data_PCOD9027965
_publ_section_title
;
Structure prediction by ZEFSAII (Michael W. Deem and Ramdas Pophale) SiO2 
 PCOD9027965
Probable space group: P -1
;
_chemical_formula_sum "Si O2"
_cell_formula_units_Z 12
_cell_length_a 12.083648
_cell_length_b 5.265785
_cell_length_c 11.263685
_cell_angle_alpha 116.439846
_cell_angle_beta 47.887429
_cell_angle_gamma 113.300007
_cell_volume 470.962741
_symmetry_space_group_name_H-M "P -1"
_symmetry_group_IT_number 2
_symmetry_cell_setting 'triclinic'
loop_
_space_group_symop_operation_xyz
x,y,z
-x,-y,-z
loop_
_atom_site_type_symbol
_atom_site_label
_atom_site_fract_x
_atom_site_fract_y
_atom_site_fract_z
Si Si1 0.635426 0.126925 0.309640
Si Si2 0.873344 0.778038 0.107247
Si Si3 0.338554 0.079949 0.172380
Si Si4 0.345681 0.700658 0.419693
Si Si5 0.847567 0.218774 0.949506
Si Si6 0.102979 0.796867 0.456491
O O1 0.631526 0.348992 0.465523
O O2 0.745533 0.225211 0.142743
O O3 0.719158 0.888861 0.265093
O O4 0.480486 0.952041 0.340998
O O5 0.833437 0.537416 0.983054
O O6 0.974049 0.732095 0.140541
O O7 0.000000 0.000000 0.000000
O O8 0.350222 0.395701 0.287514
O O9 0.250606 0.841576 0.274538
O O10 0.500000 0.000000 0.000000
O O11 0.225411 0.038376 0.131773
O O12 0.192095 0.824577 0.523675
O O13 0.000000 0.500000 0.500000
O O14 0.000000 0.000000 0.500000
#
# Coordination Sequence:
#
# PCOD9027965 Si02
#       6
#     2   2   2   2   2   2
#     4  10  23  44  73 107 151 203 260 333 394 482
#     4   9  20  39  64  98 142 191 247 312 389 464
#     4  12  27  48  80 119 161 212 269 338 404 482
#     4  11  26  47  74 113 158 209 269 326 410 479
#     4  10  22  41  70 109 146 199 261 327 400 472
#     4  12  28  53  79 118 163 215 264 333 407 487
#
# _framework density 25.47972
#
# number of rings (size 3 to 8) (size 9 to 14) (size 15 to 20)
#    0.000    1.333    1.667    2.000    2.333   10.667 
#    0.000    4.167    0.000    0.000    0.000    0.000 
#    0.000    0.000    0.000    0.000    0.000    0.000 
#
# Total GULP energy -66801.124749 kJ/mol
# GULP energy per Si atom -5566.760396 kJ/mol
# Density = 2.542173 g / cm^3
# Si number density = 25.479720 Si / 1000 Ang^3
#
#
#
# Elastic Constant Matrix: (Units=GPa)
#
#
# Indices 1 2 3 4 5 6 
#
# 1 145.5869 63.1475 30.2316 21.3027 -0.6938 42.9367
# 2 63.1475 135.0250 62.4797 5.8644 -0.6334 22.2313
# 3 30.2316 62.4797 109.6038 21.1623 7.8409 21.9554
# 4 21.3027 5.8644 21.1623 54.9055 12.3605 8.0326
# 5 -0.6938 -0.6334 7.8409 12.3605 39.0725 -1.7584
# 6 42.9367 22.2313 21.9554 8.0326 -1.7584 51.3823
#
#
#
# Elastic Compliance Matrix: (Units=1/GPa)
#
#
# Indices 1 2 3 4 5 6 
#
# 1 0.011297 -0.004671 0.001711 -0.003564 0.000568 -0.007574
# 2 -0.004671 0.012326 -0.006496 0.002727 0.000600 0.000940
# 3 0.001711 -0.006496 0.014141 -0.004452 -0.001685 -0.004023
# 4 -0.003564 0.002727 -0.004452 0.022424 -0.006220 -0.000018
# 5 0.000568 0.000600 -0.001685 -0.006220 0.028005 0.001917
# 6 -0.007574 0.000940 -0.004023 -0.000018 0.001917 0.027172
#
#
# Mechanical properties :
#
#
# Convention : Reuss Voigt Hill
#
# Bulk Modulus (GPa) = 53.04117 77.99258 65.51687
# Shear Modulus (GPa) = 35.57206 44.69583 40.13395
#
# Velocity S-wave (km/s) = 3.74049 4.19283 3.97310
# Velocity P-wave (km/s) = 6.28627 7.35635 6.84226
#
# Compressibility (1/GPa) = 0.01885328
#
# Stress axis : x y z
#
# Youngs Moduli (GPa) = 88.51721 81.13088 70.71707
#
# Poissons Ratio (x) = 0.37894 -0.12100
# Poissons Ratio (y) = 0.41344 0.45936
# Poissons Ratio (z) = -0.15146 0.52700
#
# Static dielectric constant tensor:
#      x y z
#    x 2.252560 -0.106470 0.029930 
#    y -0.106470 2.150580 0.094950 
#    z 0.029930 0.094950 2.172510 
# 
# From -- ./inp_files/411358.got.cif
#   From: 2010.05.17/outbox.cif.g08.bks.cpg/sg2_206_cif.got.tgz:411358.got - 2010.06.03 11:33:40.
