data_PCOD9027632
_publ_section_title
;
Structure prediction by ZEFSAII (Michael W. Deem and Ramdas Pophale) SiO2 
 PCOD9027632
Probable space group: P -1
;
_chemical_formula_sum "Si O2"
_cell_formula_units_Z 14
_cell_length_a 14.595699
_cell_length_b 10.816805
_cell_length_c 10.242046
_cell_angle_alpha 150.169507
_cell_angle_beta 129.730948
_cell_angle_gamma 40.033275
_cell_volume 515.800606
_symmetry_space_group_name_H-M "P -1"
_symmetry_group_IT_number 2
_symmetry_cell_setting 'triclinic'
loop_
_space_group_symop_operation_xyz
x,y,z
-x,-y,-z
loop_
_atom_site_type_symbol
_atom_site_label
_atom_site_fract_x
_atom_site_fract_y
_atom_site_fract_z
Si Si1 0.735162 0.251433 0.485924
Si Si2 0.572021 0.142145 0.617666
Si Si3 0.165985 0.205593 0.642716
Si Si4 0.083119 0.644262 0.754728
Si Si5 0.335007 0.837633 0.013146
Si Si6 0.506658 0.768706 0.893589
Si Si7 0.116045 0.774942 0.647849
O O1 0.666482 0.477450 0.753697
O O2 0.602762 0.313173 0.334726
O O3 0.827723 0.314533 0.530914
O O4 0.814001 0.912268 0.298917
O O5 0.453762 0.481321 0.788045
O O6 0.500000 0.000000 0.500000
O O7 0.674371 0.989787 0.449301
O O8 0.682083 0.114956 0.804799
O O9 0.124799 0.517387 0.823474
O O10 0.044806 0.145072 0.430663
O O11 0.185220 0.557913 0.640029
O O12 0.000000 0.500000 0.500000
O O13 0.000000 0.000000 0.000000
O O14 0.429825 0.933434 0.109941
O O15 0.182980 0.969581 0.924808
O O16 0.500000 0.000000 0.000000
#
# Coordination Sequence:
#
# PCOD9027632 Si02
#       7
#     2   2   2   2   2   2   2
#     4  10  22  45  69 102 144 184 244 297 367 439
#     4  11  24  41  69 103 137 181 243 303 363 434
#     4  11  23  44  75 105 141 192 242 312 363 447
#     4  10  24  46  70 103 148 196 239 298 373 443
#     4  10  23  42  66 102 138 185 240 300 367 435
#     4  10  22  41  68  97 140 189 233 296 365 440
#     4  10  23  44  72 102 145 194 236 298 375 446
#
# _framework density 27.142271000000001
#
# number of rings (size 3 to 8) (size 9 to 14) (size 15 to 20)
#    0.000    1.714    1.429    1.286    6.000    1.143 
#   12.857    0.714    0.000    0.000    0.000    0.000 
#    0.000    0.000    0.000    0.000    0.000    0.000 
#
# Total GULP energy -77974.619113 kJ/mol
# GULP energy per Si atom -5569.615651 kJ/mol
# Density = 2.708049 g / cm^3
# Si number density = 27.142271 Si / 1000 Ang^3
#
#
#
# Elastic Constant Matrix: (Units=GPa)
#
#
# Indices 1 2 3 4 5 6 
#
# 1 206.4952 44.6494 8.3346 12.9547 15.4991 17.1355
# 2 44.6494 121.0298 21.4411 6.5183 8.9248 21.0574
# 3 8.3346 21.4411 31.1887 13.0406 11.8026 7.2008
# 4 12.9547 6.5183 13.0406 52.4675 7.1502 17.5272
# 5 15.4991 8.9248 11.8026 7.1502 27.5634 -6.5626
# 6 17.1355 21.0574 7.2008 17.5272 -6.5626 65.3510
#
#
#
# Elastic Compliance Matrix: (Units=1/GPa)
#
#
# Indices 1 2 3 4 5 6 
#
# 1 0.005570 -0.001850 0.001606 -0.000694 -0.003323 -0.001189
# 2 -0.001850 0.010545 -0.006629 0.001795 -0.000651 -0.002729
# 3 0.001606 -0.006629 0.046790 -0.007775 -0.017516 -0.003114
# 4 -0.000694 0.001795 -0.007775 0.023674 -0.004513 -0.006342
# 5 -0.003323 -0.000651 -0.017516 -0.004513 0.049212 0.009164
# 6 -0.001189 -0.002729 -0.003114 -0.006342 0.009164 0.019457
#
#
# Mechanical properties :
#
#
# Convention : Reuss Voigt Hill
#
# Bulk Modulus (GPa) = 20.34253 56.39598 38.36925
# Shear Modulus (GPa) = 26.97152 48.02894 37.50023
#
# Velocity S-wave (km/s) = 3.15574 4.21114 3.72104
# Velocity P-wave (km/s) = 4.55952 6.66843 5.71214
#
# Compressibility (1/GPa) = 0.04915809
#
# Stress axis : x y z
#
# Youngs Moduli (GPa) = 179.54756 94.82761 21.37230
#
# Poissons Ratio (x) = 0.17542 -0.03432
# Poissons Ratio (y) = 0.33214 0.14168
# Poissons Ratio (z) = -0.28832 0.62863
#
# Static dielectric constant tensor:
#      x y z
#    x 2.248630 0.009100 -0.051890 
#    y 0.009100 2.170380 -0.047420 
#    z -0.051890 -0.047420 2.442190 
# 
# From -- ./inp_files/452001.got.cif
#   From: 2010.05.17/outbox.cif.g08.bks.cpg/sg2_227_cif.got.tgz:452001.got - 2010.06.03 11:33:40.
