data_PCOD9027098
_publ_section_title
;
Structure prediction by ZEFSAII (Michael W. Deem and Ramdas Pophale) SiO2 
 PCOD9027098
Probable space group: P -1
;
_chemical_formula_sum "Si O2"
_cell_formula_units_Z 16
_cell_length_a 8.669982
_cell_length_b 9.358892
_cell_length_c 10.445750
_cell_angle_alpha 125.686164
_cell_angle_beta 68.070209
_cell_angle_gamma 104.660457
_cell_volume 637.916108
_symmetry_space_group_name_H-M "P -1"
_symmetry_group_IT_number 2
_symmetry_cell_setting 'triclinic'
loop_
_space_group_symop_operation_xyz
x,y,z
-x,-y,-z
loop_
_atom_site_type_symbol
_atom_site_label
_atom_site_fract_x
_atom_site_fract_y
_atom_site_fract_z
Si Si1 0.011034 0.763014 0.624222
Si Si2 0.316042 0.624689 0.593619
Si Si3 0.374625 0.646337 0.996896
Si Si4 0.234509 0.257026 0.103855
Si Si5 0.657797 0.097489 0.068561
Si Si6 0.106428 0.596311 0.237334
Si Si7 0.623589 0.651474 0.354573
Si Si8 0.911764 0.891887 0.353447
O O1 0.137588 0.687969 0.647039
O O2 0.053873 0.665041 0.428312
O O3 0.828186 0.721816 0.718149
O O4 0.050712 0.971232 0.700128
O O5 0.401150 0.774059 0.736519
O O6 0.427771 0.630891 0.435565
O O7 0.309614 0.452283 0.594797
O O8 0.572178 0.689595 0.954080
O O9 0.279466 0.776730 0.999594
O O10 0.347074 0.456948 0.840121
O O11 0.291483 0.661359 0.168200
O O12 0.122593 0.386035 0.124622
O O13 0.225492 0.046262 0.983746
O O14 0.500000 0.000000 0.000000
O O15 0.987615 0.698360 0.231470
O O16 0.717179 0.841626 0.412835
O O17 0.000000 0.000000 0.500000
#
# Coordination Sequence:
#
# PCOD9027098 Si02
#       8
#     2   2   2   2   2   2   2   2
#     4  11  24  41  65  97 133 171 217 270 324 386
#     4  10  22  41  68  99 131 169 218 271 325 384
#     4  10  22  41  66  97 131 170 215 269 327 385
#     4  11  22  39  66  96 130 170 218 265 319 387
#     4   9  21  39  64  94 127 167 211 262 320 383
#     4  11  23  40  64  95 131 171 216 266 324 385
#     4  10  22  42  67  95 129 169 218 271 326 388
#     4  10  24  41  62  91 128 171 215 265 324 383
#
# _framework density 25.081669000000002
#
# number of rings (size 3 to 8) (size 9 to 14) (size 15 to 20)
#    0.000    1.750    0.000    3.000    0.000   16.500 
#    0.000    0.000    0.000    0.000    0.000    0.000 
#    0.000    0.000    0.000    0.000    0.000    0.000 
#
# Total GULP energy -89351.108742 kJ/mol
# GULP energy per Si atom -5584.444296 kJ/mol
# Density = 2.502458 g / cm^3
# Si number density = 25.081669 Si / 1000 Ang^3
#
#
#
# Elastic Constant Matrix: (Units=GPa)
#
#
# Indices 1 2 3 4 5 6 
#
# 1 71.5228 26.3045 12.1174 -6.2796 -19.6689 5.3798
# 2 26.3045 128.1095 31.4331 3.6528 -28.7908 -4.1513
# 3 12.1174 31.4331 96.3955 -24.5459 -15.7838 15.6920
# 4 -6.2796 3.6528 -24.5459 48.7838 6.3154 -21.9186
# 5 -19.6689 -28.7908 -15.7838 6.3154 34.4451 4.5071
# 6 5.3798 -4.1513 15.6920 -21.9186 4.5071 54.4912
#
#
#
# Elastic Compliance Matrix: (Units=1/GPa)
#
#
# Indices 1 2 3 4 5 6 
#
# 1 0.017198 -0.001712 0.000312 0.000202 0.008831 -0.002567
# 2 -0.001712 0.010585 -0.002918 -0.003496 0.007198 -0.000186
# 3 0.000312 -0.002918 0.013620 0.005738 0.003207 -0.002132
# 4 0.000202 -0.003496 0.005738 0.029235 -0.006898 0.010391
# 5 0.008831 0.007198 0.003207 -0.006898 0.043826 -0.007647
# 6 -0.002567 -0.000186 -0.002132 0.010391 -0.007647 0.024017
#
#
# Mechanical properties :
#
#
# Convention : Reuss Voigt Hill
#
# Bulk Modulus (GPa) = 30.51935 48.41530 39.46733
# Shear Modulus (GPa) = 31.63801 42.62221 37.13011
#
# Velocity S-wave (km/s) = 3.55547 4.12677 3.85173
# Velocity P-wave (km/s) = 5.38977 6.48475 5.96245
#
# Compressibility (1/GPa) = 0.03276609
#
# Stress axis : x y z
#
# Youngs Moduli (GPa) = 58.14709 94.47767 73.42393
#
# Poissons Ratio (x) = 0.16174 -0.02289
# Poissons Ratio (y) = 0.09955 0.21423
# Poissons Ratio (z) = -0.01813 0.27565
#
# Static dielectric constant tensor:
#      x y z
#    x 1.991840 0.019700 -0.029570 
#    y 0.019700 2.004820 -0.010780 
#    z -0.029570 -0.010780 1.993570 
# 
# From -- ./inp_files/383141.got.cif
#   From: 2010.05.17/outbox.cif.g08.bks.cpg/sg2_192_cif.got.tgz:383141.got - 2010.06.03 11:33:40.
