data_PCOD9027004
_publ_section_title
;
Structure prediction by ZEFSAII (Michael W. Deem and Ramdas Pophale) SiO2 
 PCOD9027004
Probable space group: P -1
;
_chemical_formula_sum "Si O2"
_cell_formula_units_Z 16
_cell_length_a 12.186893
_cell_length_b 12.129891
_cell_length_c 14.032184
_cell_angle_alpha 134.867203
_cell_angle_beta 149.550780
_cell_angle_gamma 59.622281
_cell_volume 714.076228
_symmetry_space_group_name_H-M "P -1"
_symmetry_group_IT_number 2
_symmetry_cell_setting 'triclinic'
loop_
_space_group_symop_operation_xyz
x,y,z
-x,-y,-z
loop_
_atom_site_type_symbol
_atom_site_label
_atom_site_fract_x
_atom_site_fract_y
_atom_site_fract_z
Si Si1 0.228808 0.031918 0.748796
Si Si2 0.779555 0.029565 0.903708
Si Si3 0.431997 0.261631 0.538839
Si Si4 0.981524 0.678306 0.627795
Si Si5 0.054147 0.593413 0.996743
Si Si6 0.342440 0.524295 0.509227
Si Si7 0.765813 0.815294 0.945893
Si Si8 0.696979 0.229235 0.231254
O O1 0.207941 0.110221 0.883423
O O2 0.292459 0.868612 0.723519
O O3 0.461050 0.149042 0.951855
O O4 0.000000 0.000000 0.500000
O O5 0.732485 0.935887 0.912761
O O6 0.849045 0.221825 0.099986
O O7 0.591736 0.923580 0.625252
O O8 0.000000 0.000000 0.000000
O O9 0.687241 0.362957 0.813130
O O10 0.371562 0.351033 0.453383
O O11 0.253644 0.286039 0.498984
O O12 0.086878 0.771196 0.667281
O O13 0.000000 0.500000 0.500000
O O14 0.986871 0.760038 0.055742
O O15 0.000000 0.500000 0.000000
O O16 0.879336 0.490473 0.726822
O O17 0.307741 0.596854 0.630143
O O18 0.561654 0.647712 0.701618
#
# Coordination Sequence:
#
# PCOD9027004 Si02
#       8
#     2   2   2   2   2   2   2   2
#     4  10  23  40  65 100 131 162 219 276 324 391
#     4  10  22  41  67  91 130 179 214 267 327 384
#     4  11  23  42  65  99 132 170 221 266 325 393
#     4  11  22  43  70  91 127 180 220 264 331 393
#     4  12  24  37  64  99 131 167 212 269 328 387
#     4  11  22  39  66  97 133 167 213 272 327 386
#     4  11  21  40  65  97 133 170 218 264 333 395
#     4  10  22  41  66  94 129 173 215 269 330 391
#
# _framework density 22.406572000000001
#
# number of rings (size 3 to 8) (size 9 to 14) (size 15 to 20)
#    0.000    1.250    5.000    1.125    1.750    1.000 
#    0.000    4.375    0.000    0.000    0.000    0.000 
#    0.000    0.000    0.000    0.000    0.000    0.000 
#
# Total GULP energy -89191.101466 kJ/mol
# GULP energy per Si atom -5574.443842 kJ/mol
# Density = 2.235557 g / cm^3
# Si number density = 22.406572 Si / 1000 Ang^3
#
#
#
# Elastic Constant Matrix: (Units=GPa)
#
#
# Indices 1 2 3 4 5 6 
#
# 1 121.1561 7.6861 45.5653 -4.9223 20.1644 -20.0183
# 2 7.6861 49.4091 44.4111 7.6255 -10.5685 -20.1452
# 3 45.5653 44.4111 159.9131 -10.5788 4.3910 -12.4429
# 4 -4.9223 7.6255 -10.5788 45.9130 -15.7640 -9.3989
# 5 20.1644 -10.5685 4.3910 -15.7640 34.0726 0.6923
# 6 -20.0183 -20.1452 -12.4429 -9.3989 0.6923 29.1494
#
#
#
# Elastic Compliance Matrix: (Units=1/GPa)
#
#
# Indices 1 2 3 4 5 6 
#
# 1 0.011852 0.004176 -0.003658 -0.000219 -0.005542 0.009525
# 2 0.004176 0.044020 -0.011524 0.000492 0.012322 0.028238
# 3 -0.003658 -0.011524 0.010274 0.002256 -0.001582 -0.005326
# 4 -0.000219 0.000492 0.002256 0.028761 0.013092 0.010116
# 5 -0.005542 0.012322 -0.001582 0.013092 0.042565 0.007245
# 6 0.009525 0.028238 -0.005326 0.010116 0.007245 0.061179
#
#
# Mechanical properties :
#
#
# Convention : Reuss Voigt Hill
#
# Bulk Modulus (GPa) = 22.65759 58.42260 40.54010
# Shear Modulus (GPa) = 21.24278 37.34805 29.29542
#
# Velocity S-wave (km/s) = 3.08240 4.08712 3.61979
# Velocity P-wave (km/s) = 4.77517 6.95724 5.96680
#
# Compressibility (1/GPa) = 0.04413531
#
# Stress axis : x y z
#
# Youngs Moduli (GPa) = 84.37459 22.71673 97.32924
#
# Poissons Ratio (x) = -0.09487 0.35603
# Poissons Ratio (y) = -0.35237 1.12161
# Poissons Ratio (z) = 0.30864 0.26179
#
# Static dielectric constant tensor:
#      x y z
#    x 1.905930 -0.014700 -0.006800 
#    y -0.014700 1.876170 0.090090 
#    z -0.006800 0.090090 1.910830 
# 
# From -- ./inp_files/522555.got.cif
#   From: 2010.05.17/outbox.cif.g08.bks.cpg/sg2_262_cif.got.tgz:522555.got - 2010.06.03 11:33:40.
