data_PCOD9027979
_publ_section_title
;
Structure prediction by ZEFSAII (Michael W. Deem and Ramdas Pophale) SiO2 
 PCOD9027979
Probable space group: P -1
;
_chemical_formula_sum "Si O2"
_cell_formula_units_Z 16
_cell_length_a 12.396901
_cell_length_b 8.274083
_cell_length_c 21.108533
_cell_angle_alpha 36.641748
_cell_angle_beta 141.391835
_cell_angle_gamma 143.370183
_cell_volume 711.165136
_symmetry_space_group_name_H-M "P -1"
_symmetry_group_IT_number 2
_symmetry_cell_setting 'triclinic'
loop_
_space_group_symop_operation_xyz
x,y,z
-x,-y,-z
loop_
_atom_site_type_symbol
_atom_site_label
_atom_site_fract_x
_atom_site_fract_y
_atom_site_fract_z
Si Si1 0.626566 0.987217 0.366627
Si Si2 0.605277 0.073861 0.106982
Si Si3 0.819632 0.195015 0.043111
Si Si4 0.841286 0.492837 0.480060
Si Si5 0.888463 0.165027 0.317471
Si Si6 0.128589 0.019641 0.278294
Si Si7 0.275372 0.373329 0.367643
Si Si8 0.512333 0.380851 0.272190
O O1 0.819309 0.153746 0.360535
O O2 0.462283 0.703630 0.340826
O O3 0.661519 0.829413 0.494609
O O4 0.555855 0.226372 0.281217
O O5 0.730182 0.191793 0.190822
O O6 0.589960 0.740793 0.191228
O O7 0.730993 0.269334 0.042953
O O8 0.378027 0.995834 0.028754
O O9 0.920439 0.985733 0.174294
O O10 0.000000 0.500000 0.000000
O O11 0.879928 0.833312 0.406425
O O12 0.629218 0.333832 0.399678
O O13 0.000000 0.500000 0.500000
O O14 0.852365 0.285704 0.606217
O O15 0.105310 0.401443 0.319945
O O16 0.190024 0.204729 0.315210
O O17 0.286083 0.220527 0.235584
#
# Coordination Sequence:
#
# PCOD9027979 Si02
#       8
#     2   2   2   2   2   2   2   2
#     4  11  25  37  57  90 139 167 202 236 305 391
#     4  10  22  41  70  93 119 155 212 265 310 360
#     4  11  22  40  66 100 116 151 210 274 313 352
#     4  11  20  35  61  92 125 159 206 258 309 366
#     4  11  22  41  62  93 129 167 199 250 315 373
#     4  12  21  38  65  90 126 160 208 263 310 355
#     4  11  22  39  57  91 126 174 200 245 307 373
#     4  11  22  39  59  96 126 163 205 253 310 371
#
# _framework density 22.498290999999998
#
# number of rings (size 3 to 8) (size 9 to 14) (size 15 to 20)
#    0.000    1.000    5.000    3.000    3.500    0.000 
#    2.250    0.000    0.000    6.000    0.000    0.000 
#    0.000    0.000    0.000    0.000    0.000    0.000 
#
# Total GULP energy -89508.957920 kJ/mol
# GULP energy per Si atom -5594.309870 kJ/mol
# Density = 2.244708 g / cm^3
# Si number density = 22.498291 Si / 1000 Ang^3
#
#
#
# Elastic Constant Matrix: (Units=GPa)
#
#
# Indices 1 2 3 4 5 6 
#
# 1 104.0719 17.3997 1.5602 -1.1475 7.9755 18.8262
# 2 17.3997 71.0233 21.2975 13.1389 3.8794 19.3404
# 3 1.5602 21.2975 98.1034 23.5505 13.1471 6.1894
# 4 -1.1475 13.1389 23.5505 25.5494 17.3028 2.8342
# 5 7.9755 3.8794 13.1471 17.3028 31.1596 4.2384
# 6 18.8262 19.3404 6.1894 2.8342 4.2384 36.4851
#
#
#
# Elastic Compliance Matrix: (Units=1/GPa)
#
#
# Indices 1 2 3 4 5 6 
#
# 1 0.011253 -0.002311 -0.000090 0.005753 -0.005149 -0.004415
# 2 -0.002311 0.019376 -0.001595 -0.012274 0.006844 -0.008650
# 3 -0.000090 -0.001595 0.013372 -0.012546 0.001627 -0.000591
# 4 0.005753 -0.012274 -0.012546 0.085869 -0.042875 0.003976
# 5 -0.005149 0.006844 0.001627 -0.042875 0.056287 -0.004455
# 6 -0.004415 -0.008650 -0.000591 0.003976 -0.004455 0.034581
#
#
# Mechanical properties :
#
#
# Convention : Reuss Voigt Hill
#
# Bulk Modulus (GPa) = 27.76945 39.30149 33.53547
# Shear Modulus (GPa) = 20.76992 34.16822 27.46907
#
# Velocity S-wave (km/s) = 3.04168 3.90128 3.49799
# Velocity P-wave (km/s) = 4.97046 6.14816 5.59041
#
# Compressibility (1/GPa) = 0.03601080
#
# Stress axis : x y z
#
# Youngs Moduli (GPa) = 88.86417 51.60915 74.78320
#
# Poissons Ratio (x) = 0.11925 0.00672
# Poissons Ratio (y) = 0.20534 0.11926
# Poissons Ratio (z) = 0.00799 0.08231
#
# Static dielectric constant tensor:
#      x y z
#    x 1.836070 0.022490 -0.030580 
#    y 0.022490 1.842590 0.003570 
#    z -0.030580 0.003570 1.902180 
# 
# From -- ./inp_files/255917.got.cif
#   From: 2010.05.17/outbox.cif.g08.bks.cpg/sg2_128_cif.got.tgz:255917.got - 2010.06.03 11:33:40.
