data_PCOD9027309
_publ_section_title
;
Structure prediction by ZEFSAII (Michael W. Deem and Ramdas Pophale) SiO2 
 PCOD9027309
Probable space group: P -1
;
_chemical_formula_sum "Si O2"
_cell_formula_units_Z 12
_cell_length_a 11.786220
_cell_length_b 9.850604
_cell_length_c 9.051854
_cell_angle_alpha 109.642872
_cell_angle_beta 139.843183
_cell_angle_gamma 53.157330
_cell_volume 526.971571
_symmetry_space_group_name_H-M "P -1"
_symmetry_group_IT_number 2
_symmetry_cell_setting 'triclinic'
loop_
_space_group_symop_operation_xyz
x,y,z
-x,-y,-z
loop_
_atom_site_type_symbol
_atom_site_label
_atom_site_fract_x
_atom_site_fract_y
_atom_site_fract_z
Si Si1 0.662040 0.217446 0.132017
Si Si2 0.642341 0.807585 0.996308
Si Si3 0.464473 0.244038 0.658234
Si Si4 0.911528 0.431327 0.767081
Si Si5 0.069037 0.874669 0.351603
Si Si6 0.658268 0.015337 0.493658
O O1 0.820544 0.209323 0.410225
O O2 0.452354 0.283489 0.042609
O O3 0.572543 0.294230 0.909236
O O4 0.816462 0.010704 0.166411
O O5 0.894949 0.683776 0.198699
O O6 0.556840 0.844636 0.757569
O O7 0.500000 0.000000 0.000000
O O8 0.635650 0.090772 0.662382
O O9 0.296733 0.413118 0.461221
O O10 0.339590 0.159746 0.567685
O O11 0.875267 0.289999 0.749385
O O12 0.000000 0.500000 0.000000
O O13 0.161640 0.980083 0.414931
#
# Coordination Sequence:
#
# PCOD9027309 Si02
#       6
#     2   2   2   2   2   2
#     4  10  22  41  68  94 128 176 222 262 315 401
#     4  11  19  42  70  88 129 181 213 250 334 401
#     4  11  23  41  65  99 135 167 218 272 326 380
#     4  12  25  43  67 100 132 171 217 274 330 382
#     4  10  23  42  69  94 128 177 223 257 326 393
#     4  10  22  41  67  95 130 178 214 262 324 398
#
# _framework density 22.771623999999999
#
# number of rings (size 3 to 8) (size 9 to 14) (size 15 to 20)
#    0.000    1.333    5.000    0.000    2.333    2.667 
#    0.000    0.000    0.000    0.000    0.000    0.000 
#    0.000    0.000    0.000    0.000    0.000    0.000 
#
# Total GULP energy -66842.063070 kJ/mol
# GULP energy per Si atom -5570.171922 kJ/mol
# Density = 2.271980 g / cm^3
# Si number density = 22.771624 Si / 1000 Ang^3
#
#
#
# Elastic Constant Matrix: (Units=GPa)
#
#
# Indices 1 2 3 4 5 6 
#
# 1 74.7599 16.0673 14.1362 7.4495 11.7541 1.7179
# 2 16.0673 58.0780 -7.2301 2.3205 4.2407 3.0693
# 3 14.1362 -7.2301 64.8134 5.8139 -7.1582 -5.6200
# 4 7.4495 2.3205 5.8139 29.4780 -11.0785 1.5444
# 5 11.7541 4.2407 -7.1582 -11.0785 33.5541 0.5156
# 6 1.7179 3.0693 -5.6200 1.5444 0.5156 23.1832
#
#
#
# Elastic Compliance Matrix: (Units=1/GPa)
#
#
# Indices 1 2 3 4 5 6 
#
# 1 0.017204 -0.004415 -0.004735 -0.006198 -0.008506 -0.001236
# 2 -0.004415 0.018970 0.002998 -0.001106 -0.000555 -0.001372
# 3 -0.004735 0.002998 0.017769 -0.001009 0.004673 0.004225
# 4 -0.006198 -0.001106 -0.001009 0.041928 0.015982 -0.002788
# 5 -0.008506 -0.000555 0.004673 0.015982 0.039128 -0.000098
# 6 -0.001236 -0.001372 0.004225 -0.002788 -0.000098 0.044620
#
#
# Mechanical properties :
#
#
# Convention : Reuss Voigt Hill
#
# Bulk Modulus (GPa) = 24.01631 27.06645 25.54138
# Shear Modulus (GPa) = 24.29508 28.88826 26.59167
#
# Velocity S-wave (km/s) = 3.26989 3.56562 3.42095
# Velocity P-wave (km/s) = 4.98254 5.37246 5.18117
#
# Compressibility (1/GPa) = 0.04163837
#
# Stress axis : x y z
#
# Youngs Moduli (GPa) = 58.12665 52.71470 56.27759
#
# Poissons Ratio (x) = 0.23273 0.26650
# Poissons Ratio (y) = 0.25662 -0.16872
# Poissons Ratio (z) = 0.27525 -0.15804
#
# Static dielectric constant tensor:
#      x y z
#    x 1.900560 0.037640 -0.026170 
#    y 0.037640 1.930390 0.069720 
#    z -0.026170 0.069720 1.838330 
# 
# From -- ./inp_files/146223.got.cif
#   From: 2010.05.17/outbox.cif.g08.bks.cpg/sg2_74_cif.got.tgz:146223.got - 2010.06.03 11:33:40.
