data_PCOD9027753
_publ_section_title
;
Structure prediction by ZEFSAII (Michael W. Deem and Ramdas Pophale) SiO2 
 PCOD9027753
Probable space group: P -1
;
_chemical_formula_sum "Si O2"
_cell_formula_units_Z 16
_cell_length_a 15.038574
_cell_length_b 5.542336
_cell_length_c 17.262437
_cell_angle_alpha 108.145697
_cell_angle_beta 142.271426
_cell_angle_gamma 54.297860
_cell_volume 681.559822
_symmetry_space_group_name_H-M "P -1"
_symmetry_group_IT_number 2
_symmetry_cell_setting 'triclinic'
loop_
_space_group_symop_operation_xyz
x,y,z
-x,-y,-z
loop_
_atom_site_type_symbol
_atom_site_label
_atom_site_fract_x
_atom_site_fract_y
_atom_site_fract_z
Si Si1 0.914164 0.837443 0.773698
Si Si2 0.450443 0.010011 0.745550
Si Si3 0.817101 0.086251 0.106764
Si Si4 0.154740 0.375392 0.030280
Si Si5 0.975169 0.662222 0.317105
Si Si6 0.476491 0.724809 0.436440
Si Si7 0.635464 0.723677 0.121780
Si Si8 0.294006 0.614842 0.588724
O O1 0.891029 0.641569 0.673597
O O2 0.993452 0.979618 0.790642
O O3 0.730184 0.086364 0.712312
O O4 0.061079 0.612304 0.916709
O O5 0.648604 0.719430 0.824343
O O6 0.339629 0.859307 0.667834
O O7 0.453209 0.157020 0.843850
O O8 0.368959 0.303445 0.660703
O O9 0.673557 0.433669 0.069179
O O10 0.847468 0.900317 0.186688
O O11 0.788334 0.955915 0.996966
O O12 0.000000 0.500000 0.000000
O O13 0.084867 0.761671 0.448068
O O14 0.837248 0.626920 0.264702
O O15 0.500000 0.500000 0.500000
O O16 0.610576 0.509982 0.440699
O O17 0.500000 0.000000 0.500000
O O18 0.500000 0.000000 0.000000
#
# Coordination Sequence:
#
# PCOD9027753 Si02
#       8
#     2   2   2   2   2   2   2   2
#     4  10  22  41  69 105 135 192 240 303 362 435
#     4  12  30  48  73 109 150 199 243 307 377 436
#     4  10  23  43  77  99 139 185 248 306 364 436
#     4  11  26  46  70 106 147 188 246 308 381 439
#     4  10  23  44  72 105 140 186 245 299 367 438
#     4  12  24  42  74 105 149 197 247 293 360 447
#     4  11  26  48  77 105 140 192 260 306 366 441
#     4  12  28  47  70 110 157 191 245 303 373 444
#
# _framework density 23.475560000000002
#
# number of rings (size 3 to 8) (size 9 to 14) (size 15 to 20)
#    0.000    1.000    1.250    4.500   12.250    2.500 
#    0.000    0.000    0.000    0.000    0.000    0.000 
#    0.000    0.000    0.000    0.000    0.000    0.000 
#
# Total GULP energy -89298.945816 kJ/mol
# GULP energy per Si atom -5581.184114 kJ/mol
# Density = 2.342213 g / cm^3
# Si number density = 23.475560 Si / 1000 Ang^3
#
#
#
# Elastic Constant Matrix: (Units=GPa)
#
#
# Indices 1 2 3 4 5 6 
#
# 1 102.7505 30.6087 33.7805 -4.2484 3.5249 -13.1775
# 2 30.6087 107.4299 23.0461 18.0673 7.4010 -6.6097
# 3 33.7805 23.0461 72.0898 9.5029 15.2850 0.7452
# 4 -4.2484 18.0673 9.5029 26.8937 1.6289 2.6270
# 5 3.5249 7.4010 15.2850 1.6289 42.6563 -4.1130
# 6 -13.1775 -6.6097 0.7452 2.6270 -4.1130 42.2358
#
#
#
# Elastic Compliance Matrix: (Units=1/GPa)
#
#
# Indices 1 2 3 4 5 6 
#
# 1 0.013557 -0.003429 -0.006529 0.006284 0.001922 0.003604
# 2 -0.003429 0.012040 -0.000934 -0.008360 -0.001031 0.001250
# 3 -0.006529 -0.000934 0.019465 -0.006635 -0.006283 -0.002726
# 4 0.006284 -0.008360 -0.006635 0.046248 0.001352 -0.001975
# 5 0.001922 -0.001031 -0.006283 0.001352 0.025951 0.002992
# 6 0.003604 0.001250 -0.002726 -0.001975 0.002992 0.025459
#
#
# Mechanical properties :
#
#
# Convention : Reuss Voigt Hill
#
# Bulk Modulus (GPa) = 42.96439 50.79343 46.87891
# Shear Modulus (GPa) = 29.02529 35.34614 32.18571
#
# Velocity S-wave (km/s) = 3.52007 3.88449 3.70676
# Velocity P-wave (km/s) = 5.90446 6.46550 6.19134
#
# Compressibility (1/GPa) = 0.02327509
#
# Stress axis : x y z
#
# Youngs Moduli (GPa) = 73.76465 83.05810 51.37511
#
# Poissons Ratio (x) = 0.28483 0.33544
# Poissons Ratio (y) = 0.25296 0.04800
# Poissons Ratio (z) = 0.48163 0.07761
#
# Static dielectric constant tensor:
#      x y z
#    x 1.859080 -0.037750 -0.014620 
#    y -0.037750 1.819660 -0.089180 
#    z -0.014620 -0.089180 1.831990 
# 
# From -- ./inp_files/571724.got.cif
#   From: 2010.05.17/outbox.cif.g08.bks.cpg/sg2_286_cif.got.tgz:571724.got - 2010.06.03 11:33:40.
