data_PCOD9027015
_publ_section_title
;
Structure prediction by ZEFSAII (Michael W. Deem and Ramdas Pophale) SiO2 
 PCOD9027015
Probable space group: P -1
;
_chemical_formula_sum "Si O2"
_cell_formula_units_Z 16
_cell_length_a 6.178764
_cell_length_b 11.555010
_cell_length_c 19.531871
_cell_angle_alpha 144.466846
_cell_angle_beta 119.607807
_cell_angle_gamma 57.820618
_cell_volume 680.709306
_symmetry_space_group_name_H-M "P -1"
_symmetry_group_IT_number 2
_symmetry_cell_setting 'triclinic'
loop_
_space_group_symop_operation_xyz
x,y,z
-x,-y,-z
loop_
_atom_site_type_symbol
_atom_site_label
_atom_site_fract_x
_atom_site_fract_y
_atom_site_fract_z
Si Si1 0.613348 0.020258 0.722271
Si Si2 0.256391 0.168747 0.073819
Si Si3 0.285791 0.801680 0.314672
Si Si4 0.822263 0.258000 0.344571
Si Si5 0.126596 0.423681 0.056630
Si Si6 0.847088 0.194445 0.468781
Si Si7 0.460872 0.934082 0.113331
Si Si8 0.443347 0.554500 0.339828
O O1 0.609510 0.170382 0.730233
O O2 0.587846 0.112221 0.838256
O O3 0.383951 0.916607 0.622382
O O4 0.887575 0.852719 0.682785
O O5 0.057451 0.267449 0.028650
O O6 0.365974 0.361614 0.202776
O O7 0.223969 0.065604 0.093028
O O8 0.500000 0.000000 0.000000
O O9 0.119296 0.636468 0.196389
O O10 0.484589 0.702897 0.357323
O O11 0.108557 0.016183 0.417350
O O12 0.814227 0.316999 0.451460
O O13 0.691862 0.458128 0.377301
O O14 0.659231 0.084551 0.223695
O O15 0.403001 0.277863 0.005600
O O16 0.000000 0.500000 0.000000
O O17 0.792478 0.330036 0.593078
#
# Coordination Sequence:
#
# PCOD9027015 Si02
#       8
#     2   2   2   2   2   2   2   2
#     4  10  20  35  53  78 112 146 179 219 267 315
#     4   8  17  33  55  78 103 135 172 217 266 314
#     4  10  22  37  53  79 114 143 178 225 266 316
#     4   9  19  36  56  80 110 139 179 229 266 311
#     4  10  17  31  57  81 103 139 179 219 269 317
#     4  10  20  36  56  78 108 146 183 219 265 318
#     4   9  18  35  56  77 107 144 177 216 269 321
#     4  10  19  35  58  80 107 144 180 220 270 318
#
# _framework density 23.504897
#
# number of rings (size 3 to 8) (size 9 to 14) (size 15 to 20)
#    0.000    2.500    0.000    3.000    0.000    1.500 
#    0.000   10.000    0.000   30.750    0.000    0.000 
#    0.000    0.000    0.000    0.000    0.000    0.000 
#
# Total GULP energy -89252.359207 kJ/mol
# GULP energy per Si atom -5578.272450 kJ/mol
# Density = 2.345140 g / cm^3
# Si number density = 23.504897 Si / 1000 Ang^3
#
#
#
# Elastic Constant Matrix: (Units=GPa)
#
#
# Indices 1 2 3 4 5 6 
#
# 1 28.9959 15.3272 23.8269 -1.4396 -3.3299 4.5992
# 2 15.3272 216.9102 23.9906 0.4918 -11.7626 36.7141
# 3 23.8269 23.9906 119.4262 -0.6813 -18.0802 10.4834
# 4 -1.4396 0.4918 -0.6813 9.0129 4.5306 -13.6693
# 5 -3.3299 -11.7626 -18.0802 4.5306 30.4386 -17.6266
# 6 4.5992 36.7141 10.4834 -13.6693 -17.6266 5.4195
#
#
#
# Elastic Compliance Matrix: (Units=1/GPa)
#
#
# Indices 1 2 3 4 5 6 
#
# 1 0.042596 -0.002004 -0.008350 0.005482 -0.002718 -0.001428
# 2 -0.002004 0.003892 -0.000341 0.007279 0.003701 0.006394
# 3 -0.008350 -0.000341 0.010990 -0.003071 0.006128 0.000326
# 4 0.005482 0.007279 -0.003071 0.045262 -0.037527 -0.055914
# 5 -0.002718 0.003701 0.006128 -0.037527 0.035825 -0.012756
# 6 -0.001428 0.006394 0.000326 -0.055914 -0.012756 -0.040730
#
#
# Mechanical properties :
#
#
# Convention : Reuss Voigt Hill
#
# Bulk Modulus (GPa) = 27.71278 54.62463 41.16871
# Shear Modulus (GPa) = 38.09419 29.12004 33.60711
#
# Velocity S-wave (km/s) = 4.03015 3.52361 3.78536
# Velocity P-wave (km/s) = 5.78549 6.31225 6.05461
#
# Compressibility (1/GPa) = 0.03608443
#
# Stress axis : x y z
#
# Youngs Moduli (GPa) = 23.47659 256.96694 90.99540
#
# Poissons Ratio (x) = 0.51507 0.75986
# Poissons Ratio (y) = 0.04706 0.03105
# Poissons Ratio (z) = 0.19604 0.08769
#
# Static dielectric constant tensor:
#      x y z
#    x 1.947500 0.040590 0.018220 
#    y 0.040590 1.979140 -0.056370 
#    z 0.018220 -0.056370 1.867260 
# 
# From -- ./inp_files/370093.got.cif
#   From: 2010.05.17/outbox.cif.g08.bks.cpg/sg2_186_cif.got.tgz:370093.got - 2010.06.03 11:33:40.
