data_PCOD9027087
_publ_section_title
;
Structure prediction by ZEFSAII (Michael W. Deem and Ramdas Pophale) SiO2 
 PCOD9027087
Probable space group: P -1
;
_chemical_formula_sum "Si O2"
_cell_formula_units_Z 14
_cell_length_a 14.165382
_cell_length_b 10.758187
_cell_length_c 8.482642
_cell_angle_alpha 40.589988
_cell_angle_beta 104.234201
_cell_angle_gamma 125.012846
_cell_volume 643.684331
_symmetry_space_group_name_H-M "P -1"
_symmetry_group_IT_number 2
_symmetry_cell_setting 'triclinic'
loop_
_space_group_symop_operation_xyz
x,y,z
-x,-y,-z
loop_
_atom_site_type_symbol
_atom_site_label
_atom_site_fract_x
_atom_site_fract_y
_atom_site_fract_z
Si Si1 0.586094 0.004885 0.659965
Si Si2 0.581731 0.257811 0.876004
Si Si3 0.007703 0.281722 0.687572
Si Si4 0.801953 0.642080 0.768375
Si Si5 0.709712 0.514062 0.382132
Si Si6 0.005546 0.958764 0.779299
Si Si7 0.352399 0.299379 0.114072
O O1 0.672050 0.954791 0.660646
O O2 0.500000 0.000000 0.500000
O O3 0.654961 0.258395 0.527359
O O4 0.509117 0.802543 0.959535
O O5 0.713206 0.377143 0.905742
O O6 0.631527 0.455218 0.566869
O O7 0.500000 0.000000 0.000000
O O8 0.149307 0.378731 0.637295
O O9 0.952200 0.097153 0.693259
O O10 0.000000 0.500000 0.500000
O O11 0.956184 0.122608 0.978180
O O12 0.882680 0.850484 0.471603
O O13 0.711198 0.676124 0.788656
O O14 0.902867 0.716810 0.872251
O O15 0.691040 0.653812 0.110469
O O16 0.500000 0.500000 0.000000
#
# Coordination Sequence:
#
# PCOD9027087 Si02
#       7
#     2   2   2   2   2   2   2
#     4  11  23  41  64  97 130 171 221 270 333 400
#     4  10  22  41  66  96 137 178 220 278 338 401
#     4  11  24  45  69  99 130 176 230 280 343 390
#     4  11  21  44  67  97 136 181 223 277 335 406
#     4  11  23  43  65  92 137 171 221 282 330 407
#     4  10  24  44  70  95 138 176 227 282 331 401
#     4  12  23  41  69  95 132 181 216 273 343 398
#
# _framework density 21.749790999999998
#
# number of rings (size 3 to 8) (size 9 to 14) (size 15 to 20)
#    0.000    1.143    5.714    0.000    2.000    0.571 
#    2.571    2.857    0.000    0.000    0.000    0.000 
#    0.000    0.000    0.000    0.000    0.000    0.000 
#
# Total GULP energy -78016.264032 kJ/mol
# GULP energy per Si atom -5572.590288 kJ/mol
# Density = 2.170029 g / cm^3
# Si number density = 21.749791 Si / 1000 Ang^3
#
#
#
# Elastic Constant Matrix: (Units=GPa)
#
#
# Indices 1 2 3 4 5 6 
#
# 1 83.6827 15.8423 51.2969 14.2773 -4.0438 -1.1694
# 2 15.8423 138.5058 20.7729 -7.0795 -3.2759 3.7054
# 3 51.2969 20.7729 89.6075 15.2601 -4.4142 -12.9166
# 4 14.2773 -7.0795 15.2601 32.4085 -8.8951 -11.5866
# 5 -4.0438 -3.2759 -4.4142 -8.8951 40.4386 -5.6425
# 6 -1.1694 3.7054 -12.9166 -11.5866 -5.6425 31.8879
#
#
#
# Elastic Compliance Matrix: (Units=1/GPa)
#
#
# Indices 1 2 3 4 5 6 
#
# 1 0.019788 -0.000803 -0.011035 -0.006354 -0.001559 -0.006235
# 2 -0.000803 0.007783 -0.001877 0.003052 0.000959 -0.000415
# 3 -0.011035 -0.001877 0.019317 -0.001609 0.001521 0.007322
# 4 -0.006354 0.003052 -0.001609 0.044285 0.011535 0.016893
# 5 -0.001559 0.000959 0.001521 0.011535 0.028710 0.009719
# 6 -0.006235 -0.000415 0.007322 0.016893 0.009719 0.042003
#
#
# Mechanical properties :
#
#
# Convention : Reuss Voigt Hill
#
# Bulk Modulus (GPa) = 51.39555 54.18001 52.78778
# Shear Modulus (GPa) = 25.53598 35.87259 30.70428
#
# Velocity S-wave (km/s) = 3.43020 4.06560 3.76134
# Velocity P-wave (km/s) = 6.27456 6.85591 6.57166
#
# Compressibility (1/GPa) = 0.01945694
#
# Stress axis : x y z
#
# Youngs Moduli (GPa) = 50.53558 128.48358 51.76901
#
# Poissons Ratio (x) = 0.10319 0.57128
# Poissons Ratio (y) = 0.04059 0.09717
# Poissons Ratio (z) = 0.55767 0.24117
#
# Static dielectric constant tensor:
#      x y z
#    x 1.729690 -0.084030 -0.028450 
#    y -0.084030 1.831510 -0.006510 
#    z -0.028450 -0.006510 1.796140 
# 
# From -- ./inp_files/306294.got.cif
#   From: 2010.05.17/outbox.cif.g08.bks.cpg/sg2_154_cif.got.tgz:306294.got - 2010.06.03 11:33:40.
