data_PCOD9027759
_publ_section_title
;
Structure prediction by ZEFSAII (Michael W. Deem and Ramdas Pophale) SiO2 
 PCOD9027759
Probable space group: P -1
;
_chemical_formula_sum "Si O2"
_cell_formula_units_Z 14
_cell_length_a 20.218253
_cell_length_b 5.626865
_cell_length_c 5.249752
_cell_angle_alpha 77.929026
_cell_angle_beta 108.626967
_cell_angle_gamma 102.069851
_cell_volume 546.876705
_symmetry_space_group_name_H-M "P -1"
_symmetry_group_IT_number 2
_symmetry_cell_setting 'triclinic'
loop_
_space_group_symop_operation_xyz
x,y,z
-x,-y,-z
loop_
_atom_site_type_symbol
_atom_site_label
_atom_site_fract_x
_atom_site_fract_y
_atom_site_fract_z
Si Si1 0.549253 0.046165 0.297486
Si Si2 0.419966 0.466966 0.508047
Si Si3 0.092131 0.944862 0.399275
Si Si4 0.040182 0.353464 0.883404
Si Si5 0.774731 0.275584 0.566353
Si Si6 0.166231 0.304576 0.763451
Si Si7 0.291826 0.610678 0.038886
O O1 0.596780 0.825874 0.393582
O O2 0.500000 0.000000 0.500000
O O3 0.582082 0.334037 0.311524
O O4 0.500000 0.000000 0.000000
O O5 0.500000 0.500000 0.500000
O O6 0.367840 0.549811 0.214948
O O7 0.158433 0.859065 0.359060
O O8 0.019845 0.755370 0.368049
O O9 0.121475 0.049940 0.683639
O O10 0.067245 0.148892 0.140297
O O11 0.111942 0.459834 0.800128
O O12 0.000000 0.500000 0.000000
O O13 0.808392 0.562675 0.501007
O O14 0.734843 0.247326 0.786883
O O15 0.722650 0.241264 0.265615
O O16 0.238090 0.352317 0.998973
#
# Coordination Sequence:
#
# PCOD9027759 Si02
#       7
#     2   2   2   2   2   2   2
#     4  10  22  41  69 105 143 183 226 295 356 425
#     4  10  23  46  76 107 149 186 247 298 367 423
#     4  11  23  39  67  99 127 186 224 292 338 421
#     4  11  24  40  67  97 139 171 235 282 359 399
#     4  10  25  45  66  93 140 175 235 269 353 408
#     4  10  23  42  64  92 141 169 234 272 355 402
#     4  10  24  45  68  99 133 187 223 293 345 427
#
# _framework density 25.599924000000001
#
# number of rings (size 3 to 8) (size 9 to 14) (size 15 to 20)
#    0.857    0.857    0.000    3.429    2.000    9.143 
#    2.571    0.000    0.000    0.000    0.000    0.000 
#    0.000    0.000    0.000    0.000    0.000    0.000 
#
# Total GULP energy -78221.298645 kJ/mol
# GULP energy per Si atom -5587.235617 kJ/mol
# Density = 2.554166 g / cm^3
# Si number density = 25.599924 Si / 1000 Ang^3
#
#
#
# Elastic Constant Matrix: (Units=GPa)
#
#
# Indices 1 2 3 4 5 6 
#
# 1 125.1209 29.6724 61.2774 3.4244 25.3724 -20.5869
# 2 29.6724 130.6436 48.8520 9.8615 14.3532 -17.7694
# 3 61.2774 48.8520 174.4977 20.5162 25.9630 -13.2039
# 4 3.4244 9.8615 20.5162 41.5752 -5.4744 8.1708
# 5 25.3724 14.3532 25.9630 -5.4744 60.4976 -9.2125
# 6 -20.5869 -17.7694 -13.2039 8.1708 -9.2125 31.5137
#
#
#
# Elastic Compliance Matrix: (Units=1/GPa)
#
#
# Indices 1 2 3 4 5 6 
#
# 1 0.010857 -0.000364 -0.002859 -0.000740 -0.002524 0.005144
# 2 -0.000364 0.009278 -0.001722 -0.002340 -0.000815 0.004641
# 3 -0.002859 -0.001722 0.008032 -0.003767 -0.002042 0.000906
# 4 -0.000740 -0.002340 -0.003767 0.028934 0.003604 -0.009830
# 5 -0.002524 -0.000815 -0.002042 0.003604 0.019247 0.001728
# 6 0.005144 0.004641 0.000906 -0.009830 0.001728 0.041143
#
#
# Mechanical properties :
#
#
# Convention : Reuss Voigt Hill
#
# Bulk Modulus (GPa) = 54.71274 78.87400 66.79337
# Shear Modulus (GPa) = 37.46028 46.08133 41.77080
#
# Velocity S-wave (km/s) = 3.82946 4.24731 4.04378
# Velocity P-wave (km/s) = 6.40091 7.41148 6.92465
#
# Compressibility (1/GPa) = 0.01827728
#
# Stress axis : x y z
#
# Youngs Moduli (GPa) = 92.10531 107.77615 124.49994
#
# Poissons Ratio (x) = 0.03924 0.35594
# Poissons Ratio (y) = 0.03354 0.21441
# Poissons Ratio (z) = 0.26332 0.18561
#
# Static dielectric constant tensor:
#      x y z
#    x 2.155430 0.222730 -0.057810 
#    y 0.222730 2.285890 -0.031540 
#    z -0.057810 -0.031540 2.005210 
# 
# From -- ./inp_files/121291.got.cif
#   From: 2010.05.17/outbox.cif.g08.bks.cpg/sg2_61_cif.got.tgz:121291.got - 2010.06.03 11:33:40.
