data_PCOD9027623
_publ_section_title
;
Structure prediction by ZEFSAII (Michael W. Deem and Ramdas Pophale) SiO2 
 PCOD9027623
Probable space group: P -1
;
_chemical_formula_sum "Si O2"
_cell_formula_units_Z 14
_cell_length_a 12.559418
_cell_length_b 6.656452
_cell_length_c 15.953822
_cell_angle_alpha 136.905959
_cell_angle_beta 44.802342
_cell_angle_gamma 125.570003
_cell_volume 636.481865
_symmetry_space_group_name_H-M "P -1"
_symmetry_group_IT_number 2
_symmetry_cell_setting 'triclinic'
loop_
_space_group_symop_operation_xyz
x,y,z
-x,-y,-z
loop_
_atom_site_type_symbol
_atom_site_label
_atom_site_fract_x
_atom_site_fract_y
_atom_site_fract_z
Si Si1 0.191868 0.313946 0.837213
Si Si2 0.925762 0.278211 0.845840
Si Si3 0.461229 0.701013 0.715149
Si Si4 0.665547 0.245703 0.454483
Si Si5 0.384431 0.852021 0.351975
Si Si6 0.371653 0.171515 0.164522
Si Si7 0.887285 0.783257 0.440457
O O1 0.297929 0.575513 0.806815
O O2 0.040688 0.212916 0.836339
O O3 0.287026 0.040057 0.704386
O O4 0.149713 0.446746 0.989929
O O5 0.027427 0.329912 0.721982
O O6 0.791484 0.016828 0.818770
O O7 0.532127 0.424472 0.550288
O O8 0.575104 0.798408 0.759071
O O9 0.477223 0.968469 0.722686
O O10 0.618614 0.155919 0.547981
O O11 0.811722 0.497129 0.446208
O O12 0.371942 0.503858 0.230572
O O13 0.241886 0.020771 0.457964
O O14 0.500000 0.000000 0.000000
O O15 0.000000 0.000000 0.500000
#
# Coordination Sequence:
#
# PCOD9027623 Si02
#       7
#     2   2   2   2   2   2   2
#     4  11  23  43  66  97 141 179 213 275 338 401
#     4  11  24  43  66  97 139 173 221 275 339 399
#     4  10  22  44  69 101 128 178 230 271 331 399
#     4  10  22  41  68  97 131 178 222 273 330 396
#     4  10  22  41  70  96 131 171 226 287 323 385
#     4  11  23  45  69  96 131 175 229 282 330 392
#     4  11  23  42  69 102 132 175 230 271 334 402
#
# _framework density 21.995915
#
# number of rings (size 3 to 8) (size 9 to 14) (size 15 to 20)
#    0.000    1.429    2.857    3.000    2.000    2.857 
#    5.143    1.429    0.000    0.000    0.000    0.000 
#    0.000    0.000    0.000    0.000    0.000    0.000 
#
# Total GULP energy -78264.489159 kJ/mol
# GULP energy per Si atom -5590.320654 kJ/mol
# Density = 2.194585 g / cm^3
# Si number density = 21.995915 Si / 1000 Ang^3
#
#
#
# Elastic Constant Matrix: (Units=GPa)
#
#
# Indices 1 2 3 4 5 6 
#
# 1 112.5350 48.5325 22.1104 4.0333 7.0710 8.4704
# 2 48.5325 142.7060 51.8576 5.0122 6.1781 8.9658
# 3 22.1104 51.8576 165.3374 7.6370 3.0448 -1.2821
# 4 4.0333 5.0122 7.6370 28.8392 3.9177 -3.3140
# 5 7.0710 6.1781 3.0448 3.9177 32.1911 -1.8680
# 6 8.4704 8.9658 -1.2821 -3.3140 -1.8680 35.3150
#
#
#
# Elastic Compliance Matrix: (Units=1/GPa)
#
#
# Indices 1 2 3 4 5 6 
#
# 1 0.010644 -0.003274 -0.000342 -0.000818 -0.001688 -0.001900
# 2 -0.003274 0.009161 -0.002406 -0.000581 -0.000841 -0.001727
# 3 -0.000342 -0.002406 0.006913 -0.001281 0.000087 0.000828
# 4 -0.000818 -0.000581 -0.001281 0.036145 -0.003784 0.003489
# 5 -0.001688 -0.000841 0.000087 -0.003784 0.032163 0.001968
# 6 -0.001900 -0.001727 0.000828 0.003489 0.001968 0.029672
#
#
# Mechanical properties :
#
#
# Convention : Reuss Voigt Hill
#
# Bulk Modulus (GPa) = 68.15999 73.95326 71.05663
# Shear Modulus (GPa) = 35.30228 39.14091 37.22159
#
# Velocity S-wave (km/s) = 4.01053 4.22294 4.11810
# Velocity P-wave (km/s) = 7.24573 7.58103 7.41528
#
# Compressibility (1/GPa) = 0.01467136
#
# Stress axis : x y z
#
# Youngs Moduli (GPa) = 93.95086 109.16180 144.65969
#
# Poissons Ratio (x) = 0.35743 0.04952
# Poissons Ratio (y) = 0.30762 0.34811
# Poissons Ratio (z) = 0.03216 0.26269
#
# Static dielectric constant tensor:
#      x y z
#    x 1.847030 0.043150 0.014310 
#    y 0.043150 1.802740 -0.006320 
#    z 0.014310 -0.006320 1.829650 
# 
# From -- ./inp_files/75581.got.cif
#   From: 2010.05.17/outbox.cif.g08.bks.cpg/sg2_38_cif.got.tgz:75581.got - 2010.06.03 11:33:40.
