data_PCOD9027994
_publ_section_title
;
Structure prediction by ZEFSAII (Michael W. Deem and Ramdas Pophale) SiO2 
 PCOD9027994
Probable space group: P -1
;
_chemical_formula_sum "Si O2"
_cell_formula_units_Z 16
_cell_length_a 13.731150
_cell_length_b 16.794652
_cell_length_c 5.504346
_cell_angle_alpha 119.900243
_cell_angle_beta 95.614604
_cell_angle_gamma 41.756334
_cell_volume 645.011578
_symmetry_space_group_name_H-M "P -1"
_symmetry_group_IT_number 2
_symmetry_cell_setting 'triclinic'
loop_
_space_group_symop_operation_xyz
x,y,z
-x,-y,-z
loop_
_atom_site_type_symbol
_atom_site_label
_atom_site_fract_x
_atom_site_fract_y
_atom_site_fract_z
Si Si1 0.564843 0.619976 0.843257
Si Si2 0.629785 0.101435 0.450069
Si Si3 0.894958 0.663277 0.453624
Si Si4 0.025982 0.081717 0.526032
Si Si5 0.689871 0.361028 0.747176
Si Si6 0.729036 0.834823 0.161943
Si Si7 0.255290 0.865061 0.858137
Si Si8 0.753578 0.628769 0.691214
O O1 0.676085 0.449690 0.676834
O O2 0.380860 0.730032 0.884845
O O3 0.655062 0.610244 0.644711
O O4 0.516980 0.725388 0.210697
O O5 0.660875 0.107711 0.191100
O O6 0.811366 0.991216 0.439709
O O7 0.607479 0.012204 0.368082
O O8 0.822237 0.758337 0.329538
O O9 0.820269 0.618946 0.438218
O O10 0.091866 0.501563 0.283453
O O11 0.847939 0.754593 0.828833
O O12 0.850922 0.265365 0.799870
O O13 0.000000 0.000000 0.500000
O O14 0.080911 0.025723 0.173278
O O15 0.737321 0.222953 0.463551
O O16 0.500000 0.500000 0.000000
O O17 0.653219 0.792362 0.020239
#
# Coordination Sequence:
#
# PCOD9027994 Si02
#       8
#     2   2   2   2   2   2   2   2
#     4  11  25  42  67  99 135 177 230 286 345 422
#     4  11  25  43  66  99 133 184 226 284 344 423
#     4   9  21  43  65 100 140 177 230 292 349 412
#     4  11  24  44  70  96 134 179 235 281 346 425
#     4  12  23  46  66 101 136 177 221 289 352 407
#     4  10  22  41  70  94 140 180 228 283 345 421
#     4  11  24  47  66  94 141 177 231 283 350 416
#     4   9  22  40  65  99 138 176 229 286 353 409
#
# _framework density 24.805757
#
# number of rings (size 3 to 8) (size 9 to 14) (size 15 to 20)
#    0.750    0.750    2.500    1.875    5.250    1.500 
#    2.250    1.250    0.000    0.000    0.000    0.000 
#    0.000    0.000    0.000    0.000    0.000    0.000 
#
# Total GULP energy -89221.873382 kJ/mol
# GULP energy per Si atom -5576.367086 kJ/mol
# Density = 2.474930 g / cm^3
# Si number density = 24.805757 Si / 1000 Ang^3
#
#
#
# Elastic Constant Matrix: (Units=GPa)
#
#
# Indices 1 2 3 4 5 6 
#
# 1 42.9204 14.2924 2.4039 12.4202 -11.3932 -1.4975
# 2 14.2924 126.1811 22.7627 2.7311 0.4832 6.0286
# 3 2.4039 22.7627 78.8749 -2.6875 -15.1098 -0.9093
# 4 12.4202 2.7311 -2.6875 32.8453 -2.3122 -0.3869
# 5 -11.3932 0.4832 -15.1098 -2.3122 28.1911 7.4012
# 6 -1.4975 6.0286 -0.9093 -0.3869 7.4012 33.8132
#
#
#
# Elastic Compliance Matrix: (Units=1/GPa)
#
#
# Indices 1 2 3 4 5 6 
#
# 1 0.030821 -0.003688 0.002283 -0.010247 0.013141 -0.000910
# 2 -0.003688 0.008957 -0.003045 0.000179 -0.002947 -0.001195
# 3 0.002283 -0.003045 0.015356 0.001309 0.009582 -0.001025
# 4 -0.010247 0.000179 0.001309 0.034368 -0.000646 0.000084
# 5 0.013141 -0.002947 0.009582 -0.000646 0.048337 -0.009223
# 6 -0.000910 -0.001195 -0.001025 0.000084 -0.009223 0.031739
#
#
# Mechanical properties :
#
#
# Convention : Reuss Voigt Hill
#
# Bulk Modulus (GPa) = 21.62937 36.32161 28.97549
# Shear Modulus (GPa) = 25.78794 32.87107 29.32951
#
# Velocity S-wave (km/s) = 3.22777 3.64419 3.44229
# Velocity P-wave (km/s) = 4.75708 5.69044 5.24456
#
# Compressibility (1/GPa) = 0.04623343
#
# Stress axis : x y z
#
# Youngs Moduli (GPa) = 32.44541 111.64948 65.12243
#
# Poissons Ratio (x) = 0.41176 -0.14866
# Poissons Ratio (y) = 0.11966 0.19828
# Poissons Ratio (z) = -0.07406 0.33994
#
# Static dielectric constant tensor:
#      x y z
#    x 2.011650 -0.056240 0.025090 
#    y -0.056240 2.028980 -0.070060 
#    z 0.025090 -0.070060 2.067650 
# 
# From -- ./inp_files/97272.got.cif
#   From: 2010.05.17/outbox.cif.g08.bks.cpg/sg2_49_cif.got.tgz:97272.got - 2010.06.03 11:33:40.
