data_PCOD9027497
_publ_section_title
;
Structure prediction by ZEFSAII (Michael W. Deem and Ramdas Pophale) SiO2 
 PCOD9027497
Probable space group: P -1
;
_chemical_formula_sum "Si O2"
_cell_formula_units_Z 15
_cell_length_a 27.938664
_cell_length_b 5.582045
_cell_length_c 5.078717
_cell_angle_alpha 88.902246
_cell_angle_beta 105.334780
_cell_angle_gamma 132.021850
_cell_volume 553.508503
_symmetry_space_group_name_H-M "P -1"
_symmetry_group_IT_number 2
_symmetry_cell_setting 'triclinic'
loop_
_space_group_symop_operation_xyz
x,y,z
-x,-y,-z
loop_
_atom_site_type_symbol
_atom_site_label
_atom_site_fract_x
_atom_site_fract_y
_atom_site_fract_z
Si Si1 0.358219 0.387209 0.668402
Si Si2 0.767996 0.679448 0.446898
Si Si3 0.460789 0.057347 0.620957
Si Si4 0.601031 0.757425 0.792489
Si Si5 0.000000 0.500000 0.500000
Si Si6 0.940558 0.994239 0.866639
Si Si7 0.127482 0.608119 0.580472
Si Si8 0.186219 0.435639 0.997420
O O1 0.294010 0.345165 0.608071
O O2 0.370596 0.320648 0.397069
O O3 0.422721 0.783053 0.797545
O O4 0.358607 0.174391 0.885981
O O5 0.772056 0.494395 0.684275
O O6 0.834354 0.071404 0.546900
O O7 0.777066 0.588460 0.178596
O O8 0.521440 0.443110 0.767421
O O9 0.403878 0.003506 0.362287
O O10 0.500000 0.000000 0.500000
O O11 0.943304 0.532123 0.406412
O O12 0.967447 0.304142 0.735340
O O13 0.888332 0.676701 0.610744
O O14 0.895150 0.908874 0.060969
O O15 0.000000 0.000000 0.000000
O O16 0.177553 0.679659 0.884119
#
# Coordination Sequence:
#
# PCOD9027497 Si02
#       8
#     2   2   2   2   1   2   2   2
#     4  11  24  44  67 100 139 188 232 278 338 404
#     4  12  29  47  72  99 143 188 236 281 345 414
#     4   9  21  40  71 104 143 180 227 286 342 394
#     4  10  22  41  68 106 139 179 233 286 335 396
#     4  12  24  44  70  98 132 168 222 282 354 416
#     4  12  27  45  74 105 134 172 228 287 362 420
#     4  12  27  45  71 104 137 179 226 290 351 425
#     4  12  26  49  70 102 136 183 229 286 346 416
#
# _framework density 27.099854000000001
#
# number of rings (size 3 to 8) (size 9 to 14) (size 15 to 20)
#    0.000    0.800    4.000    1.600    3.733   10.667 
#    0.000    0.000    0.000    0.000    0.000    0.000 
#    0.000    0.000    0.000    0.000    0.000    0.000 
#
# Total GULP energy -83868.479513 kJ/mol
# GULP energy per Si atom -5591.231968 kJ/mol
# Density = 2.703817 g / cm^3
# Si number density = 27.099854 Si / 1000 Ang^3
#
#
#
# Elastic Constant Matrix: (Units=GPa)
#
#
# Indices 1 2 3 4 5 6 
#
# 1 213.0446 14.3566 62.7769 -11.5699 7.2412 27.2209
# 2 14.3566 69.4112 17.0071 -21.6259 -4.6307 10.0812
# 3 62.7769 17.0071 133.3044 -27.0672 -2.2627 4.2051
# 4 -11.5699 -21.6259 -27.0672 31.0411 -8.8480 7.8373
# 5 7.2412 -4.6307 -2.2627 -8.8480 59.7445 -6.0236
# 6 27.2209 10.0812 4.2051 7.8373 -6.0236 35.1758
#
#
#
# Elastic Compliance Matrix: (Units=1/GPa)
#
#
# Indices 1 2 3 4 5 6 
#
# 1 0.006178 0.000430 -0.002550 0.001343 -0.001127 -0.005091
# 2 0.000430 0.022271 0.001608 0.020899 0.003729 -0.010925
# 3 -0.002550 0.001608 0.010748 0.010622 0.002237 -0.001756
# 4 0.001343 0.020899 0.010622 0.064508 0.009287 -0.021081
# 5 -0.001127 0.003729 0.002237 0.009287 0.018691 0.000667
# 6 -0.005091 -0.010925 -0.001756 -0.021081 0.000667 0.040521
#
#
# Mechanical properties :
#
#
# Convention : Reuss Voigt Hill
#
# Bulk Modulus (GPa) = 26.19759 67.11571 46.65665
# Shear Modulus (GPa) = 28.30201 46.63358 37.46779
#
# Velocity S-wave (km/s) = 3.23516 4.15276 3.72234
# Velocity P-wave (km/s) = 4.86242 6.91475 5.97732
#
# Compressibility (1/GPa) = 0.03817145
#
# Stress axis : x y z
#
# Youngs Moduli (GPa) = 161.86303 44.90122 93.04398
#
# Poissons Ratio (x) = -0.01929 0.23727
# Poissons Ratio (y) = -0.06954 -0.14960
# Poissons Ratio (z) = 0.41277 -0.07219
#
# Static dielectric constant tensor:
#      x y z
#    x 2.044030 -0.020280 -0.028910 
#    y -0.020280 2.288870 0.211210 
#    z -0.028910 0.211210 2.293100 
# 
# From -- ./inp_files/125558.got.cif
#   From: 2010.05.17/outbox.cif.g08.bks.cpg/sg2_63_cif.got.tgz:125558.got - 2010.06.03 11:33:40.
