data_PCOD9027217
_publ_section_title
;
Structure prediction by ZEFSAII (Michael W. Deem and Ramdas Pophale) SiO2 
 PCOD9027217
Probable space group: P -1
;
_chemical_formula_sum "Si O2"
_cell_formula_units_Z 14
_cell_length_a 10.975589
_cell_length_b 9.354107
_cell_length_c 8.969323
_cell_angle_alpha 37.050792
_cell_angle_beta 109.293033
_cell_angle_gamma 98.039326
_cell_volume 511.107885
_symmetry_space_group_name_H-M "P -1"
_symmetry_group_IT_number 2
_symmetry_cell_setting 'triclinic'
loop_
_space_group_symop_operation_xyz
x,y,z
-x,-y,-z
loop_
_atom_site_type_symbol
_atom_site_label
_atom_site_fract_x
_atom_site_fract_y
_atom_site_fract_z
Si Si1 0.007212 0.347077 0.851675
Si Si2 0.307672 0.839975 0.964975
Si Si3 0.213479 0.342995 0.672476
Si Si4 0.591285 0.352532 0.518732
Si Si5 0.099919 0.733219 0.756266
Si Si6 0.796071 0.041920 0.643178
Si Si7 0.398170 0.105729 0.502471
O O1 0.122027 0.348025 0.774463
O O2 0.022037 0.535067 0.831222
O O3 0.868639 0.435306 0.643887
O O4 0.055300 0.071544 0.153135
O O5 0.232720 0.097170 0.792398
O O6 0.385897 0.924371 0.785183
O O7 0.195377 0.712365 0.955773
O O8 0.394340 0.709581 0.248168
O O9 0.353674 0.411384 0.698002
O O10 0.454220 0.322901 0.414995
O O11 0.698740 0.137292 0.658718
O O12 0.199176 0.746821 0.646659
O O13 0.000000 0.000000 0.500000
O O14 0.739925 0.847453 0.681806
O O15 0.500000 0.000000 0.500000
#
# Coordination Sequence:
#
# PCOD9027217 Si02
#       7
#     2   2   2   2   2   2   2
#     4  11  23  41  64  95 134 170 206 255 320 377
#     4  11  23  41  66  97 125 163 213 264 318 371
#     4  11  24  38  65 100 128 163 214 261 309 384
#     4  11  22  42  67  92 125 170 213 262 320 364
#     4  11  23  40  61  93 133 167 208 256 310 387
#     4  10  22  41  67  90 127 171 210 259 321 370
#     4   9  22  44  66  91 127 166 212 266 313 377
#
# _framework density 27.391476999999998
#
# number of rings (size 3 to 8) (size 9 to 14) (size 15 to 20)
#    0.000    1.429    4.286    0.429    2.000    4.000 
#    0.000    3.571    0.000    0.000    0.000    0.000 
#    0.000    0.000    0.000    0.000    0.000    0.000 
#
# Total GULP energy -78409.289571 kJ/mol
# GULP energy per Si atom -5600.663541 kJ/mol
# Density = 2.732913 g / cm^3
# Si number density = 27.391477 Si / 1000 Ang^3
#
#
#
# Elastic Constant Matrix: (Units=GPa)
#
#
# Indices 1 2 3 4 5 6 
#
# 1 101.0224 42.0248 6.7447 10.9709 -14.6113 2.9688
# 2 42.0248 177.4573 22.6413 4.4186 -12.2147 2.7660
# 3 6.7447 22.6413 43.2932 32.0333 -4.7504 -9.3062
# 4 10.9709 4.4186 32.0333 46.9025 -11.3888 -14.5485
# 5 -14.6113 -12.2147 -4.7504 -11.3888 57.7803 8.8131
# 6 2.9688 2.7660 -9.3062 -14.5485 8.8131 62.0991
#
#
#
# Elastic Compliance Matrix: (Units=1/GPa)
#
#
# Indices 1 2 3 4 5 6 
#
# 1 0.011689 -0.002865 0.002799 -0.004309 0.001928 -0.001295
# 2 -0.002865 0.007150 -0.006818 0.004878 0.001224 -0.000234
# 3 0.002799 -0.006818 0.053568 -0.037521 -0.003715 -0.000065
# 4 -0.004309 0.004878 -0.037521 0.050622 0.006015 0.005372
# 5 0.001928 0.001224 -0.003715 0.006015 0.019242 -0.002025
# 6 -0.001295 -0.000234 -0.000065 0.005372 -0.002025 0.017712
#
#
# Mechanical properties :
#
#
# Convention : Reuss Voigt Hill
#
# Bulk Modulus (GPa) = 17.05341 51.62161 34.33751
# Shear Modulus (GPa) = 25.86691 50.04719 37.95705
#
# Velocity S-wave (km/s) = 3.07635 4.27911 3.72657
# Velocity P-wave (km/s) = 4.34257 6.58036 5.57490
#
# Compressibility (1/GPa) = 0.05863931
#
# Stress axis : x y z
#
# Youngs Moduli (GPa) = 85.55287 139.86130 18.66772
#
# Poissons Ratio (x) = 0.40070 -0.05225
# Poissons Ratio (y) = 0.24511 0.12728
# Poissons Ratio (z) = -0.23947 0.95357
#
# Static dielectric constant tensor:
#      x y z
#    x 2.110590 -0.046850 -0.040040 
#    y -0.046850 2.104730 -0.002620 
#    z -0.040040 -0.002620 2.170150 
# 
# From -- ./inp_files/34171.got.cif
#   From: 2010.05.17/outbox.cif.g08.bks.cpg/sg2_18_cif.got.tgz:34171.got - 2010.06.03 11:33:40.
