data_PCOD9027363
_publ_section_title
;
Structure prediction by ZEFSAII (Michael W. Deem and Ramdas Pophale) SiO2 
 PCOD9027363
Probable space group: P -1
;
_chemical_formula_sum "Si O2"
_cell_formula_units_Z 16
_cell_length_a 28.522769
_cell_length_b 28.396450
_cell_length_c 9.424991
_cell_angle_alpha 144.406468
_cell_angle_beta 146.427975
_cell_angle_gamma 10.066145
_cell_volume 735.776425
_symmetry_space_group_name_H-M "P -1"
_symmetry_group_IT_number 2
_symmetry_cell_setting 'triclinic'
loop_
_space_group_symop_operation_xyz
x,y,z
-x,-y,-z
loop_
_atom_site_type_symbol
_atom_site_label
_atom_site_fract_x
_atom_site_fract_y
_atom_site_fract_z
Si Si1 0.877312 0.389384 0.819850
Si Si2 0.708544 0.713060 0.274884
Si Si3 0.061313 0.516463 0.302516
Si Si4 0.426540 0.028413 0.597167
Si Si5 0.782125 0.214968 0.600952
Si Si6 0.767404 0.493342 0.477165
Si Si7 0.855358 0.000152 0.806250
Si Si8 0.729425 0.118966 0.457139
O O1 0.840001 0.455314 0.726631
O O2 0.604564 0.581566 0.626204
O O3 0.813220 0.526168 0.088217
O O4 0.141601 0.087651 0.759589
O O5 0.440948 0.975559 0.346656
O O6 0.000000 0.500000 0.500000
O O7 0.588727 0.860685 0.188199
O O8 0.271477 0.280109 0.357013
O O9 0.219143 0.445116 0.445744
O O10 0.798947 0.786930 0.397929
O O11 0.000000 0.500000 0.000000
O O12 0.500000 0.500000 0.500000
O O13 0.761068 0.153940 0.496211
O O14 0.000000 0.000000 0.500000
O O15 0.937696 0.136169 0.906909
O O16 0.473515 0.710151 0.268031
O O17 0.020832 0.202259 0.367861
O O18 0.861570 0.020213 0.703868
#
# Coordination Sequence:
#
# PCOD9027363 Si02
#       8
#     2   2   2   2   2   2   2   2
#     4  10  23  41  69  95 129 169 232 280 323 387
#     4  11  24  44  64  92 132 181 230 279 334 395
#     4  12  24  42  63  97 134 176 228 281 337 394
#     4  11  25  40  62  92 127 179 231 270 343 396
#     4  12  25  45  70 104 141 175 211 274 353 411
#     4  10  22  41  67  97 130 172 226 281 332 382
#     4  10  22  45  70  98 131 181 223 278 327 414
#     4  10  23  44  70 101 127 178 231 271 332 410
#
# _framework density 21.745737999999999
#
# number of rings (size 3 to 8) (size 9 to 14) (size 15 to 20)
#    0.000    1.250    1.250    3.750    3.500    2.000 
#    9.000    5.000    0.000    0.000    0.000    0.000 
#    0.000    0.000    0.000    0.000    0.000    0.000 
#
# Total GULP energy -89151.874386 kJ/mol
# GULP energy per Si atom -5571.992149 kJ/mol
# Density = 2.169624 g / cm^3
# Si number density = 21.745738 Si / 1000 Ang^3
#
#
#
# Elastic Constant Matrix: (Units=GPa)
#
#
# Indices 1 2 3 4 5 6 
#
# 1 111.2825 8.3627 37.8293 3.6254 -10.2647 -5.4289
# 2 8.3627 105.2671 13.5710 8.2936 -14.0325 -10.9250
# 3 37.8293 13.5710 70.8750 5.9037 -3.5525 -3.9349
# 4 3.6254 8.2936 5.9037 26.6360 -2.1879 -7.3013
# 5 -10.2647 -14.0325 -3.5525 -2.1879 12.3403 6.0929
# 6 -5.4289 -10.9250 -3.9349 -7.3013 6.0929 36.2941
#
#
#
# Elastic Compliance Matrix: (Units=1/GPa)
#
#
# Indices 1 2 3 4 5 6 
#
# 1 0.011822 0.001071 -0.006063 0.000141 0.009388 -0.000114
# 2 0.001071 0.011616 -0.001938 -0.002041 0.012737 0.000898
# 3 -0.006063 -0.001938 0.017819 -0.002646 -0.002771 0.000375
# 4 0.000141 -0.002041 -0.002646 0.040779 0.000708 0.007205
# 5 0.009388 0.012737 -0.002771 0.000708 0.109198 -0.013252
# 6 -0.000114 0.000898 0.000375 0.007205 -0.013252 0.031521
#
#
# Mechanical properties :
#
#
# Convention : Reuss Voigt Hill
#
# Bulk Modulus (GPa) = 36.49855 45.21673 40.85764
# Shear Modulus (GPa) = 20.34616 30.23151 25.28883
#
# Velocity S-wave (km/s) = 3.06214 3.73262 3.41388
# Velocity P-wave (km/s) = 5.41507 6.27815 5.86251
#
# Compressibility (1/GPa) = 0.02739835
#
# Stress axis : x y z
#
# Youngs Moduli (GPa) = 84.58541 86.08653 56.12105
#
# Poissons Ratio (x) = -0.09219 0.34025
# Poissons Ratio (y) = -0.09058 0.10874
# Poissons Ratio (z) = 0.51282 0.16680
#
# Static dielectric constant tensor:
#      x y z
#    x 1.851070 0.071520 -0.066220 
#    y 0.071520 1.881350 -0.085750 
#    z -0.066220 -0.085750 1.917560 
# 
# From -- ./inp_files/358022.got.cif
#   From: 2010.05.17/outbox.cif.g08.bks.cpg/sg2_180_cif.got.tgz:358022.got - 2010.06.03 11:33:40.
