data_PCOD9027176
_publ_section_title
;
Structure prediction by ZEFSAII (Michael W. Deem and Ramdas Pophale) SiO2 
 PCOD9027176
Probable space group: P -1
;
_chemical_formula_sum "Si O2"
_cell_formula_units_Z 16
_cell_length_a 11.708489
_cell_length_b 9.354239
_cell_length_c 10.704242
_cell_angle_alpha 93.733143
_cell_angle_beta 86.011465
_cell_angle_gamma 142.080754
_cell_volume 718.635900
_symmetry_space_group_name_H-M "P -1"
_symmetry_group_IT_number 2
_symmetry_cell_setting 'triclinic'
loop_
_space_group_symop_operation_xyz
x,y,z
-x,-y,-z
loop_
_atom_site_type_symbol
_atom_site_label
_atom_site_fract_x
_atom_site_fract_y
_atom_site_fract_z
Si Si1 0.188141 0.066999 0.371706
Si Si2 0.192487 0.758445 0.461086
Si Si3 0.521509 0.975636 0.324526
Si Si4 0.678683 0.929857 0.888129
Si Si5 0.025184 0.552699 0.145993
Si Si6 0.221461 0.952617 0.832934
Si Si7 0.786795 0.806134 0.357793
Si Si8 0.324306 0.597879 0.774337
O O1 0.146122 0.862211 0.404973
O O2 0.003561 0.978281 0.363598
O O3 0.279197 0.140296 0.231756
O O4 0.283652 0.223341 0.499220
O O5 0.336296 0.930596 0.571929
O O6 0.000000 0.500000 0.500000
O O7 0.309660 0.760064 0.370045
O O8 0.593206 0.960571 0.198929
O O9 0.566041 0.186796 0.313064
O O10 0.455592 0.722077 0.893309
O O11 0.773841 0.173529 0.850038
O O12 0.766738 0.984324 0.020120
O O13 0.950387 0.328003 0.194676
O O14 0.874054 0.524166 0.194556
O O15 0.000000 0.500000 0.000000
O O16 0.226295 0.082870 0.738743
O O17 0.693720 0.572656 0.296743
#
# Coordination Sequence:
#
# PCOD9027176 Si02
#       8
#     2   2   2   2   2   2   2   2
#     4  11  23  43  67 100 131 180 230 270 347 404
#     4  11  22  40  70  98 134 170 229 283 335 396
#     4  10  22  41  67 101 132 175 218 284 340 389
#     4  11  23  43  70 101 130 186 227 271 344 405
#     4   9  21  42  67  97 135 178 223 280 337 397
#     4  10  23  43  69 102 142 174 230 283 337 404
#     4  11  24  43  69  97 139 184 227 281 339 404
#     4  11  22  41  69  94 141 179 221 281 335 410
#
# _framework density 22.264403000000001
#
# number of rings (size 3 to 8) (size 9 to 14) (size 15 to 20)
#    0.000    1.500    3.750    0.750    1.750    6.000 
#    0.000    2.500    2.750    0.000    0.000    0.000 
#    0.000    0.000    0.000    0.000    0.000    0.000 
#
# Total GULP energy -89261.134517 kJ/mol
# GULP energy per Si atom -5578.820907 kJ/mol
# Density = 2.221373 g / cm^3
# Si number density = 22.264403 Si / 1000 Ang^3
#
#
#
# Elastic Constant Matrix: (Units=GPa)
#
#
# Indices 1 2 3 4 5 6 
#
# 1 73.7285 52.3586 39.4563 -2.4028 3.7351 -17.3295
# 2 52.3586 100.2876 46.7212 11.8299 -4.7242 -0.7334
# 3 39.4563 46.7212 141.5076 19.2092 -4.7175 -11.2904
# 4 -2.4028 11.8299 19.2092 31.9682 4.5929 -4.2765
# 5 3.7351 -4.7242 -4.7175 4.5929 33.6597 0.6751
# 6 -17.3295 -0.7334 -11.2904 -4.2765 0.6751 32.5265
#
#
#
# Elastic Compliance Matrix: (Units=1/GPa)
#
#
# Indices 1 2 3 4 5 6 
#
# 1 0.033880 -0.017711 -0.004575 0.015649 -0.009389 0.018315
# 2 -0.017711 0.021322 -0.001288 -0.010845 0.006477 -0.010963
# 3 -0.004575 -0.001288 0.009674 -0.006034 0.002505 0.000046
# 4 0.015649 -0.010845 -0.006034 0.043156 -0.010231 0.011885
# 5 -0.009389 0.006477 0.002505 -0.010231 0.033528 -0.006028
# 6 0.018315 -0.010963 0.000046 0.011885 -0.006028 0.041959
#
#
# Mechanical properties :
#
#
# Convention : Reuss Voigt Hill
#
# Bulk Modulus (GPa) = 56.40914 65.84401 61.12658
# Shear Modulus (GPa) = 21.13484 31.43005 26.28244
#
# Velocity S-wave (km/s) = 3.08436 3.76130 3.43952
# Velocity P-wave (km/s) = 6.17053 6.96427 6.57938
#
# Compressibility (1/GPa) = 0.01772762
#
# Stress axis : x y z
#
# Youngs Moduli (GPa) = 29.51619 46.89936 103.36994
#
# Poissons Ratio (x) = 0.83063 0.47291
# Poissons Ratio (y) = 0.52276 0.13316
# Poissons Ratio (z) = 0.13504 0.06042
#
# Static dielectric constant tensor:
#      x y z
#    x 1.843810 0.054420 -0.020370 
#    y 0.054420 1.856380 0.002800 
#    z -0.020370 0.002800 1.928570 
# 
# From -- ./inp_files/417393.got.cif
#   From: 2010.05.17/outbox.cif.g08.bks.cpg/sg2_209_cif.got.tgz:417393.got - 2010.06.03 11:33:40.
