data_PCOD9027184
_publ_section_title
;
Structure prediction by ZEFSAII (Michael W. Deem and Ramdas Pophale) SiO2 
 PCOD9027184
Probable space group: P -1
;
_chemical_formula_sum "Si O2"
_cell_formula_units_Z 16
_cell_length_a 8.430847
_cell_length_b 8.290777
_cell_length_c 15.019526
_cell_angle_alpha 113.726878
_cell_angle_beta 132.880078
_cell_angle_gamma 90.075563
_cell_volume 642.321659
_symmetry_space_group_name_H-M "P -1"
_symmetry_group_IT_number 2
_symmetry_cell_setting 'triclinic'
loop_
_space_group_symop_operation_xyz
x,y,z
-x,-y,-z
loop_
_atom_site_type_symbol
_atom_site_label
_atom_site_fract_x
_atom_site_fract_y
_atom_site_fract_z
Si Si1 0.870837 0.143006 0.991024
Si Si2 0.255984 0.424174 0.310119
Si Si3 0.492414 0.499734 0.751251
Si Si4 0.371852 0.979926 0.847430
Si Si5 0.196962 0.749171 0.201783
Si Si6 0.695658 0.655601 0.047814
Si Si7 0.947792 0.844898 0.527424
Si Si8 0.383694 0.174813 0.443339
O O1 0.993548 0.301660 0.148331
O O2 0.596887 0.036520 0.882793
O O3 0.903329 0.244279 0.932352
O O4 0.000000 0.000000 0.000000
O O5 0.427926 0.402225 0.292868
O O6 0.278813 0.303088 0.375204
O O7 0.348304 0.656135 0.408416
O O8 0.638342 0.364014 0.776019
O O9 0.583457 0.633205 0.901136
O O10 0.215026 0.366281 0.621521
O O11 0.267534 0.139839 0.854181
O O12 0.157610 0.835262 0.668978
O O13 0.500000 0.000000 0.000000
O O14 0.341860 0.971944 0.337800
O O15 0.952360 0.650994 0.141242
O O16 0.500000 0.500000 0.000000
O O17 0.763056 0.874676 0.532485
O O18 0.000000 0.000000 0.500000
#
# Coordination Sequence:
#
# PCOD9027184 Si02
#       8
#     2   2   2   2   2   2   2   2
#     4  12  23  42  74 104 138 184 244 308 363 435
#     4  10  22  41  67 101 142 178 243 311 357 419
#     4  11  26  43  71 105 148 194 243 306 369 434
#     4  12  27  47  76 106 141 198 248 300 374 443
#     4  12  23  43  70 108 139 200 254 293 366 440
#     4  12  25  45  68 106 155 193 246 310 368 444
#     4  11  23  47  69 104 153 190 238 298 377 441
#     4  10  22  42  69 100 140 188 242 302 357 434
#
# _framework density 24.909638999999999
#
# number of rings (size 3 to 8) (size 9 to 14) (size 15 to 20)
#    0.000    0.750    3.750    4.125    1.750    2.000 
#    0.000    3.125    0.000    0.000    0.000    0.000 
#    0.000    0.000    0.000    0.000    0.000    0.000 
#
# Total GULP energy -89348.515570 kJ/mol
# GULP energy per Si atom -5584.282223 kJ/mol
# Density = 2.485294 g / cm^3
# Si number density = 24.909639 Si / 1000 Ang^3
#
#
#
# Elastic Constant Matrix: (Units=GPa)
#
#
# Indices 1 2 3 4 5 6 
#
# 1 79.8377 35.4908 31.3910 -0.2424 15.4957 9.7827
# 2 35.4908 92.2147 23.8657 -5.4889 0.7018 13.1537
# 3 31.3910 23.8657 168.3631 10.9210 26.7306 -5.1828
# 4 -0.2424 -5.4889 10.9210 48.0511 -1.7441 -10.9400
# 5 15.4957 0.7018 26.7306 -1.7441 49.2691 1.7283
# 6 9.7827 13.1537 -5.1828 -10.9400 1.7283 45.4132
#
#
#
# Elastic Compliance Matrix: (Units=1/GPa)
#
#
# Indices 1 2 3 4 5 6 
#
# 1 0.016828 -0.005753 -0.001657 -0.000849 -0.004265 -0.002190
# 2 -0.005753 0.013890 -0.001474 0.001366 0.002555 -0.002720
# 3 -0.001657 -0.001474 0.007150 -0.001622 -0.003442 0.001340
# 4 -0.000849 0.001366 -0.001622 0.022525 0.001751 0.004962
# 5 -0.004265 0.002555 -0.003442 0.001751 0.023555 -0.000689
# 6 -0.002190 -0.002720 0.001340 0.004962 -0.000689 0.024654
#
#
# Mechanical properties :
#
#
# Convention : Reuss Voigt Hill
#
# Bulk Modulus (GPa) = 49.75466 57.99005 53.87235
# Shear Modulus (GPa) = 37.57369 45.19122 41.38245
#
# Velocity S-wave (km/s) = 3.88803 4.26397 4.08033
# Velocity P-wave (km/s) = 6.33822 6.89729 6.62366
#
# Compressibility (1/GPa) = 0.02009862
#
# Stress axis : x y z
#
# Youngs Moduli (GPa) = 59.42419 71.99411 139.85286
#
# Poissons Ratio (x) = 0.41422 0.23177
# Poissons Ratio (y) = 0.34190 0.20618
# Poissons Ratio (z) = 0.09848 0.10614
#
# Static dielectric constant tensor:
#      x y z
#    x 1.889480 0.034840 -0.014260 
#    y 0.034840 2.021000 -0.029520 
#    z -0.014260 -0.029520 2.088950 
# 
# From -- ./inp_files/495513.got.cif
#   From: 2010.05.17/outbox.cif.g08.bks.cpg/sg2_248_cif.got.tgz:495513.got - 2010.06.03 11:33:40.
