data_PCOD9027285
_publ_section_title
;
Structure prediction by ZEFSAII (Michael W. Deem and Ramdas Pophale) SiO2 
 PCOD9027285
Probable space group: P -1
;
_chemical_formula_sum "Si O2"
_cell_formula_units_Z 14
_cell_length_a 11.249318
_cell_length_b 8.907507
_cell_length_c 12.608973
_cell_angle_alpha 59.847292
_cell_angle_beta 128.980827
_cell_angle_gamma 139.663763
_cell_volume 635.071808
_symmetry_space_group_name_H-M "P -1"
_symmetry_group_IT_number 2
_symmetry_cell_setting 'triclinic'
loop_
_space_group_symop_operation_xyz
x,y,z
-x,-y,-z
loop_
_atom_site_type_symbol
_atom_site_label
_atom_site_fract_x
_atom_site_fract_y
_atom_site_fract_z
Si Si1 0.339976 0.617460 0.539974
Si Si2 0.739393 0.091108 0.491784
Si Si3 0.630725 0.231642 0.059184
Si Si4 0.347513 0.386756 0.182980
Si Si5 0.932496 0.215306 0.332563
Si Si6 0.007158 0.993053 0.744391
Si Si7 0.648532 0.775182 0.966507
O O1 0.266034 0.713268 0.544399
O O2 0.435635 0.525930 0.688547
O O3 0.155660 0.422103 0.430772
O O4 0.528885 0.843970 0.500295
O O5 0.781270 0.090779 0.392074
O O6 0.926178 0.127973 0.639521
O O7 0.846382 0.310345 0.181232
O O8 0.497423 0.172960 0.110310
O O9 0.647830 0.421518 0.934800
O O10 0.500000 0.000000 0.000000
O O11 0.189871 0.262495 0.234629
O O12 0.273451 0.192861 0.120023
O O13 0.928776 0.043006 0.318013
O O14 0.178263 0.100037 0.891719
O O15 0.500000 0.500000 0.000000
#
# Coordination Sequence:
#
# PCOD9027285 Si02
#       7
#     2   2   2   2   2   2   2
#     4  10  24  46  70 103 130 179 229 271 344 394
#     4  10  24  44  71  99 137 176 227 277 328 416
#     4  11  24  43  65 100 134 174 225 272 343 395
#     4  10  24  44  69  94 137 177 224 285 323 409
#     4  12  25  41  69 101 138 177 220 283 336 401
#     4  11  24  43  66 104 132 179 225 275 347 387
#     4  10  22  41  67  94 132 177 224 274 329 399
#
# _framework density 22.044748999999999
#
# number of rings (size 3 to 8) (size 9 to 14) (size 15 to 20)
#    0.000    1.429    1.429    2.143    8.000    5.143 
#    5.143    0.000    0.000    0.000    0.000    0.000 
#    0.000    0.000    0.000    0.000    0.000    0.000 
#
# Total GULP energy -78308.442289 kJ/mol
# GULP energy per Si atom -5593.460164 kJ/mol
# Density = 2.199457 g / cm^3
# Si number density = 22.044749 Si / 1000 Ang^3
#
#
#
# Elastic Constant Matrix: (Units=GPa)
#
#
# Indices 1 2 3 4 5 6 
#
# 1 111.8161 37.1041 40.1688 19.1965 2.7261 -4.9805
# 2 37.1041 58.0746 40.1717 12.5789 7.0237 -10.6751
# 3 40.1688 40.1717 134.8056 20.5001 29.3693 -3.0694
# 4 19.1965 12.5789 20.5001 40.3995 -1.0883 -3.7088
# 5 2.7261 7.0237 29.3693 -1.0883 47.9549 2.3998
# 6 -4.9805 -10.6751 -3.0694 -3.7088 2.3998 22.3160
#
#
#
# Elastic Compliance Matrix: (Units=1/GPa)
#
#
# Indices 1 2 3 4 5 6 
#
# 1 0.012033 -0.006339 -0.001512 -0.003055 0.001160 -0.001187
# 2 -0.006339 0.027655 -0.005664 -0.001752 -0.000803 0.010830
# 3 -0.001512 -0.005664 0.011394 -0.003594 -0.006073 -0.001424
# 4 -0.003055 -0.001752 -0.003594 0.028883 0.003164 0.002446
# 5 0.001160 -0.000803 -0.006073 0.003164 0.024851 -0.003107
# 6 -0.001187 0.010830 -0.001424 0.002446 -0.003107 0.050271
#
#
# Mechanical properties :
#
#
# Convention : Reuss Voigt Hill
#
# Bulk Modulus (GPa) = 41.57848 59.95396 50.76622
# Shear Modulus (GPa) = 26.29718 34.61753 30.45736
#
# Velocity S-wave (km/s) = 3.45759 3.96704 3.72104
# Velocity P-wave (km/s) = 5.90269 6.94541 6.44517
#
# Compressibility (1/GPa) = 0.02405090
#
# Stress axis : x y z
#
# Youngs Moduli (GPa) = 83.10368 36.16010 87.76858
#
# Poissons Ratio (x) = 0.22923 0.13269
# Poissons Ratio (y) = 0.52681 0.49714
# Poissons Ratio (z) = 0.12564 0.20482
#
# Static dielectric constant tensor:
#      x y z
#    x 1.654260 0.013160 -0.114630 
#    y 0.013160 1.771020 -0.033410 
#    z -0.114630 -0.033410 1.783530 
# 
# From -- ./inp_files/279267.got.cif
#   From: 2010.05.17/outbox.cif.g08.bks.cpg/sg2_140_cif.got.tgz:279267.got - 2010.06.03 11:33:40.
