data_PCOD9027422
_publ_section_title
;
Structure prediction by ZEFSAII (Michael W. Deem and Ramdas Pophale) SiO2 
 PCOD9027422
Probable space group: P -1
;
_chemical_formula_sum "Si O2"
_cell_formula_units_Z 16
_cell_length_a 21.382997
_cell_length_b 5.437754
_cell_length_c 11.781180
_cell_angle_alpha 108.799407
_cell_angle_beta 34.543296
_cell_angle_gamma 117.714330
_cell_volume 682.575210
_symmetry_space_group_name_H-M "P -1"
_symmetry_group_IT_number 2
_symmetry_cell_setting 'triclinic'
loop_
_space_group_symop_operation_xyz
x,y,z
-x,-y,-z
loop_
_atom_site_type_symbol
_atom_site_label
_atom_site_fract_x
_atom_site_fract_y
_atom_site_fract_z
Si Si1 0.380961 0.822614 0.016424
Si Si2 0.099811 0.306253 0.394012
Si Si3 0.019967 0.300052 0.267767
Si Si4 0.221970 0.115332 0.364589
Si Si5 0.776058 0.541227 0.191974
Si Si6 0.698363 0.074549 0.415742
Si Si7 0.399576 0.677558 0.218663
Si Si8 0.554909 0.293769 0.330611
O O1 0.417371 0.725270 0.065131
O O2 0.257488 0.858651 0.231834
O O3 0.396668 0.646375 0.861464
O O4 0.469479 0.143903 0.905000
O O5 0.106838 0.355240 0.255947
O O6 0.206929 0.272613 0.296568
O O7 0.042858 0.481905 0.581274
O O8 0.000000 0.000000 0.500000
O O9 0.100143 0.352640 0.045180
O O10 0.905956 0.006941 0.400948
O O11 0.328635 0.353612 0.305866
O O12 0.741537 0.813503 0.308702
O O13 0.671236 0.332991 0.236427
O O14 0.777376 0.350117 0.269334
O O15 0.565926 0.979747 0.542794
O O16 0.680909 0.163515 0.583146
O O17 0.500000 0.500000 0.500000
#
# Coordination Sequence:
#
# PCOD9027422 Si02
#       8
#     2   2   2   2   2   2   2   2
#     4  10  22  41  68 100 125 176 223 275 344 399
#     4   9  21  38  59  90 137 169 210 285 326 391
#     4  10  23  39  61  97 135 172 227 270 339 404
#     4  11  22  38  65  96 132 172 220 283 330 396
#     4  11  24  41  71  94 136 182 222 276 347 403
#     4  10  24  45  66  96 135 180 226 282 332 401
#     4  10  23  43  66  95 134 171 229 277 330 399
#     4   9  21  43  65 100 136 170 221 279 347 411
#
# _framework density 23.440639000000001
#
# number of rings (size 3 to 8) (size 9 to 14) (size 15 to 20)
#    0.000    2.000    0.000    1.500   12.250    0.000 
#   13.500    1.250    0.000    0.000    0.000    0.000 
#    0.000    0.000    0.000    0.000    0.000    0.000 
#
# Total GULP energy -89207.540692 kJ/mol
# GULP energy per Si atom -5575.471293 kJ/mol
# Density = 2.338729 g / cm^3
# Si number density = 23.440639 Si / 1000 Ang^3
#
#
#
# Elastic Constant Matrix: (Units=GPa)
#
#
# Indices 1 2 3 4 5 6 
#
# 1 30.2755 9.9098 24.3900 4.9643 10.9735 -7.2986
# 2 9.9098 90.1342 50.9098 -3.8293 9.7533 3.7607
# 3 24.3900 50.9098 168.8269 -3.4916 16.1875 6.0164
# 4 4.9643 -3.8293 -3.4916 30.2099 16.4225 -3.9181
# 5 10.9735 9.7533 16.1875 16.4225 37.9325 -3.1857
# 6 -7.2986 3.7607 6.0164 -3.9181 -3.1857 32.8593
#
#
#
# Elastic Compliance Matrix: (Units=1/GPa)
#
#
# Indices 1 2 3 4 5 6 
#
# 1 0.043574 -0.001301 -0.005522 -0.002291 -0.008101 0.009780
# 2 -0.001301 0.013760 -0.003564 0.003063 -0.003063 -0.001143
# 3 -0.005522 -0.003564 0.008125 0.002256 -0.002119 -0.002243
# 4 -0.002291 0.003063 0.002256 0.045642 -0.020666 0.002166
# 5 -0.008101 -0.003063 -0.002119 -0.020666 0.039369 0.000292
# 6 0.009780 -0.001143 -0.002243 0.002166 0.000292 0.033433
#
#
# Mechanical properties :
#
#
# Convention : Reuss Voigt Hill
#
# Bulk Modulus (GPa) = 22.37807 51.07287 36.72547
# Shear Modulus (GPa) = 22.77165 33.80214 28.28690
#
# Velocity S-wave (km/s) = 3.12021 3.80153 3.47759
# Velocity P-wave (km/s) = 4.74851 6.41126 5.64148
#
# Compressibility (1/GPa) = 0.04468660
#
# Stress axis : x y z
#
# Youngs Moduli (GPa) = 22.94955 72.67664 123.07288
#
# Poissons Ratio (x) = 0.09452 0.67960
# Poissons Ratio (y) = 0.02985 0.43858
# Poissons Ratio (z) = 0.12673 0.25899
#
# Static dielectric constant tensor:
#      x y z
#    x 1.975040 0.067400 -0.014880 
#    y 0.067400 1.971450 -0.049650 
#    z -0.014880 -0.049650 1.885890 
# 
# From -- ./inp_files/364945.got.cif
#   From: 2010.05.17/outbox.cif.g08.bks.cpg/sg2_183_cif.got.tgz:364945.got - 2010.06.03 11:33:40.
