data_PCOD9027516
_publ_section_title
;
Structure prediction by ZEFSAII (Michael W. Deem and Ramdas Pophale) SiO2 
 PCOD9027516
Probable space group: P -1
;
_chemical_formula_sum "Si O2"
_cell_formula_units_Z 10
_cell_length_a 25.715116
_cell_length_b 11.117298
_cell_length_c 23.000844
_cell_angle_alpha 20.833418
_cell_angle_beta 169.366006
_cell_angle_gamma 160.271680
_cell_volume 404.829100
_symmetry_space_group_name_H-M "P -1"
_symmetry_group_IT_number 2
_symmetry_cell_setting 'triclinic'
loop_
_space_group_symop_operation_xyz
x,y,z
-x,-y,-z
loop_
_atom_site_type_symbol
_atom_site_label
_atom_site_fract_x
_atom_site_fract_y
_atom_site_fract_z
Si Si1 0.474190 0.658004 0.488356
Si Si2 0.211814 0.362625 0.704230
Si Si3 0.666005 0.695927 0.387866
Si Si4 0.663785 0.728580 0.245477
Si Si5 0.937655 0.963207 0.762061
O O1 0.498463 0.569833 0.621943
O O2 0.780771 0.846186 0.705392
O O3 0.305582 0.277645 0.442356
O O4 0.234382 0.863382 0.127514
O O5 0.325931 0.444843 0.726527
O O6 0.022238 0.622948 0.391457
O O7 0.500000 0.500000 0.000000
O O8 0.010753 0.935244 0.677465
O O9 0.612391 0.516417 0.345973
O O10 0.532098 0.015822 0.089823
O O11 0.000000 0.000000 0.500000
#
# Coordination Sequence:
#
# PCOD9027516 Si02
#       5
#     2   2   2   2   2
#     4  10  23  41  63  90 133 176 206 260 331 385
#     4  11  24  38  67  99 128 163 218 273 316 375
#     4  10  22  41  68  90 125 177 215 259 322 389
#     4   9  21  40  64  92 129 163 221 263 319 378
#     4  10  24  40  60  96 135 164 213 267 322 381
#
# _framework density 24.701781
#
# number of rings (size 3 to 8) (size 9 to 14) (size 15 to 20)
#    0.000    2.000    0.000    1.200   16.800    1.600 
#    0.000    2.000    0.000    0.000    0.000    0.000 
#    0.000    0.000    0.000    0.000    0.000    0.000 
#
# Total GULP energy -55935.137395 kJ/mol
# GULP energy per Si atom -5593.513739 kJ/mol
# Density = 2.464556 g / cm^3
# Si number density = 24.701781 Si / 1000 Ang^3
#
#
#
# Elastic Constant Matrix: (Units=GPa)
#
#
# Indices 1 2 3 4 5 6 
#
# 1 146.8928 15.8184 8.0611 7.1978 -16.9829 -5.6179
# 2 15.8184 59.7118 11.5393 4.3640 0.2661 -6.8095
# 3 8.0611 11.5393 57.2961 11.3813 0.2613 -17.8555
# 4 7.1978 4.3640 11.3813 33.2559 -1.7641 8.2776
# 5 -16.9829 0.2661 0.2613 -1.7641 40.7652 0.5376
# 6 -5.6179 -6.8095 -17.8555 8.2776 0.5376 32.3927
#
#
#
# Elastic Compliance Matrix: (Units=1/GPa)
#
#
# Indices 1 2 3 4 5 6 
#
# 1 0.007470 -0.001733 -0.000016 -0.001537 0.003040 0.001265
# 2 -0.001733 0.018094 -0.002085 -0.002057 -0.000954 0.002895
# 3 -0.000016 -0.002085 0.025736 -0.012821 -0.000938 0.017037
# 4 -0.001537 -0.002057 -0.012821 0.039592 0.001405 -0.017907
# 5 0.003040 -0.000954 -0.000938 0.001405 0.025883 -0.000979
# 6 0.001265 0.002895 0.017037 -0.017907 -0.000979 0.045682
#
#
# Mechanical properties :
#
#
# Convention : Reuss Voigt Hill
#
# Bulk Modulus (GPa) = 22.91930 37.19315 30.05623
# Shear Modulus (GPa) = 27.07545 36.51491 31.79518
#
# Velocity S-wave (km/s) = 3.31432 3.84895 3.59160
# Velocity P-wave (km/s) = 4.89335 5.90272 5.42157
#
# Compressibility (1/GPa) = 0.04363134
#
# Stress axis : x y z
#
# Youngs Moduli (GPa) = 133.86170 55.26743 38.85667
#
# Poissons Ratio (x) = 0.09577 0.00064
# Poissons Ratio (y) = 0.23196 0.08102
# Poissons Ratio (z) = 0.00220 0.11524
#
# Static dielectric constant tensor:
#      x y z
#    x 2.089410 -0.302990 -0.219940 
#    y -0.302990 3.299810 1.091250 
#    z -0.219940 1.091250 2.838240 
# 
# From -- ./inp_files/15852.got.cif
#   From: 2010.05.17/outbox.cif.g08.bks.cpg/sg2_8_cif.got.tgz:15852.got - 2010.06.03 11:33:40.
