data_PCOD9027962
_publ_section_title
;
Structure prediction by ZEFSAII (Michael W. Deem and Ramdas Pophale) SiO2 
 PCOD9027962
Probable space group: P -1
;
_chemical_formula_sum "Si O2"
_cell_formula_units_Z 14
_cell_length_a 11.840714
_cell_length_b 7.383009
_cell_length_c 7.820653
_cell_angle_alpha 122.876283
_cell_angle_beta 72.792471
_cell_angle_gamma 95.263741
_cell_volume 546.462623
_symmetry_space_group_name_H-M "P -1"
_symmetry_group_IT_number 2
_symmetry_cell_setting 'triclinic'
loop_
_space_group_symop_operation_xyz
x,y,z
-x,-y,-z
loop_
_atom_site_type_symbol
_atom_site_label
_atom_site_fract_x
_atom_site_fract_y
_atom_site_fract_z
Si Si1 0.389973 0.449181 0.413668
Si Si2 0.575149 0.806903 0.063213
Si Si3 0.659502 0.328308 0.787999
Si Si4 0.965155 0.294833 0.141642
Si Si5 0.193889 0.045969 0.825336
Si Si6 0.821713 0.724187 0.417084
Si Si7 0.108731 0.895190 0.282122
O O1 0.500000 0.500000 0.500000
O O2 0.349682 0.636735 0.392667
O O3 0.287673 0.413070 0.573315
O O4 0.421823 0.246501 0.167424
O O5 0.438298 0.834529 0.198097
O O6 0.674697 0.960938 0.155987
O O7 0.619908 0.568686 0.002196
O O8 0.792128 0.263262 0.752900
O O9 0.935297 0.550488 0.286053
O O10 0.881011 0.165893 0.237261
O O11 0.930685 0.209209 0.926313
O O12 0.103625 0.220180 0.058072
O O13 0.195819 0.140535 0.680527
O O14 0.824150 0.887892 0.658041
O O15 0.000000 0.000000 0.500000
#
# Coordination Sequence:
#
# PCOD9027962 Si02
#       7
#     2   2   2   2   2   2   2
#     4  10  22  41  70 108 141 184 248 302 366 436
#     4   9  20  43  74 102 145 192 240 305 379 417
#     4   9  22  42  74 105 146 196 239 308 366 439
#     4  11  27  46  71 107 147 194 245 304 365 443
#     4  11  23  45  72 102 142 192 247 299 371 435
#     4  12  26  43  73 107 144 196 240 302 371 430
#     4  12  26  47  71 110 149 191 251 293 364 445
#
# _framework density 25.619318
#
# number of rings (size 3 to 8) (size 9 to 14) (size 15 to 20)
#    0.857    0.571    1.429    3.000    6.000    0.000 
#    2.571    7.143    0.000    0.000    0.000    0.000 
#    0.000    0.000    0.000    0.000    0.000    0.000 
#
# Total GULP energy -78325.876867 kJ/mol
# GULP energy per Si atom -5594.705491 kJ/mol
# Density = 2.556101 g / cm^3
# Si number density = 25.619318 Si / 1000 Ang^3
#
#
#
# Elastic Constant Matrix: (Units=GPa)
#
#
# Indices 1 2 3 4 5 6 
#
# 1 142.8325 21.4218 24.1986 -26.2420 -6.6680 -4.9968
# 2 21.4218 100.6690 32.0416 -22.1495 1.8414 -7.7437
# 3 24.1986 32.0416 67.8528 -19.4530 -2.9921 -9.3815
# 4 -26.2420 -22.1495 -19.4530 53.8434 8.9351 -0.9047
# 5 -6.6680 1.8414 -2.9921 8.9351 41.6594 -8.6329
# 6 -4.9968 -7.7437 -9.3815 -0.9047 -8.6329 42.1643
#
#
#
# Elastic Compliance Matrix: (Units=1/GPa)
#
#
# Indices 1 2 3 4 5 6 
#
# 1 0.007954 -0.000475 -0.001628 0.002992 0.000680 0.000696
# 2 -0.000475 0.012363 -0.004613 0.003452 -0.001496 0.000956
# 3 -0.001628 -0.004613 0.019223 0.004118 0.001180 0.003567
# 4 0.002992 0.003452 0.004118 0.023649 -0.004125 0.001568
# 5 0.000680 -0.001496 0.001180 -0.004125 0.026259 0.005356
# 6 0.000696 0.000956 0.003567 0.001568 0.005356 0.025899
#
#
# Mechanical properties :
#
#
# Convention : Reuss Voigt Hill
#
# Bulk Modulus (GPa) = 38.30332 51.85314 45.07823
# Shear Modulus (GPa) = 36.36849 43.11288 39.74068
#
# Velocity S-wave (km/s) = 3.77181 4.10668 3.94280
# Velocity P-wave (km/s) = 5.82685 6.53989 6.19364
#
# Compressibility (1/GPa) = 0.02610740
#
# Stress axis : x y z
#
# Youngs Moduli (GPa) = 125.72137 80.88465 52.02208
#
# Poissons Ratio (x) = 0.03841 0.08472
# Poissons Ratio (y) = 0.05970 0.23998
# Poissons Ratio (z) = 0.20473 0.37312
#
# Static dielectric constant tensor:
#      x y z
#    x 2.032340 0.029160 -0.047620 
#    y 0.029160 2.133030 0.056170 
#    z -0.047620 0.056170 2.057700 
# 
# From -- ./inp_files/245330.got.cif
#   From: 2010.05.17/outbox.cif.g08.bks.cpg/sg2_123_cif.got.tgz:245330.got - 2010.06.03 11:33:40.
