data_PCOD9027869
_publ_section_title
;
Structure prediction by ZEFSAII (Michael W. Deem and Ramdas Pophale) SiO2 
 PCOD9027869
Probable space group: P -1
;
_chemical_formula_sum "Si O2"
_cell_formula_units_Z 16
_cell_length_a 12.680907
_cell_length_b 19.958327
_cell_length_c 23.139922
_cell_angle_alpha 16.174335
_cell_angle_beta 33.602548
_cell_angle_gamma 25.594007
_cell_volume 677.251376
_symmetry_space_group_name_H-M "P -1"
_symmetry_group_IT_number 2
_symmetry_cell_setting 'triclinic'
loop_
_space_group_symop_operation_xyz
x,y,z
-x,-y,-z
loop_
_atom_site_type_symbol
_atom_site_label
_atom_site_fract_x
_atom_site_fract_y
_atom_site_fract_z
Si Si1 0.755352 0.882250 0.038416
Si Si2 0.380872 0.709814 0.821263
Si Si3 0.347887 0.382084 0.016502
Si Si4 0.468697 0.430775 0.635730
Si Si5 0.573343 0.371757 0.809792
Si Si6 0.852521 0.577332 0.665350
Si Si7 0.764166 0.054680 0.588605
Si Si8 0.066276 0.232084 0.734601
O O1 0.722458 0.132716 0.801466
O O2 0.577824 0.132803 0.964487
O O3 0.678529 0.699540 0.194018
O O4 0.008542 0.600334 0.190710
O O5 0.597709 0.633161 0.742065
O O6 0.215410 0.087442 0.592346
O O7 0.500000 0.500000 0.000000
O O8 0.243301 0.618512 0.922303
O O9 0.204507 0.255732 0.172254
O O10 0.642457 0.080657 0.147751
O O11 0.382214 0.497299 0.845964
O O12 0.500000 0.500000 0.500000
O O13 0.315844 0.760646 0.467320
O O14 0.473600 0.677542 0.565155
O O15 0.857157 0.201581 0.841672
O O16 0.019614 0.363593 0.711612
O O17 0.000000 0.000000 0.500000
O O18 0.000000 0.500000 0.500000
#
# Coordination Sequence:
#
# PCOD9027869 Si02
#       8
#     2   2   2   2   2   2   2   2
#     4  10  22  41  69  98 134 179 230 302 357 405
#     4  11  26  42  63 103 149 191 231 282 363 442
#     4  12  23  43  73  99 139 188 233 291 354 424
#     4  10  23  44  70 102 135 177 246 306 351 418
#     4  11  22  42  71 104 139 177 239 296 352 429
#     4  11  24  44  66 102 148 182 232 296 357 437
#     4  11  27  46  69 101 142 187 243 296 357 425
#     4  12  22  40  73 108 135 180 231 294 360 424
#
# _framework density 23.624907
#
# number of rings (size 3 to 8) (size 9 to 14) (size 15 to 20)
#    0.000    1.000    3.750    2.625    0.000    3.500 
#    0.000    2.500    0.000    0.000    0.000    0.000 
#    0.000    0.000    0.000    0.000    0.000    0.000 
#
# Total GULP energy -89449.641885 kJ/mol
# GULP energy per Si atom -5590.602618 kJ/mol
# Density = 2.357114 g / cm^3
# Si number density = 23.624907 Si / 1000 Ang^3
#
#
#
# Elastic Constant Matrix: (Units=GPa)
#
#
# Indices 1 2 3 4 5 6 
#
# 1 112.2371 30.7405 54.4953 6.9141 -14.2055 24.4564
# 2 30.7405 71.3794 31.4252 8.4035 -9.7342 13.2291
# 3 54.4953 31.4252 137.2581 4.9820 -12.8256 28.5262
# 4 6.9141 8.4035 4.9820 33.2951 0.9409 3.4054
# 5 -14.2055 -9.7342 -12.8256 0.9409 56.4509 1.7423
# 6 24.4564 13.2291 28.5262 3.4054 1.7423 37.8172
#
#
#
# Elastic Compliance Matrix: (Units=1/GPa)
#
#
# Indices 1 2 3 4 5 6 
#
# 1 0.012557 -0.002728 -0.003122 -0.001020 0.002146 -0.004818
# 2 -0.002728 0.017195 -0.002030 -0.003267 0.001949 -0.002515
# 3 -0.003122 -0.002030 0.010148 0.000116 0.001322 -0.004997
# 4 -0.001020 -0.003267 0.000116 0.031196 -0.001282 -0.001035
# 5 0.002146 0.001949 0.001322 -0.001282 0.019031 -0.003828
# 6 -0.004818 -0.002515 -0.004997 -0.001035 -0.003828 0.034478
#
#
# Mechanical properties :
#
#
# Convention : Reuss Voigt Hill
#
# Bulk Modulus (GPa) = 41.42575 61.57742 51.50159
# Shear Modulus (GPa) = 33.69047 39.12688 36.40868
#
# Velocity S-wave (km/s) = 3.78041 4.07402 3.92996
# Velocity P-wave (km/s) = 6.05213 6.94632 6.51459
#
# Compressibility (1/GPa) = 0.02413957
#
# Stress axis : x y z
#
# Youngs Moduli (GPa) = 79.63675 58.15687 98.54435
#
# Poissons Ratio (x) = 0.15863 0.30766
# Poissons Ratio (y) = 0.21722 0.20008
# Poissons Ratio (z) = 0.24863 0.11808
#
# Static dielectric constant tensor:
#      x y z
#    x 1.947150 -0.050440 0.025920 
#    y -0.050440 1.908470 0.032080 
#    z 0.025920 0.032080 1.989730 
# 
# From -- ./inp_files/595939.got.cif
#   From: 2010.05.17/outbox.cif.g08.bks.cpg/sg2_298_cif.got.tgz:595939.got - 2010.06.03 11:33:40.
