data_PCOD9027297
_publ_section_title
;
Structure prediction by ZEFSAII (Michael W. Deem and Ramdas Pophale) SiO2 
 PCOD9027297
Probable space group: P -1
;
_chemical_formula_sum "Si O2"
_cell_formula_units_Z 16
_cell_length_a 9.007635
_cell_length_b 11.975937
_cell_length_c 18.581220
_cell_angle_alpha 37.789314
_cell_angle_beta 99.575082
_cell_angle_gamma 69.680282
_cell_volume 738.987337
_symmetry_space_group_name_H-M "P -1"
_symmetry_group_IT_number 2
_symmetry_cell_setting 'triclinic'
loop_
_space_group_symop_operation_xyz
x,y,z
-x,-y,-z
loop_
_atom_site_type_symbol
_atom_site_label
_atom_site_fract_x
_atom_site_fract_y
_atom_site_fract_z
Si Si1 0.419229 0.033032 0.157501
Si Si2 0.466485 0.247422 0.178044
Si Si3 0.127096 0.851121 0.753700
Si Si4 0.090691 0.151900 0.398721
Si Si5 0.426220 0.252893 0.906654
Si Si6 0.600014 0.462717 0.449180
Si Si7 0.855339 0.509055 0.832928
Si Si8 0.419124 0.525083 0.247940
O O1 0.487860 0.047230 0.233070
O O2 0.568245 0.710380 0.313294
O O3 0.452653 0.164975 0.036146
O O4 0.132006 0.250708 0.018193
O O5 0.718834 0.117605 0.270955
O O6 0.335599 0.322313 0.203216
O O7 0.288175 0.559429 0.962927
O O8 0.041691 0.824676 0.689926
O O9 0.884573 0.137551 0.631571
O O10 0.178434 0.268427 0.324060
O O11 0.859150 0.410719 0.301581
O O12 0.338024 0.796412 0.607390
O O13 0.596526 0.257125 0.895862
O O14 0.500000 0.000000 0.000000
O O15 0.500000 0.500000 0.500000
O O16 0.467600 0.496179 0.352108
O O17 0.805212 0.388556 0.837155
#
# Coordination Sequence:
#
# PCOD9027297 Si02
#       8
#     2   2   2   2   2   2   2   2
#     4  11  24  43  66  95 136 175 216 270 329 390
#     4  11  22  40  70  96 128 169 227 272 317 391
#     4  10  22  41  67  95 126 175 223 263 325 386
#     4  10  22  42  64  94 132 171 220 274 325 387
#     4  11  21  42  62  94 129 174 217 267 326 388
#     4  11  25  45  67  96 136 173 212 271 337 390
#     4  11  23  39  69 101 128 173 224 270 330 386
#     4  11  24  41  69  95 132 171 224 269 326 389
#
# _framework density 21.651250999999998
#
# number of rings (size 3 to 8) (size 9 to 14) (size 15 to 20)
#    0.000    1.250    3.750    2.625    5.250    2.000 
#    0.000    0.000    0.000    0.000    0.000    0.000 
#    0.000    0.000    0.000    0.000    0.000    0.000 
#
# Total GULP energy -89474.144123 kJ/mol
# GULP energy per Si atom -5592.134008 kJ/mol
# Density = 2.160197 g / cm^3
# Si number density = 21.651251 Si / 1000 Ang^3
#
#
#
# Elastic Constant Matrix: (Units=GPa)
#
#
# Indices 1 2 3 4 5 6 
#
# 1 147.3221 46.3822 14.2666 9.2778 2.5349 21.9793
# 2 46.3822 121.5025 17.0821 -4.6193 7.9177 11.0478
# 3 14.2666 17.0821 29.9104 -11.2341 -0.1683 13.6787
# 4 9.2778 -4.6193 -11.2341 40.4215 6.7757 -3.1568
# 5 2.5349 7.9177 -0.1683 6.7757 20.6594 -5.3060
# 6 21.9793 11.0478 13.6787 -3.1568 -5.3060 41.6954
#
#
#
# Elastic Compliance Matrix: (Units=1/GPa)
#
#
# Indices 1 2 3 4 5 6 
#
# 1 0.008566 -0.002800 -0.002185 -0.003184 0.000208 -0.003271
# 2 -0.002800 0.010194 -0.003792 0.001420 -0.004164 -0.000403
# 3 -0.002185 -0.003792 0.047593 0.013206 -0.005605 -0.013170
# 4 -0.003184 0.001420 0.013206 0.030940 -0.010720 -0.002052
# 5 0.000208 -0.004164 -0.005605 -0.010720 0.055787 0.009120
# 6 -0.003271 -0.000403 -0.013170 -0.002052 0.009120 0.031141
#
#
# Mechanical properties :
#
#
# Convention : Reuss Voigt Hill
#
# Bulk Modulus (GPa) = 20.49243 50.46632 35.47937
# Shear Modulus (GPa) = 22.93149 35.28886 29.11017
#
# Velocity S-wave (km/s) = 3.25796 4.04155 3.67072
# Velocity P-wave (km/s) = 4.86186 6.71850 5.86412
#
# Compressibility (1/GPa) = 0.04879852
#
# Stress axis : x y z
#
# Youngs Moduli (GPa) = 116.74143 98.09464 21.01150
#
# Poissons Ratio (x) = 0.27465 0.04592
# Poissons Ratio (y) = 0.32686 0.07968
# Poissons Ratio (z) = 0.25513 0.37198
#
# Static dielectric constant tensor:
#      x y z
#    x 1.770360 -0.011170 0.008780 
#    y -0.011170 1.797520 0.013840 
#    z 0.008780 0.013840 1.820540 
# 
# From -- ./inp_files/307834.got.cif
#   From: 2010.05.17/outbox.cif.g08.bks.cpg/sg2_154_cif.got.tgz:307834.got - 2010.06.03 11:33:40.
