data_PCOD9027187
_publ_section_title
;
Structure prediction by ZEFSAII (Michael W. Deem and Ramdas Pophale) SiO2 
 PCOD9027187
Probable space group: P -1
;
_chemical_formula_sum "Si O2"
_cell_formula_units_Z 16
_cell_length_a 11.621020
_cell_length_b 21.098354
_cell_length_c 9.152240
_cell_angle_alpha 124.026442
_cell_angle_beta 123.611430
_cell_angle_gamma 19.590857
_cell_volume 620.767957
_symmetry_space_group_name_H-M "P -1"
_symmetry_group_IT_number 2
_symmetry_cell_setting 'triclinic'
loop_
_space_group_symop_operation_xyz
x,y,z
-x,-y,-z
loop_
_atom_site_type_symbol
_atom_site_label
_atom_site_fract_x
_atom_site_fract_y
_atom_site_fract_z
Si Si1 0.709260 0.167870 0.776047
Si Si2 0.472840 0.881276 0.821609
Si Si3 0.174822 0.217529 0.654622
Si Si4 0.702656 0.769365 0.530226
Si Si5 0.512031 0.686227 0.506688
Si Si6 0.132121 0.063697 0.089726
Si Si7 0.242679 0.702642 0.577593
Si Si8 0.901895 0.473501 0.984307
O O1 0.583051 0.145571 0.624339
O O2 0.657444 0.237015 0.673461
O O3 0.421201 0.345526 0.911128
O O4 0.049968 0.018275 0.916224
O O5 0.586468 0.859692 0.721230
O O6 0.412433 0.823196 0.657014
O O7 0.807582 0.702085 0.926750
O O8 0.188504 0.066169 0.964348
O O9 0.196153 0.217194 0.495994
O O10 0.091756 0.172030 0.566122
O O11 0.876866 0.421458 0.777558
O O12 0.513088 0.089118 0.785016
O O13 0.072419 0.535780 0.501058
O O14 0.362406 0.706137 0.551158
O O15 0.866495 0.217765 0.231725
O O16 0.500000 0.500000 0.500000
O O17 0.000000 0.500000 0.000000
#
# Coordination Sequence:
#
# PCOD9027187 Si02
#       8
#     2   2   2   2   2   2   2   2
#     4  11  22  39  66 102 135 166 219 271 332 392
#     4  10  22  41  67 102 136 163 213 282 336 380
#     4  11  24  43  67  95 136 176 217 272 325 391
#     4  11  20  41  71 101 135 170 215 272 337 385
#     4  11  22  42  71 101 130 175 223 269 325 387
#     4  11  28  43  64 105 134 172 221 269 340 386
#     4  12  26  47  70  91 130 182 232 263 316 400
#     4  11  19  37  67 100 128 169 218 272 320 381
#
# _framework density 25.774526000000002
#
# number of rings (size 3 to 8) (size 9 to 14) (size 15 to 20)
#    0.000    1.000    5.000    1.875    1.750    5.000 
#    0.000    6.250    0.000    0.000    0.000    0.000 
#    0.000    0.000    0.000    0.000    0.000    0.000 
#
# Total GULP energy -89326.650049 kJ/mol
# GULP energy per Si atom -5582.915628 kJ/mol
# Density = 2.571586 g / cm^3
# Si number density = 25.774526 Si / 1000 Ang^3
#
#
#
# Elastic Constant Matrix: (Units=GPa)
#
#
# Indices 1 2 3 4 5 6 
#
# 1 133.3069 28.4082 95.1251 3.1162 -16.1656 -14.8447
# 2 28.4082 70.5114 22.4962 12.4374 -20.5503 -12.9726
# 3 95.1251 22.4962 161.1712 24.1127 -46.5743 -15.2132
# 4 3.1162 12.4374 24.1127 61.4042 -23.7928 -9.2546
# 5 -16.1656 -20.5503 -46.5743 -23.7928 48.5318 11.3744
# 6 -14.8447 -12.9726 -15.2132 -9.2546 11.3744 29.0981
#
#
#
# Elastic Compliance Matrix: (Units=1/GPa)
#
#
# Indices 1 2 3 4 5 6 
#
# 1 0.015390 -0.004506 -0.010300 0.002239 -0.006432 0.003684
# 2 -0.004506 0.018199 0.002807 -0.001074 0.007426 0.004038
# 3 -0.010300 0.002807 0.015534 -0.001613 0.012142 -0.001141
# 4 0.002239 -0.001074 -0.001613 0.020652 0.008114 0.003217
# 5 -0.006432 0.007426 0.012142 0.008114 0.038682 -0.006163
# 6 0.003684 0.004038 -0.001141 0.003217 -0.006163 0.040881
#
#
# Mechanical properties :
#
#
# Convention : Reuss Voigt Hill
#
# Bulk Modulus (GPa) = 39.80191 73.00538 56.40365
# Shear Modulus (GPa) = 27.51635 42.40415 34.96025
#
# Velocity S-wave (km/s) = 3.27093 4.06050 3.68691
# Velocity P-wave (km/s) = 5.45355 7.09716 6.32894
#
# Compressibility (1/GPa) = 0.02512442
#
# Stress axis : x y z
#
# Youngs Moduli (GPa) = 64.97893 54.94951 64.37286
#
# Poissons Ratio (x) = 0.24760 0.66305
# Poissons Ratio (y) = 0.29279 -0.18070
# Poissons Ratio (z) = 0.66930 -0.15425
#
# Static dielectric constant tensor:
#      x y z
#    x 2.032110 -0.124030 0.027610 
#    y -0.124030 2.129050 0.011500 
#    z 0.027610 0.011500 1.975360 
# 
# From -- ./inp_files/285188.got.cif
#   From: 2010.05.17/outbox.cif.g08.bks.cpg/sg2_143_cif.got.tgz:285188.got - 2010.06.03 11:33:40.
