data_PCOD9027991
_publ_section_title
;
Structure prediction by ZEFSAII (Michael W. Deem and Ramdas Pophale) SiO2 
 PCOD9027991
Probable space group: P -1
;
_chemical_formula_sum "Si O2"
_cell_formula_units_Z 15
_cell_length_a 13.742546
_cell_length_b 20.713351
_cell_length_c 10.502155
_cell_angle_alpha 36.089330
_cell_angle_beta 47.729154
_cell_angle_gamma 24.931742
_cell_volume 720.190215
_symmetry_space_group_name_H-M "P -1"
_symmetry_group_IT_number 2
_symmetry_cell_setting 'triclinic'
loop_
_space_group_symop_operation_xyz
x,y,z
-x,-y,-z
loop_
_atom_site_type_symbol
_atom_site_label
_atom_site_fract_x
_atom_site_fract_y
_atom_site_fract_z
Si Si1 0.422246 0.928016 0.803238
Si Si2 0.088694 0.542403 0.276950
Si Si3 0.503911 0.877844 0.524157
Si Si4 0.000000 0.500000 0.000000
Si Si5 0.926550 0.756873 0.841452
Si Si6 0.158281 0.824434 0.536835
Si Si7 0.633077 0.462735 0.822220
Si Si8 0.967592 0.969667 0.938778
O O1 0.379297 0.946746 0.659730
O O2 0.703054 0.713850 0.919382
O O3 0.369413 0.091366 0.624799
O O4 0.250936 0.964247 0.967924
O O5 0.309153 0.346114 0.311219
O O6 0.187752 0.568775 0.236405
O O7 0.000000 0.500000 0.500000
O O8 0.896570 0.720304 0.062648
O O9 0.312085 0.021108 0.353924
O O10 0.006229 0.610027 0.904044
O O11 0.111379 0.727256 0.744475
O O12 0.432774 0.652341 0.604880
O O13 0.087222 0.911274 0.319713
O O14 0.000000 0.000000 0.500000
O O15 0.500000 0.500000 0.000000
O O16 0.790333 0.262068 0.936141
O O17 0.000000 0.000000 0.000000
#
# Coordination Sequence:
#
# PCOD9027991 Si02
#       8
#     2   2   2   1   2   2   2   2
#     4  10  22  44  66 104 145 180 245 297 374 429
#     4  12  25  43  71 102 138 185 252 300 359 435
#     4  10  22  41  70  94 138 190 222 306 366 429
#     4  10  22  42  74  94 142 192 228 306 370 440
#     4  11  23  41  70  99 136 185 246 286 373 439
#     4  12  25  47  76 105 146 205 244 299 377 452
#     4  12  26  47  75 102 150 200 246 301 378 450
#     4  12  28  46  72 112 151 186 253 313 355 447
#
# _framework density 20.827832999999998
#
# number of rings (size 3 to 8) (size 9 to 14) (size 15 to 20)
#    0.000    0.800    4.000    2.400    3.733    3.200 
#    9.600    0.000    0.000    0.000    0.000    0.000 
#    0.000    0.000    0.000    0.000    0.000    0.000 
#
# Total GULP energy -83637.410439 kJ/mol
# GULP energy per Si atom -5575.827363 kJ/mol
# Density = 2.078043 g / cm^3
# Si number density = 20.827833 Si / 1000 Ang^3
#
#
#
# Elastic Constant Matrix: (Units=GPa)
#
#
# Indices 1 2 3 4 5 6 
#
# 1 94.7953 39.4796 27.4181 -1.1149 3.9909 16.8535
# 2 39.4796 86.3690 28.0978 -14.7188 9.6699 6.1474
# 3 27.4181 28.0978 97.2466 9.7508 12.0133 -0.3916
# 4 -1.1149 -14.7188 9.7508 35.6251 -11.7430 0.0298
# 5 3.9909 9.6699 12.0133 -11.7430 41.3359 -9.5961
# 6 16.8535 6.1474 -0.3916 0.0298 -9.5961 26.8049
#
#
#
# Elastic Compliance Matrix: (Units=1/GPa)
#
#
# Indices 1 2 3 4 5 6 
#
# 1 0.015247 -0.005692 -0.002226 -0.001971 -0.002162 -0.009085
# 2 -0.005692 0.016878 -0.004055 0.007882 -0.000070 -0.000385
# 3 -0.002226 -0.004055 0.013321 -0.006854 -0.004436 0.000944
# 4 -0.001971 0.007882 -0.006854 0.036977 0.011646 0.003459
# 5 -0.002162 -0.000070 -0.004436 0.011646 0.031974 0.012745
# 6 -0.009085 -0.000385 0.000944 0.003459 0.012745 0.047680
#
#
# Mechanical properties :
#
#
# Convention : Reuss Voigt Hill
#
# Bulk Modulus (GPa) = 46.51176 52.04468 49.27822
# Shear Modulus (GPa) = 25.88141 32.98087 29.43114
#
# Velocity S-wave (km/s) = 3.52893 3.98364 3.76316
# Velocity P-wave (km/s) = 6.24375 6.79717 6.52633
#
# Compressibility (1/GPa) = 0.02149994
#
# Stress axis : x y z
#
# Youngs Moduli (GPa) = 65.58813 59.24931 75.06729
#
# Poissons Ratio (x) = 0.33726 0.16709
# Poissons Ratio (y) = 0.37334 0.30439
# Poissons Ratio (z) = 0.14599 0.24025
#
# Static dielectric constant tensor:
#      x y z
#    x 20.780850 0.104950 9.693430 
#    y 0.104950 1.724460 0.071040 
#    z 9.693430 0.071040 6.678250 
# 
# From -- ./inp_files/278773.got.cif
#   From: 2010.05.17/outbox.cif.g08.bks.cpg/sg2_140_cif.got.tgz:278773.got - 2010.06.03 11:33:40.
