data_PCOD9027528
_publ_section_title
;
Structure prediction by ZEFSAII (Michael W. Deem and Ramdas Pophale) SiO2 
 PCOD9027528
Probable space group: P -1
;
_chemical_formula_sum "Si O2"
_cell_formula_units_Z 16
_cell_length_a 10.502124
_cell_length_b 10.774457
_cell_length_c 17.383785
_cell_angle_alpha 148.448697
_cell_angle_beta 137.172908
_cell_angle_gamma 61.335712
_cell_volume 638.647279
_symmetry_space_group_name_H-M "P -1"
_symmetry_group_IT_number 2
_symmetry_cell_setting 'triclinic'
loop_
_space_group_symop_operation_xyz
x,y,z
-x,-y,-z
loop_
_atom_site_type_symbol
_atom_site_label
_atom_site_fract_x
_atom_site_fract_y
_atom_site_fract_z
Si Si1 0.397865 0.006365 0.558899
Si Si2 0.301131 0.900736 0.623394
Si Si3 0.988627 0.367553 0.229205
Si Si4 0.942775 0.781618 0.660376
Si Si5 0.841589 0.217148 0.807319
Si Si6 0.679288 0.839166 0.788422
Si Si7 0.657119 0.950190 0.103891
Si Si8 0.542273 0.523856 0.717161
O O1 0.329137 0.054807 0.637865
O O2 0.237702 0.978734 0.405239
O O3 0.398917 0.717881 0.399441
O O4 0.630782 0.195965 0.741919
O O5 0.076655 0.665714 0.402497
O O6 0.461897 0.764442 0.613204
O O7 0.362903 0.035497 0.805472
O O8 0.961876 0.322188 0.283804
O O9 0.164315 0.264020 0.233254
O O10 0.784449 0.151708 0.990095
O O11 0.704950 0.585721 0.446961
O O12 0.936557 0.063651 0.823318
O O13 0.111164 0.847077 0.703418
O O14 0.000000 0.500000 0.000000
O O15 0.629965 0.729350 0.795041
O O16 0.629843 0.669811 0.912680
O O17 0.500000 0.000000 0.000000
#
# Coordination Sequence:
#
# PCOD9027528 Si02
#       8
#     2   2   2   2   2   2   2   2
#     4  10  23  41  66  94 118 158 208 261 310 354
#     4  12  23  38  59  89 131 160 203 252 301 366
#     4  11  21  33  59  91 122 160 201 246 307 372
#     4  11  22  38  61  86 120 170 202 248 311 361
#     4  10  22  41  68  92 118 154 210 266 309 358
#     4  11  20  33  55  88 121 161 194 247 305 355
#     4  12  24  39  57  90 130 172 202 243 304 376
#     4  11  20  39  60  83 128 160 204 246 302 370
#
# _framework density 25.052951
#
# number of rings (size 3 to 8) (size 9 to 14) (size 15 to 20)
#    0.000    1.000    5.000    2.625    0.000    4.000 
#    0.000    0.625    0.000   10.500    0.000    0.000 
#    0.000    0.000    0.000    0.000    0.000    0.000 
#
# Total GULP energy -89409.020887 kJ/mol
# GULP energy per Si atom -5588.063805 kJ/mol
# Density = 2.499593 g / cm^3
# Si number density = 25.052951 Si / 1000 Ang^3
#
#
#
# Elastic Constant Matrix: (Units=GPa)
#
#
# Indices 1 2 3 4 5 6 
#
# 1 95.7125 20.2890 30.9104 -6.2238 -3.4459 34.1546
# 2 20.2890 68.5880 17.7896 3.3001 -1.5482 24.4893
# 3 30.9104 17.7896 131.2090 12.3377 12.7261 18.7083
# 4 -6.2238 3.3001 12.3377 34.5400 5.0243 -0.1800
# 5 -3.4459 -1.5482 12.7261 5.0243 44.8183 -3.9285
# 6 34.1546 24.4893 18.7083 -0.1800 -3.9285 45.9469
#
#
#
# Elastic Compliance Matrix: (Units=1/GPa)
#
#
# Indices 1 2 3 4 5 6 
#
# 1 0.015141 -0.000441 -0.002476 0.003518 0.000586 -0.009948
# 2 -0.000441 0.018252 -0.000967 -0.001562 0.000258 -0.008991
# 3 -0.002476 -0.000967 0.009119 -0.003243 -0.002589 -0.001591
# 4 0.003518 -0.001562 -0.003243 0.031241 -0.002413 -0.000546
# 5 0.000586 0.000258 -0.002589 -0.002413 0.023590 0.002489
# 6 -0.009948 -0.008991 -0.001591 -0.000546 0.002489 0.034809
#
#
# Mechanical properties :
#
#
# Convention : Reuss Voigt Hill
#
# Bulk Modulus (GPa) = 28.78217 48.16526 38.47372
# Shear Modulus (GPa) = 33.00285 40.16242 36.58264
#
# Velocity S-wave (km/s) = 3.63343 4.00822 3.82542
# Velocity P-wave (km/s) = 5.39592 6.37873 5.90780
#
# Compressibility (1/GPa) = 0.03474374
#
# Stress axis : x y z
#
# Youngs Moduli (GPa) = 66.04672 54.78787 109.66414
#
# Poissons Ratio (x) = 0.02414 0.27156
# Poissons Ratio (y) = 0.02910 0.10605
# Poissons Ratio (z) = 0.16355 0.05298
#
# Static dielectric constant tensor:
#      x y z
#    x 2.044100 -0.018750 -0.061430 
#    y -0.018750 2.083190 0.025970 
#    z -0.061430 0.025970 2.037810 
# 
# From -- ./inp_files/568258.got.cif
#   From: 2010.05.17/outbox.cif.g08.bks.cpg/sg2_285_cif.got.tgz:568258.got - 2010.06.03 11:33:40.
