data_PCOD9027768
_publ_section_title
;
Structure prediction by ZEFSAII (Michael W. Deem and Ramdas Pophale) SiO2 
 PCOD9027768
Probable space group: P -1
;
_chemical_formula_sum "Si O2"
_cell_formula_units_Z 16
_cell_length_a 12.030182
_cell_length_b 17.523025
_cell_length_c 9.106401
_cell_angle_alpha 119.266050
_cell_angle_beta 51.795031
_cell_angle_gamma 151.574333
_cell_volume 710.250444
_symmetry_space_group_name_H-M "P -1"
_symmetry_group_IT_number 2
_symmetry_cell_setting 'triclinic'
loop_
_space_group_symop_operation_xyz
x,y,z
-x,-y,-z
loop_
_atom_site_type_symbol
_atom_site_label
_atom_site_fract_x
_atom_site_fract_y
_atom_site_fract_z
Si Si1 0.905650 0.736373 0.825456
Si Si2 0.828828 0.452970 0.225438
Si Si3 0.939959 0.037215 0.455485
Si Si4 0.562256 0.764819 0.893634
Si Si5 0.012466 0.744364 0.423169
Si Si6 0.384236 0.570308 0.116360
Si Si7 0.503875 0.101117 0.725625
Si Si8 0.363210 0.721817 0.492754
O O1 0.843156 0.617973 0.858024
O O2 0.867804 0.690570 0.643475
O O3 0.674474 0.681262 0.009911
O O4 0.202428 0.921952 0.773418
O O5 0.540016 0.293884 0.243041
O O6 0.831826 0.400273 0.326333
O O7 0.902544 0.593618 0.316610
O O8 0.000000 0.500000 0.000000
O O9 0.001045 0.170704 0.573094
O O10 0.137482 0.108807 0.232434
O O11 0.648796 0.881632 0.482605
O O12 0.000000 0.000000 0.500000
O O13 0.396953 0.611715 0.980931
O O14 0.510482 0.829503 0.076366
O O15 0.317258 0.882508 0.340561
O O16 0.349383 0.627720 0.317149
O O17 0.647178 0.208791 0.559967
#
# Coordination Sequence:
#
# PCOD9027768 Si02
#       8
#     2   2   2   2   2   2   2   2
#     4  11  21  40  70 110 140 170 242 294 353 408
#     4  12  26  48  68 102 149 191 234 288 357 433
#     4  12  25  46  71 104 141 188 239 290 352 424
#     4  11  23  46  69 101 144 191 231 287 356 418
#     4  12  25  46  71 103 143 189 239 290 354 420
#     4  10  22  41  69 107 140 180 235 300 344 419
#     4  11  24  44  76 104 142 187 232 300 348 418
#     4  11  23  43  75 100 141 187 237 288 358 415
#
# _framework density 22.527265
#
# number of rings (size 3 to 8) (size 9 to 14) (size 15 to 20)
#    0.000    0.750    6.250    1.125    0.000    4.000 
#    6.750    1.250    0.000    0.000    0.000    0.000 
#    0.000    0.000    0.000    0.000    0.000    0.000 
#
# Total GULP energy -89401.969513 kJ/mol
# GULP energy per Si atom -5587.623095 kJ/mol
# Density = 2.247599 g / cm^3
# Si number density = 22.527265 Si / 1000 Ang^3
#
#
#
# Elastic Constant Matrix: (Units=GPa)
#
#
# Indices 1 2 3 4 5 6 
#
# 1 104.7033 48.0312 41.0140 4.5116 -4.4080 -32.5437
# 2 48.0312 88.7189 38.0154 -3.7152 7.3967 -9.0449
# 3 41.0140 38.0154 105.6354 -9.8919 0.6046 -12.2236
# 4 4.5116 -3.7152 -9.8919 38.8087 2.5333 2.3567
# 5 -4.4080 7.3967 0.6046 2.5333 31.4843 -4.1543
# 6 -32.5437 -9.0449 -12.2236 2.3567 -4.1543 35.4893
#
#
#
# Elastic Compliance Matrix: (Units=1/GPa)
#
#
# Indices 1 2 3 4 5 6 
#
# 1 0.020873 -0.008963 -0.003498 -0.005714 0.007791 0.016943
# 2 -0.008963 0.017551 -0.003218 0.002663 -0.006292 -0.005768
# 3 -0.003498 -0.003218 0.012283 0.003247 -0.000236 -0.000040
# 4 -0.005714 0.002663 0.003247 0.028164 -0.004525 -0.005842
# 5 0.007791 -0.006292 -0.000236 -0.004525 0.036016 0.009976
# 6 0.016943 -0.005768 -0.000040 -0.005842 0.009976 0.043786
#
#
# Mechanical properties :
#
#
# Convention : Reuss Voigt Hill
#
# Bulk Modulus (GPa) = 51.68067 61.46433 56.57250
# Shear Modulus (GPa) = 25.44778 32.62292 29.03535
#
# Velocity S-wave (km/s) = 3.36466 3.80959 3.59402
# Velocity P-wave (km/s) = 6.17137 6.83332 6.51076
#
# Compressibility (1/GPa) = 0.01934959
#
# Stress axis : x y z
#
# Youngs Moduli (GPa) = 47.90924 56.97670 81.41022
#
# Poissons Ratio (x) = 0.51068 0.28474
# Poissons Ratio (y) = 0.42941 0.26200
# Poissons Ratio (z) = 0.16757 0.18336
#
# Static dielectric constant tensor:
#      x y z
#    x 1.922570 0.005210 -0.009320 
#    y 0.005210 1.875920 -0.037880 
#    z -0.009320 -0.037880 1.824110 
# 
# From -- ./inp_files/257653.got.cif
#   From: 2010.05.17/outbox.cif.g08.bks.cpg/sg2_129_cif.got.tgz:257653.got - 2010.06.03 11:33:40.
