data_PCOD9027049
_publ_section_title
;
Structure prediction by ZEFSAII (Michael W. Deem and Ramdas Pophale) SiO2 
 PCOD9027049
Probable space group: P -1
;
_chemical_formula_sum "Si O2"
_cell_formula_units_Z 16
_cell_length_a 14.949139
_cell_length_b 11.910075
_cell_length_c 9.148163
_cell_angle_alpha 106.450439
_cell_angle_beta 95.342828
_cell_angle_gamma 29.855389
_cell_volume 736.909719
_symmetry_space_group_name_H-M "P -1"
_symmetry_group_IT_number 2
_symmetry_cell_setting 'triclinic'
loop_
_space_group_symop_operation_xyz
x,y,z
-x,-y,-z
loop_
_atom_site_type_symbol
_atom_site_label
_atom_site_fract_x
_atom_site_fract_y
_atom_site_fract_z
Si Si1 0.592471 0.030200 0.344084
Si Si2 0.317476 0.462000 0.662392
Si Si3 0.347721 0.799495 0.927676
Si Si4 0.090000 0.163517 0.790462
Si Si5 0.803212 0.551183 0.113569
Si Si6 0.474916 0.168655 0.069262
Si Si7 0.023651 0.841609 0.499805
Si Si8 0.370130 0.714278 0.235719
O O1 0.748364 0.951393 0.313040
O O2 0.704046 0.781037 0.245765
O O3 0.472046 0.188962 0.528904
O O4 0.447919 0.212413 0.253831
O O5 0.176008 0.562664 0.792703
O O6 0.190354 0.645308 0.572749
O O7 0.452032 0.406889 0.734747
O O8 0.361507 0.924821 0.974486
O O9 0.546991 0.511133 0.806113
O O10 0.191289 0.953167 0.836294
O O11 0.320711 0.786495 0.083353
O O12 0.960577 0.255592 0.679571
O O13 0.977387 0.374266 0.966208
O O14 0.667335 0.641274 0.011881
O O15 0.500000 0.000000 0.000000
O O16 0.000000 0.000000 0.500000
O O17 0.821536 0.040635 0.616420
#
# Coordination Sequence:
#
# PCOD9027049 Si02
#       8
#     2   2   2   2   2   2   2   2
#     4  10  22  41  66  95 135 176 218 273 335 390
#     4  12  24  44  68  98 137 174 218 275 342 394
#     4  10  22  41  67  93 129 179 215 272 336 390
#     4  11  23  41  66  95 135 172 226 272 328 394
#     4  11  22  40  66  98 131 174 226 270 327 405
#     4   9  19  37  63  92 125 169 218 264 320 392
#     4  12  28  42  67  98 132 176 226 275 335 401
#     4  11  24  44  66  98 137 173 221 281 337 389
#
# _framework density 21.712292999999999
#
# number of rings (size 3 to 8) (size 9 to 14) (size 15 to 20)
#    0.000    1.250    2.500    3.000    5.250    1.000 
#    0.000    3.750    0.000    0.000    0.000    0.000 
#    0.000    0.000    0.000    0.000    0.000    0.000 
#
# Total GULP energy -89143.947953 kJ/mol
# GULP energy per Si atom -5571.496747 kJ/mol
# Density = 2.166287 g / cm^3
# Si number density = 21.712293 Si / 1000 Ang^3
#
#
#
# Elastic Constant Matrix: (Units=GPa)
#
#
# Indices 1 2 3 4 5 6 
#
# 1 53.3901 23.9439 25.5735 -8.6445 8.7163 2.6791
# 2 23.9439 97.4192 23.4128 -18.1090 3.1024 -3.8846
# 3 25.5735 23.4128 88.1470 3.6176 -3.8752 1.3850
# 4 -8.6445 -18.1090 3.6176 42.0837 -3.5562 -0.9037
# 5 8.7163 3.1024 -3.8752 -3.5562 26.7232 -7.2200
# 6 2.6791 -3.8846 1.3850 -0.9037 -7.2200 26.4225
#
#
#
# Elastic Compliance Matrix: (Units=1/GPa)
#
#
# Indices 1 2 3 4 5 6 
#
# 1 0.026443 -0.004080 -0.007086 0.003299 -0.010252 -0.005598
# 2 -0.004080 0.012881 -0.002449 0.005055 0.000926 0.002862
# 3 -0.007086 -0.002449 0.014372 -0.003356 0.004422 0.000699
# 4 0.003299 0.005055 -0.003356 0.027118 0.002017 0.002063
# 5 -0.010252 0.000926 0.004422 0.002017 0.045176 0.013357
# 6 -0.005598 0.002862 0.000699 0.002063 0.013357 0.042519
#
#
# Mechanical properties :
#
#
# Convention : Reuss Voigt Hill
#
# Bulk Modulus (GPa) = 37.78545 42.75739 40.27142
# Shear Modulus (GPa) = 24.44268 30.11427 27.27848
#
# Velocity S-wave (km/s) = 3.35886 3.72824 3.54836
# Velocity P-wave (km/s) = 5.69940 6.18616 5.94776
#
# Compressibility (1/GPa) = 0.02646521
#
# Stress axis : x y z
#
# Youngs Moduli (GPa) = 37.81758 77.63669 69.57826
#
# Poissons Ratio (x) = 0.31673 0.49305
# Poissons Ratio (y) = 0.15428 0.17042
# Poissons Ratio (z) = 0.26798 0.19016
#
# Static dielectric constant tensor:
#      x y z
#    x 1.819780 -0.026870 0.005830 
#    y -0.026870 1.847720 0.032080 
#    z 0.005830 0.032080 1.833410 
# 
# From -- ./inp_files/308065.got.cif
#   From: 2010.05.17/outbox.cif.g08.bks.cpg/sg2_155_cif.got.tgz:308065.got - 2010.06.03 11:33:40.
