data_PCOD9027349
_publ_section_title
;
Structure prediction by ZEFSAII (Michael W. Deem and Ramdas Pophale) SiO2 
 PCOD9027349
Probable space group: P -1
;
_chemical_formula_sum "Si O2"
_cell_formula_units_Z 16
_cell_length_a 11.593030
_cell_length_b 17.021582
_cell_length_c 5.206124
_cell_angle_alpha 79.467998
_cell_angle_beta 119.309657
_cell_angle_gamma 131.354521
_cell_volume 656.726018
_symmetry_space_group_name_H-M "P -1"
_symmetry_group_IT_number 2
_symmetry_cell_setting 'triclinic'
loop_
_space_group_symop_operation_xyz
x,y,z
-x,-y,-z
loop_
_atom_site_type_symbol
_atom_site_label
_atom_site_fract_x
_atom_site_fract_y
_atom_site_fract_z
Si Si1 0.687661 0.296814 0.724975
Si Si2 0.207279 0.845530 0.665304
Si Si3 0.023181 0.375486 0.760678
Si Si4 0.326673 0.615853 0.833792
Si Si5 0.083743 0.259660 0.220796
Si Si6 0.435872 0.427319 0.725895
Si Si7 0.086115 0.945303 0.106177
Si Si8 0.524048 0.921515 0.684803
O O1 0.890635 0.364234 0.820970
O O2 0.627931 0.342096 0.432052
O O3 0.571263 0.177064 0.558471
O O4 0.687892 0.318841 0.011868
O O5 0.095258 0.729595 0.479827
O O6 0.155068 0.910805 0.433872
O O7 0.405794 0.890952 0.828851
O O8 0.120249 0.812659 0.869302
O O9 0.148144 0.491191 0.702783
O O10 0.135299 0.354936 0.045922
O O11 0.472820 0.620894 0.123350
O O12 0.226044 0.324504 0.560343
O O13 0.072108 0.170452 0.123134
O O14 0.500000 0.500000 0.500000
O O15 0.500000 0.500000 0.000000
O O16 0.272214 0.024643 0.101447
O O17 0.000000 0.000000 0.000000
O O18 0.500000 0.000000 0.500000
#
# Coordination Sequence:
#
# PCOD9027349 Si02
#       8
#     2   2   2   2   2   2   2   2
#     4  11  26  42  68 104 140 181 232 297 357 421
#     4   9  21  41  68  97 132 185 245 286 352 444
#     4  10  22  41  67  96 141 178 232 282 356 425
#     4  12  25  43  66 103 144 183 230 297 357 423
#     4  11  24  41  72 103 132 191 242 290 351 443
#     4  12  26  46  72 101 144 196 238 285 354 438
#     4  10  23  42  67  99 142 177 237 308 367 416
#     4   9  21  47  67  96 136 187 241 290 360 425
#
# _framework density 24.363284
#
# number of rings (size 3 to 8) (size 9 to 14) (size 15 to 20)
#    0.000    1.500    1.250    3.000    8.750    2.000 
#    4.500    0.000    0.000    0.000    0.000    0.000 
#    0.000    0.000    0.000    0.000    0.000    0.000 
#
# Total GULP energy -89274.541679 kJ/mol
# GULP energy per Si atom -5579.658855 kJ/mol
# Density = 2.430783 g / cm^3
# Si number density = 24.363284 Si / 1000 Ang^3
#
#
#
# Elastic Constant Matrix: (Units=GPa)
#
#
# Indices 1 2 3 4 5 6 
#
# 1 107.7218 35.3846 33.8610 -5.5337 26.0201 -8.4886
# 2 35.3846 105.9508 39.6975 -3.9663 16.6513 -14.7662
# 3 33.8610 39.6975 85.8124 -4.0769 8.8904 -6.5294
# 4 -5.5337 -3.9663 -4.0769 44.5142 1.3853 5.7943
# 5 26.0201 16.6513 8.8904 1.3853 42.0641 2.7627
# 6 -8.4886 -14.7662 -6.5294 5.7943 2.7627 37.3388
#
#
#
# Elastic Compliance Matrix: (Units=1/GPa)
#
#
# Indices 1 2 3 4 5 6 
#
# 1 0.012694 -0.001612 -0.003371 0.001075 -0.006668 0.001986
# 2 -0.001612 0.012819 -0.004626 0.000085 -0.003374 0.004130
# 3 -0.003371 -0.004626 0.015067 0.000539 0.000721 -0.000098
# 4 0.001075 0.000085 0.000539 0.023103 -0.001369 -0.003111
# 5 -0.006668 -0.003374 0.000721 -0.001369 0.029434 -0.004690
# 6 0.001986 0.004130 -0.000098 -0.003111 -0.004690 0.029679
#
#
# Mechanical properties :
#
#
# Convention : Reuss Voigt Hill
#
# Bulk Modulus (GPa) = 46.80948 57.48569 52.14758
# Shear Modulus (GPa) = 33.52656 37.48622 35.50639
#
# Velocity S-wave (km/s) = 3.71362 3.92680 3.82170
# Velocity P-wave (km/s) = 6.13537 6.64877 6.39722
#
# Compressibility (1/GPa) = 0.02136319
#
# Stress axis : x y z
#
# Youngs Moduli (GPa) = 78.77471 78.00849 66.37022
#
# Poissons Ratio (x) = 0.12573 0.22370
# Poissons Ratio (y) = 0.12697 0.30705
# Poissons Ratio (z) = 0.26551 0.36089
#
# Static dielectric constant tensor:
#      x y z
#    x 2.004610 0.069180 0.025950 
#    y 0.069180 1.984260 -0.065000 
#    z 0.025950 -0.065000 1.991810 
# 
# From -- ./inp_files/81371.got.cif
#   From: 2010.05.17/outbox.cif.g08.bks.cpg/sg2_41_cif.got.tgz:81371.got - 2010.06.03 11:33:40.
