data_PCOD9027750
_publ_section_title
;
Structure prediction by ZEFSAII (Michael W. Deem and Ramdas Pophale) SiO2 
 PCOD9027750
Probable space group: P -1
;
_chemical_formula_sum "Si O2"
_cell_formula_units_Z 14
_cell_length_a 8.965957
_cell_length_b 10.424533
_cell_length_c 21.105200
_cell_angle_alpha 22.307301
_cell_angle_beta 55.403108
_cell_angle_gamma 63.318157
_cell_volume 597.705222
_symmetry_space_group_name_H-M "P -1"
_symmetry_group_IT_number 2
_symmetry_cell_setting 'triclinic'
loop_
_space_group_symop_operation_xyz
x,y,z
-x,-y,-z
loop_
_atom_site_type_symbol
_atom_site_label
_atom_site_fract_x
_atom_site_fract_y
_atom_site_fract_z
Si Si1 0.289638 0.315519 0.652997
Si Si2 0.044451 0.619585 0.077966
Si Si3 0.018101 0.616952 0.657536
Si Si4 0.320521 0.350543 0.929086
Si Si5 0.209644 0.480779 0.468526
Si Si6 0.669640 0.440220 0.729841
Si Si7 0.321083 0.279411 0.106062
O O1 0.500000 0.500000 0.500000
O O2 0.199062 0.587054 0.588452
O O3 0.202278 0.227607 0.644682
O O4 0.215057 0.962869 0.871448
O O5 0.134167 0.310172 0.173707
O O6 0.990346 0.571410 0.186615
O O7 0.867522 0.647525 0.064944
O O8 0.841896 0.471443 0.721466
O O9 0.000000 0.000000 0.500000
O O10 0.501723 0.553364 0.753774
O O11 0.314893 0.438156 0.964451
O O12 0.362613 0.965649 0.095999
O O13 0.285582 0.370170 0.435071
O O14 0.000000 0.500000 0.500000
O O15 0.318726 0.872255 0.284793
O O16 0.500000 0.500000 0.000000
#
# Coordination Sequence:
#
# PCOD9027750 Si02
#       7
#     2   2   2   2   2   2   2
#     4  12  26  43  70 107 143 185 236 300 358 421
#     4  12  25  44  73 103 145 182 244 302 351 424
#     4  12  26  48  71 103 144 191 241 294 364 432
#     4  10  22  41  69 105 134 182 237 292 354 419
#     4  11  22  44  70  96 141 188 236 283 361 430
#     4  10  22  42  70  97 137 185 234 285 360 425
#     4  11  23  43  69 102 140 189 234 292 357 433
#
# _framework density 23.422917999999999
#
# number of rings (size 3 to 8) (size 9 to 14) (size 15 to 20)
#    0.000    0.857    2.857    4.286    2.000    2.286 
#    0.000    0.714    0.000    0.000    0.000    0.000 
#    0.000    0.000    0.000    0.000    0.000    0.000 
#
# Total GULP energy -78273.812799 kJ/mol
# GULP energy per Si atom -5590.986629 kJ/mol
# Density = 2.336961 g / cm^3
# Si number density = 23.422918 Si / 1000 Ang^3
#
#
#
# Elastic Constant Matrix: (Units=GPa)
#
#
# Indices 1 2 3 4 5 6 
#
# 1 107.4559 60.3485 44.8309 25.9353 -12.5454 -4.6345
# 2 60.3485 137.9355 39.9038 49.3286 1.0396 4.5281
# 3 44.8309 39.9038 82.1402 31.2213 4.5898 8.9039
# 4 25.9353 49.3286 31.2213 53.0064 1.2406 0.3421
# 5 -12.5454 1.0396 4.5898 1.2406 37.4269 8.3741
# 6 -4.6345 4.5281 8.9039 0.3421 8.3741 43.1800
#
#
#
# Elastic Compliance Matrix: (Units=1/GPa)
#
#
# Indices 1 2 3 4 5 6 
#
# 1 0.015778 -0.005486 -0.007082 0.001407 0.005677 0.002617
# 2 -0.005486 0.013024 0.000655 -0.009774 -0.001575 -0.001707
# 3 -0.007082 0.000655 0.019637 -0.008601 -0.003595 -0.004113
# 4 0.001407 -0.009774 -0.008601 0.032318 0.000130 0.002668
# 5 0.005677 -0.001575 -0.003595 0.000130 0.030068 -0.004316
# 6 0.002617 -0.001707 -0.004113 0.002668 -0.004316 0.025283
#
#
# Mechanical properties :
#
#
# Convention : Reuss Voigt Hill
#
# Bulk Modulus (GPa) = 40.62886 68.63312 54.63099
# Shear Modulus (GPa) = 29.73759 38.88589 34.31174
#
# Velocity S-wave (km/s) = 3.56700 4.07893 3.83153
# Velocity P-wave (km/s) = 5.86072 7.17976 6.55351
#
# Compressibility (1/GPa) = 0.02461305
#
# Stress axis : x y z
#
# Youngs Moduli (GPa) = 63.37960 76.78299 50.92468
#
# Poissons Ratio (x) = 0.42125 0.36065
# Poissons Ratio (y) = 0.34772 -0.03338
# Poissons Ratio (z) = 0.44885 -0.05033
#
# Static dielectric constant tensor:
#      x y z
#    x 1.875130 -0.023110 0.029450 
#    y -0.023110 1.839730 0.055720 
#    z 0.029450 0.055720 1.999950 
# 
# From -- ./inp_files/328700.got.cif
#   From: 2010.05.17/outbox.cif.g08.bks.cpg/sg2_165_cif.got.tgz:328700.got - 2010.06.03 11:33:40.
