data_PCOD9027377
_publ_section_title
;
Structure prediction by ZEFSAII (Michael W. Deem and Ramdas Pophale) SiO2 
 PCOD9027377
Probable space group: P -1
;
_chemical_formula_sum "Si O2"
_cell_formula_units_Z 14
_cell_length_a 16.409835
_cell_length_b 5.578011
_cell_length_c 12.209801
_cell_angle_alpha 117.088170
_cell_angle_beta 141.624153
_cell_angle_gamma 56.894384
_cell_volume 580.406966
_symmetry_space_group_name_H-M "P -1"
_symmetry_group_IT_number 2
_symmetry_cell_setting 'triclinic'
loop_
_space_group_symop_operation_xyz
x,y,z
-x,-y,-z
loop_
_atom_site_type_symbol
_atom_site_label
_atom_site_fract_x
_atom_site_fract_y
_atom_site_fract_z
Si Si1 0.123783 0.332264 0.434511
Si Si2 0.232174 0.169770 0.993966
Si Si3 0.626175 0.271352 0.432422
Si Si4 0.426881 0.279085 0.050533
Si Si5 0.398903 0.210999 0.354152
Si Si6 0.149330 0.694188 0.730709
Si Si7 0.996222 0.324373 0.071522
O O1 0.152796 0.583991 0.586899
O O2 0.100423 0.352961 0.283383
O O3 0.979583 0.337890 0.342858
O O4 0.251012 0.030236 0.522103
O O5 0.153932 0.502779 0.999656
O O6 0.134508 0.021053 0.804170
O O7 0.354164 0.143127 0.035372
O O8 0.294783 0.070316 0.159085
O O9 0.542774 0.382138 0.254071
O O10 0.504088 0.251816 0.381365
O O11 0.677789 0.497718 0.599377
O O12 0.301240 0.515877 0.904837
O O13 0.500000 0.000000 0.000000
O O14 0.500000 0.000000 0.500000
O O15 0.000000 0.500000 0.000000
O O16 0.000000 0.000000 0.000000
#
# Coordination Sequence:
#
# PCOD9027377 Si02
#       7
#     2   2   2   2   2   2   2
#     4  11  24  47  72 105 144 193 246 311 375 446
#     4  11  25  44  69 105 142 189 248 303 370 448
#     4  10  22  42  68 100 140 179 242 289 365 441
#     4  11  22  45  71 101 143 192 236 308 374 443
#     4  10  22  41  67  97 135 188 232 295 358 438
#     4  11  24  47  73 103 148 191 249 309 378 445
#     4  12  27  47  74 108 150 198 246 307 379 449
#
# _framework density 24.121005
#
# number of rings (size 3 to 8) (size 9 to 14) (size 15 to 20)
#    0.000    1.143    2.857    2.571    2.000    1.143 
#    5.143    0.000    0.000    0.000    0.000    0.000 
#    0.000    0.000    0.000    0.000    0.000    0.000 
#
# Total GULP energy -78182.674958 kJ/mol
# GULP energy per Si atom -5584.476783 kJ/mol
# Density = 2.406610 g / cm^3
# Si number density = 24.121005 Si / 1000 Ang^3
#
#
#
# Elastic Constant Matrix: (Units=GPa)
#
#
# Indices 1 2 3 4 5 6 
#
# 1 83.9278 38.4298 41.7907 17.3470 -8.5803 -19.4732
# 2 38.4298 134.8855 60.9415 28.6142 -11.5621 -30.8098
# 3 41.7907 60.9415 173.9963 17.2343 -30.9806 -5.7883
# 4 17.3470 28.6142 17.2343 43.4319 -13.8443 2.1022
# 5 -8.5803 -11.5621 -30.9806 -13.8443 28.0806 -5.0206
# 6 -19.4732 -30.8098 -5.7883 2.1022 -5.0206 41.3346
#
#
#
# Elastic Compliance Matrix: (Units=1/GPa)
#
#
# Indices 1 2 3 4 5 6 
#
# 1 0.016429 -0.000560 -0.002947 -0.005305 0.000211 0.007205
# 2 -0.000560 0.012686 -0.003409 -0.007466 -0.000780 0.008999
# 3 -0.002947 -0.003409 0.008824 0.002699 0.008439 -0.001806
# 4 -0.005305 -0.007466 0.002699 0.033668 0.013494 -0.007759
# 5 0.000211 -0.000780 0.008439 0.013494 0.052460 0.006385
# 6 0.007205 0.008999 -0.001806 -0.007759 0.006385 0.035213
#
#
# Mechanical properties :
#
#
# Convention : Reuss Voigt Hill
#
# Bulk Modulus (GPa) = 41.48148 75.01485 58.24817
# Shear Modulus (GPa) = 27.60193 39.34592 33.47393
#
# Velocity S-wave (km/s) = 3.38644 4.04318 3.72929
# Velocity P-wave (km/s) = 5.70309 7.27759 6.53791
#
# Compressibility (1/GPa) = 0.02410714
#
# Stress axis : x y z
#
# Youngs Moduli (GPa) = 60.86943 78.82819 113.32444
#
# Poissons Ratio (x) = 0.04414 0.33397
# Poissons Ratio (y) = 0.03408 0.38629
# Poissons Ratio (z) = 0.17939 0.26870
#
# Static dielectric constant tensor:
#      x y z
#    x 1.898990 0.034040 0.012610 
#    y 0.034040 1.946360 0.010960 
#    z 0.012610 0.010960 2.008160 
# 
# From -- ./inp_files/81162.got.cif
#   From: 2010.05.17/outbox.cif.g08.bks.cpg/sg2_41_cif.got.tgz:81162.got - 2010.06.03 11:33:40.
