data_PCOD9027432
_publ_section_title
;
Structure prediction by ZEFSAII (Michael W. Deem and Ramdas Pophale) SiO2 
 PCOD9027432
Probable space group: P -1
;
_chemical_formula_sum "Si O2"
_cell_formula_units_Z 16
_cell_length_a 21.455501
_cell_length_b 9.363298
_cell_length_c 7.131366
_cell_angle_alpha 46.584306
_cell_angle_beta 70.397426
_cell_angle_gamma 46.665749
_cell_volume 731.368650
_symmetry_space_group_name_H-M "P -1"
_symmetry_group_IT_number 2
_symmetry_cell_setting 'triclinic'
loop_
_space_group_symop_operation_xyz
x,y,z
-x,-y,-z
loop_
_atom_site_type_symbol
_atom_site_label
_atom_site_fract_x
_atom_site_fract_y
_atom_site_fract_z
Si Si1 0.034384 0.201933 0.213984
Si Si2 0.413892 0.261050 0.452162
Si Si3 0.146163 0.571185 0.957853
Si Si4 0.915117 0.031812 0.025269
Si Si5 0.663156 0.383210 0.136009
Si Si6 0.457897 0.705945 0.520290
Si Si7 0.658749 0.747230 0.084941
Si Si8 0.140717 0.139215 0.497462
O O1 0.105221 0.068076 0.431242
O O2 0.088884 0.017191 0.143960
O O3 0.000000 0.500000 0.000000
O O4 0.942603 0.257501 0.238651
O O5 0.458231 0.362877 0.405618
O O6 0.374698 0.204790 0.709977
O O7 0.500000 0.000000 0.500000
O O8 0.345714 0.469254 0.175710
O O9 0.150865 0.711810 0.004638
O O10 0.137889 0.371085 0.237671
O O11 0.236810 0.411656 0.894540
O O12 0.920672 0.808259 0.317914
O O13 0.000000 0.000000 0.000000
O O14 0.596088 0.332566 0.255133
O O15 0.642651 0.569364 0.161639
O O16 0.759555 0.104040 0.324109
O O17 0.500000 0.500000 0.500000
O O18 0.394447 0.991870 0.225466
#
# Coordination Sequence:
#
# PCOD9027432 Si02
#       8
#     2   2   2   2   2   2   2   2
#     4   9  22  43  69 101 138 189 231 277 351 415
#     4  12  26  46  74 102 142 187 238 293 367 434
#     4  10  22  44  71 102 141 188 236 293 349 418
#     4  10  22  41  68 100 138 185 234 284 351 414
#     4  12  25  45  71 108 141 182 238 299 354 425
#     4  12  24  47  76 100 142 186 232 295 369 429
#     4  12  24  47  71 105 146 182 238 304 348 427
#     4  11  23  45  69 101 148 179 239 295 346 415
#
# _framework density 21.876791999999998
#
# number of rings (size 3 to 8) (size 9 to 14) (size 15 to 20)
#    0.000    1.000    5.000    1.500    0.000    7.500 
#    2.250    6.250    0.000    0.000    0.000    0.000 
#    0.000    0.000    0.000    0.000    0.000    0.000 
#
# Total GULP energy -89235.674552 kJ/mol
# GULP energy per Si atom -5577.229660 kJ/mol
# Density = 2.182700 g / cm^3
# Si number density = 21.876792 Si / 1000 Ang^3
#
#
#
# Elastic Constant Matrix: (Units=GPa)
#
#
# Indices 1 2 3 4 5 6 
#
# 1 98.0533 14.6022 19.1782 4.4090 -4.3646 -7.2885
# 2 14.6022 73.4315 22.7492 1.0610 5.1829 -2.2257
# 3 19.1782 22.7492 116.9432 4.0796 2.6309 -14.5824
# 4 4.4090 1.0610 4.0796 40.1551 -3.2464 -1.9251
# 5 -4.3646 5.1829 2.6309 -3.2464 51.8646 4.0689
# 6 -7.2885 -2.2257 -14.5824 -1.9251 4.0689 34.8800
#
#
#
# Elastic Compliance Matrix: (Units=1/GPa)
#
#
# Indices 1 2 3 4 5 6 
#
# 1 0.010903 -0.001794 -0.001246 -0.000872 0.000989 0.001479
# 2 -0.001794 0.014878 -0.002607 -0.000068 -0.001483 -0.000346
# 3 -0.001246 -0.002607 0.009762 -0.000663 -0.000671 0.003696
# 4 -0.000872 -0.000068 -0.000663 0.025225 0.001487 0.000755
# 5 0.000989 -0.001483 -0.000671 0.001487 0.019828 -0.002399
# 6 0.001479 -0.000346 0.003696 0.000755 -0.002399 0.030823
#
#
# Mechanical properties :
#
#
# Convention : Reuss Voigt Hill
#
# Bulk Modulus (GPa) = 41.24352 44.60968 42.92660
# Shear Modulus (GPa) = 38.22726 40.83984 39.53355
#
# Velocity S-wave (km/s) = 4.18471 4.32535 4.25561
# Velocity P-wave (km/s) = 6.49944 6.73650 6.61903
#
# Compressibility (1/GPa) = 0.02424624
#
# Stress axis : x y z
#
# Youngs Moduli (GPa) = 91.72015 67.21396 102.43909
#
# Poissons Ratio (x) = 0.12060 0.12767
# Poissons Ratio (y) = 0.16458 0.26710
# Poissons Ratio (z) = 0.11431 0.17526
#
# Static dielectric constant tensor:
#      x y z
#    x 1.805780 -0.022430 -0.038540 
#    y -0.022430 1.856270 -0.068220 
#    z -0.038540 -0.068220 1.926450 
# 
# From -- ./inp_files/122397.got.cif
#   From: 2010.05.17/outbox.cif.g08.bks.cpg/sg2_62_cif.got.tgz:122397.got - 2010.06.03 11:33:40.
