data_PCOD9027836
_publ_section_title
;
Structure prediction by ZEFSAII (Michael W. Deem and Ramdas Pophale) SiO2 
 PCOD9027836
Probable space group: P -1
;
_chemical_formula_sum "Si O2"
_cell_formula_units_Z 14
_cell_length_a 11.458409
_cell_length_b 10.007121
_cell_length_c 8.231363
_cell_angle_alpha 52.154174
_cell_angle_beta 118.976951
_cell_angle_gamma 98.178937
_cell_volume 635.406704
_symmetry_space_group_name_H-M "P -1"
_symmetry_group_IT_number 2
_symmetry_cell_setting 'triclinic'
loop_
_space_group_symop_operation_xyz
x,y,z
-x,-y,-z
loop_
_atom_site_type_symbol
_atom_site_label
_atom_site_fract_x
_atom_site_fract_y
_atom_site_fract_z
Si Si1 0.171821 0.809977 0.829207
Si Si2 0.061248 0.956021 0.307322
Si Si3 0.454335 0.910750 0.881188
Si Si4 0.621992 0.593752 0.056916
Si Si5 0.150718 0.473522 0.198650
Si Si6 0.700673 0.843299 0.648282
Si Si7 0.888720 0.395532 0.559663
O O1 0.090073 0.847438 0.577347
O O2 0.305010 0.882503 0.841811
O O3 0.218357 0.606858 0.045458
O O4 0.075064 0.902181 0.841670
O O5 0.055815 0.811378 0.275839
O O6 0.187456 0.050389 0.295215
O O7 0.430501 0.027697 0.614610
O O8 0.560333 0.732106 0.050826
O O9 0.500000 0.000000 0.000000
O O10 0.752643 0.455977 0.314444
O O11 0.500000 0.500000 0.000000
O O12 0.665466 0.712090 0.855771
O O13 0.227296 0.277728 0.361936
O O14 0.144186 0.538344 0.329303
O O15 0.000000 0.500000 0.000000
O O16 0.000000 0.500000 0.500000
#
# Coordination Sequence:
#
# PCOD9027836 Si02
#       7
#     2   2   2   2   2   2   2
#     4  10  22  41  69  96 139 179 224 279 351 409
#     4  10  22  42  70 101 133 175 235 284 343 409
#     4  11  25  42  66 101 136 183 230 284 341 417
#     4  12  26  48  70 100 145 185 233 285 352 422
#     4  12  23  43  66 102 138 181 226 288 356 409
#     4  11  23  44  73  98 136 186 234 283 352 410
#     4  12  28  43  70 106 142 181 236 292 348 415
#
# _framework density 22.033134
#
# number of rings (size 3 to 8) (size 9 to 14) (size 15 to 20)
#    0.000    0.857    1.429    6.429    6.000    2.857 
#    0.000    2.857    0.000    0.000    0.000    0.000 
#    0.000    0.000    0.000    0.000    0.000    0.000 
#
# Total GULP energy -78341.566183 kJ/mol
# GULP energy per Si atom -5595.826156 kJ/mol
# Density = 2.198299 g / cm^3
# Si number density = 22.033134 Si / 1000 Ang^3
#
#
#
# Elastic Constant Matrix: (Units=GPa)
#
#
# Indices 1 2 3 4 5 6 
#
# 1 67.1908 35.4607 19.2496 3.5794 -10.0441 0.6236
# 2 35.4607 151.5203 10.5870 -14.8945 -5.2870 -13.1732
# 3 19.2496 10.5870 57.1510 -7.7112 -1.2470 7.6341
# 4 3.5794 -14.8945 -7.7112 39.3626 -5.0173 2.7430
# 5 -10.0441 -5.2870 -1.2470 -5.0173 43.0562 -13.3574
# 6 0.6236 -13.1732 7.6341 2.7430 -13.3574 31.4037
#
#
#
# Elastic Compliance Matrix: (Units=1/GPa)
#
#
# Indices 1 2 3 4 5 6 
#
# 1 0.019859 -0.004363 -0.006569 -0.004352 0.003828 0.001381
# 2 -0.004363 0.008379 -0.000116 0.003476 0.001664 0.004034
# 3 -0.006569 -0.000116 0.021205 0.004857 -0.002387 -0.006513
# 4 -0.004352 0.003476 0.004857 0.028464 0.002547 -0.001039
# 5 0.003828 0.001664 -0.002387 0.002547 0.028633 0.013159
# 6 0.001381 0.004034 -0.006513 -0.001039 0.013159 0.040779
#
#
# Mechanical properties :
#
#
# Convention : Reuss Voigt Hill
#
# Bulk Modulus (GPa) = 36.56701 45.16184 40.86443
# Shear Modulus (GPa) = 28.00648 36.80218 32.40433
#
# Velocity S-wave (km/s) = 3.56913 4.09138 3.83914
# Velocity P-wave (km/s) = 5.79804 6.54682 6.18378
#
# Compressibility (1/GPa) = 0.02734705
#
# Stress axis : x y z
#
# Youngs Moduli (GPa) = 50.35605 119.34014 47.15933
#
# Poissons Ratio (x) = 0.52065 0.30977
# Poissons Ratio (y) = 0.21969 0.00549
# Poissons Ratio (z) = 0.33077 0.01389
#
# Static dielectric constant tensor:
#      x y z
#    x 1.806750 -0.040600 -0.046670 
#    y -0.040600 1.981750 -0.070200 
#    z -0.046670 -0.070200 1.906040 
# 
# From -- ./inp_files/216303.got.cif
#   From: 2010.05.17/outbox.cif.g08.bks.cpg/sg2_109_cif.got.tgz:216303.got - 2010.06.03 11:33:40.
