data_PCOD9027674
_publ_section_title
;
Structure prediction by ZEFSAII (Michael W. Deem and Ramdas Pophale) SiO2 
 PCOD9027674
Probable space group: P -1
;
_chemical_formula_sum "Si O2"
_cell_formula_units_Z 16
_cell_length_a 5.560369
_cell_length_b 15.149518
_cell_length_c 9.169204
_cell_angle_alpha 75.703428
_cell_angle_beta 78.070402
_cell_angle_gamma 79.014517
_cell_volume 724.328021
_symmetry_space_group_name_H-M "P -1"
_symmetry_group_IT_number 2
_symmetry_cell_setting 'triclinic'
loop_
_space_group_symop_operation_xyz
x,y,z
-x,-y,-z
loop_
_atom_site_type_symbol
_atom_site_label
_atom_site_fract_x
_atom_site_fract_y
_atom_site_fract_z
Si Si1 0.289164 0.950009 0.469003
Si Si2 0.519395 0.559784 0.120436
Si Si3 0.944441 0.146780 0.023226
Si Si4 0.783559 0.723031 0.922143
Si Si5 0.278595 0.962724 0.129682
Si Si6 0.786532 0.383874 0.278021
Si Si7 0.441668 0.777910 0.713698
Si Si8 0.764056 0.446373 0.553348
O O1 0.349143 0.945277 0.293282
O O2 0.342777 0.848110 0.571814
O O3 0.500000 0.000000 0.500000
O O4 0.000000 0.000000 0.500000
O O5 0.731636 0.492081 0.207331
O O6 0.297206 0.574710 0.261710
O O7 0.500000 0.500000 0.000000
O O8 0.593069 0.656942 0.026292
O O9 0.750835 0.195356 0.142729
O O10 0.152636 0.213235 0.979112
O O11 0.813194 0.124591 0.900391
O O12 0.053384 0.046996 0.113690
O O13 0.692399 0.786355 0.766636
O O14 0.008022 0.655714 0.848339
O O15 0.500000 0.000000 0.000000
O O16 0.559649 0.327068 0.293879
O O17 0.837624 0.369617 0.449410
O O18 0.500000 0.500000 0.500000
O O19 0.000000 0.500000 0.500000
#
# Coordination Sequence:
#
# PCOD9027674 Si02
#       8
#     2   2   2   2   2   2   2   2
#     4  12  26  46  72 100 137 187 236 281 359 431
#     4  11  21  42  70 102 134 190 238 285 354 421
#     4  10  22  41  68  99 138 179 230 300 356 416
#     4  11  22  40  72 101 142 180 244 293 354 424
#     4  11  23  44  72  99 138 183 239 294 360 426
#     4  10  23  42  67  96 137 185 231 289 354 416
#     4  11  23  44  67  99 140 184 233 292 352 427
#     4  10  23  43  67  96 138 182 233 292 349 413
#
# _framework density 22.089441000000001
#
# number of rings (size 3 to 8) (size 9 to 14) (size 15 to 20)
#    0.000    1.250    2.500    3.375    5.250    1.000 
#    4.500    0.000    0.000    0.000    0.000    0.000 
#    0.000    0.000    0.000    0.000    0.000    0.000 
#
# Total GULP energy -89195.622613 kJ/mol
# GULP energy per Si atom -5574.726413 kJ/mol
# Density = 2.203916 g / cm^3
# Si number density = 22.089441 Si / 1000 Ang^3
#
#
#
# Elastic Constant Matrix: (Units=GPa)
#
#
# Indices 1 2 3 4 5 6 
#
# 1 93.6046 31.7535 49.6591 4.0326 8.5742 25.3808
# 2 31.7535 89.9363 55.9312 10.3551 6.6492 29.9512
# 3 49.6591 55.9312 167.6551 21.0082 9.9341 27.3585
# 4 4.0326 10.3551 21.0082 38.4074 0.6019 19.4225
# 5 8.5742 6.6492 9.9341 0.6019 31.8008 6.2737
# 6 25.3808 29.9512 27.3585 19.4225 6.2737 46.2255
#
#
#
# Elastic Compliance Matrix: (Units=1/GPa)
#
#
# Indices 1 2 3 4 5 6 
#
# 1 0.014620 -0.001248 -0.003224 0.004033 -0.001406 -0.006814
# 2 -0.001248 0.016730 -0.004065 0.002223 -0.000227 -0.008652
# 3 -0.003224 -0.004065 0.008649 -0.003802 -0.001115 0.001033
# 4 0.004033 0.002223 -0.003802 0.035456 0.002240 -0.016606
# 5 -0.001406 -0.000227 -0.001115 0.002240 0.032934 -0.003833
# 6 -0.006814 -0.008652 0.001033 -0.016606 -0.003833 0.037866
#
#
# Mechanical properties :
#
#
# Convention : Reuss Voigt Hill
#
# Bulk Modulus (GPa) = 43.61976 69.54263 56.58120
# Shear Modulus (GPa) = 29.24492 37.54356 33.39424
#
# Velocity S-wave (km/s) = 3.64253 4.12711 3.89237
# Velocity P-wave (km/s) = 6.12213 7.36623 6.77281
#
# Compressibility (1/GPa) = 0.02292539
#
# Stress axis : x y z
#
# Youngs Moduli (GPa) = 68.40107 59.77432 115.61439
#
# Poissons Ratio (x) = 0.07458 0.37276
# Poissons Ratio (y) = 0.08535 0.46995
# Poissons Ratio (z) = 0.22053 0.24297
#
# Static dielectric constant tensor:
#      x y z
#    x 1.825400 0.207270 -0.038240 
#    y 0.207270 1.711320 0.065010 
#    z -0.038240 0.065010 1.819300 
# 
# From -- ./inp_files/134914.got.cif
#   From: 2010.05.17/outbox.cif.g08.bks.cpg/sg2_68_cif.got.tgz:134914.got - 2010.06.03 11:33:40.
