data_PCOD9027362
_publ_section_title
;
Structure prediction by ZEFSAII (Michael W. Deem and Ramdas Pophale) SiO2 
 PCOD9027362
Probable space group: P -1
;
_chemical_formula_sum "Si O2"
_cell_formula_units_Z 16
_cell_length_a 6.025162
_cell_length_b 8.504495
_cell_length_c 17.380445
_cell_angle_alpha 109.318073
_cell_angle_beta 134.275837
_cell_angle_gamma 73.832044
_cell_volume 600.260221
_symmetry_space_group_name_H-M "P -1"
_symmetry_group_IT_number 2
_symmetry_cell_setting 'triclinic'
loop_
_space_group_symop_operation_xyz
x,y,z
-x,-y,-z
loop_
_atom_site_type_symbol
_atom_site_label
_atom_site_fract_x
_atom_site_fract_y
_atom_site_fract_z
Si Si1 0.081053 0.382919 0.573770
Si Si2 0.236219 0.504403 0.250872
Si Si3 0.268205 0.126244 0.917872
Si Si4 0.402704 0.320504 0.838542
Si Si5 0.678393 0.942505 0.348329
Si Si6 0.303391 0.350800 0.095669
Si Si7 0.125934 0.869825 0.723270
Si Si8 0.565649 0.708887 0.589839
O O1 0.428049 0.438209 0.684628
O O2 0.160191 0.183023 0.570076
O O3 0.000000 0.500000 0.500000
O O4 0.733430 0.379859 0.528139
O O5 0.097342 0.426560 0.127978
O O6 0.323279 0.368553 0.314594
O O7 0.976144 0.636998 0.243363
O O8 0.456929 0.231278 0.919154
O O9 0.060639 0.011952 0.796508
O O10 0.136952 0.249044 0.973341
O O11 0.500000 0.000000 0.000000
O O12 0.484488 0.187482 0.769052
O O13 0.538600 0.497732 0.883934
O O14 0.847923 0.036163 0.335323
O O15 0.527365 0.096293 0.384899
O O16 0.562466 0.228910 0.183302
O O17 0.886712 0.728569 0.627224
#
# Coordination Sequence:
#
# PCOD9027362 Si02
#       8
#     2   2   2   2   2   2   2   2
#     4  10  24  44  64  96 133 168 217 276 310 380
#     4  11  23  43  66  96 132 168 221 264 318 386
#     4   9  22  40  64  97 131 166 217 270 313 385
#     4  11  23  40  68  96 129 176 213 262 323 385
#     4  11  23  41  66  96 128 174 209 268 327 373
#     4  11  20  43  66  92 134 172 212 264 329 376
#     4  10  22  41  67  97 130 169 216 262 330 386
#     4  11  23  44  66  92 133 170 215 270 321 385
#
# _framework density 26.655104999999999
#
# number of rings (size 3 to 8) (size 9 to 14) (size 15 to 20)
#    0.000    1.500    3.750    0.750    3.500    1.000 
#    2.250    5.000    0.000    0.000    0.000    0.000 
#    0.000    0.000    0.000    0.000    0.000    0.000 
#
# Total GULP energy -89253.578495 kJ/mol
# GULP energy per Si atom -5578.348656 kJ/mol
# Density = 2.659444 g / cm^3
# Si number density = 26.655105 Si / 1000 Ang^3
#
#
#
# Elastic Constant Matrix: (Units=GPa)
#
#
# Indices 1 2 3 4 5 6 
#
# 1 50.8709 32.1435 54.3592 11.1995 0.4329 -1.9984
# 2 32.1435 134.8094 63.9352 -30.2768 -9.9981 28.0294
# 3 54.3592 63.9352 137.9736 12.3951 -13.3423 11.9912
# 4 11.1995 -30.2768 12.3951 62.1670 11.4311 -8.7110
# 5 0.4329 -9.9981 -13.3423 11.4311 51.6006 2.6268
# 6 -1.9984 28.0294 11.9912 -8.7110 2.6268 61.8065
#
#
#
# Elastic Compliance Matrix: (Units=1/GPa)
#
#
# Indices 1 2 3 4 5 6 
#
# 1 0.038629 -0.005898 -0.012837 -0.005765 -0.003802 0.005763
# 2 -0.005898 0.013537 -0.004271 0.007883 0.000045 -0.004392
# 3 -0.012837 -0.004271 0.015225 -0.003875 0.004185 -0.002156
# 4 -0.005765 0.007883 -0.003875 0.022606 -0.004453 0.000366
# 5 -0.003802 0.000045 0.004185 -0.004453 0.021616 -0.002502
# 6 0.005763 -0.004392 -0.002156 0.000366 -0.002502 0.018934
#
#
# Mechanical properties :
#
#
# Convention : Reuss Voigt Hill
#
# Bulk Modulus (GPa) = 46.77504 69.39220 58.08362
# Shear Modulus (GPa) = 27.22045 46.66254 36.94149
#
# Velocity S-wave (km/s) = 3.19910 4.18856 3.72682
# Velocity P-wave (km/s) = 5.58856 7.03434 6.35271
#
# Compressibility (1/GPa) = 0.02137892
#
# Stress axis : x y z
#
# Youngs Moduli (GPa) = 25.88699 73.87260 65.68229
#
# Poissons Ratio (x) = 0.43567 0.84317
# Poissons Ratio (y) = 0.15267 0.28055
# Poissons Ratio (z) = 0.33231 0.31554
#
# Static dielectric constant tensor:
#      x y z
#    x 2.169350 -0.077360 0.063650 
#    y -0.077360 2.099540 0.038200 
#    z 0.063650 0.038200 2.133670 
# 
# From -- ./inp_files/135547.got.cif
#   From: 2010.05.17/outbox.cif.g08.bks.cpg/sg2_68_cif.got.tgz:135547.got - 2010.06.03 11:33:40.
