data_PCOD9027512
_publ_section_title
;
Structure prediction by ZEFSAII (Michael W. Deem and Ramdas Pophale) SiO2 
 PCOD9027512
Probable space group: P -1
;
_chemical_formula_sum "Si O2"
_cell_formula_units_Z 12
_cell_length_a 8.939567
_cell_length_b 14.907135
_cell_length_c 8.169650
_cell_angle_alpha 85.257167
_cell_angle_beta 104.868941
_cell_angle_gamma 146.180540
_cell_volume 568.168007
_symmetry_space_group_name_H-M "P -1"
_symmetry_group_IT_number 2
_symmetry_cell_setting 'triclinic'
loop_
_space_group_symop_operation_xyz
x,y,z
-x,-y,-z
loop_
_atom_site_type_symbol
_atom_site_label
_atom_site_fract_x
_atom_site_fract_y
_atom_site_fract_z
Si Si1 0.394883 0.834001 0.668921
Si Si2 0.322222 0.189058 0.082059
Si Si3 0.237110 0.479349 0.344731
Si Si4 0.449885 0.518858 0.754386
Si Si5 0.811057 0.199590 0.740286
Si Si6 0.297604 0.674628 0.135004
O O1 0.517490 0.794943 0.741165
O O2 0.303102 0.815331 0.462231
O O3 0.104070 0.699868 0.712239
O O4 0.643585 0.025991 0.754982
O O5 0.375057 0.317875 0.128772
O O6 0.466063 0.236029 0.942421
O O7 0.000000 0.000000 0.000000
O O8 0.360868 0.512085 0.550539
O O9 0.369755 0.481736 0.239037
O O10 0.319841 0.622306 0.308100
O O11 0.151905 0.355390 0.790057
O O12 0.724570 0.232270 0.841769
O O13 0.000000 0.500000 0.000000
#
# Coordination Sequence:
#
# PCOD9027512 Si02
#       6
#     2   2   2   2   2   2
#     4  10  22  43  64  91 120 160 205 248 299 353
#     4  12  27  41  59  91 128 161 199 250 305 360
#     4  10  22  41  68  89 119 160 205 250 295 360
#     4  10  22  43  64  91 120 160 205 248 299 353
#     4  10  22  41  68  89 119 160 205 250 295 360
#     4  12  23  41  61  91 122 164 201 242 310 361
#
# _framework density 21.120515000000001
#
# number of rings (size 3 to 8) (size 9 to 14) (size 15 to 20)
#    0.000    1.333    3.333    1.000    4.667    5.333 
#    0.000    1.667    0.000    0.000    0.000    0.000 
#    0.000    0.000    0.000    0.000    0.000    0.000 
#
# Total GULP energy -67108.337102 kJ/mol
# GULP energy per Si atom -5592.361425 kJ/mol
# Density = 2.107244 g / cm^3
# Si number density = 21.120515 Si / 1000 Ang^3
#
#
#
# Elastic Constant Matrix: (Units=GPa)
#
#
# Indices 1 2 3 4 5 6 
#
# 1 92.3596 36.2941 21.1416 14.0634 -20.5951 7.1887
# 2 36.2941 123.1913 26.8971 17.1823 -17.9369 22.1458
# 3 21.1416 26.8971 48.9763 1.5346 -6.2563 3.9499
# 4 14.0634 17.1823 1.5346 39.0086 -8.3388 3.4146
# 5 -20.5951 -17.9369 -6.2563 -8.3388 44.6690 -1.1565
# 6 7.1887 22.1458 3.9499 3.4146 -1.1565 42.3462
#
#
#
# Elastic Compliance Matrix: (Units=1/GPa)
#
#
# Indices 1 2 3 4 5 6 
#
# 1 0.014114 -0.002054 -0.004249 -0.003003 0.004512 -0.000560
# 2 -0.002054 0.011366 -0.004576 -0.003179 0.002257 -0.004850
# 3 -0.004249 -0.004576 0.024655 0.002556 0.000150 0.000613
# 4 -0.003003 -0.003179 0.002556 0.028695 0.003046 -0.000297
# 5 0.004512 0.002257 0.000150 0.003046 0.025924 -0.001498
# 6 -0.000560 -0.004850 0.000613 -0.000297 -0.001498 0.026172
#
#
# Mechanical properties :
#
#
# Convention : Reuss Voigt Hill
#
# Bulk Modulus (GPa) = 35.24032 48.13253 41.68642
# Shear Modulus (GPa) = 30.83698 37.21775 34.02736
#
# Velocity S-wave (km/s) = 3.82520 4.20236 4.01821
# Velocity P-wave (km/s) = 6.01923 6.81068 6.42715
#
# Compressibility (1/GPa) = 0.02837659
#
# Stress axis : x y z
#
# Youngs Moduli (GPa) = 70.85142 87.98448 40.55991
#
# Poissons Ratio (x) = 0.18072 0.17233
# Poissons Ratio (y) = 0.14553 0.18561
# Poissons Ratio (z) = 0.30104 0.40263
#
# Static dielectric constant tensor:
#      x y z
#    x 1.731340 -0.014590 0.036200 
#    y -0.014590 1.705940 -0.027070 
#    z 0.036200 -0.027070 1.798220 
# 
# From -- ./inp_files/144488.got.cif
#   From: 2010.05.17/outbox.cif.g08.bks.cpg/sg2_73_cif.got.tgz:144488.got - 2010.06.03 11:33:40.
