data_PCOD9027394
_publ_section_title
;
Structure prediction by ZEFSAII (Michael W. Deem and Ramdas Pophale) SiO2 
 PCOD9027394
Probable space group: P -1
;
_chemical_formula_sum "Si O2"
_cell_formula_units_Z 14
_cell_length_a 11.394155
_cell_length_b 15.663372
_cell_length_c 5.133144
_cell_angle_alpha 95.420723
_cell_angle_beta 74.904257
_cell_angle_gamma 43.679761
_cell_volume 553.193673
_symmetry_space_group_name_H-M "P -1"
_symmetry_group_IT_number 2
_symmetry_cell_setting 'triclinic'
loop_
_space_group_symop_operation_xyz
x,y,z
-x,-y,-z
loop_
_atom_site_type_symbol
_atom_site_label
_atom_site_fract_x
_atom_site_fract_y
_atom_site_fract_z
Si Si1 0.686322 0.122081 0.744653
Si Si2 0.981021 0.412345 0.399397
Si Si3 0.029630 0.906767 0.150671
Si Si4 0.612856 0.578132 0.946544
Si Si5 0.199043 0.232268 0.720129
Si Si6 0.668471 0.393079 0.166344
Si Si7 0.586422 0.024219 0.161551
O O1 0.825346 0.125882 0.740788
O O2 0.483048 0.281882 0.852938
O O3 0.653614 0.069650 0.972105
O O4 0.820667 0.003001 0.420143
O O5 0.090718 0.294515 0.521659
O O6 0.000000 0.500000 0.500000
O O7 0.754252 0.516697 0.604261
O O8 0.078779 0.348992 0.043048
O O9 0.142663 0.765189 0.915323
O O10 0.000000 0.000000 0.000000
O O11 0.439832 0.609558 0.975435
O O12 0.725142 0.454970 0.045419
O O13 0.412975 0.148090 0.490463
O O14 0.254639 0.114258 0.803452
O O15 0.500000 0.500000 0.500000
O O16 0.500000 0.000000 0.000000
#
# Coordination Sequence:
#
# PCOD9027394 Si02
#       7
#     2   2   2   2   2   2   2
#     4  10  23  44  66  97 135 180 236 287 354 422
#     4  12  26  47  71 105 145 188 242 293 357 431
#     4  10  22  41  67  98 133 178 232 289 350 422
#     4  10  24  42  67  95 138 183 230 291 355 417
#     4  11  26  46  70 106 142 190 241 290 357 425
#     4  10  22  42  65  98 135 177 230 289 356 421
#     4  11  24  46  73 101 146 186 237 301 358 424
#
# _framework density 25.307594999999999
#
# number of rings (size 3 to 8) (size 9 to 14) (size 15 to 20)
#    0.000    1.429    1.429    2.143    4.000    4.571 
#    2.571    0.000    0.000    0.000    0.000    0.000 
#    0.000    0.000    0.000    0.000    0.000    0.000 
#
# Total GULP energy -78201.242911 kJ/mol
# GULP energy per Si atom -5585.803065 kJ/mol
# Density = 2.524999 g / cm^3
# Si number density = 25.307595 Si / 1000 Ang^3
#
#
#
# Elastic Constant Matrix: (Units=GPa)
#
#
# Indices 1 2 3 4 5 6 
#
# 1 75.1245 17.0460 32.6082 5.2874 -4.9706 12.8138
# 2 17.0460 170.3302 78.8469 21.3824 -10.2264 20.9260
# 3 32.6082 78.8469 219.4852 27.4360 -19.7030 33.3362
# 4 5.2874 21.3824 27.4360 47.7719 1.1067 -1.1066
# 5 -4.9706 -10.2264 -19.7030 1.1067 44.6758 -6.0670
# 6 12.8138 20.9260 33.3362 -1.1066 -6.0670 28.1139
#
#
#
# Elastic Compliance Matrix: (Units=1/GPa)
#
#
# Indices 1 2 3 4 5 6 
#
# 1 0.014849 -0.000139 -0.001204 -0.001020 0.000410 -0.005189
# 2 -0.000139 0.007460 -0.001813 -0.002371 0.000500 -0.003325
# 3 -0.001204 -0.001813 0.006844 -0.003164 0.001738 -0.005967
# 4 -0.001020 -0.002371 -0.003164 0.024117 -0.001760 0.006551
# 5 0.000410 0.000500 0.001738 -0.001760 0.023682 0.002422
# 6 -0.005189 -0.003325 -0.005967 0.006551 0.002422 0.048265
#
#
# Mechanical properties :
#
#
# Convention : Reuss Voigt Hill
#
# Bulk Modulus (GPa) = 43.77830 80.21578 61.99704
# Shear Modulus (GPa) = 35.93412 46.54158 41.23785
#
# Velocity S-wave (km/s) = 3.77224 4.29305 4.04104
# Velocity P-wave (km/s) = 6.02570 7.50592 6.80617
#
# Compressibility (1/GPa) = 0.02284237
#
# Stress axis : x y z
#
# Youngs Moduli (GPa) = 67.34358 134.04241 146.11195
#
# Poissons Ratio (x) = 0.01858 0.17591
# Poissons Ratio (y) = 0.00934 0.26491
# Poissons Ratio (z) = 0.08108 0.24303
#
# Static dielectric constant tensor:
#      x y z
#    x 2.071130 -0.092170 0.055930 
#    y -0.092170 2.122380 0.043400 
#    z 0.055930 0.043400 1.989910 
# 
# From -- ./inp_files/68110.got.cif
#   From: 2010.05.17/outbox.cif.g08.bks.cpg/sg2_35_cif.got.tgz:68110.got - 2010.06.03 11:33:40.
