data_PCOD9027621
_publ_section_title
;
Structure prediction by ZEFSAII (Michael W. Deem and Ramdas Pophale) SiO2 
 PCOD9027621
Probable space group: P -1
;
_chemical_formula_sum "Si O2"
_cell_formula_units_Z 16
_cell_length_a 12.966137
_cell_length_b 12.644253
_cell_length_c 22.676025
_cell_angle_alpha 155.098829
_cell_angle_beta 29.847168
_cell_angle_gamma 139.719636
_cell_volume 773.996752
_symmetry_space_group_name_H-M "P -1"
_symmetry_group_IT_number 2
_symmetry_cell_setting 'triclinic'
loop_
_space_group_symop_operation_xyz
x,y,z
-x,-y,-z
loop_
_atom_site_type_symbol
_atom_site_label
_atom_site_fract_x
_atom_site_fract_y
_atom_site_fract_z
Si Si1 0.672519 0.242930 0.643090
Si Si2 0.160973 0.705346 0.535684
Si Si3 0.492972 0.317263 0.967216
Si Si4 0.901324 0.160865 0.756907
Si Si5 0.899973 0.236640 0.923690
Si Si6 0.396986 0.811929 0.585698
Si Si7 0.796506 0.428920 0.193356
Si Si8 0.234813 0.880346 0.830909
O O1 0.674792 0.319989 0.612148
O O2 0.631613 0.499903 0.830431
O O3 0.473627 0.088011 0.676045
O O4 0.898727 0.067153 0.457593
O O5 0.242829 0.705820 0.561726
O O6 0.000000 0.500000 0.500000
O O7 0.069212 0.996268 0.721529
O O8 0.500000 0.500000 0.000000
O O9 0.716170 0.181819 0.811708
O O10 0.367868 0.093717 0.895640
O O11 0.795368 0.180547 0.884670
O O12 0.000833 0.423410 0.832318
O O13 0.795322 0.247967 0.045588
O O14 0.000000 0.500000 0.000000
O O15 0.609018 0.639759 0.382214
O O16 0.319335 0.787828 0.678477
O O17 0.765796 0.316589 0.215550
O O18 0.000000 0.000000 0.000000
#
# Coordination Sequence:
#
# PCOD9027621 Si02
#       8
#     2   2   2   2   2   2   2   2
#     4  10  24  44  70 103 132 180 228 275 345 407
#     4  11  25  42  70 103 138 173 228 292 340 397
#     4  12  25  43  69  99 132 179 231 275 337 410
#     4   9  22  44  67  98 134 171 226 286 326 409
#     4   9  20  40  67  96 131 178 221 270 344 405
#     4  11  24  45  67  96 136 181 225 273 347 417
#     4  10  22  41  68  97 129 177 221 278 342 402
#     4  12  26  44  64  95 137 181 222 277 342 410
#
# _framework density 20.671921000000001
#
# number of rings (size 3 to 8) (size 9 to 14) (size 15 to 20)
#    0.000    1.500    1.250    3.000    8.750    2.500 
#    2.250    1.250    0.000    0.000    0.000    0.000 
#    0.000    0.000    0.000    0.000    0.000    0.000 
#
# Total GULP energy -89160.321509 kJ/mol
# GULP energy per Si atom -5572.520094 kJ/mol
# Density = 2.062487 g / cm^3
# Si number density = 20.671921 Si / 1000 Ang^3
#
#
#
# Elastic Constant Matrix: (Units=GPa)
#
#
# Indices 1 2 3 4 5 6 
#
# 1 131.1222 40.6016 25.4000 -4.7027 22.5589 16.3875
# 2 40.6016 44.8934 -5.1576 -5.3515 7.7920 -0.1036
# 3 25.4000 -5.1576 70.7209 -4.2167 27.1738 8.1984
# 4 -4.7027 -5.3515 -4.2167 26.9830 -10.0817 5.3216
# 5 22.5589 7.7920 27.1738 -10.0817 41.6511 -17.1753
# 6 16.3875 -0.1036 8.1984 5.3216 -17.1753 34.2012
#
#
#
# Elastic Compliance Matrix: (Units=1/GPa)
#
#
# Indices 1 2 3 4 5 6 
#
# 1 0.014649 -0.011722 -0.000795 -0.001466 -0.010485 -0.011901
# 2 -0.011722 0.035214 0.008743 0.004464 -0.004606 0.000620
# 3 -0.000795 0.008743 0.028219 -0.000487 -0.028153 -0.020419
# 4 -0.001466 0.004464 -0.000487 0.041494 0.010091 -0.000556
# 5 -0.010485 -0.004606 -0.028153 0.010091 0.070071 0.045377
# 6 -0.011901 0.000620 -0.020419 -0.000556 0.045377 0.062712
#
#
# Mechanical properties :
#
#
# Convention : Reuss Voigt Hill
#
# Bulk Modulus (GPa) = 14.17799 40.93605 27.55702
# Shear Modulus (GPa) = 17.64167 32.95990 25.30079
#
# Velocity S-wave (km/s) = 2.92449 3.99736 3.50225
# Velocity P-wave (km/s) = 4.27516 6.41490 5.45105
#
# Compressibility (1/GPa) = 0.07053186
#
# Stress axis : x y z
#
# Youngs Moduli (GPa) = 68.26438 28.39771 35.43705
#
# Poissons Ratio (x) = 0.33289 0.02819
# Poissons Ratio (y) = 0.80022 -0.30981
# Poissons Ratio (z) = 0.05430 -0.24827
#
# Static dielectric constant tensor:
#      x y z
#    x 1.808250 0.000940 0.006270 
#    y 0.000940 1.715330 -0.015040 
#    z 0.006270 -0.015040 1.695830 
# 
# From -- ./inp_files/346240.got.cif
#   From: 2010.05.17/outbox.cif.g08.bks.cpg/sg2_174_cif.got.tgz:346240.got - 2010.06.03 11:33:40.
