data_PCOD9027591
_publ_section_title
;
Structure prediction by ZEFSAII (Michael W. Deem and Ramdas Pophale) SiO2 
 PCOD9027591
Probable space group: P -1
;
_chemical_formula_sum "Si O2"
_cell_formula_units_Z 16
_cell_length_a 12.211312
_cell_length_b 9.134403
_cell_length_c 8.746307
_cell_angle_alpha 46.348081
_cell_angle_beta 93.449356
_cell_angle_gamma 83.183728
_cell_volume 687.050057
_symmetry_space_group_name_H-M "P -1"
_symmetry_group_IT_number 2
_symmetry_cell_setting 'triclinic'
loop_
_space_group_symop_operation_xyz
x,y,z
-x,-y,-z
loop_
_atom_site_type_symbol
_atom_site_label
_atom_site_fract_x
_atom_site_fract_y
_atom_site_fract_z
Si Si1 0.790379 0.927881 0.880660
Si Si2 0.929126 0.262432 0.559906
Si Si3 0.415514 0.877991 0.495939
Si Si4 0.417090 0.216526 0.657325
Si Si5 0.512558 0.721685 0.049915
Si Si6 0.661036 0.412086 0.054598
Si Si7 0.821845 0.724358 0.343360
Si Si8 0.889429 0.471629 0.093554
O O1 0.873034 0.082820 0.748702
O O2 0.681882 0.006683 0.709367
O O3 0.771394 0.888985 0.085950
O O4 0.845639 0.695847 0.002570
O O5 0.864665 0.484073 0.466942
O O6 0.913012 0.298428 0.351891
O O7 0.062578 0.221082 0.631188
O O8 0.499928 0.722525 0.503873
O O9 0.354276 0.766989 0.698045
O O10 0.500000 0.000000 0.500000
O O11 0.429395 0.313385 0.754807
O O12 0.286194 0.261205 0.567932
O O13 0.467750 0.968981 0.853086
O O14 0.597758 0.615881 0.998044
O O15 0.403964 0.631431 0.068753
O O16 0.787529 0.422653 0.023358
O O17 0.000000 0.500000 0.000000
#
# Coordination Sequence:
#
# PCOD9027591 Si02
#       8
#     2   2   2   2   2   2   2   2
#     4  11  23  44  71  91 141 186 227 286 361 405
#     4  10  22  46  66 101 132 186 233 286 354 411
#     4  12  25  42  70 104 142 186 228 285 359 420
#     4  11  22  42  65 105 134 175 231 289 340 417
#     4  10  22  41  68  95 140 180 226 279 352 414
#     4  11  23  45  69  99 142 187 227 283 359 421
#     4  10  23  42  71  97 141 175 233 294 343 414
#     4  11  25  44  69  98 135 181 236 292 337 414
#
# _framework density 23.287966999999998
#
# number of rings (size 3 to 8) (size 9 to 14) (size 15 to 20)
#    0.000    1.250    2.500    4.125    1.750    3.000 
#    2.250    2.500    0.000    0.000    0.000    0.000 
#    0.000    0.000    0.000    0.000    0.000    0.000 
#
# Total GULP energy -89438.077956 kJ/mol
# GULP energy per Si atom -5589.879872 kJ/mol
# Density = 2.323496 g / cm^3
# Si number density = 23.287967 Si / 1000 Ang^3
#
#
#
# Elastic Constant Matrix: (Units=GPa)
#
#
# Indices 1 2 3 4 5 6 
#
# 1 163.7439 31.5952 22.4996 0.4836 -6.6641 19.4654
# 2 31.5952 50.2607 9.9752 -2.8287 4.5494 23.5838
# 3 22.4996 9.9752 95.0832 -13.3455 8.0764 17.5713
# 4 0.4836 -2.8287 -13.3455 20.9171 5.7202 -3.1745
# 5 -6.6641 4.5494 8.0764 5.7202 37.8807 -4.1245
# 6 19.4654 23.5838 17.5713 -3.1745 -4.1245 40.1477
#
#
#
# Elastic Compliance Matrix: (Units=1/GPa)
#
#
# Indices 1 2 3 4 5 6 
#
# 1 0.007380 -0.004690 -0.001875 -0.002725 0.002679 0.000057
# 2 -0.004690 0.031756 0.002524 0.005475 -0.007949 -0.017869
# 3 -0.001875 0.002524 0.013733 0.009742 -0.005729 -0.006402
# 4 -0.002725 0.005475 0.009742 0.057742 -0.012244 -0.002851
# 5 0.002679 -0.007949 -0.005729 -0.012244 0.031785 0.008176
# 6 0.000057 -0.017869 -0.006402 -0.002851 0.008176 0.038793
#
#
# Mechanical properties :
#
#
# Convention : Reuss Voigt Hill
#
# Bulk Modulus (GPa) = 22.32765 48.58087 35.45426
# Shear Modulus (GPa) = 24.48579 36.12361 30.30470
#
# Velocity S-wave (km/s) = 3.24610 3.94276 3.61127
# Velocity P-wave (km/s) = 4.86395 6.45239 5.71364
#
# Compressibility (1/GPa) = 0.04478752
#
# Stress axis : x y z
#
# Youngs Moduli (GPa) = 135.50271 31.49048 72.81685
#
# Poissons Ratio (x) = 0.14768 0.13652
# Poissons Ratio (y) = 0.63548 -0.18380
# Poissons Ratio (z) = 0.25405 -0.07949
#
# Static dielectric constant tensor:
#      x y z
#    x 1.897520 -0.012010 -0.030860 
#    y -0.012010 1.904810 0.030990 
#    z -0.030860 0.030990 1.965420 
# 
# From -- ./inp_files/242064.got.cif
#   From: 2010.05.17/outbox.cif.g08.bks.cpg/sg2_122_cif.got.tgz:242064.got - 2010.06.03 11:33:40.
