data_PCOD9027504
_publ_section_title
;
Structure prediction by ZEFSAII (Michael W. Deem and Ramdas Pophale) SiO2 
 PCOD9027504
Probable space group: P -1
;
_chemical_formula_sum "Si O2"
_cell_formula_units_Z 10
_cell_length_a 5.225788
_cell_length_b 14.742665
_cell_length_c 5.899718
_cell_angle_alpha 88.128790
_cell_angle_beta 78.886322
_cell_angle_gamma 62.909014
_cell_volume 396.277604
_symmetry_space_group_name_H-M "P -1"
_symmetry_group_IT_number 2
_symmetry_cell_setting 'triclinic'
loop_
_space_group_symop_operation_xyz
x,y,z
-x,-y,-z
loop_
_atom_site_type_symbol
_atom_site_label
_atom_site_fract_x
_atom_site_fract_y
_atom_site_fract_z
Si Si1 0.156124 0.990991 0.228542
Si Si2 0.701658 0.831786 0.939755
Si Si3 0.174337 0.333333 0.386531
Si Si4 0.850900 0.340466 0.850936
Si Si5 0.239202 0.449881 0.741981
O O1 0.261416 0.078649 0.197054
O O2 0.000000 0.000000 0.500000
O O3 0.449257 0.883124 0.165971
O O4 0.000000 0.000000 0.000000
O O5 0.628417 0.758585 0.798865
O O6 0.014606 0.751115 0.991107
O O7 0.344166 0.382338 0.497904
O O8 0.013095 0.291503 0.591264
O O9 0.904994 0.433701 0.318716
O O10 0.508585 0.402810 0.868894
O O11 0.985105 0.420061 0.861567
#
# Coordination Sequence:
#
# PCOD9027504 Si02
#       5
#     2   2   2   2   2
#     4  11  30  52  81 112 155 199 265 342 405 470
#     4  11  27  46  77 112 147 205 263 327 397 474
#     4   9  22  40  69 106 155 204 252 311 385 467
#     4  10  22  41  68 107 152 199 255 307 382 465
#     4   9  21  42  67 107 164 199 250 313 378 465
#
# _framework density 25.234836999999999
#
# number of rings (size 3 to 8) (size 9 to 14) (size 15 to 20)
#    1.200    0.800    0.000    0.600    8.400    4.800 
#    0.000    0.000    0.000    0.000    0.000    0.000 
#    0.000    0.000    0.000    0.000    0.000    0.000 
#
# Total GULP energy -55826.163602 kJ/mol
# GULP energy per Si atom -5582.616360 kJ/mol
# Density = 2.517740 g / cm^3
# Si number density = 25.234837 Si / 1000 Ang^3
#
#
#
# Elastic Constant Matrix: (Units=GPa)
#
#
# Indices 1 2 3 4 5 6 
#
# 1 125.5661 32.9900 36.7637 7.7362 -0.9183 -21.5247
# 2 32.9900 119.3044 54.8841 34.4055 -4.4409 -2.9959
# 3 36.7637 54.8841 142.5697 21.8090 -17.0059 3.8789
# 4 7.7362 34.4055 21.8090 41.8399 -7.9593 6.3246
# 5 -0.9183 -4.4409 -17.0059 -7.9593 34.2606 -6.7908
# 6 -21.5247 -2.9959 3.8789 6.3246 -6.7908 30.5679
#
#
#
# Elastic Compliance Matrix: (Units=1/GPa)
#
#
# Indices 1 2 3 4 5 6 
#
# 1 0.010333 -0.001467 -0.002162 -0.000659 0.000372 0.007626
# 2 -0.001467 0.013082 -0.003506 -0.009340 -0.001813 0.002224
# 3 -0.002162 -0.003506 0.009514 -0.000663 0.003634 -0.002129
# 4 -0.000659 -0.009340 -0.000663 0.034082 0.004922 -0.007253
# 5 0.000372 -0.001813 0.003634 0.004922 0.033091 0.005956
# 6 0.007626 0.002224 -0.002129 -0.007253 0.005956 0.041396
#
#
# Mechanical properties :
#
#
# Convention : Reuss Voigt Hill
#
# Bulk Modulus (GPa) = 53.59280 70.74620 62.16950
# Shear Modulus (GPa) = 30.86657 38.85383 34.86020
#
# Velocity S-wave (km/s) = 3.50118 3.92815 3.72079
# Velocity P-wave (km/s) = 6.13418 6.97637 6.56878
#
# Compressibility (1/GPa) = 0.01865922
#
# Stress axis : x y z
#
# Youngs Moduli (GPa) = 96.77805 76.43883 105.10714
#
# Poissons Ratio (x) = 0.11216 0.22723
# Poissons Ratio (y) = 0.14200 0.36849
# Poissons Ratio (z) = 0.20923 0.26798
#
# Static dielectric constant tensor:
#      x y z
#    x 2.025840 0.011400 0.022950 
#    y 0.011400 1.911880 0.051220 
#    z 0.022950 0.051220 2.326850 
# 
# From -- ./inp_files/2978.got.cif
#   From: 2010.05.17/outbox.cif.g08.bks.cpg/sg2_2_cif.got.tgz:2978.got - 2010.06.03 11:33:40.
