data_PCOD9027014
_publ_section_title
;
Structure prediction by ZEFSAII (Michael W. Deem and Ramdas Pophale) SiO2 
 PCOD9027014
Probable space group: P -1
;
_chemical_formula_sum "Si O2"
_cell_formula_units_Z 12
_cell_length_a 6.747318
_cell_length_b 6.031619
_cell_length_c 17.904455
_cell_angle_alpha 89.886060
_cell_angle_beta 131.692277
_cell_angle_gamma 111.338239
_cell_volume 475.676056
_symmetry_space_group_name_H-M "P -1"
_symmetry_group_IT_number 2
_symmetry_cell_setting 'triclinic'
loop_
_space_group_symop_operation_xyz
x,y,z
-x,-y,-z
loop_
_atom_site_type_symbol
_atom_site_label
_atom_site_fract_x
_atom_site_fract_y
_atom_site_fract_z
Si Si1 0.249011 0.405324 0.166475
Si Si2 0.805713 0.874107 0.278324
Si Si3 0.773325 0.279766 0.346551
Si Si4 0.234960 0.829993 0.490571
Si Si5 0.298292 0.100790 0.993704
Si Si6 0.127927 0.412484 0.832488
O O1 0.453531 0.673059 0.177173
O O2 0.497338 0.334729 0.260542
O O3 0.089251 0.482890 0.191988
O O4 0.992843 0.166756 0.056890
O O5 0.969219 0.779069 0.261049
O O6 0.950479 0.864571 0.393958
O O7 0.823910 0.142910 0.288067
O O8 0.685528 0.127006 0.402640
O O9 0.094644 0.529362 0.441707
O O10 0.500000 0.000000 0.500000
O O11 0.175302 0.246145 0.908717
O O12 0.549860 0.335901 0.103744
O O13 0.500000 0.000000 0.000000
#
# Coordination Sequence:
#
# PCOD9027014 Si02
#       6
#     2   2   2   2   2   2
#     4  10  22  41  66  94 133 176 213 276 319 390
#     4  11  24  41  66  99 130 169 222 274 329 395
#     4  10  23  46  65  99 138 169 227 277 325 401
#     4  10  24  44  67  98 131 181 219 275 335 396
#     4   9  20  40  65  94 131 173 220 267 321 400
#     4  10  22  42  65  95 132 174 218 268 334 389
#
# _framework density 25.227250000000002
#
# number of rings (size 3 to 8) (size 9 to 14) (size 15 to 20)
#    0.000    2.000    0.000    1.500    4.667    6.667 
#    0.000   11.667    0.000    0.000    0.000    0.000 
#    0.000    0.000    0.000    0.000    0.000    0.000 
#
# Total GULP energy -66995.696752 kJ/mol
# GULP energy per Si atom -5582.974729 kJ/mol
# Density = 2.516983 g / cm^3
# Si number density = 25.227250 Si / 1000 Ang^3
#
#
#
# Elastic Constant Matrix: (Units=GPa)
#
#
# Indices 1 2 3 4 5 6 
#
# 1 107.9190 52.1656 36.4437 32.7131 -5.5322 -24.2512
# 2 52.1656 83.8259 37.1468 19.9983 -9.4470 -20.0707
# 3 36.4437 37.1468 84.8569 7.9928 -5.8294 -16.2063
# 4 32.7131 19.9983 7.9928 53.4618 12.2341 -0.8775
# 5 -5.5322 -9.4470 -5.8294 12.2341 37.8232 13.5899
# 6 -24.2512 -20.0707 -16.2063 -0.8775 13.5899 62.8951
#
#
#
# Elastic Compliance Matrix: (Units=1/GPa)
#
#
# Indices 1 2 3 4 5 6 
#
# 1 0.016281 -0.006095 -0.002895 -0.007601 0.001757 0.003101
# 2 -0.006095 0.019707 -0.005059 -0.003733 0.003827 0.001756
# 3 -0.002895 -0.005059 0.015336 0.001452 -0.000259 0.001297
# 4 -0.007601 -0.003733 0.001452 0.026818 -0.010064 -0.001199
# 5 0.001757 0.003827 -0.000259 -0.010064 0.032806 -0.005397
# 6 0.003101 0.001756 0.001297 -0.001199 -0.005397 0.019139
#
#
# Mechanical properties :
#
#
# Convention : Reuss Voigt Hill
#
# Bulk Modulus (GPa) = 43.05796 58.67933 50.86865
# Shear Modulus (GPa) = 30.13361 40.89239 35.51300
#
# Velocity S-wave (km/s) = 3.45988 4.03048 3.75604
# Velocity P-wave (km/s) = 5.75032 6.70601 6.24647
#
# Compressibility (1/GPa) = 0.02322451
#
# Stress axis : x y z
#
# Youngs Moduli (GPa) = 61.42130 50.74411 65.20665
#
# Poissons Ratio (x) = 0.30929 0.18879
# Poissons Ratio (y) = 0.37437 0.32990
# Poissons Ratio (z) = 0.17783 0.25673
#
# Static dielectric constant tensor:
#      x y z
#    x 2.063880 0.039820 -0.024400 
#    y 0.039820 2.064890 0.021630 
#    z -0.024400 0.021630 1.983190 
# 
# From -- ./inp_files/4593.got.cif
#   From: 2010.05.17/outbox.cif.g08.bks.cpg/sg2_3_cif.got.tgz:4593.got - 2010.06.03 11:33:40.
