data_PCOD9027271
_publ_section_title
;
Structure prediction by ZEFSAII (Michael W. Deem and Ramdas Pophale) SiO2 
 PCOD9027271
Probable space group: P -1
;
_chemical_formula_sum "Si O2"
_cell_formula_units_Z 14
_cell_length_a 9.297518
_cell_length_b 10.922821
_cell_length_c 10.937522
_cell_angle_alpha 90.669128
_cell_angle_beta 125.311332
_cell_angle_gamma 127.330954
_cell_volume 597.985731
_symmetry_space_group_name_H-M "P -1"
_symmetry_group_IT_number 2
_symmetry_cell_setting 'triclinic'
loop_
_space_group_symop_operation_xyz
x,y,z
-x,-y,-z
loop_
_atom_site_type_symbol
_atom_site_label
_atom_site_fract_x
_atom_site_fract_y
_atom_site_fract_z
Si Si1 0.147062 0.227373 0.090562
Si Si2 0.049091 0.391191 0.879214
Si Si3 0.846071 0.726359 0.620943
Si Si4 0.667606 0.990122 0.696256
Si Si5 0.684322 0.417603 0.226445
Si Si6 0.199274 0.790276 0.626480
Si Si7 0.627259 0.365133 0.614999
O O1 0.126484 0.212982 0.226073
O O2 0.416239 0.322529 0.159072
O O3 0.130643 0.363732 0.042319
O O4 0.878814 0.037421 0.892040
O O5 0.286780 0.539620 0.902874
O O6 0.855783 0.184817 0.722776
O O7 0.862474 0.413147 0.797037
O O8 0.748158 0.534754 0.589536
O O9 0.619009 0.690326 0.444928
O O10 0.111715 0.852424 0.674490
O O11 0.453224 0.952451 0.670163
O O12 0.514650 0.811338 0.540587
O O13 0.717149 0.289852 0.262362
O O14 0.939076 0.615316 0.418366
#
# Coordination Sequence:
#
# PCOD9027271 Si02
#       7
#     2   2   2   2   2   2   2
#     4  10  25  39  65  97 130 159 204 269 324 356
#     4  10  22  41  67  94 125 164 208 269 305 374
#     4  11  23  39  62  98 128 166 209 255 311 380
#     4  10  23  41  67  93 127 163 210 264 314 359
#     4  11  20  40  66  95 119 169 221 253 294 383
#     4  11  21  37  67  92 124 169 216 250 301 382
#     4  11  20  41  68  89 122 171 215 251 302 378
#
# _framework density 23.411930999999999
#
# number of rings (size 3 to 8) (size 9 to 14) (size 15 to 20)
#    0.857    0.571    2.857    4.286    0.000    3.429 
#    0.000    0.714    3.143    0.000    0.000    0.000 
#    0.000    0.000    0.000    0.000    0.000    0.000 
#
# Total GULP energy -78187.407725 kJ/mol
# GULP energy per Si atom -5584.814837 kJ/mol
# Density = 2.335864 g / cm^3
# Si number density = 23.411931 Si / 1000 Ang^3
#
#
#
# Elastic Constant Matrix: (Units=GPa)
#
#
# Indices 1 2 3 4 5 6 
#
# 1 158.9783 18.8541 33.6082 -6.4485 38.0624 -0.8270
# 2 18.8541 41.3229 -1.4617 3.9086 -0.8501 5.4652
# 3 33.6082 -1.4617 73.6673 -5.3627 19.1840 -0.5525
# 4 -6.4485 3.9086 -5.3627 36.4542 -6.2958 6.2998
# 5 38.0624 -0.8501 19.1840 -6.2958 38.7615 1.5795
# 6 -0.8270 5.4652 -0.5525 6.2998 1.5795 35.4455
#
#
#
# Elastic Compliance Matrix: (Units=1/GPa)
#
#
# Indices 1 2 3 4 5 6 
#
# 1 0.009266 -0.004653 -0.002176 0.000200 -0.008141 0.001227
# 2 -0.004653 0.027199 0.001354 -0.002084 0.004324 -0.004103
# 3 -0.002176 0.001354 0.016137 0.000845 -0.005687 0.000095
# 4 0.000200 -0.002084 0.000845 0.029441 0.004329 -0.005086
# 5 -0.008141 0.004324 -0.005687 0.004329 0.037544 -0.003388
# 6 0.001227 -0.004103 0.000095 -0.005086 -0.003388 0.029930
#
#
# Mechanical properties :
#
#
# Convention : Reuss Voigt Hill
#
# Bulk Modulus (GPa) = 24.00813 41.77439 32.89126
# Shear Modulus (GPa) = 28.67767 36.99678 32.83723
#
# Velocity S-wave (km/s) = 3.50368 3.97955 3.74917
# Velocity P-wave (km/s) = 5.16184 6.24482 5.72898
#
# Compressibility (1/GPa) = 0.04165256
#
# Stress axis : x y z
#
# Youngs Moduli (GPa) = 107.92602 36.76552 61.96858
#
# Poissons Ratio (x) = 0.17108 0.13482
# Poissons Ratio (y) = 0.50220 -0.08390
# Poissons Ratio (z) = 0.23480 -0.04978
#
# Static dielectric constant tensor:
#      x y z
#    x 1.896820 -0.044590 -0.008610 
#    y -0.044590 1.927640 -0.022890 
#    z -0.008610 -0.022890 1.954900 
# 
# From -- ./inp_files/387909.got.cif
#   From: 2010.05.17/outbox.cif.g08.bks.cpg/sg2_194_cif.got.tgz:387909.got - 2010.06.03 11:33:40.
