data_PCOD9027706
_publ_section_title
;
Structure prediction by ZEFSAII (Michael W. Deem and Ramdas Pophale) SiO2 
 PCOD9027706
Probable space group: P -1
;
_chemical_formula_sum "Si O2"
_cell_formula_units_Z 16
_cell_length_a 18.704877
_cell_length_b 7.857256
_cell_length_c 20.619217
_cell_angle_alpha 42.737035
_cell_angle_beta 19.386096
_cell_angle_gamma 40.227533
_cell_volume 648.181447
_symmetry_space_group_name_H-M "P -1"
_symmetry_group_IT_number 2
_symmetry_cell_setting 'triclinic'
loop_
_space_group_symop_operation_xyz
x,y,z
-x,-y,-z
loop_
_atom_site_type_symbol
_atom_site_label
_atom_site_fract_x
_atom_site_fract_y
_atom_site_fract_z
Si Si1 0.878104 0.140346 0.387123
Si Si2 0.931755 0.314513 0.435330
Si Si3 0.700484 0.181034 0.259325
Si Si4 0.328764 0.793438 0.046132
Si Si5 0.700420 0.838645 0.464911
Si Si6 0.422721 0.051574 0.768790
Si Si7 0.104453 0.351332 0.847920
Si Si8 0.603270 0.046134 0.829865
O O1 0.953327 0.182227 0.383434
O O2 0.873533 0.385868 0.275864
O O3 0.619910 0.139195 0.609984
O O4 0.068035 0.877905 0.270460
O O5 0.929896 0.610284 0.342135
O O6 0.152134 0.175351 0.327078
O O7 0.697420 0.296106 0.672847
O O8 0.718807 0.096969 0.342096
O O9 0.799446 0.907023 0.209510
O O10 0.443328 0.279163 0.429422
O O11 0.841655 0.374507 0.071340
O O12 0.500000 0.500000 0.000000
O O13 0.336316 0.873178 0.942154
O O14 0.430264 0.000248 0.938995
O O15 0.565646 0.890811 0.631484
O O16 0.227228 0.270842 0.834914
O O17 0.500000 0.000000 0.000000
#
# Coordination Sequence:
#
# PCOD9027706 Si02
#       8
#     2   2   2   2   2   2   2   2
#     4  12  25  47  71 104 141 186 225 288 348 410
#     4  11  24  43  74  99 130 177 233 288 338 402
#     4   9  20  39  68 105 139 175 227 279 331 409
#     4  12  30  48  68 101 141 184 234 289 347 414
#     4  10  22  41  69 101 138 181 220 283 342 405
#     4  11  27  46  67 105 144 186 223 280 356 416
#     4  10  22  43  71 105 142 180 230 279 343 419
#     4  11  25  46  68 100 129 176 241 289 338 396
#
# _framework density 24.684443999999999
#
# number of rings (size 3 to 8) (size 9 to 14) (size 15 to 20)
#    0.000    1.250    3.750    0.375    7.000    1.000 
#    0.000    0.000    0.000    0.000    0.000    0.000 
#    0.000    0.000    0.000    0.000    0.000    0.000 
#
# Total GULP energy -89433.260843 kJ/mol
# GULP energy per Si atom -5589.578803 kJ/mol
# Density = 2.462826 g / cm^3
# Si number density = 24.684444 Si / 1000 Ang^3
#
#
#
# Elastic Constant Matrix: (Units=GPa)
#
#
# Indices 1 2 3 4 5 6 
#
# 1 91.4105 8.8020 14.5108 -2.7237 22.0398 -7.2651
# 2 8.8020 83.4714 4.4417 -0.5525 7.8940 -18.9537
# 3 14.5108 4.4417 112.9311 -12.9587 3.0264 -2.1629
# 4 -2.7237 -0.5525 -12.9587 21.6921 -8.2414 6.7904
# 5 22.0398 7.8940 3.0264 -8.2414 51.9424 -2.2973
# 6 -7.2651 -18.9537 -2.1629 6.7904 -2.2973 34.7754
#
#
#
# Elastic Compliance Matrix: (Units=1/GPa)
#
#
# Indices 1 2 3 4 5 6 
#
# 1 0.012687 -0.000164 -0.001693 -0.002314 -0.005514 0.002543
# 2 -0.000164 0.014066 -0.000716 -0.003475 -0.002219 0.008120
# 3 -0.001693 -0.000716 0.009788 0.006497 0.001229 -0.001323
# 4 -0.002314 -0.003475 0.006497 0.057182 0.009651 -0.012501
# 5 -0.005514 -0.002219 0.001229 0.009651 0.023272 -0.002632
# 6 0.002543 0.008120 -0.001323 -0.012501 -0.002632 0.035898
#
#
# Mechanical properties :
#
#
# Convention : Reuss Voigt Hill
#
# Bulk Modulus (GPa) = 31.85169 38.14687 34.99928
# Shear Modulus (GPa) = 29.67295 39.01921 34.34608
#
# Velocity S-wave (km/s) = 3.47088 3.98014 3.73420
# Velocity P-wave (km/s) = 5.38463 6.05057 5.72729
#
# Compressibility (1/GPa) = 0.03139551
#
# Stress axis : x y z
#
# Youngs Moduli (GPa) = 78.82147 71.09315 102.16680
#
# Poissons Ratio (x) = 0.01166 0.17294
# Poissons Ratio (y) = 0.01293 0.07314
# Poissons Ratio (z) = 0.13342 0.05090
#
# Static dielectric constant tensor:
#      x y z
#    x 1.983200 0.015570 -0.004100 
#    y 0.015570 1.976660 0.001570 
#    z -0.004100 0.001570 1.969300 
# 
# From -- ./inp_files/599689.got.cif
#   From: 2010.05.17/outbox.cif.g08.bks.cpg/sg2_300_cif.got.tgz:599689.got - 2010.06.03 11:33:40.
