data_PCOD9027611
_publ_section_title
;
Structure prediction by ZEFSAII (Michael W. Deem and Ramdas Pophale) SiO2 
 PCOD9027611
Probable space group: P -1
;
_chemical_formula_sum "Si O2"
_cell_formula_units_Z 12
_cell_length_a 6.050519
_cell_length_b 18.494763
_cell_length_c 11.318572
_cell_angle_alpha 23.415444
_cell_angle_beta 81.202238
_cell_angle_gamma 82.793369
_cell_volume 497.053008
_symmetry_space_group_name_H-M "P -1"
_symmetry_group_IT_number 2
_symmetry_cell_setting 'triclinic'
loop_
_space_group_symop_operation_xyz
x,y,z
-x,-y,-z
loop_
_atom_site_type_symbol
_atom_site_label
_atom_site_fract_x
_atom_site_fract_y
_atom_site_fract_z
Si Si1 0.746062 0.074760 0.107957
Si Si2 0.475757 0.205273 0.746813
Si Si3 0.346030 0.525818 0.862271
Si Si4 0.996173 0.781191 0.625696
Si Si5 0.338208 0.035181 0.347917
Si Si6 0.103769 0.308189 0.813354
O O1 0.507008 0.996521 0.284195
O O2 0.694980 0.211965 0.802905
O O3 0.903627 0.907356 0.338698
O O4 0.873877 0.189153 0.026530
O O5 0.511634 0.366856 0.409041
O O6 0.253377 0.241713 0.788058
O O7 0.500000 0.000000 0.000000
O O8 0.159187 0.655149 0.732567
O O9 0.500000 0.500000 0.000000
O O10 0.212483 0.336680 0.127524
O O11 0.129666 0.895139 0.546047
O O12 0.500000 0.000000 0.500000
O O13 0.257539 0.239857 0.012542
O O14 0.000000 0.500000 0.500000
#
# Coordination Sequence:
#
# PCOD9027611 Si02
#       6
#     2   2   2   2   2   2
#     4  10  22  45  66  94 137 180 237 282 353 422
#     4  11  23  42  73 101 136 187 230 289 358 428
#     4  11  23  42  64 108 143 171 233 300 357 416
#     4  10  22  41  68  96 140 178 230 296 353 421
#     4  10  22  44  70  97 133 192 240 289 348 425
#     4  10  24  46  69 103 140 184 241 294 354 422
#
# _framework density 24.142291
#
# number of rings (size 3 to 8) (size 9 to 14) (size 15 to 20)
#    0.000    1.667    0.000    5.000    0.000   10.667 
#   18.000    0.000    0.000    0.000    0.000    0.000 
#    0.000    0.000    0.000    0.000    0.000    0.000 
#
# Total GULP energy -66822.334768 kJ/mol
# GULP energy per Si atom -5568.527897 kJ/mol
# Density = 2.408734 g / cm^3
# Si number density = 24.142291 Si / 1000 Ang^3
#
#
#
# Elastic Constant Matrix: (Units=GPa)
#
#
# Indices 1 2 3 4 5 6 
#
# 1 141.0233 38.5304 83.8788 -1.1476 18.5967 15.1795
# 2 38.5304 70.0192 37.6832 13.9869 6.9824 -3.2297
# 3 83.8788 37.6832 160.9763 9.4050 21.9472 6.3634
# 4 -1.1476 13.9869 9.4050 42.6334 -5.8138 11.0289
# 5 18.5967 6.9824 21.9472 -5.8138 69.2118 -1.3895
# 6 15.1795 -3.2297 6.3634 11.0289 -1.3895 37.9062
#
#
#
# Elastic Compliance Matrix: (Units=1/GPa)
#
#
# Indices 1 2 3 4 5 6 
#
# 1 0.012330 -0.005105 -0.005139 0.004533 -0.000905 -0.005862
# 2 -0.005105 0.019975 -0.001709 -0.008045 -0.000650 0.006350
# 3 -0.005139 -0.001709 0.009607 -0.002146 -0.001656 0.000864
# 4 0.004533 -0.008045 -0.002146 0.029814 0.002563 -0.010721
# 5 -0.000905 -0.000650 -0.001656 0.002563 0.015506 0.000408
# 6 -0.005862 0.006350 0.000864 -0.010721 0.000408 0.032259
#
#
# Mechanical properties :
#
#
# Convention : Reuss Voigt Hill
#
# Bulk Modulus (GPa) = 55.53436 76.91153 66.22295
# Shear Modulus (GPa) = 33.46783 44.07869 38.77326
#
# Velocity S-wave (km/s) = 3.72731 4.27756 4.01188
# Velocity P-wave (km/s) = 6.44800 7.50489 6.99643
#
# Compressibility (1/GPa) = 0.01800687
#
# Stress axis : x y z
#
# Youngs Moduli (GPa) = 81.10471 50.06240 104.09048
#
# Poissons Ratio (x) = 0.25555 0.53496
# Poissons Ratio (y) = 0.41401 0.17784
# Poissons Ratio (z) = 0.41683 0.08553
#
# Static dielectric constant tensor:
#      x y z
#    x 1.940830 0.062310 -0.016640 
#    y 0.062310 2.006010 0.001540 
#    z -0.016640 0.001540 2.089290 
# 
# From -- ./inp_files/51499.got.cif
#   From: 2010.05.17/outbox.cif.g08.bks.cpg/sg2_26_cif.got.tgz:51499.got - 2010.06.03 11:33:40.
