data_PCOD9027456
_publ_section_title
;
Structure prediction by ZEFSAII (Michael W. Deem and Ramdas Pophale) SiO2 
 PCOD9027456
Probable space group: P -1
;
_chemical_formula_sum "Si O2"
_cell_formula_units_Z 16
_cell_length_a 8.860700
_cell_length_b 8.426500
_cell_length_c 16.186202
_cell_angle_alpha 110.043050
_cell_angle_beta 103.942483
_cell_angle_gamma 131.746601
_cell_volume 629.339668
_symmetry_space_group_name_H-M "P -1"
_symmetry_group_IT_number 2
_symmetry_cell_setting 'triclinic'
loop_
_space_group_symop_operation_xyz
x,y,z
-x,-y,-z
loop_
_atom_site_type_symbol
_atom_site_label
_atom_site_fract_x
_atom_site_fract_y
_atom_site_fract_z
Si Si1 0.717083 0.962475 0.443270
Si Si2 0.832067 0.114987 0.240601
Si Si3 0.711677 0.634489 0.141454
Si Si4 0.854541 0.106626 0.880091
Si Si5 0.392145 0.593401 0.491871
Si Si6 0.740721 0.597924 0.321848
Si Si7 0.275705 0.951923 0.964924
Si Si8 0.504937 0.974938 0.706566
O O1 0.547505 0.821619 0.478953
O O2 0.716381 0.768850 0.378985
O O3 0.578681 0.953879 0.355001
O O4 0.025290 0.276060 0.568137
O O5 0.670314 0.131595 0.255037
O O6 0.083602 0.311748 0.369913
O O7 0.658326 0.787265 0.166634
O O8 0.902207 0.210542 0.171130
O O9 0.841914 0.694859 0.257344
O O10 0.452569 0.281997 0.039208
O O11 0.911082 0.785333 0.116836
O O12 0.564455 0.748394 0.778155
O O13 0.800188 0.213309 0.828690
O O14 0.884051 0.181003 0.993083
O O15 0.500000 0.500000 0.500000
O O16 0.443245 0.752079 0.606456
O O17 0.500000 0.000000 0.000000
#
# Coordination Sequence:
#
# PCOD9027456 Si02
#       8
#     2   2   2   2   2   2   2   2
#     4  11  23  40  65 104 143 186 236 289 357 427
#     4  12  25  47  70 103 145 188 236 300 360 426
#     4  11  24  47  73 102 137 188 244 295 359 426
#     4  11  25  45  74 101 142 191 241 294 359 416
#     4  12  27  45  72 107 147 188 242 291 359 433
#     4  10  22  41  68 101 145 186 231 296 360 423
#     4  11  26  49  73 105 143 188 241 300 360 419
#     4  12  25  42  70 105 143 188 234 295 362 422
#
# _framework density 25.423473000000001
#
# number of rings (size 3 to 8) (size 9 to 14) (size 15 to 20)
#    0.000    0.750    2.500    4.875    5.250    2.000 
#    2.250    0.625    0.000    0.000    0.000    0.000 
#    0.000    0.000    0.000    0.000    0.000    0.000 
#
# Total GULP energy -89603.655691 kJ/mol
# GULP energy per Si atom -5600.228481 kJ/mol
# Density = 2.536561 g / cm^3
# Si number density = 25.423473 Si / 1000 Ang^3
#
#
#
# Elastic Constant Matrix: (Units=GPa)
#
#
# Indices 1 2 3 4 5 6 
#
# 1 121.4735 24.3892 34.3991 0.7325 -25.3988 -7.3396
# 2 24.3892 99.3194 36.5449 -13.2822 -26.4827 8.9424
# 3 34.3991 36.5449 116.0330 -30.4002 -30.3528 1.5859
# 4 0.7325 -13.2822 -30.4002 60.8929 -0.8584 -8.7277
# 5 -25.3988 -26.4827 -30.3528 -0.8584 44.6611 -14.3212
# 6 -7.3396 8.9424 1.5859 -8.7277 -14.3212 38.5639
#
#
#
# Elastic Compliance Matrix: (Units=1/GPa)
#
#
# Indices 1 2 3 4 5 6 
#
# 1 0.010266 -0.000910 -0.001412 -0.000336 0.005700 0.004264
# 2 -0.000910 0.012768 -0.001728 0.001945 0.005761 -0.000483
# 3 -0.001412 -0.001728 0.013857 0.007355 0.009223 0.004652
# 4 -0.000336 0.001945 0.007355 0.021697 0.008730 0.007335
# 5 0.005700 0.005761 0.009223 0.008730 0.040771 0.016486
# 6 0.004264 -0.000483 0.004652 0.007335 0.016486 0.034446
#
#
# Mechanical properties :
#
#
# Convention : Reuss Voigt Hill
#
# Bulk Modulus (GPa) = 34.73418 58.61024 46.67221
# Shear Modulus (GPa) = 33.00283 44.92309 38.96296
#
# Velocity S-wave (km/s) = 3.60686 4.20812 3.91904
# Velocity P-wave (km/s) = 5.57116 6.83481 6.23508
#
# Compressibility (1/GPa) = 0.02879008
#
# Stress axis : x y z
#
# Youngs Moduli (GPa) = 97.40606 78.32250 72.16555
#
# Poissons Ratio (x) = 0.07131 0.10190
# Poissons Ratio (y) = 0.08868 0.12471
# Poissons Ratio (z) = 0.13754 0.13534
#
# Static dielectric constant tensor:
#      x y z
#    x 1.967530 -0.023490 0.003220 
#    y -0.023490 2.074130 -0.004470 
#    z 0.003220 -0.004470 2.012600 
# 
# From -- ./inp_files/495473.got.cif
#   From: 2010.05.17/outbox.cif.g08.bks.cpg/sg2_248_cif.got.tgz:495473.got - 2010.06.03 11:33:40.
