data_PCOD9027824
_publ_section_title
;
Structure prediction by ZEFSAII (Michael W. Deem and Ramdas Pophale) SiO2 
 PCOD9027824
Probable space group: P -1
;
_chemical_formula_sum "Si O2"
_cell_formula_units_Z 16
_cell_length_a 8.048658
_cell_length_b 13.210095
_cell_length_c 13.580804
_cell_angle_alpha 147.758458
_cell_angle_beta 68.545099
_cell_angle_gamma 92.786096
_cell_volume 610.125368
_symmetry_space_group_name_H-M "P -1"
_symmetry_group_IT_number 2
_symmetry_cell_setting 'triclinic'
loop_
_space_group_symop_operation_xyz
x,y,z
-x,-y,-z
loop_
_atom_site_type_symbol
_atom_site_label
_atom_site_fract_x
_atom_site_fract_y
_atom_site_fract_z
Si Si1 0.686908 0.149154 0.986685
Si Si2 0.262095 0.610563 0.417438
Si Si3 0.006509 0.401021 0.242619
Si Si4 0.714529 0.262533 0.277022
Si Si5 0.343194 0.179132 0.813666
Si Si6 0.741884 0.812791 0.531641
Si Si7 0.896636 0.384119 0.863470
Si Si8 0.938945 0.973519 0.319413
O O1 0.697948 0.959942 0.759603
O O2 0.486218 0.382076 0.187230
O O3 0.691398 0.117307 0.077249
O O4 0.903169 0.129435 0.892305
O O5 0.090449 0.535196 0.398540
O O6 0.269719 0.760420 0.627900
O O7 0.197710 0.764568 0.461897
O O8 0.921643 0.271031 0.214169
O O9 0.800004 0.577053 0.368969
O O10 0.196532 0.265462 0.014102
O O11 0.500000 0.500000 0.500000
O O12 0.558529 0.968728 0.626796
O O13 0.236405 0.088916 0.690351
O O14 0.318137 0.400613 0.952352
O O15 0.949309 0.738049 0.361805
O O16 0.901391 0.185909 0.760198
O O17 0.000000 0.500000 0.000000
#
# Coordination Sequence:
#
# PCOD9027824 Si02
#       8
#     2   2   2   2   2   2   2   2
#     4  11  23  43  62  98 138 170 224 272 323 394
#     4  11  24  42  66  96 134 178 224 272 332 382
#     4  11  21  44  65  95 136 174 221 276 324 393
#     4  10  24  43  67  97 134 174 222 279 327 388
#     4  10  22  41  69  96 132 178 216 271 336 390
#     4  11  23  41  70  97 135 176 220 265 338 398
#     4   9  23  43  68 101 135 167 225 275 326 396
#     4  11  23  42  67  97 130 176 220 275 331 392
#
# _framework density 26.224118000000001
#
# number of rings (size 3 to 8) (size 9 to 14) (size 15 to 20)
#    0.000    1.500    3.750    0.375    3.500    4.000 
#    0.000    3.750    0.000    0.000    0.000    0.000 
#    0.000    0.000    0.000    0.000    0.000    0.000 
#
# Total GULP energy -89297.461738 kJ/mol
# GULP energy per Si atom -5581.091359 kJ/mol
# Density = 2.616443 g / cm^3
# Si number density = 26.224118 Si / 1000 Ang^3
#
#
#
# Elastic Constant Matrix: (Units=GPa)
#
#
# Indices 1 2 3 4 5 6 
#
# 1 63.2168 0.7392 -11.1848 32.8230 -31.3870 -19.0970
# 2 0.7392 53.3791 9.1727 24.0469 -27.5485 -11.6725
# 3 -11.1848 9.1727 63.5222 33.6045 -41.9289 -8.8117
# 4 32.8230 24.0469 33.6045 43.7236 -13.5647 -11.0302
# 5 -31.3870 -27.5485 -41.9289 -13.5647 36.5886 20.4480
# 6 -19.0970 -11.6725 -8.8117 -11.0302 20.4480 28.0765
#
#
#
# Elastic Compliance Matrix: (Units=1/GPa)
#
#
# Indices 1 2 3 4 5 6 
#
# 1 0.005988 -0.007212 -0.011011 0.005598 -0.018103 0.013002
# 2 -0.007212 0.015271 -0.011239 0.004331 -0.009696 0.006678
# 3 -0.011011 -0.011239 0.001251 0.009676 -0.014223 0.002391
# 4 0.005598 0.004331 0.009676 0.016216 0.028284 -0.005583
# 5 -0.018103 -0.009696 -0.014223 0.028284 0.006926 -0.014740
# 6 0.013002 0.006678 0.002391 -0.005583 -0.014740 0.056530
#
#
# Mechanical properties :
#
#
# Convention : Reuss Voigt Hill
#
# Bulk Modulus (GPa) = -27.46057 19.73026 -3.86515
# Shear Modulus (GPa) = 33.56437 33.77047 33.66742
#
# Velocity S-wave (km/s) = 3.58146 3.59244 3.58695
# Velocity P-wave (km/s) = 2.57065 4.97469 3.95953
#
# Compressibility (1/GPa) = -0.03641586
#
# Stress axis : x y z
#
# Youngs Moduli (GPa) = 167.00296 65.48472 799.44047
#
# Poissons Ratio (x) = 0.47228 8.80274
# Poissons Ratio (y) = 1.20444 8.98527
# Poissons Ratio (z) = 1.83889 0.73601
#
# Static dielectric constant tensor:
#      x y z
#    x 2.156440 -0.017460 0.075440 
#    y -0.017460 2.060290 0.026690 
#    z 0.075440 0.026690 2.087870 
# 
# From -- ./inp_files/505740.got.cif
#   From: 2010.05.17/outbox.cif.g08.bks.cpg/sg2_253_cif.got.tgz:505740.got - 2010.06.03 11:33:40.
