data_PCOD9027641
_publ_section_title
;
Structure prediction by ZEFSAII (Michael W. Deem and Ramdas Pophale) SiO2 
 PCOD9027641
Probable space group: P -1
;
_chemical_formula_sum "Si O2"
_cell_formula_units_Z 16
_cell_length_a 15.101172
_cell_length_b 10.744095
_cell_length_c 9.983933
_cell_angle_alpha 69.175372
_cell_angle_beta 151.073114
_cell_angle_gamma 112.898935
_cell_volume 721.369905
_symmetry_space_group_name_H-M "P -1"
_symmetry_group_IT_number 2
_symmetry_cell_setting 'triclinic'
loop_
_space_group_symop_operation_xyz
x,y,z
-x,-y,-z
loop_
_atom_site_type_symbol
_atom_site_label
_atom_site_fract_x
_atom_site_fract_y
_atom_site_fract_z
Si Si1 0.269004 0.785151 0.439986
Si Si2 0.864598 0.294326 0.273200
Si Si3 0.134067 0.223682 0.466282
Si Si4 0.937821 0.041463 0.051183
Si Si5 0.377395 0.496547 0.703489
Si Si6 0.366276 0.495846 0.199134
Si Si7 0.524678 0.137280 0.059302
Si Si8 0.086588 0.259526 0.824029
O O1 0.341770 0.646218 0.566263
O O2 0.401765 0.871714 0.690043
O O3 0.074038 0.742236 0.277428
O O4 0.229939 0.877046 0.229258
O O5 0.691430 0.228280 0.161983
O O6 0.950274 0.193203 0.326932
O O7 0.027671 0.333333 0.584849
O O8 0.792728 0.411104 0.048457
O O9 0.188727 0.387215 0.486219
O O10 0.086116 0.146642 0.291617
O O11 0.325855 0.183538 0.785679
O O12 0.899240 0.896180 0.128408
O O13 0.000000 0.000000 0.000000
O O14 0.503086 0.452454 0.771079
O O15 0.500000 0.500000 0.000000
O O16 0.500000 0.500000 0.500000
O O17 0.270342 0.343879 0.096811
O O18 0.500000 0.000000 0.000000
#
# Coordination Sequence:
#
# PCOD9027641 Si02
#       8
#     2   2   2   2   2   2   2   2
#     4  10  22  41  68  98 134 181 231 284 357 406
#     4  11  24  45  69 104 136 183 237 284 359 413
#     4  12  24  43  75  99 138 184 239 286 345 429
#     4  10  24  42  68  98 136 186 227 285 357 412
#     4  12  23  44  71 101 136 183 238 287 349 420
#     4  12  27  42  70 106 142 181 232 305 358 405
#     4  11  23  43  71 101 139 187 234 288 338 428
#     4  10  22  45  67  94 143 179 229 285 350 427
#
# _framework density 22.180019999999999
#
# number of rings (size 3 to 8) (size 9 to 14) (size 15 to 20)
#    0.000    1.000    2.500    4.875    5.250    3.500 
#    0.000    0.625    0.000    0.000    0.000    0.000 
#    0.000    0.000    0.000    0.000    0.000    0.000 
#
# Total GULP energy -89312.304873 kJ/mol
# GULP energy per Si atom -5582.019055 kJ/mol
# Density = 2.212954 g / cm^3
# Si number density = 22.180020 Si / 1000 Ang^3
#
#
#
# Elastic Constant Matrix: (Units=GPa)
#
#
# Indices 1 2 3 4 5 6 
#
# 1 69.2227 -10.1874 34.3950 -7.6614 3.2242 -5.6416
# 2 -10.1874 91.3123 62.8364 2.2832 -4.9568 -5.4921
# 3 34.3950 62.8364 167.9100 10.2128 -12.6207 -0.1687
# 4 -7.6614 2.2832 10.2128 39.1385 -18.7751 1.3406
# 5 3.2242 -4.9568 -12.6207 -18.7751 32.4789 -1.5820
# 6 -5.6416 -5.4921 -0.1687 1.3406 -1.5820 11.0093
#
#
#
# Elastic Compliance Matrix: (Units=1/GPa)
#
#
# Indices 1 2 3 4 5 6 
#
# 1 0.021382 0.008545 -0.007892 0.005155 -0.000202 0.014442
# 2 0.008545 0.018797 -0.008879 0.002852 0.000872 0.013398
# 3 -0.007892 -0.008879 0.011192 -0.002839 0.001761 -0.007703
# 4 0.005155 0.002852 -0.002839 0.036726 0.020170 0.002447
# 5 -0.000202 0.000872 0.001761 0.020170 0.043488 0.004151
# 6 0.014442 0.013398 -0.007703 0.002447 0.004151 0.105097
#
#
# Mechanical properties :
#
#
# Convention : Reuss Voigt Hill
#
# Bulk Modulus (GPa) = 28.63762 55.83700 42.23731
# Shear Modulus (GPa) = 18.88407 32.61875 25.75141
#
# Velocity S-wave (km/s) = 2.92104 3.83905 3.41107
# Velocity P-wave (km/s) = 4.93114 6.69927 5.88202
#
# Compressibility (1/GPa) = 0.03491910
#
# Stress axis : x y z
#
# Youngs Moduli (GPa) = 46.76836 53.20061 89.34720
#
# Poissons Ratio (x) = -0.45461 0.70512
# Poissons Ratio (y) = -0.39964 0.79333
# Poissons Ratio (z) = 0.36909 0.47238
#
# Static dielectric constant tensor:
#      x y z
#    x 1.862410 0.031120 0.009030 
#    y 0.031120 1.871710 -0.015890 
#    z 0.009030 -0.015890 1.818780 
# 
# From -- ./inp_files/307223.got.cif
#   From: 2010.05.17/outbox.cif.g08.bks.cpg/sg2_154_cif.got.tgz:307223.got - 2010.06.03 11:33:40.
