data_PCOD9027088
_publ_section_title
;
Structure prediction by ZEFSAII (Michael W. Deem and Ramdas Pophale) SiO2 
 PCOD9027088
Probable space group: P -1
;
_chemical_formula_sum "Si O2"
_cell_formula_units_Z 12
_cell_length_a 8.023708
_cell_length_b 7.471675
_cell_length_c 14.259246
_cell_angle_alpha 119.554629
_cell_angle_beta 51.427957
_cell_angle_gamma 137.596912
_cell_volume 449.815825
_symmetry_space_group_name_H-M "P -1"
_symmetry_group_IT_number 2
_symmetry_cell_setting 'triclinic'
loop_
_space_group_symop_operation_xyz
x,y,z
-x,-y,-z
loop_
_atom_site_type_symbol
_atom_site_label
_atom_site_fract_x
_atom_site_fract_y
_atom_site_fract_z
Si Si1 0.686386 0.406860 0.909021
Si Si2 0.083931 0.135187 0.741027
Si Si3 0.084932 0.239692 0.464599
Si Si4 0.826596 0.449277 0.330786
Si Si5 0.465843 0.890728 0.379511
Si Si6 0.124053 0.889399 0.992220
O O1 0.876852 0.485709 0.771340
O O2 0.500000 0.500000 0.000000
O O3 0.918896 0.580201 0.952859
O O4 0.454614 0.087530 0.913262
O O5 0.154320 0.370444 0.711230
O O6 0.912006 0.084077 0.879240
O O7 0.926768 0.869254 0.661748
O O8 0.368823 0.218234 0.704350
O O9 0.291759 0.496525 0.522751
O O10 0.854361 0.276179 0.561467
O O11 0.000000 0.000000 0.500000
O O12 0.612673 0.132514 0.317302
O O13 0.500000 0.000000 0.500000
O O14 0.000000 0.000000 0.000000
#
# Coordination Sequence:
#
# PCOD9027088 Si02
#       6
#     2   2   2   2   2   2
#     4  10  23  41  72  98 143 188 241 295 359 422
#     4  10  23  44  65 105 136 184 239 290 361 430
#     4   9  22  42  66 101 136 176 231 289 357 430
#     4  11  24  43  69 100 140 185 231 299 356 427
#     4  10  22  41  66  96 137 181 228 287 354 429
#     4  10  22  44  67 103 141 187 243 297 353 426
#
# _framework density 26.677585000000001
#
# number of rings (size 3 to 8) (size 9 to 14) (size 15 to 20)
#    0.000    2.000    0.000    2.000    7.000   10.000 
#   12.000    0.000    0.000    0.000    0.000    0.000 
#    0.000    0.000    0.000    0.000    0.000    0.000 
#
# Total GULP energy -66947.140520 kJ/mol
# GULP energy per Si atom -5578.928377 kJ/mol
# Density = 2.661687 g / cm^3
# Si number density = 26.677585 Si / 1000 Ang^3
#
#
#
# Elastic Constant Matrix: (Units=GPa)
#
#
# Indices 1 2 3 4 5 6 
#
# 1 69.3922 51.7872 28.8113 11.0436 -6.9224 -5.0677
# 2 51.7872 133.8946 65.9971 -16.1485 7.7202 0.8617
# 3 28.8113 65.9971 179.3965 20.0929 34.1769 18.4784
# 4 11.0436 -16.1485 20.0929 47.6683 6.7482 1.2456
# 5 -6.9224 7.7202 34.1769 6.7482 48.7545 -1.5219
# 6 -5.0677 0.8617 18.4784 1.2456 -1.5219 51.1840
#
#
#
# Elastic Compliance Matrix: (Units=1/GPa)
#
#
# Indices 1 2 3 4 5 6 
#
# 1 0.025977 -0.011584 -0.000464 -0.010893 0.007463 0.003422
# 2 -0.011584 0.015560 -0.004554 0.010207 -0.002331 -0.000082
# 3 -0.000464 -0.004554 0.009169 -0.004469 -0.005258 -0.003327
# 4 -0.010893 0.010207 -0.004469 0.029439 -0.004120 -0.000476
# 5 0.007463 -0.002331 -0.005258 -0.004120 0.026307 0.003559
# 6 0.003422 -0.000082 -0.003327 -0.000476 0.003559 0.021196
#
#
# Mechanical properties :
#
#
# Convention : Reuss Voigt Hill
#
# Bulk Modulus (GPa) = 57.14332 75.09718 66.12025
# Shear Modulus (GPa) = 29.99626 45.26052 37.62839
#
# Velocity S-wave (km/s) = 3.35684 4.12342 3.75972
# Velocity P-wave (km/s) = 6.04078 7.13310 6.60954
#
# Compressibility (1/GPa) = 0.01749986
#
# Stress axis : x y z
#
# Youngs Moduli (GPa) = 38.49566 64.26744 109.06109
#
# Poissons Ratio (x) = 0.74450 0.05064
# Poissons Ratio (y) = 0.44595 0.49670
# Poissons Ratio (z) = 0.01788 0.29270
#
# Static dielectric constant tensor:
#      x y z
#    x 2.230020 0.136790 -0.070700 
#    y 0.136790 2.273870 -0.019580 
#    z -0.070700 -0.019580 2.013800 
# 
# From -- ./inp_files/59901.got.cif
#   From: 2010.05.17/outbox.cif.g08.bks.cpg/sg2_30_cif.got.tgz:59901.got - 2010.06.03 11:33:40.
