data_PCOD9027130
_publ_section_title
;
Structure prediction by ZEFSAII (Michael W. Deem and Ramdas Pophale) SiO2 
 PCOD9027130
Probable space group: P -1
;
_chemical_formula_sum "Si O2"
_cell_formula_units_Z 16
_cell_length_a 5.694685
_cell_length_b 4.967498
_cell_length_c 22.846598
_cell_angle_alpha 81.713890
_cell_angle_beta 108.558179
_cell_angle_gamma 98.055899
_cell_volume 603.220608
_symmetry_space_group_name_H-M "P -1"
_symmetry_group_IT_number 2
_symmetry_cell_setting 'triclinic'
loop_
_space_group_symop_operation_xyz
x,y,z
-x,-y,-z
loop_
_atom_site_type_symbol
_atom_site_label
_atom_site_fract_x
_atom_site_fract_y
_atom_site_fract_z
Si Si1 0.343701 0.410402 0.635931
Si Si2 0.944914 0.513530 0.927235
Si Si3 0.903623 0.293177 0.286841
Si Si4 0.311153 0.261935 0.520348
Si Si5 0.271657 0.123277 0.398969
Si Si6 0.452989 0.517413 0.829529
Si Si7 0.936031 0.950253 0.134609
Si Si8 0.702570 0.237530 0.749476
O O1 0.212526 0.576484 0.669083
O O2 0.179859 0.343033 0.567052
O O3 0.577072 0.600972 0.621624
O O4 0.479243 0.173434 0.687493
O O5 0.670347 0.603668 0.889692
O O6 0.964741 0.223940 0.906187
O O7 0.121809 0.755374 0.901855
O O8 0.000000 0.500000 0.000000
O O9 0.703341 0.252672 0.219669
O O10 0.061848 0.059917 0.334324
O O11 0.091100 0.538040 0.267518
O O12 0.500000 0.500000 0.500000
O O13 0.159977 0.155416 0.454421
O O14 0.505797 0.060518 0.566012
O O15 0.281704 0.263312 0.851393
O O16 0.581753 0.391463 0.787922
O O17 0.145126 0.988339 0.201468
#
# Coordination Sequence:
#
# PCOD9027130 Si02
#       8
#     2   2   2   2   2   2   2   2
#     4   9  17  33  54  81 113 153 206 258 323 382
#     4  11  24  42  68 101 139 178 224 276 327 395
#     4   9  17  35  62  84 118 162 212 269 324 390
#     4   9  18  34  53  77 113 158 196 260 322 384
#     4   9  18  34  55  77 114 154 206 259 318 390
#     4   9  20  40  66  92 133 171 219 275 331 389
#     4  10  22  41  66  98 133 182 224 271 333 397
#     4   8  17  37  59  84 123 159 207 271 320 386
#
# _framework density 26.524293
#
# number of rings (size 3 to 8) (size 9 to 14) (size 15 to 20)
#    0.000    2.750    0.000    0.375    0.000    3.500 
#   13.500    9.375   16.500    0.000    0.000    0.000 
#    0.000    0.000    0.000    0.000    0.000    0.000 
#
# Total GULP energy -89491.618766 kJ/mol
# GULP energy per Si atom -5593.226173 kJ/mol
# Density = 2.646392 g / cm^3
# Si number density = 26.524293 Si / 1000 Ang^3
#
#
#
# Elastic Constant Matrix: (Units=GPa)
#
#
# Indices 1 2 3 4 5 6 
#
# 1 75.3146 9.6257 48.3180 9.5663 0.8257 1.7261
# 2 9.6257 90.6831 42.3259 -3.7218 1.0603 5.4742
# 3 48.3180 42.3259 221.3898 -9.2781 10.0735 10.4647
# 4 9.5663 -3.7218 -9.2781 35.8374 -0.1978 5.4553
# 5 0.8257 1.0603 10.0735 -0.1978 35.1019 0.9433
# 6 1.7261 5.4742 10.4647 5.4553 0.9433 36.3546
#
#
#
# Elastic Compliance Matrix: (Units=1/GPa)
#
#
# Indices 1 2 3 4 5 6 
#
# 1 0.016468 -0.000253 -0.003867 -0.005601 0.000666 0.001193
# 2 -0.000253 0.012192 -0.002185 0.000975 0.000306 -0.001349
# 3 -0.003867 -0.002185 0.006031 0.002598 -0.001517 -0.001574
# 4 -0.005601 0.000975 0.002598 0.030973 -0.000327 -0.005268
# 5 0.000666 0.000306 -0.001517 -0.000327 0.028906 -0.000342
# 6 0.001193 -0.001349 -0.001574 -0.005268 -0.000342 0.028906
#
#
# Mechanical properties :
#
#
# Convention : Reuss Voigt Hill
#
# Bulk Modulus (GPa) = 45.28814 65.32520 55.30667
# Shear Modulus (GPa) = 34.85639 40.59995 37.72817
#
# Velocity S-wave (km/s) = 3.62903 3.91662 3.77556
# Velocity P-wave (km/s) = 5.88821 6.71827 6.31689
#
# Compressibility (1/GPa) = 0.02208083
#
# Stress axis : x y z
#
# Youngs Moduli (GPa) = 60.72483 82.02112 165.81101
#
# Poissons Ratio (x) = 0.02072 0.64122
# Poissons Ratio (y) = 0.01534 0.36231
# Poissons Ratio (z) = 0.23483 0.17922
#
# Static dielectric constant tensor:
#      x y z
#    x 2.167120 -0.034130 0.048730 
#    y -0.034130 2.122600 -0.012490 
#    z 0.048730 -0.012490 2.145160 
# 
# From -- ./inp_files/603176.got.cif
#   From: 2010.05.17/outbox.cif.g08.bks.cpg/sg2_302_cif.got.tgz:603176.got - 2010.06.03 11:33:40.
