data_PCOD9027066
_publ_section_title
;
Structure prediction by ZEFSAII (Michael W. Deem and Ramdas Pophale) SiO2 
 PCOD9027066
Probable space group: P -1
;
_chemical_formula_sum "Si O2"
_cell_formula_units_Z 16
_cell_length_a 10.311284
_cell_length_b 19.007735
_cell_length_c 11.598816
_cell_angle_alpha 30.410168
_cell_angle_beta 134.473111
_cell_angle_gamma 143.804734
_cell_volume 679.461685
_symmetry_space_group_name_H-M "P -1"
_symmetry_group_IT_number 2
_symmetry_cell_setting 'triclinic'
loop_
_space_group_symop_operation_xyz
x,y,z
-x,-y,-z
loop_
_atom_site_type_symbol
_atom_site_label
_atom_site_fract_x
_atom_site_fract_y
_atom_site_fract_z
Si Si1 0.085210 0.705787 0.186363
Si Si2 0.072785 0.416984 0.256711
Si Si3 0.935276 0.082451 0.511455
Si Si4 0.649717 0.415946 0.393023
Si Si5 0.958585 0.229796 0.666421
Si Si6 0.711698 0.972134 0.300199
Si Si7 0.363971 0.070223 0.265733
Si Si8 0.535741 0.609468 0.212775
O O1 0.191614 0.598848 0.398830
O O2 0.091359 0.760164 0.246144
O O3 0.821565 0.566570 0.199721
O O4 0.239770 0.875286 0.969135
O O5 0.333611 0.521840 0.298564
O O6 0.024626 0.251931 0.395043
O O7 0.949234 0.351814 0.394448
O O8 0.000000 0.500000 0.000000
O O9 0.116013 0.063851 0.593836
O O10 0.776033 0.057269 0.344668
O O11 0.798731 0.942027 0.720162
O O12 0.495588 0.220429 0.536713
O O13 0.521969 0.478783 0.295859
O O14 0.209486 0.280773 0.745587
O O15 0.781841 0.045343 0.768083
O O16 0.500000 0.000000 0.500000
O O17 0.510977 0.262213 0.055404
#
# Coordination Sequence:
#
# PCOD9027066 Si02
#       8
#     2   2   2   2   2   2   2   2
#     4  10  23  43  67 100 133 170 228 277 341 397
#     4  11  23  43  65  97 138 174 219 282 339 405
#     4  10  23  41  64  91 130 172 228 266 338 413
#     4  10  22  41  66  96 131 169 222 281 330 398
#     4  10  23  42  67  96 133 173 223 279 329 413
#     4  11  22  44  67  95 132 179 219 285 334 399
#     4  11  24  44  65  98 135 178 223 275 346 409
#     4  11  21  42  67  98 129 175 227 279 339 396
#
# _framework density 23.548052999999999
#
# number of rings (size 3 to 8) (size 9 to 14) (size 15 to 20)
#    0.000    1.500    1.250    4.125    1.750    4.000 
#    6.750    1.875    0.000    0.000    0.000    0.000 
#    0.000    0.000    0.000    0.000    0.000    0.000 
#
# Total GULP energy -89211.626603 kJ/mol
# GULP energy per Si atom -5575.726663 kJ/mol
# Density = 2.349446 g / cm^3
# Si number density = 23.548053 Si / 1000 Ang^3
#
#
#
# Elastic Constant Matrix: (Units=GPa)
#
#
# Indices 1 2 3 4 5 6 
#
# 1 51.9083 24.5577 2.6954 -7.9537 -7.0757 -3.4927
# 2 24.5577 91.9348 21.4236 -9.2534 -8.8459 6.6025
# 3 2.6954 21.4236 103.8480 -20.7366 -0.0984 -11.6404
# 4 -7.9537 -9.2534 -20.7366 29.4725 5.7256 -8.4274
# 5 -7.0757 -8.8459 -0.0984 5.7256 27.2817 4.2364
# 6 -3.4927 6.6025 -11.6404 -8.4274 4.2364 35.2964
#
#
#
# Elastic Compliance Matrix: (Units=1/GPa)
#
#
# Indices 1 2 3 4 5 6 
#
# 1 0.024140 -0.006679 0.003109 0.008179 0.001388 0.006450
# 2 -0.006679 0.014130 -0.003889 -0.002563 0.004260 -0.005710
# 3 0.003109 -0.003889 0.013987 0.013009 -0.004579 0.009304
# 4 0.008179 -0.002563 0.013009 0.052586 -0.012753 0.019665
# 5 0.001388 0.004260 -0.004579 -0.012753 0.042661 -0.010335
# 6 0.006450 -0.005710 0.009304 0.019665 -0.010335 0.039042
#
#
# Mechanical properties :
#
#
# Convention : Reuss Voigt Hill
#
# Bulk Modulus (GPa) = 26.78253 38.33828 32.56040
# Shear Modulus (GPa) = 23.37432 31.67774 27.52603
#
# Velocity S-wave (km/s) = 3.15401 3.67173 3.42267
# Velocity P-wave (km/s) = 4.96608 5.85591 5.42925
#
# Compressibility (1/GPa) = 0.03733777
#
# Stress axis : x y z
#
# Youngs Moduli (GPa) = 41.42559 70.77304 71.49329
#
# Poissons Ratio (x) = 0.47269 -0.22226
# Poissons Ratio (y) = 0.27668 0.27806
# Poissons Ratio (z) = -0.12879 0.27526
#
# Static dielectric constant tensor:
#      x y z
#    x 1.925590 0.113600 -0.095150 
#    y 0.113600 1.985960 -0.047740 
#    z -0.095150 -0.047740 2.025660 
# 
# From -- ./inp_files/256835.got.cif
#   From: 2010.05.17/outbox.cif.g08.bks.cpg/sg2_129_cif.got.tgz:256835.got - 2010.06.03 11:33:40.
