data_PCOD9027656
_publ_section_title
;
Structure prediction by ZEFSAII (Michael W. Deem and Ramdas Pophale) SiO2 
 PCOD9027656
Probable space group: P -1
;
_chemical_formula_sum "Si O2"
_cell_formula_units_Z 16
_cell_length_a 11.968996
_cell_length_b 5.661048
_cell_length_c 11.775755
_cell_angle_alpha 68.210188
_cell_angle_beta 85.193088
_cell_angle_gamma 107.490529
_cell_volume 689.222034
_symmetry_space_group_name_H-M "P -1"
_symmetry_group_IT_number 2
_symmetry_cell_setting 'triclinic'
loop_
_space_group_symop_operation_xyz
x,y,z
-x,-y,-z
loop_
_atom_site_type_symbol
_atom_site_label
_atom_site_fract_x
_atom_site_fract_y
_atom_site_fract_z
Si Si1 0.421427 0.370714 0.640767
Si Si2 0.605705 0.782638 0.674953
Si Si3 0.973040 0.421150 0.381652
Si Si4 0.844305 0.733004 0.734111
Si Si5 0.071724 0.950995 0.109480
Si Si6 0.521299 0.232883 0.089731
Si Si7 0.691802 0.169325 0.390383
Si Si8 0.294961 0.828408 0.058100
O O1 0.500000 0.500000 0.500000
O O2 0.531519 0.464105 0.705850
O O3 0.342852 0.556154 0.653020
O O4 0.341961 0.059013 0.668603
O O5 0.741946 0.855612 0.693817
O O6 0.519836 0.828353 0.767908
O O7 0.619264 0.985248 0.534028
O O8 0.832971 0.265255 0.393528
O O9 0.000000 0.500000 0.500000
O O10 0.054469 0.245456 0.369803
O O11 0.013994 0.677790 0.242041
O O12 0.764124 0.420616 0.809602
O O13 0.902327 0.822114 0.836041
O O14 0.197118 0.966867 0.038930
O O15 0.000000 0.000000 0.000000
O O16 0.416192 0.009883 0.072174
O O17 0.500000 0.500000 0.000000
O O18 0.656323 0.257122 0.046303
#
# Coordination Sequence:
#
# PCOD9027656 Si02
#       8
#     2   2   2   2   2   2   2   2
#     4  10  24  46  69 102 147 198 239 306 383 457
#     4  11  22  42  75  98 144 192 240 308 383 450
#     4  11  28  46  78 112 143 201 260 313 377 453
#     4  11  24  46  74 103 143 192 253 314 374 454
#     4  11  25  50  72 104 151 199 250 313 388 450
#     4  11  21  41  63 104 136 176 242 300 367 441
#     4  11  26  48  68 109 156 189 253 308 382 460
#     4  10  22  41  68  98 141 180 242 305 369 446
#
# _framework density 23.214579000000001
#
# number of rings (size 3 to 8) (size 9 to 14) (size 15 to 20)
#    0.000    1.250    2.500    2.250    7.000    4.000 
#    6.750    0.000    0.000    0.000    0.000    0.000 
#    0.000    0.000    0.000    0.000    0.000    0.000 
#
# Total GULP energy -89194.541675 kJ/mol
# GULP energy per Si atom -5574.658855 kJ/mol
# Density = 2.316174 g / cm^3
# Si number density = 23.214579 Si / 1000 Ang^3
#
#
#
# Elastic Constant Matrix: (Units=GPa)
#
#
# Indices 1 2 3 4 5 6 
#
# 1 164.9499 68.9113 75.3289 33.6559 -24.3461 2.9636
# 2 68.9113 122.8757 38.0131 8.5490 -0.8610 8.6268
# 3 75.3289 38.0131 98.8445 10.3642 -4.9439 -2.1622
# 4 33.6559 8.5490 10.3642 33.9601 3.7775 -8.9225
# 5 -24.3461 -0.8610 -4.9439 3.7775 43.9998 8.0391
# 6 2.9636 8.6268 -2.1622 -8.9225 8.0391 38.8177
#
#
#
# Elastic Compliance Matrix: (Units=1/GPa)
#
#
# Indices 1 2 3 4 5 6 
#
# 1 0.017636 -0.005336 -0.009261 -0.016337 0.011252 -0.006762
# 2 -0.005336 0.011194 -0.000693 0.002770 -0.002887 -0.000884
# 3 -0.009261 -0.000693 0.016694 0.005826 -0.004504 0.004063
# 4 -0.016337 0.002770 0.005826 0.048907 -0.015339 0.015374
# 5 0.011252 -0.002887 -0.004504 -0.015339 0.031634 -0.010545
# 6 -0.006762 -0.000884 0.004063 0.015374 -0.010545 0.032418
#
#
# Mechanical properties :
#
#
# Convention : Reuss Voigt Hill
#
# Bulk Modulus (GPa) = 66.91013 83.46410 75.18711
# Shear Modulus (GPa) = 25.76741 36.98329 31.37535
#
# Velocity S-wave (km/s) = 3.33523 3.99570 3.68031
# Velocity P-wave (km/s) = 6.61186 7.57092 7.10759
#
# Compressibility (1/GPa) = 0.01494542
#
# Stress axis : x y z
#
# Youngs Moduli (GPa) = 56.70164 89.33253 59.90329
#
# Poissons Ratio (x) = 0.47665 0.55474
# Poissons Ratio (y) = 0.30254 0.04151
# Poissons Ratio (z) = 0.52509 0.06190
#
# Static dielectric constant tensor:
#      x y z
#    x 2.040130 -0.325870 -0.106490 
#    y -0.325870 2.529820 0.289190 
#    z -0.106490 0.289190 2.033630 
# 
# From -- ./inp_files/410068.got.cif
#   From: 2010.05.17/outbox.cif.g08.bks.cpg/sg2_206_cif.got.tgz:410068.got - 2010.06.03 11:33:40.
