data_PCOD9027580
_publ_section_title
;
Structure prediction by ZEFSAII (Michael W. Deem and Ramdas Pophale) SiO2 
 PCOD9027580
Probable space group: P -1
;
_chemical_formula_sum "Si O2"
_cell_formula_units_Z 10
_cell_length_a 5.122198
_cell_length_b 9.589892
_cell_length_c 10.234597
_cell_angle_alpha 65.033315
_cell_angle_beta 78.093962
_cell_angle_gamma 115.928095
_cell_volume 359.709748
_symmetry_space_group_name_H-M "P -1"
_symmetry_group_IT_number 2
_symmetry_cell_setting 'triclinic'
loop_
_space_group_symop_operation_xyz
x,y,z
-x,-y,-z
loop_
_atom_site_type_symbol
_atom_site_label
_atom_site_fract_x
_atom_site_fract_y
_atom_site_fract_z
Si Si1 0.834558 0.695116 0.489776
Si Si2 0.763786 0.083115 0.057433
Si Si3 0.289004 0.500420 0.902677
Si Si4 0.589087 0.915273 0.642244
Si Si5 0.584593 0.311132 0.682448
O O1 0.722982 0.509991 0.663474
O O2 0.529410 0.658356 0.455737
O O3 0.110944 0.701140 0.367392
O O4 0.036779 0.910855 0.432119
O O5 0.611101 0.097018 0.203377
O O6 0.743269 0.893066 0.160216
O O7 0.087430 0.299417 0.925612
O O8 0.500000 0.000000 0.000000
O O9 0.495028 0.703239 0.725018
O O10 0.500000 0.500000 0.000000
O O11 0.000000 0.500000 0.000000
O O12 0.500000 0.000000 0.500000
#
# Coordination Sequence:
#
# PCOD9027580 Si02
#       5
#     2   2   2   2   2
#     4   9  18  35  59  88 123 160 209 264 317 375
#     4  10  22  41  68  95 134 173 224 271 334 396
#     4  10  22  44  67  96 137 180 219 272 343 406
#     4  10  22  41  68  95 134 173 224 271 334 396
#     4   9  18  35  59  88 123 160 209 264 317 375
#
# _framework density 27.800194000000001
#
# number of rings (size 3 to 8) (size 9 to 14) (size 15 to 20)
#    0.000    2.400    0.000    1.200    2.800    0.000 
#    0.000   32.000    0.000    0.000    0.000    0.000 
#    0.000    0.000    0.000    0.000    0.000    0.000 
#
# Total GULP energy -55897.275267 kJ/mol
# GULP energy per Si atom -5589.727527 kJ/mol
# Density = 2.773692 g / cm^3
# Si number density = 27.800194 Si / 1000 Ang^3
#
#
#
# Elastic Constant Matrix: (Units=GPa)
#
#
# Indices 1 2 3 4 5 6 
#
# 1 123.7229 70.1510 37.7502 -12.6772 16.1399 13.1366
# 2 70.1510 272.4430 102.8728 -69.0068 23.9957 -19.2244
# 3 37.7502 102.8728 200.0115 -50.1835 0.4569 19.0446
# 4 -12.6772 -69.0068 -50.1835 92.4663 19.0293 5.4465
# 5 16.1399 23.9957 0.4569 19.0293 57.1969 -4.4104
# 6 13.1366 -19.2244 19.0446 5.4465 -4.4104 69.0914
#
#
#
# Elastic Compliance Matrix: (Units=1/GPa)
#
#
# Indices 1 2 3 4 5 6 
#
# 1 0.010150 -0.002509 -0.000406 -0.000142 -0.001964 -0.002630
# 2 -0.002509 0.006555 -0.002142 0.003890 -0.003135 0.002384
# 3 -0.000406 -0.002142 0.007007 0.002307 -0.000013 -0.002633
# 4 -0.000142 0.003890 0.002307 0.016509 -0.007202 -0.001288
# 5 -0.001964 -0.003135 -0.000013 -0.007202 0.021863 0.001468
# 6 -0.002630 0.002384 -0.002633 -0.001288 0.001468 0.016558
#
#
# Mechanical properties :
#
#
# Convention : Reuss Voigt Hill
#
# Bulk Modulus (GPa) = 73.53317 113.08061 93.30689
# Shear Modulus (GPa) = 53.59765 69.44449 61.52107
#
# Velocity S-wave (km/s) = 4.39562 5.00341 4.70933
# Velocity P-wave (km/s) = 7.22980 8.61065 7.95026
#
# Compressibility (1/GPa) = 0.01359930
#
# Stress axis : x y z
#
# Youngs Moduli (GPa) = 98.52386 152.55622 142.70509
#
# Poissons Ratio (x) = 0.38272 0.05795
# Poissons Ratio (y) = 0.24717 0.30563
# Poissons Ratio (z) = 0.04001 0.32673
#
# Static dielectric constant tensor:
#      x y z
#    x 1.960100 0.011180 0.193580 
#    y 0.011180 2.357370 -0.197930 
#    z 0.193580 -0.197930 1.875540 
# 
# From -- ./inp_files/129546.got.cif
#   From: 2010.05.17/outbox.cif.g08.bks.cpg/sg2_65_cif.got.tgz:129546.got - 2010.06.03 11:33:40.
