data_PCOD9027461
_publ_section_title
;
Structure prediction by ZEFSAII (Michael W. Deem and Ramdas Pophale) SiO2 
 PCOD9027461
Probable space group: P -1
;
_chemical_formula_sum "Si O2"
_cell_formula_units_Z 16
_cell_length_a 5.318515
_cell_length_b 10.826231
_cell_length_c 11.802803
_cell_angle_alpha 108.579324
_cell_angle_beta 82.604288
_cell_angle_gamma 102.470138
_cell_volume 627.664052
_symmetry_space_group_name_H-M "P -1"
_symmetry_group_IT_number 2
_symmetry_cell_setting 'triclinic'
loop_
_space_group_symop_operation_xyz
x,y,z
-x,-y,-z
loop_
_atom_site_type_symbol
_atom_site_label
_atom_site_fract_x
_atom_site_fract_y
_atom_site_fract_z
Si Si1 0.346305 0.306946 0.758820
Si Si2 0.259173 0.924683 0.834378
Si Si3 0.579652 0.297287 0.397781
Si Si4 0.057792 0.530689 0.825509
Si Si5 0.739023 0.496887 0.634652
Si Si6 0.719644 0.912192 0.471305
Si Si7 0.691864 0.358708 0.950407
Si Si8 0.825635 0.092532 0.900800
O O1 0.138766 0.391375 0.756688
O O2 0.593652 0.389086 0.701699
O O3 0.283021 0.163385 0.669005
O O4 0.425274 0.313326 0.887412
O O5 0.298608 0.806539 0.714496
O O6 0.543705 0.013695 0.859002
O O7 0.171386 0.883904 0.956498
O O8 0.041721 0.007444 0.833736
O O9 0.769459 0.398460 0.499710
O O10 0.370344 0.201383 0.461747
O O11 0.431948 0.397102 0.365843
O O12 0.964572 0.574400 0.724526
O O13 0.829068 0.493902 0.920095
O O14 0.294014 0.613253 0.908119
O O15 0.500000 0.000000 0.500000
O O16 0.000000 0.000000 0.500000
O O17 0.844042 0.237664 0.889384
#
# Coordination Sequence:
#
# PCOD9027461 Si02
#       8
#     2   2   2   2   2   2   2   2
#     4  10  23  43  69 101 142 185 245 302 361 434
#     4  10  24  45  68 101 140 188 242 291 359 432
#     4  10  23  47  74 105 146 197 241 303 374 438
#     4  10  22  41  68 102 136 183 240 299 367 430
#     4   9  22  46  68 108 143 184 248 304 362 442
#     4  11  28  48  74 109 149 192 244 304 366 446
#     4  10  23  40  67 100 136 187 238 300 372 424
#     4  10  24  44  67 101 142 186 241 300 351 430
#
# _framework density 25.491347000000001
#
# number of rings (size 3 to 8) (size 9 to 14) (size 15 to 20)
#    0.000    2.000    0.000    0.375   10.500    4.000 
#    4.500    1.875    0.000    0.000    0.000    0.000 
#    0.000    0.000    0.000    0.000    0.000    0.000 
#
# Total GULP energy -89488.962890 kJ/mol
# GULP energy per Si atom -5593.060181 kJ/mol
# Density = 2.543333 g / cm^3
# Si number density = 25.491347 Si / 1000 Ang^3
#
#
#
# Elastic Constant Matrix: (Units=GPa)
#
#
# Indices 1 2 3 4 5 6 
#
# 1 143.9948 48.0219 74.0370 13.7869 13.0386 -26.3103
# 2 48.0219 115.0580 58.4086 6.5208 7.3134 -3.3082
# 3 74.0370 58.4086 194.7413 19.5078 6.1042 -12.5489
# 4 13.7869 6.5208 19.5078 31.1236 -17.1258 -10.7772
# 5 13.0386 7.3134 6.1042 -17.1258 43.7457 6.6218
# 6 -26.3103 -3.3082 -12.5489 -10.7772 6.6218 49.0023
#
#
#
# Elastic Compliance Matrix: (Units=1/GPa)
#
#
# Indices 1 2 3 4 5 6 
#
# 1 0.010699 -0.002579 -0.002501 -0.003442 -0.004479 0.004778
# 2 -0.002579 0.010988 -0.002314 -0.000573 -0.000780 -0.001256
# 3 -0.002501 -0.002314 0.007172 -0.003710 -0.001274 -0.000306
# 4 -0.003442 -0.000573 -0.003710 0.048910 0.019997 0.005218
# 5 -0.004479 -0.000780 -0.001274 0.019997 0.032757 -0.002813
# 6 0.004778 -0.001256 -0.000306 0.005218 -0.002813 0.024337
#
#
# Mechanical properties :
#
#
# Convention : Reuss Voigt Hill
#
# Bulk Modulus (GPa) = 71.06881 90.52545 80.79713
# Shear Modulus (GPa) = 32.39570 42.99610 37.69590
#
# Velocity S-wave (km/s) = 3.56877 4.11139 3.84965
# Velocity P-wave (km/s) = 6.70236 7.62413 7.17806
#
# Compressibility (1/GPa) = 0.01407087
#
# Stress axis : x y z
#
# Youngs Moduli (GPa) = 93.46889 91.00533 139.43407
#
# Poissons Ratio (x) = 0.23466 0.34873
# Poissons Ratio (y) = 0.24102 0.32272
# Poissons Ratio (z) = 0.23377 0.21063
#
# Static dielectric constant tensor:
#      x y z
#    x 2.024950 0.082260 -0.013340 
#    y 0.082260 2.023680 -0.034480 
#    z -0.013340 -0.034480 2.022710 
# 
# From -- ./inp_files/365033.got.cif
#   From: 2010.05.17/outbox.cif.g08.bks.cpg/sg2_183_cif.got.tgz:365033.got - 2010.06.03 11:33:40.
