data_PCOD9027874
_publ_section_title
;
Structure prediction by ZEFSAII (Michael W. Deem and Ramdas Pophale) SiO2 
 PCOD9027874
Probable space group: P -1
;
_chemical_formula_sum "Si O2"
_cell_formula_units_Z 13
_cell_length_a 8.371238
_cell_length_b 16.795905
_cell_length_c 8.909646
_cell_angle_alpha 36.700894
_cell_angle_beta 65.619481
_cell_angle_gamma 46.115214
_cell_volume 508.991196
_symmetry_space_group_name_H-M "P -1"
_symmetry_group_IT_number 2
_symmetry_cell_setting 'triclinic'
loop_
_space_group_symop_operation_xyz
x,y,z
-x,-y,-z
loop_
_atom_site_type_symbol
_atom_site_label
_atom_site_fract_x
_atom_site_fract_y
_atom_site_fract_z
Si Si1 0.083442 0.850571 0.956432
Si Si2 0.845953 0.704807 0.809375
Si Si3 0.272137 0.584522 0.707480
Si Si4 0.603153 0.192491 0.681949
Si Si5 0.432784 0.782796 0.698940
Si Si6 0.147168 0.309264 0.815154
Si Si7 0.500000 0.500000 0.500000
O O1 0.190084 0.882253 0.729208
O O2 0.308479 0.699756 0.193332
O O3 0.872176 0.025940 0.862220
O O4 0.967569 0.772470 0.062407
O O5 0.592811 0.815954 0.663437
O O6 0.012828 0.739389 0.633056
O O7 0.848738 0.699049 0.994325
O O8 0.000000 0.500000 0.000000
O O9 0.435531 0.630646 0.528601
O O10 0.277732 0.522923 0.632537
O O11 0.417233 0.428145 0.008175
O O12 0.584795 0.191645 0.510002
O O13 0.413035 0.196276 0.825972
O O14 0.000000 0.500000 0.500000
#
# Coordination Sequence:
#
# PCOD9027874 Si02
#       7
#     2   2   2   2   2   2   1
#     4  11  26  45  70  98 145 177 236 283 351 404
#     4  10  23  41  68 103 135 178 232 278 336 409
#     4  10  22  41  69  98 138 176 235 272 346 404
#     4  12  25  43  70 105 140 182 226 292 342 407
#     4  10  22  43  70  97 139 183 229 274 346 413
#     4  12  25  43  72 102 140 181 232 282 347 411
#     4  10  24  42  72  94 132 182 234 280 336 406
#
# _framework density 25.540714999999999
#
# number of rings (size 3 to 8) (size 9 to 14) (size 15 to 20)
#    0.000    1.231    0.000    6.000   15.077    0.615 
#    0.000    1.538    0.000    0.000    0.000    0.000 
#    0.000    0.000    0.000    0.000    0.000    0.000 
#
# Total GULP energy -72593.067078 kJ/mol
# GULP energy per Si atom -5584.082083 kJ/mol
# Density = 2.548258 g / cm^3
# Si number density = 25.540715 Si / 1000 Ang^3
#
#
#
# Elastic Constant Matrix: (Units=GPa)
#
#
# Indices 1 2 3 4 5 6 
#
# 1 97.8595 60.6510 35.5670 19.7960 0.8731 -17.8033
# 2 60.6510 168.5233 63.2443 39.4549 0.9035 -44.1074
# 3 35.5670 63.2443 83.3346 31.5147 24.9564 -1.8666
# 4 19.7960 39.4549 31.5147 55.6859 4.4529 -9.1301
# 5 0.8731 0.9035 24.9564 4.4529 44.3464 8.1945
# 6 -17.8033 -44.1074 -1.8666 -9.1301 8.1945 52.3685
#
#
#
# Elastic Compliance Matrix: (Units=1/GPa)
#
#
# Indices 1 2 3 4 5 6 
#
# 1 0.013894 -0.002939 -0.004028 -0.000432 0.001773 0.001752
# 2 -0.002939 0.012970 -0.008546 -0.002130 0.003200 0.008748
# 3 -0.004028 -0.008546 0.026830 -0.007820 -0.012771 -0.006976
# 4 -0.000432 -0.002130 -0.007820 0.024194 0.001703 0.001732
# 5 0.001773 0.003200 -0.012771 0.001703 0.029746 -0.001515
# 6 0.001752 0.008748 -0.006976 0.001732 -0.001515 0.027349
#
#
# Mechanical properties :
#
#
# Convention : Reuss Voigt Hill
#
# Bulk Modulus (GPa) = 44.11247 74.29355 59.20301
# Shear Modulus (GPa) = 28.80764 43.16382 35.98573
#
# Velocity S-wave (km/s) = 3.36208 4.11542 3.75768
# Velocity P-wave (km/s) = 5.69038 7.19261 6.48514
#
# Compressibility (1/GPa) = 0.02266932
#
# Stress axis : x y z
#
# Youngs Moduli (GPa) = 71.97137 77.10292 37.27135
#
# Poissons Ratio (x) = 0.22657 0.15014
# Poissons Ratio (y) = 0.21149 0.31851
# Poissons Ratio (z) = 0.28992 0.65890
#
# Static dielectric constant tensor:
#      x y z
#    x 1.939830 -0.363070 -0.185470 
#    y -0.363070 1.215470 -0.130910 
#    z -0.185470 -0.130910 2.011640 
# 
# From -- ./inp_files/214087.got.cif
#   From: 2010.05.17/outbox.cif.g08.bks.cpg/sg2_108_cif.got.tgz:214087.got - 2010.06.03 11:33:40.
