data_PCOD9027658
_publ_section_title
;
Structure prediction by ZEFSAII (Michael W. Deem and Ramdas Pophale) SiO2 
 PCOD9027658
Probable space group: P -1
;
_chemical_formula_sum "Si O2"
_cell_formula_units_Z 16
_cell_length_a 12.112543
_cell_length_b 7.681096
_cell_length_c 12.436713
_cell_angle_alpha 35.378508
_cell_angle_beta 91.525647
_cell_angle_gamma 97.333285
_cell_volume 658.371646
_symmetry_space_group_name_H-M "P -1"
_symmetry_group_IT_number 2
_symmetry_cell_setting 'triclinic'
loop_
_space_group_symop_operation_xyz
x,y,z
-x,-y,-z
loop_
_atom_site_type_symbol
_atom_site_label
_atom_site_fract_x
_atom_site_fract_y
_atom_site_fract_z
Si Si1 0.836028 0.119541 0.724724
Si Si2 0.163873 0.173365 0.670874
Si Si3 0.136634 0.829027 0.062345
Si Si4 0.365056 0.395535 0.024304
Si Si5 0.978323 0.823150 0.700978
Si Si6 0.632301 0.294918 0.922668
Si Si7 0.437784 0.656122 0.679371
Si Si8 0.599776 0.686604 0.343410
O O1 0.857638 0.485490 0.523817
O O2 0.890927 0.074582 0.866444
O O3 0.893455 0.961957 0.708473
O O4 0.704329 0.949132 0.811039
O O5 0.295137 0.191565 0.641365
O O6 0.091962 0.912239 0.728097
O O7 0.147945 0.082054 0.841910
O O8 0.262822 0.754329 0.119683
O O9 0.062183 0.526303 0.161077
O O10 0.359547 0.560723 0.827650
O O11 0.500000 0.500000 0.000000
O O12 0.313474 0.527934 0.059719
O O13 0.000000 0.000000 0.500000
O O14 0.542036 0.473638 0.781598
O O15 0.571535 0.973276 0.132631
O O16 0.368800 0.546752 0.626576
O O17 0.500000 0.000000 0.500000
O O18 0.500000 0.500000 0.500000
#
# Coordination Sequence:
#
# PCOD9027658 Si02
#       8
#     2   2   2   2   2   2   2   2
#     4  12  26  49  78 108 151 198 251 316 380 446
#     4  11  27  46  74 110 148 193 256 312 375 452
#     4  11  25  50  76 110 147 197 252 313 383 448
#     4  10  22  41  68  98 148 189 239 301 364 433
#     4  12  26  52  79 110 151 197 250 318 385 446
#     4  10  22  43  67 100 143 193 243 304 370 441
#     4  11  24  39  66 105 146 196 247 303 372 443
#     4  11  25  41  67 102 140 194 249 296 371 451
#
# _framework density 24.302382999999999
#
# number of rings (size 3 to 8) (size 9 to 14) (size 15 to 20)
#    0.000    1.000    2.500    3.375    8.750    0.500 
#    2.250    1.250    0.000    0.000    0.000    0.000 
#    0.000    0.000    0.000    0.000    0.000    0.000 
#
# Total GULP energy -89439.239113 kJ/mol
# GULP energy per Si atom -5589.952445 kJ/mol
# Density = 2.424707 g / cm^3
# Si number density = 24.302383 Si / 1000 Ang^3
#
#
#
# Elastic Constant Matrix: (Units=GPa)
#
#
# Indices 1 2 3 4 5 6 
#
# 1 98.3108 29.9865 24.5974 -6.5381 -20.2407 14.7724
# 2 29.9865 162.2287 56.9678 -1.9993 -20.9456 -3.7299
# 3 24.5974 56.9678 141.8753 -19.7691 -26.7913 22.1960
# 4 -6.5381 -1.9993 -19.7691 43.1816 1.9151 -11.4724
# 5 -20.2407 -20.9456 -26.7913 1.9151 28.8471 -1.0912
# 6 14.7724 -3.7299 22.1960 -11.4724 -1.0912 38.9636
#
#
#
# Elastic Compliance Matrix: (Units=1/GPa)
#
#
# Indices 1 2 3 4 5 6 
#
# 1 0.013054 -0.001761 0.000955 0.000557 0.008532 -0.005259
# 2 -0.001761 0.007861 -0.003075 -0.000578 0.001770 0.003051
# 3 0.000955 -0.003075 0.011015 0.003146 0.008241 -0.005775
# 4 0.000557 -0.000578 0.003146 0.026100 0.001374 0.005665
# 5 0.008532 0.001770 0.008241 0.001374 0.049274 -0.005975
# 6 -0.005259 0.003051 -0.005775 0.005665 -0.005975 0.032741
#
#
# Mechanical properties :
#
#
# Convention : Reuss Voigt Hill
#
# Bulk Modulus (GPa) = 41.37412 69.50204 55.43808
# Shear Modulus (GPa) = 32.07971 41.58933 36.83452
#
# Velocity S-wave (km/s) = 3.63715 4.14131 3.89739
# Velocity P-wave (km/s) = 5.89069 7.17831 6.56614
#
# Compressibility (1/GPa) = 0.02416970
#
# Stress axis : x y z
#
# Youngs Moduli (GPa) = 76.60623 127.21157 90.78265
#
# Poissons Ratio (x) = 0.22400 -0.08673
# Poissons Ratio (y) = 0.13489 0.27913
# Poissons Ratio (z) = -0.07319 0.39114
#
# Static dielectric constant tensor:
#      x y z
#    x 2.030360 0.006310 -0.037470 
#    y 0.006310 1.996690 -0.011000 
#    z -0.037470 -0.011000 2.016640 
# 
# From -- ./inp_files/529230.got.cif
#   From: 2010.05.17/outbox.cif.g08.bks.cpg/sg2_265_cif.got.tgz:529230.got - 2010.06.03 11:33:40.
