data_PCOD9027593
_publ_section_title
;
Structure prediction by ZEFSAII (Michael W. Deem and Ramdas Pophale) SiO2 
 PCOD9027593
Probable space group: P -1
;
_chemical_formula_sum "Si O2"
_cell_formula_units_Z 16
_cell_length_a 14.219502
_cell_length_b 8.434113
_cell_length_c 11.141201
_cell_angle_alpha 93.413663
_cell_angle_beta 149.391019
_cell_angle_gamma 79.878852
_cell_volume 658.446935
_symmetry_space_group_name_H-M "P -1"
_symmetry_group_IT_number 2
_symmetry_cell_setting 'triclinic'
loop_
_space_group_symop_operation_xyz
x,y,z
-x,-y,-z
loop_
_atom_site_type_symbol
_atom_site_label
_atom_site_fract_x
_atom_site_fract_y
_atom_site_fract_z
Si Si1 0.872783 0.588550 0.635820
Si Si2 0.964002 0.692187 0.503853
Si Si3 0.398230 0.181672 0.028037
Si Si4 0.806289 0.252724 0.456904
Si Si5 0.849190 0.103208 0.746098
Si Si6 0.269433 0.416052 0.124415
Si Si7 0.543334 0.901678 0.336328
Si Si8 0.410600 0.710805 0.353727
O O1 0.981486 0.683748 0.665159
O O2 0.801502 0.439920 0.492233
O O3 0.687286 0.724794 0.473136
O O4 0.047610 0.496489 0.906606
O O5 0.000000 0.500000 0.500000
O O6 0.090028 0.774434 0.559011
O O7 0.747601 0.780091 0.238715
O O8 0.596031 0.225791 0.219228
O O9 0.298829 0.298193 0.035343
O O10 0.443952 0.995396 0.115017
O O11 0.907080 0.145172 0.677417
O O12 0.744038 0.267440 0.708572
O O13 0.677850 0.014004 0.536118
O O14 0.000000 0.000000 0.000000
O O15 0.379357 0.560200 0.234955
O O16 0.384737 0.320742 0.358374
O O17 0.387194 0.872818 0.256899
#
# Coordination Sequence:
#
# PCOD9027593 Si02
#       8
#     2   2   2   2   2   2   2   2
#     4  11  24  43  64  99 128 166 222 270 315 388
#     4  10  22  42  70  96 125 170 221 265 328 372
#     4  11  22  44  66  96 132 166 215 271 313 397
#     4  10  22  41  68  96 126 172 218 267 318 385
#     4  11  24  39  62  96 130 170 216 261 329 388
#     4  11  22  41  65  90 133 162 226 262 307 389
#     4  11  25  40  62  93 135 165 211 267 330 378
#     4  11  24  40  63  95 126 179 211 262 327 382
#
# _framework density 24.299605
#
# number of rings (size 3 to 8) (size 9 to 14) (size 15 to 20)
#    0.000    1.250    5.000    1.875    5.250    3.000 
#    2.250    2.500    0.000    0.000    0.000    0.000 
#    0.000    0.000    0.000    0.000    0.000    0.000 
#
# Total GULP energy -89434.266989 kJ/mol
# GULP energy per Si atom -5589.641687 kJ/mol
# Density = 2.424430 g / cm^3
# Si number density = 24.299605 Si / 1000 Ang^3
#
#
#
# Elastic Constant Matrix: (Units=GPa)
#
#
# Indices 1 2 3 4 5 6 
#
# 1 90.0081 12.5348 10.9684 -11.9528 -4.8726 34.4342
# 2 12.5348 54.7502 1.3729 -6.4513 0.1634 14.8503
# 3 10.9684 1.3729 114.4407 -37.8563 8.6636 6.5255
# 4 -11.9528 -6.4513 -37.8563 31.1122 1.3679 0.2459
# 5 -4.8726 0.1634 8.6636 1.3679 13.9777 -3.4071
# 6 34.4342 14.8503 6.5255 0.2459 -3.4071 42.2993
#
#
#
# Elastic Compliance Matrix: (Units=1/GPa)
#
#
# Indices 1 2 3 4 5 6 
#
# 1 0.017937 0.001280 0.002642 0.010504 -0.000215 -0.015537
# 2 0.001280 0.021742 0.003956 0.010139 -0.005641 -0.009798
# 3 0.002642 0.003956 0.018110 0.024574 -0.014620 -0.007654
# 4 0.010504 0.010139 0.024574 0.069330 -0.022897 -0.018149
# 5 -0.000215 -0.005641 -0.014620 -0.022897 0.085625 0.011441
# 6 -0.015537 -0.009798 -0.007654 -0.018149 0.011441 0.041937
#
#
# Mechanical properties :
#
#
# Convention : Reuss Voigt Hill
#
# Bulk Modulus (GPa) = 13.59707 34.32791 23.96249
# Shear Modulus (GPa) = 18.97966 33.09937 26.03951
#
# Velocity S-wave (km/s) = 2.79779 3.69472 3.27709
# Velocity P-wave (km/s) = 4.00557 5.68848 4.91952
#
# Compressibility (1/GPa) = 0.07354527
#
# Stress axis : x y z
#
# Youngs Moduli (GPa) = 55.75009 45.99428 55.21928
#
# Poissons Ratio (x) = -0.05886 -0.14591
# Poissons Ratio (y) = -0.07134 -0.21846
# Poissons Ratio (z) = -0.14731 -0.18197
#
# Static dielectric constant tensor:
#      x y z
#    x 2.019580 -0.022920 0.018960 
#    y -0.022920 1.934190 -0.008040 
#    z 0.018960 -0.008040 1.902320 
# 
# From -- ./inp_files/306223.got.cif
#   From: 2010.05.17/outbox.cif.g08.bks.cpg/sg2_154_cif.got.tgz:306223.got - 2010.06.03 11:33:40.
