data_PCOD9027572
_publ_section_title
;
Structure prediction by ZEFSAII (Michael W. Deem and Ramdas Pophale) SiO2 
 PCOD9027572
Probable space group: P -1
;
_chemical_formula_sum "Si O2"
_cell_formula_units_Z 10
_cell_length_a 7.975133
_cell_length_b 23.742293
_cell_length_c 18.896292
_cell_angle_alpha 13.319502
_cell_angle_beta 145.463246
_cell_angle_gamma 147.038607
_cell_volume 447.718282
_symmetry_space_group_name_H-M "P -1"
_symmetry_group_IT_number 2
_symmetry_cell_setting 'triclinic'
loop_
_space_group_symop_operation_xyz
x,y,z
-x,-y,-z
loop_
_atom_site_type_symbol
_atom_site_label
_atom_site_fract_x
_atom_site_fract_y
_atom_site_fract_z
Si Si1 0.177508 0.263520 0.778360
Si Si2 0.241788 0.141166 0.223759
Si Si3 0.779004 0.170652 0.152728
Si Si4 0.643537 0.622950 0.825783
Si Si5 0.839075 0.186210 0.905407
O O1 0.166633 0.533288 0.411888
O O2 0.020594 0.236654 0.833440
O O3 0.533841 0.280634 0.894591
O O4 0.000000 0.000000 0.000000
O O5 0.010614 0.115854 0.240934
O O6 0.500000 0.000000 0.500000
O O7 0.452340 0.434101 0.931771
O O8 0.027115 0.065423 0.173708
O O9 0.993356 0.341827 0.078554
O O10 0.612255 0.901824 0.459844
O O11 0.500000 0.500000 0.000000
O O12 0.500000 0.000000 0.000000
#
# Coordination Sequence:
#
# PCOD9027572 Si02
#       5
#     2   2   2   2   2
#     4  11  25  46  72  97 138 184 235 283 344 409
#     4  11  25  41  65 102 140 174 222 282 342 404
#     4  10  22  41  68  95 130 182 225 276 339 404
#     4   9  21  39  63  97 130 172 222 272 339 399
#     4  11  27  45  69 104 138 180 234 286 342 410
#
# _framework density 22.335471999999999
#
# number of rings (size 3 to 8) (size 9 to 14) (size 15 to 20)
#    0.000    1.600    0.000    2.400   11.200    7.200 
#    0.000    0.000    0.000    0.000    0.000    0.000 
#    0.000    0.000    0.000    0.000    0.000    0.000 
#
# Total GULP energy -55860.270309 kJ/mol
# GULP energy per Si atom -5586.027031 kJ/mol
# Density = 2.228464 g / cm^3
# Si number density = 22.335472 Si / 1000 Ang^3
#
#
#
# Elastic Constant Matrix: (Units=GPa)
#
#
# Indices 1 2 3 4 5 6 
#
# 1 70.3777 14.8374 23.8318 9.7520 3.4426 12.8297
# 2 14.8374 155.0699 48.7173 13.7397 11.7401 0.6990
# 3 23.8318 48.7173 99.1681 10.0339 2.3418 12.7463
# 4 9.7520 13.7397 10.0339 49.3770 5.6370 2.6167
# 5 3.4426 11.7401 2.3418 5.6370 28.7037 5.9690
# 6 12.8297 0.6990 12.7463 2.6167 5.9690 31.8169
#
#
#
# Elastic Compliance Matrix: (Units=1/GPa)
#
#
# Indices 1 2 3 4 5 6 
#
# 1 0.016557 -0.000468 -0.002831 -0.002281 -0.000004 -0.005343
# 2 -0.000468 0.008065 -0.003956 -0.001106 -0.003177 0.002283
# 3 -0.002831 -0.003956 0.013332 -0.001043 0.001990 -0.004400
# 4 -0.002281 -0.001106 -0.001043 0.021607 -0.003482 0.000238
# 5 -0.000004 -0.003177 0.001990 -0.003482 0.038244 -0.007614
# 6 -0.005343 0.002283 -0.004400 0.000238 -0.007614 0.036706
#
#
# Mechanical properties :
#
#
# Convention : Reuss Voigt Hill
#
# Bulk Modulus (GPa) = 42.65752 55.48765 49.07259
# Shear Modulus (GPa) = 31.88074 37.79478 34.83776
#
# Velocity S-wave (km/s) = 3.78214 4.11803 3.95365
# Velocity P-wave (km/s) = 6.18165 6.89258 6.54677
#
# Compressibility (1/GPa) = 0.02344252
#
# Stress axis : x y z
#
# Youngs Moduli (GPa) = 60.39807 123.99991 75.00928
#
# Poissons Ratio (x) = 0.05806 0.21237
# Poissons Ratio (y) = 0.02828 0.29672
# Poissons Ratio (z) = 0.17100 0.49052
#
# Static dielectric constant tensor:
#      x y z
#    x 1.845990 -0.022530 0.039450 
#    y -0.022530 1.855960 -0.022600 
#    z 0.039450 -0.022600 1.889560 
# 
# From -- ./inp_files/18191.got.cif
#   From: 2010.05.17/outbox.cif.g08.bks.cpg/sg2_10_cif.got.tgz:18191.got - 2010.06.03 11:33:40.
