data_PCOD9027608
_publ_section_title
;
Structure prediction by ZEFSAII (Michael W. Deem and Ramdas Pophale) SiO2 
 PCOD9027608
Probable space group: P -1
;
_chemical_formula_sum "Si O2"
_cell_formula_units_Z 16
_cell_length_a 15.633304
_cell_length_b 9.940241
_cell_length_c 8.094411
_cell_angle_alpha 30.172713
_cell_angle_beta 93.747640
_cell_angle_gamma 84.505210
_cell_volume 601.084586
_symmetry_space_group_name_H-M "P -1"
_symmetry_group_IT_number 2
_symmetry_cell_setting 'triclinic'
loop_
_space_group_symop_operation_xyz
x,y,z
-x,-y,-z
loop_
_atom_site_type_symbol
_atom_site_label
_atom_site_fract_x
_atom_site_fract_y
_atom_site_fract_z
Si Si1 0.801191 0.352613 0.219387
Si Si2 0.699362 0.547274 0.568963
Si Si3 0.396383 0.653505 0.763738
Si Si4 0.892577 0.806524 0.632528
Si Si5 0.122122 0.668209 0.395129
Si Si6 0.636579 0.042330 0.257545
Si Si7 0.006557 0.622251 0.149259
Si Si8 0.453680 0.347873 0.781210
O O1 0.693621 0.438575 0.123116
O O2 0.846688 0.225503 0.538799
O O3 0.833592 0.125620 0.316470
O O4 0.838487 0.608510 0.912627
O O5 0.787552 0.435715 0.590147
O O6 0.623820 0.732170 0.237641
O O7 0.701246 0.766060 0.478946
O O8 0.664417 0.303687 0.905185
O O9 0.368052 0.934566 0.569712
O O10 0.408200 0.602016 0.628622
O O11 0.500000 0.500000 0.000000
O O12 0.926471 0.675444 0.596518
O O13 0.974145 0.768252 0.814867
O O14 0.050792 0.787488 0.108078
O O15 0.075783 0.439766 0.699725
O O16 0.531707 0.094384 0.139779
O O17 0.500000 0.500000 0.500000
#
# Coordination Sequence:
#
# PCOD9027608 Si02
#       8
#     2   2   2   2   2   2   2   2
#     4  11  24  44  68 101 129 179 217 274 323 397
#     4  11  22  42  63  97 126 174 215 270 320 395
#     4  10  22  44  67 101 137 175 221 271 324 388
#     4  10  24  45  71  95 135 169 225 269 335 395
#     4  10  22  41  68  96 136 170 222 270 335 391
#     4  10  24  39  65  93 131 170 218 265 323 379
#     4   9  22  44  67 100 130 176 214 282 334 392
#     4   9  19  43  66  94 131 171 212 268 325 386
#
# _framework density 26.618548000000001
#
# number of rings (size 3 to 8) (size 9 to 14) (size 15 to 20)
#    0.000    2.000    1.250    0.375    3.500    7.000 
#    0.000   23.125    0.000    0.000    0.000    0.000 
#    0.000    0.000    0.000    0.000    0.000    0.000 
#
# Total GULP energy -89353.300444 kJ/mol
# GULP energy per Si atom -5584.581278 kJ/mol
# Density = 2.655796 g / cm^3
# Si number density = 26.618548 Si / 1000 Ang^3
#
#
#
# Elastic Constant Matrix: (Units=GPa)
#
#
# Indices 1 2 3 4 5 6 
#
# 1 145.9934 38.0241 30.6412 2.6589 7.0965 -2.7101
# 2 38.0241 199.5838 20.8188 -2.0344 -2.0739 -8.2540
# 3 30.6412 20.8188 62.4688 -16.7571 -11.8391 10.9910
# 4 2.6589 -2.0344 -16.7571 38.1510 8.6581 10.0023
# 5 7.0965 -2.0739 -11.8391 8.6581 22.3328 15.3462
# 6 -2.7101 -8.2540 10.9910 10.0023 15.3462 50.2859
#
#
#
# Elastic Compliance Matrix: (Units=1/GPa)
#
#
# Indices 1 2 3 4 5 6 
#
# 1 0.009507 -0.000829 -0.008389 -0.003646 -0.010310 0.006082
# 2 -0.000829 0.005460 -0.002249 -0.000822 -0.001440 0.001946
# 3 -0.008389 -0.002249 0.033329 0.013817 0.028125 -0.019437
# 4 -0.003646 -0.000822 0.013817 0.034819 0.002493 -0.011038
# 5 -0.010310 -0.001440 0.028125 0.002493 0.084743 -0.033297
# 6 0.006082 0.001946 -0.019437 -0.011038 -0.033297 0.037139
#
#
# Mechanical properties :
#
#
# Convention : Reuss Voigt Hill
#
# Bulk Modulus (GPa) = 39.42943 65.22383 52.32663
# Shear Modulus (GPa) = 21.15197 43.39139 32.27168
#
# Velocity S-wave (km/s) = 2.82198 4.04185 3.48570
# Velocity P-wave (km/s) = 5.04609 6.80723 5.99172
#
# Compressibility (1/GPa) = 0.02536177
#
# Stress axis : x y z
#
# Youngs Moduli (GPa) = 105.18960 183.14694 30.00409
#
# Poissons Ratio (x) = 0.15181 0.25170
# Poissons Ratio (y) = 0.08719 0.06748
# Poissons Ratio (z) = 0.88242 0.41192
#
# Static dielectric constant tensor:
#      x y z
#    x 2.136880 0.084180 0.053940 
#    y 0.084180 2.106030 -0.010060 
#    z 0.053940 -0.010060 2.237920 
# 
# From -- ./inp_files/297281.got.cif
#   From: 2010.05.17/outbox.cif.g08.bks.cpg/sg2_149_cif.got.tgz:297281.got - 2010.06.03 11:33:40.
