data_PCOD9027413
_publ_section_title
;
Structure prediction by ZEFSAII (Michael W. Deem and Ramdas Pophale) SiO2 
 PCOD9027413
Probable space group: P -1
;
_chemical_formula_sum "Si O2"
_cell_formula_units_Z 16
_cell_length_a 9.524726
_cell_length_b 12.259017
_cell_length_c 15.134753
_cell_angle_alpha 141.970802
_cell_angle_beta 132.721615
_cell_angle_gamma 49.667703
_cell_volume 774.577130
_symmetry_space_group_name_H-M "P -1"
_symmetry_group_IT_number 2
_symmetry_cell_setting 'triclinic'
loop_
_space_group_symop_operation_xyz
x,y,z
-x,-y,-z
loop_
_atom_site_type_symbol
_atom_site_label
_atom_site_fract_x
_atom_site_fract_y
_atom_site_fract_z
Si Si1 0.361198 0.550445 0.058056
Si Si2 0.971455 0.294902 0.098395
Si Si3 0.792367 0.151138 0.519438
Si Si4 0.098121 0.952736 0.803291
Si Si5 0.308493 0.925563 0.374177
Si Si6 0.322382 0.446858 0.336893
Si Si7 0.658816 0.250158 0.085802
Si Si8 0.434572 0.934121 0.802155
O O1 0.347469 0.751394 0.215819
O O2 0.466598 0.414087 0.091975
O O3 0.500000 0.500000 0.000000
O O4 0.145900 0.560288 0.932650
O O5 0.816678 0.260642 0.083132
O O6 0.146625 0.375496 0.263457
O O7 0.045977 0.106961 0.955725
O O8 0.722495 0.129122 0.574144
O O9 0.783204 0.365837 0.638213
O O10 0.646778 0.106485 0.353913
O O11 0.000000 0.000000 0.500000
O O12 0.216823 0.766875 0.782007
O O13 0.244660 0.006603 0.829079
O O14 0.896201 0.942456 0.663341
O O15 0.500000 0.000000 0.500000
O O16 0.500000 0.500000 0.500000
O O17 0.438721 0.254726 0.219871
O O18 0.569029 0.073693 0.934715
#
# Coordination Sequence:
#
# PCOD9027413 Si02
#       8
#     2   2   2   2   2   2   2   2
#     4   9  23  42  65 104 136 172 222 287 342 402
#     4  10  22  41  67  99 133 173 228 284 332 407
#     4  11  25  44  68  94 137 187 227 273 351 400
#     4  11  23  41  65  99 135 172 225 278 339 410
#     4  11  26  45  71 101 139 180 233 285 338 412
#     4  10  24  42  64  94 137 175 227 274 343 404
#     4  11  23  40  73  97 136 174 231 280 355 388
#     4  11  24  42  65  98 134 184 222 283 333 423
#
# _framework density 20.656431999999999
#
# number of rings (size 3 to 8) (size 9 to 14) (size 15 to 20)
#    0.000    1.500    2.500    0.750    8.750    2.000 
#    0.000    3.125    0.000    0.000    0.000    0.000 
#    0.000    0.000    0.000    0.000    0.000    0.000 
#
# Total GULP energy -89158.570347 kJ/mol
# GULP energy per Si atom -5572.410647 kJ/mol
# Density = 2.060942 g / cm^3
# Si number density = 20.656432 Si / 1000 Ang^3
#
#
#
# Elastic Constant Matrix: (Units=GPa)
#
#
# Indices 1 2 3 4 5 6 
#
# 1 112.0002 25.4019 44.3545 -6.1770 21.5672 -5.3844
# 2 25.4019 147.1744 26.2921 -12.6714 18.6535 -6.9325
# 3 44.3545 26.2921 76.5268 -14.7010 21.9321 -0.1248
# 4 -6.1770 -12.6714 -14.7010 30.2434 -0.6924 -2.4019
# 5 21.5672 18.6535 21.9321 -0.6924 39.0984 -5.1724
# 6 -5.3844 -6.9325 -0.1248 -2.4019 -5.1724 27.2651
#
#
#
# Elastic Compliance Matrix: (Units=1/GPa)
#
#
# Indices 1 2 3 4 5 6 
#
# 1 0.012060 -0.000628 -0.006131 -0.000714 -0.002712 0.001616
# 2 -0.000628 0.007711 -0.001062 0.002656 -0.002479 0.001596
# 3 -0.006131 -0.001062 0.020802 0.008060 -0.007926 -0.002179
# 4 -0.000714 0.002656 0.008060 0.038098 -0.004308 0.003110
# 5 -0.002712 -0.002479 -0.007926 -0.004308 0.033250 0.004726
# 6 0.001616 0.001596 -0.002179 0.003110 0.004726 0.038562
#
#
# Mechanical properties :
#
#
# Convention : Reuss Voigt Hill
#
# Bulk Modulus (GPa) = 40.11193 58.64427 49.37810
# Shear Modulus (GPa) = 28.66395 35.29825 31.98110
#
# Velocity S-wave (km/s) = 3.72916 4.13828 3.93904
# Velocity P-wave (km/s) = 6.16466 7.16141 6.68164
#
# Compressibility (1/GPa) = 0.02493024
#
# Stress axis : x y z
#
# Youngs Moduli (GPa) = 82.92121 129.68937 48.07228
#
# Poissons Ratio (x) = 0.08141 0.29474
# Poissons Ratio (y) = 0.05205 0.05106
# Poissons Ratio (z) = 0.50841 0.13775
#
# Static dielectric constant tensor:
#      x y z
#    x 1.726190 -0.015440 0.000250 
#    y -0.015440 1.842010 -0.025110 
#    z 0.000250 -0.025110 1.738270 
# 
# From -- ./inp_files/501041.got.cif
#   From: 2010.05.17/outbox.cif.g08.bks.cpg/sg2_251_cif.got.tgz:501041.got - 2010.06.03 11:33:40.
