data_PCOD9027073
_publ_section_title
;
Structure prediction by ZEFSAII (Michael W. Deem and Ramdas Pophale) SiO2 
 PCOD9027073
Probable space group: P -1
;
_chemical_formula_sum "Si O2"
_cell_formula_units_Z 14
_cell_length_a 5.059155
_cell_length_b 28.899701
_cell_length_c 11.584218
_cell_angle_alpha 157.640580
_cell_angle_beta 66.600642
_cell_angle_gamma 110.308711
_cell_volume 590.332529
_symmetry_space_group_name_H-M "P -1"
_symmetry_group_IT_number 2
_symmetry_cell_setting 'triclinic'
loop_
_space_group_symop_operation_xyz
x,y,z
-x,-y,-z
loop_
_atom_site_type_symbol
_atom_site_label
_atom_site_fract_x
_atom_site_fract_y
_atom_site_fract_z
Si Si1 0.768997 0.578807 0.650470
Si Si2 0.133678 0.632897 0.280758
Si Si3 0.206659 0.113986 0.100759
Si Si4 0.603199 0.258547 0.741391
Si Si5 0.905926 0.283196 0.267509
Si Si6 0.522637 0.877333 0.139905
Si Si7 0.164673 0.101064 0.342740
O O1 0.500000 0.500000 0.500000
O O2 0.920935 0.612861 0.584480
O O3 0.000000 0.500000 0.500000
O O4 0.624675 0.688483 0.003430
O O5 0.334131 0.655199 0.183248
O O6 0.894358 0.744083 0.562054
O O7 0.240728 0.664007 0.465710
O O8 0.000000 0.500000 0.000000
O O9 0.252823 0.087741 0.164222
O O10 0.478547 0.085521 0.908354
O O11 0.967313 0.025008 0.891444
O O12 0.439606 0.145470 0.460868
O O13 0.901871 0.207077 0.629497
O O14 0.164228 0.184853 0.028446
O O15 0.709867 0.226203 0.068815
O O16 0.500000 0.000000 0.500000
#
# Coordination Sequence:
#
# PCOD9027073 Si02
#       7
#     2   2   2   2   2   2   2
#     4  12  26  45  67  97 137 176 226 277 328 399
#     4  10  22  44  69  99 135 178 226 277 336 403
#     4   9  22  40  65  99 135 169 224 274 337 387
#     4  11  24  41  70  96 129 176 225 265 346 387
#     4  11  25  44  66  98 136 174 223 276 332 394
#     4  11  24  41  67  97 135 175 219 270 339 405
#     4  10  22  41  66  96 133 169 216 285 324 404
#
# _framework density 23.715447999999999
#
# number of rings (size 3 to 8) (size 9 to 14) (size 15 to 20)
#    0.000    1.429    0.000    3.857    4.000    9.714 
#    0.000    6.429    0.000    0.000    0.000    0.000 
#    0.000    0.000    0.000    0.000    0.000    0.000 
#
# Total GULP energy -78158.903916 kJ/mol
# GULP energy per Si atom -5582.778851 kJ/mol
# Density = 2.366147 g / cm^3
# Si number density = 23.715448 Si / 1000 Ang^3
#
#
#
# Elastic Constant Matrix: (Units=GPa)
#
#
# Indices 1 2 3 4 5 6 
#
# 1 52.5861 -6.9388 -8.9692 5.3081 3.7058 2.0344
# 2 -6.9388 70.6691 3.0233 16.0488 -10.5890 -2.0118
# 3 -8.9692 3.0233 69.1483 19.1983 10.1934 -6.7777
# 4 5.3081 16.0488 19.1983 42.2259 7.9099 3.3326
# 5 3.7058 -10.5890 10.1934 7.9099 38.8900 6.7349
# 6 2.0344 -2.0118 -6.7777 3.3326 6.7349 25.4520
#
#
#
# Elastic Compliance Matrix: (Units=1/GPa)
#
#
# Indices 1 2 3 4 5 6 
#
# 1 0.020771 0.002929 0.004380 -0.005528 -0.001347 0.000818
# 2 0.002929 0.017223 0.001308 -0.008652 0.005634 0.001118
# 3 0.004380 0.001308 0.018929 -0.009405 -0.004353 0.007177
# 4 -0.005528 -0.008652 -0.009405 0.033361 -0.005153 -0.005751
# 5 -0.001347 0.005634 -0.004353 -0.005153 0.030972 -0.008127
# 6 0.000818 0.001118 0.007177 -0.005751 -0.008127 0.044127
#
#
# Mechanical properties :
#
#
# Convention : Reuss Voigt Hill
#
# Bulk Modulus (GPa) = 13.48502 18.51490 15.99996
# Shear Modulus (GPa) = 28.92364 34.99946 31.96155
#
# Velocity S-wave (km/s) = 3.49608 3.84579 3.67510
# Velocity P-wave (km/s) = 4.68992 5.24826 4.97692
#
# Compressibility (1/GPa) = 0.07415636
#
# Stress axis : x y z
#
# Youngs Moduli (GPa) = 48.14370 58.06193 52.82934
#
# Poissons Ratio (x) = -0.17006 -0.23137
# Poissons Ratio (y) = -0.14101 -0.06911
# Poissons Ratio (z) = -0.21085 -0.07596
#
# Static dielectric constant tensor:
#      x y z
#    x 1.988120 0.132430 0.118180 
#    y 0.132430 2.319060 0.343330 
#    z 0.118180 0.343330 2.067670 
# 
# From -- ./inp_files/364086.got.cif
#   From: 2010.05.17/outbox.cif.g08.bks.cpg/sg2_183_cif.got.tgz:364086.got - 2010.06.03 11:33:40.
