data_PCOD9027226
_publ_section_title
;
Structure prediction by ZEFSAII (Michael W. Deem and Ramdas Pophale) SiO2 
 PCOD9027226
Probable space group: P -1
;
_chemical_formula_sum "Si O2"
_cell_formula_units_Z 16
_cell_length_a 5.120343
_cell_length_b 12.263952
_cell_length_c 12.004970
_cell_angle_alpha 104.014999
_cell_angle_beta 93.766034
_cell_angle_gamma 89.831784
_cell_volume 729.774213
_symmetry_space_group_name_H-M "P -1"
_symmetry_group_IT_number 2
_symmetry_cell_setting 'triclinic'
loop_
_space_group_symop_operation_xyz
x,y,z
-x,-y,-z
loop_
_atom_site_type_symbol
_atom_site_label
_atom_site_fract_x
_atom_site_fract_y
_atom_site_fract_z
Si Si1 0.025503 0.457168 0.675580
Si Si2 0.306276 0.894620 0.474310
Si Si3 0.677380 0.724836 0.477358
Si Si4 0.883103 0.907955 0.890321
Si Si5 0.065224 0.056800 0.350689
Si Si6 0.384562 0.759435 0.876648
Si Si7 0.240687 0.538496 0.939840
Si Si8 0.496956 0.415072 0.353357
O O1 0.101465 0.333830 0.604157
O O2 0.160383 0.481915 0.805215
O O3 0.206167 0.538738 0.623737
O O4 0.726417 0.497131 0.670227
O O5 0.439681 0.779063 0.416029
O O6 0.212859 0.897950 0.601292
O O7 0.500000 0.000000 0.500000
O O8 0.093036 0.939607 0.391069
O O9 0.772767 0.835006 0.573477
O O10 0.578239 0.636876 0.543910
O O11 0.110782 0.816976 0.855610
O O12 0.857833 0.959356 0.778517
O O13 0.617320 0.852051 0.919026
O O14 0.000000 0.000000 0.000000
O O15 0.302805 0.670099 0.948221
O O16 0.496440 0.683258 0.761694
O O17 0.500000 0.500000 0.000000
O O18 0.000000 0.500000 0.000000
#
# Coordination Sequence:
#
# PCOD9027226 Si02
#       8
#     2   2   2   2   2   2   2   2
#     4  11  25  39  63 103 132 165 228 264 320 401
#     4   9  21  41  61  91 124 180 219 265 336 409
#     4  11  22  37  66  93 135 168 213 270 339 387
#     4  12  25  44  71 104 133 173 236 291 333 399
#     4  10  22  41  67  91 134 176 221 275 346 395
#     4  11  23  45  70  99 130 180 224 272 349 396
#     4  11  23  45  69  91 136 182 221 270 330 404
#     4  11  22  40  66  97 136 168 209 273 331 400
#
# _framework density 21.924588
#
# number of rings (size 3 to 8) (size 9 to 14) (size 15 to 20)
#    0.000    1.250    1.250    5.625    5.250    0.000 
#    2.250    5.000    0.000    0.000    0.000    0.000 
#    0.000    0.000    0.000    0.000    0.000    0.000 
#
# Total GULP energy -89217.062089 kJ/mol
# GULP energy per Si atom -5576.066381 kJ/mol
# Density = 2.187469 g / cm^3
# Si number density = 21.924588 Si / 1000 Ang^3
#
#
#
# Elastic Constant Matrix: (Units=GPa)
#
#
# Indices 1 2 3 4 5 6 
#
# 1 120.9643 20.9459 6.0308 -12.0214 -8.8105 3.5266
# 2 20.9459 65.9332 33.7178 -12.5811 -5.3812 -3.7099
# 3 6.0308 33.7178 76.3947 -5.7073 -6.0874 7.1914
# 4 -12.0214 -12.5811 -5.7073 33.0968 5.5013 -4.9149
# 5 -8.8105 -5.3812 -6.0874 5.5013 29.5488 -2.7197
# 6 3.5266 -3.7099 7.1914 -4.9149 -2.7197 57.6961
#
#
#
# Elastic Compliance Matrix: (Units=1/GPa)
#
#
# Indices 1 2 3 4 5 6 
#
# 1 0.009068 -0.002838 0.000894 0.001957 0.001952 -0.000589
# 2 -0.002838 0.022308 -0.009436 0.006248 0.000416 0.003336
# 3 0.000894 -0.009436 0.017542 -0.001005 0.002088 -0.002835
# 4 0.001957 0.006248 -0.001005 0.034354 -0.004595 0.003117
# 5 0.001952 0.000416 0.002088 -0.004595 0.035873 0.000947
# 6 -0.000589 0.003336 -0.002835 0.003117 0.000947 0.018246
#
#
# Mechanical properties :
#
#
# Convention : Reuss Voigt Hill
#
# Bulk Modulus (GPa) = 38.22985 42.74233 40.48609
# Shear Modulus (GPa) = 29.60859 37.57487 33.59173
#
# Velocity S-wave (km/s) = 3.67887 4.14433 3.91851
# Velocity P-wave (km/s) = 5.95989 6.51445 6.24333
#
# Compressibility (1/GPa) = 0.02615757
#
# Stress axis : x y z
#
# Youngs Moduli (GPa) = 110.28212 44.82713 57.00549
#
# Poissons Ratio (x) = 0.12724 -0.05097
# Poissons Ratio (y) = 0.31302 0.53790
# Poissons Ratio (z) = -0.09861 0.42298
#
# Static dielectric constant tensor:
#      x y z
#    x 1.962560 -0.010250 0.037170 
#    y -0.010250 1.867010 -0.025090 
#    z 0.037170 -0.025090 1.847420 
# 
# From -- ./inp_files/363199.got.cif
#   From: 2010.05.17/outbox.cif.g08.bks.cpg/sg2_182_cif.got.tgz:363199.got - 2010.06.03 11:33:40.
