data_PCOD9027393
_publ_section_title
;
Structure prediction by ZEFSAII (Michael W. Deem and Ramdas Pophale) SiO2 
 PCOD9027393
Probable space group: P -1
;
_chemical_formula_sum "Si O2"
_cell_formula_units_Z 16
_cell_length_a 9.139607
_cell_length_b 9.783017
_cell_length_c 11.362742
_cell_angle_alpha 80.451701
_cell_angle_beta 103.880830
_cell_angle_gamma 44.527369
_cell_volume 601.009053
_symmetry_space_group_name_H-M "P -1"
_symmetry_group_IT_number 2
_symmetry_cell_setting 'triclinic'
loop_
_space_group_symop_operation_xyz
x,y,z
-x,-y,-z
loop_
_atom_site_type_symbol
_atom_site_label
_atom_site_fract_x
_atom_site_fract_y
_atom_site_fract_z
Si Si1 0.705832 0.443324 0.196072
Si Si2 0.443161 0.178657 0.038593
Si Si3 0.828832 0.530986 0.846032
Si Si4 0.603154 0.792691 0.416870
Si Si5 0.110011 0.996448 0.730192
Si Si6 0.338406 0.924632 0.561688
Si Si7 0.174574 0.767689 0.135214
Si Si8 0.083521 0.465390 0.687505
O O1 0.801190 0.226376 0.202268
O O2 0.457142 0.594341 0.195006
O O3 0.919972 0.365290 0.322611
O O4 0.626528 0.623883 0.066119
O O5 0.250572 0.305995 0.090759
O O6 0.694898 0.038384 0.171559
O O7 0.500000 0.000000 0.000000
O O8 0.581160 0.682012 0.701546
O O9 0.894875 0.328962 0.923635
O O10 0.028201 0.445346 0.807597
O O11 0.386619 0.877973 0.436347
O O12 0.656389 0.741543 0.296300
O O13 0.863504 0.558415 0.557131
O O14 0.607631 0.952773 0.419528
O O15 0.122605 0.023060 0.589471
O O16 0.881123 0.188201 0.742484
O O17 0.000000 0.000000 0.000000
#
# Coordination Sequence:
#
# PCOD9027393 Si02
#       8
#     2   2   2   2   2   2   2   2
#     4  12  25  43  64 100 141 174 224 277 328 402
#     4  11  24  40  66  99 135 177 226 270 317 400
#     4  10  22  41  67  98 133 175 227 270 332 398
#     4   9  19  41  68  99 125 174 219 287 343 384
#     4  11  23  44  66  94 140 181 214 273 345 390
#     4   9  18  38  72  89 128 171 221 272 337 399
#     4  12  23  41  69  91 135 192 217 262 339 394
#     4  10  23  40  68  97 133 168 229 281 332 398
#
# _framework density 26.621894000000001
#
# number of rings (size 3 to 8) (size 9 to 14) (size 15 to 20)
#    0.000    1.500    3.750    1.875    5.250    1.500 
#    4.500    1.250    0.000    0.000    0.000    0.000 
#    0.000    0.000    0.000    0.000    0.000    0.000 
#
# Total GULP energy -89397.775535 kJ/mol
# GULP energy per Si atom -5587.360971 kJ/mol
# Density = 2.656130 g / cm^3
# Si number density = 26.621894 Si / 1000 Ang^3
#
#
#
# Elastic Constant Matrix: (Units=GPa)
#
#
# Indices 1 2 3 4 5 6 
#
# 1 112.6728 58.9465 36.9498 33.7559 -18.6434 0.9938
# 2 58.9465 168.4698 38.9425 41.1073 -28.8635 0.6557
# 3 36.9498 38.9425 94.8756 28.1974 -36.5943 -4.0601
# 4 33.7559 41.1073 28.1974 41.3648 -7.4970 -6.3247
# 5 -18.6434 -28.8635 -36.5943 -7.4970 52.4802 12.7098
# 6 0.9938 0.6557 -4.0601 -6.3247 12.7098 57.6938
#
#
#
# Elastic Compliance Matrix: (Units=1/GPa)
#
#
# Indices 1 2 3 4 5 6 
#
# 1 0.012963 -0.002076 -0.001319 -0.007516 0.001839 -0.001522
# 2 -0.002076 0.008967 0.000816 -0.007286 0.004139 -0.001719
# 3 -0.001319 0.000816 0.018273 -0.010422 0.011826 -0.002449
# 4 -0.007516 -0.007286 -0.010422 0.043954 -0.009197 0.006324
# 5 0.001839 0.004139 0.011826 -0.009197 0.030612 -0.006998
# 6 -0.001522 -0.001719 -0.002449 0.006324 -0.006998 0.019441
#
#
# Mechanical properties :
#
#
# Convention : Reuss Voigt Hill
#
# Bulk Modulus (GPa) = 28.53333 71.74396 50.13865
# Shear Modulus (GPa) = 33.10168 46.38638 39.74403
#
# Velocity S-wave (km/s) = 3.53001 4.17875 3.86801
# Velocity P-wave (km/s) = 5.23029 7.09157 6.23082
#
# Compressibility (1/GPa) = 0.03504673
#
# Stress axis : x y z
#
# Youngs Moduli (GPa) = 77.14144 111.51705 54.72591
#
# Poissons Ratio (x) = 0.23152 0.07216
# Poissons Ratio (y) = 0.16015 -0.04467
# Poissons Ratio (z) = 0.10172 -0.09103
#
# Static dielectric constant tensor:
#      x y z
#    x 2.062170 -0.015410 0.062910 
#    y -0.015410 2.101170 -0.004650 
#    z 0.062910 -0.004650 2.309100 
# 
# From -- ./inp_files/381987.got.cif
#   From: 2010.05.17/outbox.cif.g08.bks.cpg/sg2_191_cif.got.tgz:381987.got - 2010.06.03 11:33:40.
