data_PCOD9027495
_publ_section_title
;
Structure prediction by ZEFSAII (Michael W. Deem and Ramdas Pophale) SiO2 
 PCOD9027495
Probable space group: P -1
;
_chemical_formula_sum "Si O2"
_cell_formula_units_Z 16
_cell_length_a 10.577106
_cell_length_b 11.374360
_cell_length_c 11.640229
_cell_angle_alpha 104.648808
_cell_angle_beta 117.878466
_cell_angle_gamma 126.180525
_cell_volume 670.575724
_symmetry_space_group_name_H-M "P -1"
_symmetry_group_IT_number 2
_symmetry_cell_setting 'triclinic'
loop_
_space_group_symop_operation_xyz
x,y,z
-x,-y,-z
loop_
_atom_site_type_symbol
_atom_site_label
_atom_site_fract_x
_atom_site_fract_y
_atom_site_fract_z
Si Si1 0.406369 0.834788 0.171738
Si Si2 0.125006 0.148346 0.478020
Si Si3 0.350528 0.084344 0.926934
Si Si4 0.254696 0.798983 0.423796
Si Si5 0.176346 0.507909 0.180744
Si Si6 0.477304 0.432577 0.101503
Si Si7 0.899880 0.088684 0.746215
Si Si8 0.931724 0.097165 0.001077
O O1 0.474383 0.867856 0.074829
O O2 0.362912 0.682489 0.197557
O O3 0.643963 0.080102 0.382720
O O4 0.121054 0.685044 0.030694
O O5 0.343890 0.385363 0.681697
O O6 0.214239 0.100669 0.423027
O O7 0.000000 0.000000 0.500000
O O8 0.899168 0.056773 0.290813
O O9 0.233480 0.978561 0.976662
O O10 0.523228 0.323135 0.084289
O O11 0.198325 0.620549 0.322573
O O12 0.065950 0.766460 0.279580
O O13 0.500000 0.000000 0.500000
O O14 0.169799 0.361084 0.173572
O O15 0.500000 0.500000 0.000000
O O16 0.177959 0.243625 0.945488
O O17 0.765423 0.002386 0.790616
O O18 0.000000 0.000000 0.000000
#
# Coordination Sequence:
#
# PCOD9027495 Si02
#       8
#     2   2   2   2   2   2   2   2
#     4  10  22  43  74 104 130 169 233 290 338 396
#     4  11  21  37  60 100 133 171 221 282 336 387
#     4  11  25  41  65  99 139 179 224 280 336 402
#     4  10  22  41  68 106 127 167 231 290 335 393
#     4  10  24  42  72  98 134 180 222 281 347 401
#     4  11  23  36  62 101 132 170 221 272 340 390
#     4  11  23  40  67  91 141 175 220 284 333 397
#     4  12  24  47  64  94 144 188 221 271 339 414
#
# _framework density 23.860095999999999
#
# number of rings (size 3 to 8) (size 9 to 14) (size 15 to 20)
#    0.000    1.250    5.000    3.000    3.500    1.500 
#    0.000    6.875    0.000    0.000    0.000    2.625 
#    0.000    0.000    0.000    0.000    0.000    0.000 
#
# Total GULP energy -89181.255833 kJ/mol
# GULP energy per Si atom -5573.828490 kJ/mol
# Density = 2.380579 g / cm^3
# Si number density = 23.860096 Si / 1000 Ang^3
#
#
#
# Elastic Constant Matrix: (Units=GPa)
#
#
# Indices 1 2 3 4 5 6 
#
# 1 101.9969 34.6284 41.9945 -4.5018 -40.7820 -4.3903
# 2 34.6284 89.5202 27.2627 4.1718 -28.5481 7.3214
# 3 41.9945 27.2627 148.0669 3.3773 -44.1317 -8.1940
# 4 -4.5018 4.1718 3.3773 22.8513 -7.5659 -21.5927
# 5 -40.7820 -28.5481 -44.1317 -7.5659 59.5055 2.0914
# 6 -4.3903 7.3214 -8.1940 -21.5927 2.0914 45.3245
#
#
#
# Elastic Compliance Matrix: (Units=1/GPa)
#
#
# Indices 1 2 3 4 5 6 
#
# 1 0.017252 -0.004626 -0.000584 0.017629 0.011054 0.010201
# 2 -0.004626 0.015163 -0.001005 -0.010505 0.002311 -0.008190
# 3 -0.000584 -0.001005 0.009051 0.003934 0.006213 0.003329
# 4 0.017629 -0.010505 0.003934 0.106720 0.021632 0.053959
# 5 0.011054 0.002311 0.006213 0.021632 0.032475 0.010628
# 6 0.010201 -0.008190 0.003329 0.053959 0.010628 0.050192
#
#
# Mechanical properties :
#
#
# Convention : Reuss Voigt Hill
#
# Bulk Modulus (GPa) = 34.44071 60.81725 47.62898
# Shear Modulus (GPa) = 19.76591 41.24950 30.50770
#
# Velocity S-wave (km/s) = 2.88133 4.16240 3.57964
# Velocity P-wave (km/s) = 5.05324 6.97461 6.09017
#
# Compressibility (1/GPa) = 0.02903540
#
# Stress axis : x y z
#
# Youngs Moduli (GPa) = 57.96280 65.95217 110.48831
#
# Poissons Ratio (x) = 0.30512 0.06454
# Poissons Ratio (y) = 0.26816 0.11099
# Poissons Ratio (z) = 0.03386 0.06625
#
# Static dielectric constant tensor:
#      x y z
#    x 2.366320 -0.313890 -0.015880 
#    y -0.313890 1.769470 0.100580 
#    z -0.015880 0.100580 2.006530 
# 
# From -- ./inp_files/428428.got.cif
#   From: 2010.05.17/outbox.cif.g08.bks.cpg/sg2_215_cif.got.tgz:428428.got - 2010.06.03 11:33:40.
