data_PCOD9027198
_publ_section_title
;
Structure prediction by ZEFSAII (Michael W. Deem and Ramdas Pophale) SiO2 
 PCOD9027198
Probable space group: P -1
;
_chemical_formula_sum "Si O2"
_cell_formula_units_Z 16
_cell_length_a 15.029476
_cell_length_b 11.148697
_cell_length_c 10.215817
_cell_angle_alpha 105.718115
_cell_angle_beta 106.490863
_cell_angle_gamma 27.902117
_cell_volume 767.318935
_symmetry_space_group_name_H-M "P -1"
_symmetry_group_IT_number 2
_symmetry_cell_setting 'triclinic'
loop_
_space_group_symop_operation_xyz
x,y,z
-x,-y,-z
loop_
_atom_site_type_symbol
_atom_site_label
_atom_site_fract_x
_atom_site_fract_y
_atom_site_fract_z
Si Si1 0.079333 0.827995 0.861260
Si Si2 0.146978 0.356069 0.792792
Si Si3 0.384372 0.308953 0.974808
Si Si4 0.725218 0.834431 0.814257
Si Si5 0.076233 0.994643 0.649239
Si Si6 0.680310 0.090377 0.389567
Si Si7 0.872624 0.831801 0.670127
Si Si8 0.693615 0.584205 0.722463
O O1 0.275671 0.534275 0.903582
O O2 0.932639 0.888220 0.784239
O O3 0.102247 0.883474 0.757737
O O4 0.000000 0.000000 0.000000
O O5 0.061516 0.522702 0.674156
O O6 0.281404 0.297408 0.901709
O O7 0.249541 0.109282 0.726209
O O8 0.952218 0.563937 0.853379
O O9 0.600729 0.036849 0.938480
O O10 0.348692 0.385260 0.132200
O O11 0.714403 0.939785 0.716735
O O12 0.662938 0.766791 0.735932
O O13 0.908520 0.292132 0.694251
O O14 0.265535 0.846637 0.642536
O O15 0.000000 0.000000 0.500000
O O16 0.801936 0.942765 0.529510
O O17 0.457359 0.325738 0.388960
#
# Coordination Sequence:
#
# PCOD9027198 Si02
#       8
#     2   2   2   2   2   2   2   2
#     4  11  23  47  71  92 134 184 229 277 325 401
#     4   9  21  39  67  95 135 176 218 279 338 403
#     4  11  23  44  67  99 140 173 228 284 334 400
#     4  10  22  41  67 105 130 172 218 285 349 391
#     4  12  26  48  70  96 137 186 228 275 340 394
#     4  12  23  43  67 100 138 179 222 280 342 404
#     4   9  22  42  65  96 136 172 227 275 333 405
#     4  12  26  41  69 105 135 174 227 283 338 414
#
# _framework density 20.851824000000001
#
# number of rings (size 3 to 8) (size 9 to 14) (size 15 to 20)
#    0.750    0.500    5.000    0.750    0.000    4.500 
#    2.250    1.250    0.000    0.000    0.000    0.000 
#    0.000    0.000    0.000    0.000    0.000    0.000 
#
# Total GULP energy -89379.024042 kJ/mol
# GULP energy per Si atom -5586.189003 kJ/mol
# Density = 2.080436 g / cm^3
# Si number density = 20.851824 Si / 1000 Ang^3
#
#
#
# Elastic Constant Matrix: (Units=GPa)
#
#
# Indices 1 2 3 4 5 6 
#
# 1 112.1776 8.2838 19.2308 -13.7939 -17.7598 18.7406
# 2 8.2838 44.3440 4.7153 -0.0117 -5.0839 -1.4723
# 3 19.2308 4.7153 82.5060 -12.4628 -10.1713 19.8863
# 4 -13.7939 -0.0117 -12.4628 31.5323 4.0319 -2.7879
# 5 -17.7598 -5.0839 -10.1713 4.0319 28.7184 0.5139
# 6 18.7406 -1.4723 19.8863 -2.7879 0.5139 32.8168
#
#
#
# Elastic Compliance Matrix: (Units=1/GPa)
#
#
# Indices 1 2 3 4 5 6 
#
# 1 0.011607 -0.001675 0.000400 0.003795 0.006610 -0.006727
# 2 -0.001675 0.023426 -0.001487 -0.001419 0.002734 0.002746
# 3 0.000400 -0.001487 0.015771 0.004921 0.005049 -0.009513
# 4 0.003795 -0.001419 0.004921 0.035261 -0.001073 -0.002200
# 5 0.006610 0.002734 0.005049 -0.001073 0.041465 -0.007452
# 6 -0.006727 0.002746 -0.009513 -0.002200 -0.007452 0.040131
#
#
# Mechanical properties :
#
#
# Convention : Reuss Voigt Hill
#
# Bulk Modulus (GPa) = 22.08563 33.72084 27.90323
# Shear Modulus (GPa) = 26.55641 32.40001 29.47821
#
# Velocity S-wave (km/s) = 3.57259 3.94613 3.76400
# Velocity P-wave (km/s) = 5.25667 6.08024 5.68339
#
# Compressibility (1/GPa) = 0.04527832
#
# Stress axis : x y z
#
# Youngs Moduli (GPa) = 86.15841 42.68696 63.40852
#
# Poissons Ratio (x) = 0.07151 -0.02536
# Poissons Ratio (y) = 0.14433 0.09431
# Poissons Ratio (z) = -0.03446 0.06349
#
# Static dielectric constant tensor:
#      x y z
#    x 1.751900 0.003650 -0.020340 
#    y 0.003650 1.753190 -0.016180 
#    z -0.020340 -0.016180 1.728660 
# 
# From -- ./inp_files/308116.got.cif
#   From: 2010.05.17/outbox.cif.g08.bks.cpg/sg2_155_cif.got.tgz:308116.got - 2010.06.03 11:33:40.
