data_PCOD9027122
_publ_section_title
;
Structure prediction by ZEFSAII (Michael W. Deem and Ramdas Pophale) SiO2 
 PCOD9027122
Probable space group: P -1
;
_chemical_formula_sum "Si O2"
_cell_formula_units_Z 16
_cell_length_a 8.371858
_cell_length_b 5.357719
_cell_length_c 19.361859
_cell_angle_alpha 82.831054
_cell_angle_beta 46.279252
_cell_angle_gamma 88.771735
_cell_volume 620.193397
_symmetry_space_group_name_H-M "P -1"
_symmetry_group_IT_number 2
_symmetry_cell_setting 'triclinic'
loop_
_space_group_symop_operation_xyz
x,y,z
-x,-y,-z
loop_
_atom_site_type_symbol
_atom_site_label
_atom_site_fract_x
_atom_site_fract_y
_atom_site_fract_z
Si Si1 0.930396 0.623318 0.417254
Si Si2 0.247066 0.947503 0.941292
Si Si3 0.345436 0.846309 0.234631
Si Si4 0.605514 0.620258 0.860845
Si Si5 0.830062 0.778578 0.586951
Si Si6 0.194110 0.208650 0.703604
Si Si7 0.664613 0.289496 0.270261
Si Si8 0.873294 0.834473 0.894151
O O1 0.792170 0.635681 0.527877
O O2 0.840006 0.713691 0.368612
O O3 0.173280 0.780952 0.348092
O O4 0.012110 0.346323 0.401187
O O5 0.345703 0.676989 0.929482
O O6 0.393044 0.101440 0.833599
O O7 0.280141 0.080539 0.001560
O O8 0.000000 0.000000 0.000000
O O9 0.330780 0.614886 0.193528
O O10 0.290740 0.110150 0.209854
O O11 0.721011 0.638528 0.899944
O O12 0.577045 0.746149 0.691497
O O13 0.000000 0.000000 0.500000
O O14 0.293881 0.455151 0.706577
O O15 0.335246 0.965074 0.674329
O O16 0.973471 0.087924 0.814362
O O17 0.890257 0.281828 0.156800
#
# Coordination Sequence:
#
# PCOD9027122 Si02
#       8
#     2   2   2   2   2   2   2   2
#     4  11  25  45  72  98 139 181 233 281 353 412
#     4  10  24  41  65 102 141 181 222 275 340 408
#     4  10  23  41  68  96 132 175 229 272 337 399
#     4  10  22  41  66  98 128 178 225 282 329 397
#     4  11  29  45  69 102 140 185 226 288 350 419
#     4  10  23  44  72 103 133 183 229 284 340 403
#     4  10  25  45  70 103 138 178 230 290 342 401
#     4  10  22  41  72 100 139 174 235 277 341 397
#
# _framework density 25.798403
#
# number of rings (size 3 to 8) (size 9 to 14) (size 15 to 20)
#    1.500    0.250    1.250    1.125    7.000    6.000 
#    0.000    0.000    0.000    0.000    0.000    0.000 
#    0.000    0.000    0.000    0.000    0.000    0.000 
#
# Total GULP energy -89169.496432 kJ/mol
# GULP energy per Si atom -5573.093527 kJ/mol
# Density = 2.573968 g / cm^3
# Si number density = 25.798403 Si / 1000 Ang^3
#
#
#
# Elastic Constant Matrix: (Units=GPa)
#
#
# Indices 1 2 3 4 5 6 
#
# 1 88.8761 36.5736 16.9571 6.4112 -3.6922 -1.1942
# 2 36.5736 130.3133 27.6929 7.0746 0.6290 1.7137
# 3 16.9571 27.6929 104.5513 22.3965 -7.8890 5.5339
# 4 6.4112 7.0746 22.3965 44.8595 -0.8228 2.9774
# 5 -3.6922 0.6290 -7.8890 -0.8228 40.7294 -6.5895
# 6 -1.1942 1.7137 5.5339 2.9774 -6.5895 35.2315
#
#
#
# Elastic Compliance Matrix: (Units=1/GPa)
#
#
# Indices 1 2 3 4 5 6 
#
# 1 0.012966 -0.003403 -0.000980 -0.000875 0.001191 0.001056
# 2 -0.003403 0.009039 -0.001890 0.000016 -0.000883 -0.000425
# 3 -0.000980 -0.001890 0.011538 -0.005224 0.001915 -0.000954
# 4 -0.000875 0.000016 -0.005224 0.025106 -0.000825 -0.001486
# 5 0.001191 -0.000883 0.001915 -0.000825 0.025785 0.004675
# 6 0.001056 -0.000425 -0.000954 -0.001486 0.004675 0.029590
#
#
# Mechanical properties :
#
#
# Convention : Reuss Voigt Hill
#
# Bulk Modulus (GPa) = 47.62429 54.02088 50.82259
# Shear Modulus (GPa) = 37.43386 40.33189 38.88288
#
# Velocity S-wave (km/s) = 3.81335 3.95821 3.88646
# Velocity P-wave (km/s) = 6.15541 6.47109 6.31522
#
# Compressibility (1/GPa) = 0.02099769
#
# Stress axis : x y z
#
# Youngs Moduli (GPa) = 77.12656 110.62629 86.66753
#
# Poissons Ratio (x) = 0.37644 0.08494
# Poissons Ratio (y) = 0.26244 0.16380
# Poissons Ratio (z) = 0.07559 0.20909
#
# Static dielectric constant tensor:
#      x y z
#    x 2.107950 0.001920 0.016480 
#    y 0.001920 2.234620 -0.060430 
#    z 0.016480 -0.060430 2.132990 
# 
# From -- ./inp_files/585689.got.cif
#   From: 2010.05.17/outbox.cif.g08.bks.cpg/sg2_293_cif.got.tgz:585689.got - 2010.06.03 11:33:40.
