data_PCOD9027126
_publ_section_title
;
Structure prediction by ZEFSAII (Michael W. Deem and Ramdas Pophale) SiO2 
 PCOD9027126
Probable space group: P -1
;
_chemical_formula_sum "Si O2"
_cell_formula_units_Z 16
_cell_length_a 9.847516
_cell_length_b 9.038614
_cell_length_c 14.576167
_cell_angle_alpha 53.334013
_cell_angle_beta 44.584810
_cell_angle_gamma 78.937035
_cell_volume 664.798067
_symmetry_space_group_name_H-M "P -1"
_symmetry_group_IT_number 2
_symmetry_cell_setting 'triclinic'
loop_
_space_group_symop_operation_xyz
x,y,z
-x,-y,-z
loop_
_atom_site_type_symbol
_atom_site_label
_atom_site_fract_x
_atom_site_fract_y
_atom_site_fract_z
Si Si1 0.692467 0.958175 0.117382
Si Si2 0.770704 0.354640 0.699383
Si Si3 0.278325 0.085596 0.596780
Si Si4 0.204976 0.030597 0.146711
Si Si5 0.545623 0.130682 0.280224
Si Si6 0.974270 0.394931 0.779765
Si Si7 0.421324 0.518204 0.415132
Si Si8 0.690862 0.547911 0.963322
O O1 0.621304 0.724207 0.271064
O O2 0.529337 0.021222 0.230948
O O3 0.700331 0.935353 0.012931
O O4 0.905254 0.173652 0.944061
O O5 0.803680 0.357736 0.791484
O O6 0.628667 0.441132 0.680803
O O7 0.000000 0.500000 0.500000
O O8 0.724647 0.126332 0.777814
O O9 0.350285 0.052532 0.473531
O O10 0.437575 0.304320 0.479444
O O11 0.280110 0.916720 0.728620
O O12 0.047820 0.082475 0.702729
O O13 0.261532 0.237345 0.095008
O O14 0.610247 0.364056 0.142223
O O15 0.211172 0.484767 0.590021
O O16 0.906339 0.539440 0.822369
O O17 0.500000 0.500000 0.000000
#
# Coordination Sequence:
#
# PCOD9027126 Si02
#       8
#     2   2   2   2   2   2   2   2
#     4  10  22  41  66  98 131 176 221 277 337 391
#     4   9  18  36  60  94 126 166 217 268 325 397
#     4  11  23  46  69  94 137 177 226 280 333 408
#     4  11  23  41  69 100 128 182 227 270 349 397
#     4  10  26  45  65  99 134 177 226 281 337 398
#     4   9  21  40  57 101 130 173 223 274 330 397
#     4  11  21  38  68  94 135 178 216 279 331 401
#     4  11  26  43  65  98 139 176 224 284 339 402
#
# _framework density 24.067457000000001
#
# number of rings (size 3 to 8) (size 9 to 14) (size 15 to 20)
#    0.000    1.750    3.750    0.750    8.750    2.500 
#    0.000    3.125    0.000    0.000    0.000    0.000 
#    0.000    0.000    0.000    0.000    0.000    0.000 
#
# Total GULP energy -89256.335497 kJ/mol
# GULP energy per Si atom -5578.520969 kJ/mol
# Density = 2.401268 g / cm^3
# Si number density = 24.067457 Si / 1000 Ang^3
#
#
#
# Elastic Constant Matrix: (Units=GPa)
#
#
# Indices 1 2 3 4 5 6 
#
# 1 60.7875 24.0775 28.9898 -0.0094 13.7299 -7.6674
# 2 24.0775 174.7032 59.7692 -9.3511 9.0237 16.6301
# 3 28.9898 59.7692 124.6391 6.1330 5.7967 10.9992
# 4 -0.0094 -9.3511 6.1330 53.5080 -5.6497 4.3189
# 5 13.7299 9.0237 5.7967 -5.6497 36.2375 2.1431
# 6 -7.6674 16.6301 10.9992 4.3189 2.1431 23.7225
#
#
#
# Elastic Compliance Matrix: (Units=1/GPa)
#
#
# Indices 1 2 3 4 5 6 
#
# 1 0.023203 -0.002376 -0.004883 -0.001751 -0.008431 0.012510
# 2 -0.002376 0.007588 -0.002732 0.002067 0.000078 -0.005204
# 3 -0.004883 -0.002732 0.010894 -0.001268 0.000860 -0.004561
# 4 -0.001751 0.002067 -0.001268 0.020033 0.003795 -0.005417
# 5 -0.008431 0.000078 0.000860 0.003795 0.031623 -0.006726
# 6 0.012510 -0.005204 -0.004561 -0.005417 -0.006726 0.053554
#
#
# Mechanical properties :
#
#
# Convention : Reuss Voigt Hill
#
# Bulk Modulus (GPa) = 46.07858 65.08920 55.58389
# Shear Modulus (GPa) = 28.71719 39.17982 33.94851
#
# Velocity S-wave (km/s) = 3.45801 4.03912 3.75981
# Velocity P-wave (km/s) = 5.92714 6.98970 6.48023
#
# Compressibility (1/GPa) = 0.02170206
#
# Stress axis : x y z
#
# Youngs Moduli (GPa) = 43.09860 131.78257 91.79411
#
# Poissons Ratio (x) = 0.31316 0.44821
# Poissons Ratio (y) = 0.10242 0.25080
# Poissons Ratio (z) = 0.21044 0.36006
#
# Static dielectric constant tensor:
#      x y z
#    x 2.053710 0.033450 -0.016300 
#    y 0.033450 1.938480 -0.009660 
#    z -0.016300 -0.009660 1.923420 
# 
# From -- ./inp_files/515175.got.cif
#   From: 2010.05.17/outbox.cif.g08.bks.cpg/sg2_258_cif.got.tgz:515175.got - 2010.06.03 11:33:40.
