data_PCOD9027027
_publ_section_title
;
Structure prediction by ZEFSAII (Michael W. Deem and Ramdas Pophale) SiO2 
 PCOD9027027
Probable space group: P -1
;
_chemical_formula_sum "Si O2"
_cell_formula_units_Z 16
_cell_length_a 11.874307
_cell_length_b 11.569205
_cell_length_c 8.810129
_cell_angle_alpha 55.696453
_cell_angle_beta 58.669140
_cell_angle_gamma 93.520641
_cell_volume 738.423875
_symmetry_space_group_name_H-M "P -1"
_symmetry_group_IT_number 2
_symmetry_cell_setting 'triclinic'
loop_
_space_group_symop_operation_xyz
x,y,z
-x,-y,-z
loop_
_atom_site_type_symbol
_atom_site_label
_atom_site_fract_x
_atom_site_fract_y
_atom_site_fract_z
Si Si1 0.617271 0.403442 0.916608
Si Si2 0.771105 0.908782 0.094145
Si Si3 0.578227 0.635613 0.215469
Si Si4 0.955014 0.477347 0.300291
Si Si5 0.167480 0.740764 0.176468
Si Si6 0.308094 0.256371 0.406963
Si Si7 0.135569 0.403875 0.992514
Si Si8 0.954403 0.042231 0.339719
O O1 0.530957 0.382372 0.832315
O O2 0.708383 0.309044 0.917387
O O3 0.722962 0.597259 0.716329
O O4 0.486664 0.332821 0.188293
O O5 0.649170 0.807014 0.124637
O O6 0.732327 0.797451 0.351554
O O7 0.932907 0.953477 0.874229
O O8 0.776335 0.072538 0.015667
O O9 0.500000 0.500000 0.500000
O O10 0.721578 0.620782 0.065638
O O11 0.023044 0.629365 0.253754
O O12 0.089238 0.480363 0.104298
O O13 0.880035 0.319067 0.573562
O O14 0.842273 0.491025 0.250990
O O15 0.211301 0.099629 0.486476
O O16 0.989781 0.225473 0.194265
O O17 0.000000 0.000000 0.500000
#
# Coordination Sequence:
#
# PCOD9027027 Si02
#       8
#     2   2   2   2   2   2   2   2
#     4  11  26  41  65  95 132 180 212 261 326 396
#     4  11  24  41  67  97 127 170 218 274 321 376
#     4  11  22  43  67  94 130 170 223 261 322 392
#     4  10  23  40  64  92 135 166 215 262 334 380
#     4  11  25  40  63  96 132 169 210 271 323 386
#     4  11  24  42  64  95 130 170 225 262 322 392
#     4  10  22  41  66  95 123 176 213 272 317 383
#     4  11  23  39  68  96 129 164 223 277 318 373
#
# _framework density 21.667771999999999
#
# number of rings (size 3 to 8) (size 9 to 14) (size 15 to 20)
#    0.000    1.250    1.250    4.125   10.500    1.000 
#    0.000    2.500    0.000    0.000    0.000    0.000 
#    0.000    0.000    0.000    0.000    0.000    0.000 
#
# Total GULP energy -89564.256980 kJ/mol
# GULP energy per Si atom -5597.766061 kJ/mol
# Density = 2.161846 g / cm^3
# Si number density = 21.667772 Si / 1000 Ang^3
#
#
#
# Elastic Constant Matrix: (Units=GPa)
#
#
# Indices 1 2 3 4 5 6 
#
# 1 45.4120 11.1075 11.2950 5.6479 9.3597 4.7260
# 2 11.1075 85.7048 29.7826 -6.9848 3.6493 -2.4087
# 3 11.2950 29.7826 118.8274 5.2957 13.3988 -4.0174
# 4 5.6479 -6.9848 5.2957 41.9359 8.3289 -3.8358
# 5 9.3597 3.6493 13.3988 8.3289 27.0683 -0.9238
# 6 4.7260 -2.4087 -4.0174 -3.8358 -0.9238 33.9176
#
#
#
# Elastic Compliance Matrix: (Units=1/GPa)
#
#
# Indices 1 2 3 4 5 6 
#
# 1 0.025250 -0.003016 -0.000856 -0.002762 -0.007199 -0.004342
# 2 -0.003016 0.013465 -0.003169 0.003202 -0.000143 0.001359
# 3 -0.000856 -0.003169 0.009790 -0.000807 -0.003845 0.000858
# 4 -0.002762 0.003202 -0.000807 0.026576 -0.007141 0.003328
# 5 -0.007199 -0.000143 -0.003845 -0.007141 0.043584 0.000917
# 6 -0.004342 0.001359 0.000858 0.003328 0.000917 0.030688
#
#
# Mechanical properties :
#
#
# Convention : Reuss Voigt Hill
#
# Bulk Modulus (GPa) = 29.04966 39.36826 34.20896
# Shear Modulus (GPa) = 28.58633 33.76830 31.17731
#
# Velocity S-wave (km/s) = 3.63616 3.95201 3.79737
# Velocity P-wave (km/s) = 5.57358 6.24764 5.92021
#
# Compressibility (1/GPa) = 0.03442381
#
# Stress axis : x y z
#
# Youngs Moduli (GPa) = 39.60337 74.26556 102.14791
#
# Poissons Ratio (x) = 0.22395 0.08747
# Poissons Ratio (y) = 0.11943 0.32369
# Poissons Ratio (z) = 0.03391 0.23534
#
# Static dielectric constant tensor:
#      x y z
#    x 1.802040 0.027540 -0.004070 
#    y 0.027540 1.780530 0.008940 
#    z -0.004070 0.008940 1.792380 
# 
# From -- ./inp_files/223428.got.cif
#   From: 2010.05.17/outbox.cif.g08.bks.cpg/sg2_112_cif.got.tgz:223428.got - 2010.06.03 11:33:40.
