data_PCOD9027261
_publ_section_title
;
Structure prediction by ZEFSAII (Michael W. Deem and Ramdas Pophale) SiO2 
 PCOD9027261
Probable space group: P -1
;
_chemical_formula_sum "Si O2"
_cell_formula_units_Z 16
_cell_length_a 24.762046
_cell_length_b 13.856837
_cell_length_c 16.429176
_cell_angle_alpha 158.280920
_cell_angle_beta 23.151437
_cell_angle_gamma 156.381748
_cell_volume 741.871205
_symmetry_space_group_name_H-M "P -1"
_symmetry_group_IT_number 2
_symmetry_cell_setting 'triclinic'
loop_
_space_group_symop_operation_xyz
x,y,z
-x,-y,-z
loop_
_atom_site_type_symbol
_atom_site_label
_atom_site_fract_x
_atom_site_fract_y
_atom_site_fract_z
Si Si1 0.911860 0.645155 0.622364
Si Si2 0.594327 0.331945 0.540096
Si Si3 0.827978 0.952338 0.703368
Si Si4 0.382228 0.256739 0.913274
Si Si5 0.323052 0.676919 0.759063
Si Si6 0.891793 0.073751 0.268920
Si Si7 0.401442 0.172733 0.409300
Si Si8 0.202842 0.017822 0.419037
O O1 0.853840 0.307416 0.455396
O O2 0.998839 0.789739 0.698290
O O3 0.777029 0.728816 0.853180
O O4 0.040097 0.772558 0.475959
O O5 0.729432 0.627767 0.614154
O O6 0.446638 0.311360 0.774972
O O7 0.594410 0.353660 0.460512
O O8 0.623154 0.052594 0.299941
O O9 0.780899 0.995015 0.709866
O O10 0.000000 0.000000 0.500000
O O11 0.789332 0.174190 0.983611
O O12 0.500000 0.500000 0.000000
O O13 0.465009 0.886200 0.780893
O O14 0.224930 0.346805 0.665235
O O15 0.732437 0.862460 0.368162
O O16 0.000000 0.000000 0.000000
O O17 0.500000 0.500000 0.500000
O O18 0.322208 0.989630 0.295231
#
# Coordination Sequence:
#
# PCOD9027261 Si02
#       8
#     2   2   2   2   2   2   2   2
#     4  10  24  41  64  94 130 168 217 267 316 400
#     4  10  25  42  61 101 123 173 219 269 329 383
#     4  11  25  40  66  96 130 175 216 267 332 388
#     4  11  25  42  67  92 131 172 223 269 324 387
#     4  10  22  41  67  93 133 167 217 273 329 388
#     4  10  23  42  66  96 131 172 213 267 339 386
#     4   9  20  41  67  94 127 166 216 269 328 389
#     4   9  22  42  61  97 127 168 218 263 329 387
#
# _framework density 21.567084999999999
#
# number of rings (size 3 to 8) (size 9 to 14) (size 15 to 20)
#    0.000    2.000    0.000    0.750   10.500    5.500 
#    0.000    0.000    0.000    0.000    0.000    0.000 
#    0.000    0.000    0.000    0.000    0.000    0.000 
#
# Total GULP energy -89245.440559 kJ/mol
# GULP energy per Si atom -5577.840035 kJ/mol
# Density = 2.151800 g / cm^3
# Si number density = 21.567085 Si / 1000 Ang^3
#
#
#
# Elastic Constant Matrix: (Units=GPa)
#
#
# Indices 1 2 3 4 5 6 
#
# 1 39.1446 10.5521 8.1120 -14.3387 5.5141 -9.7442
# 2 10.5521 112.3720 13.0099 -14.9672 1.7050 -23.7297
# 3 8.1120 13.0099 49.8486 -14.5724 5.4760 -3.7267
# 4 -14.3387 -14.9672 -14.5724 34.4231 -0.1199 -2.7487
# 5 5.5141 1.7050 5.4760 -0.1199 26.1201 -13.1911
# 6 -9.7442 -23.7297 -3.7267 -2.7487 -13.1911 28.8824
#
#
#
# Elastic Compliance Matrix: (Units=1/GPa)
#
#
# Indices 1 2 3 4 5 6 
#
# 1 0.034824 0.002178 -0.000298 0.016544 0.000335 0.015228
# 2 0.002178 0.012795 -0.001208 0.007156 0.006416 0.014703
# 3 -0.000298 -0.001208 0.023731 0.009453 -0.004343 0.000886
# 4 0.016544 0.007156 0.009453 0.044551 0.003650 0.018587
# 5 0.000335 0.006416 -0.004343 0.003650 0.053726 0.029709
# 6 0.015228 0.014703 0.000886 0.018587 0.029709 0.067292
#
#
# Mechanical properties :
#
#
# Convention : Reuss Voigt Hill
#
# Bulk Modulus (GPa) = 13.75580 29.41258 21.58419
# Shear Modulus (GPa) = 19.24520 29.19786 24.22153
#
# Velocity S-wave (km/s) = 2.99045 3.68342 3.35487
# Velocity P-wave (km/s) = 4.27969 5.63537 5.00365
#
# Compressibility (1/GPa) = 0.07269659
#
# Stress axis : x y z
#
# Youngs Moduli (GPa) = 28.71562 78.15703 42.13913
#
# Poissons Ratio (x) = -0.17026 0.01254
# Poissons Ratio (y) = -0.06255 0.05089
# Poissons Ratio (z) = 0.00854 0.09438
#
# Static dielectric constant tensor:
#      x y z
#    x 1.862170 -0.018440 0.011480 
#    y -0.018440 1.801360 0.020520 
#    z 0.011480 0.020520 1.755330 
# 
# From -- ./inp_files/579905.got.cif
#   From: 2010.05.17/outbox.cif.g08.bks.cpg/sg2_290_cif.got.tgz:579905.got - 2010.06.03 11:33:40.
