data_PCOD9027225
_publ_section_title
;
Structure prediction by ZEFSAII (Michael W. Deem and Ramdas Pophale) SiO2 
 PCOD9027225
Probable space group: P -1
;
_chemical_formula_sum "Si O2"
_cell_formula_units_Z 16
_cell_length_a 14.474774
_cell_length_b 17.299906
_cell_length_c 10.332009
_cell_angle_alpha 137.471500
_cell_angle_beta 142.157858
_cell_angle_gamma 23.085631
_cell_volume 621.781926
_symmetry_space_group_name_H-M "P -1"
_symmetry_group_IT_number 2
_symmetry_cell_setting 'triclinic'
loop_
_space_group_symop_operation_xyz
x,y,z
-x,-y,-z
loop_
_atom_site_type_symbol
_atom_site_label
_atom_site_fract_x
_atom_site_fract_y
_atom_site_fract_z
Si Si1 0.626899 0.223637 0.537739
Si Si2 0.462101 0.172196 0.095976
Si Si3 0.237301 0.651520 0.644474
Si Si4 0.206816 0.596958 0.960505
Si Si5 0.678536 0.276928 0.412716
Si Si6 0.095329 0.069379 0.156461
Si Si7 0.402717 0.285591 0.613584
Si Si8 0.805363 0.753406 0.885287
O O1 0.622935 0.101203 0.319094
O O2 0.801064 0.185725 0.580276
O O3 0.604019 0.227882 0.669356
O O4 0.970313 0.195288 0.042938
O O5 0.519587 0.256635 0.191713
O O6 0.202905 0.292533 0.034197
O O7 0.595844 0.985854 0.941277
O O8 0.499541 0.542149 0.864031
O O9 0.343073 0.461308 0.487094
O O10 0.158331 0.788805 0.613505
O O11 0.017358 0.783616 0.670394
O O12 0.222963 0.485004 0.735889
O O13 0.080536 0.633632 0.998808
O O14 0.500000 0.500000 0.500000
O O15 0.405871 0.886515 0.280584
O O16 0.000000 0.000000 0.000000
O O17 0.262201 0.289937 0.362059
#
# Coordination Sequence:
#
# PCOD9027225 Si02
#       8
#     2   2   2   2   2   2   2   2
#     4   8  17  38  66  89 132 166 205 278 325 386
#     4   8  18  40  65  93 131 167 224 270 316 397
#     4  11  20  40  64  99 135 165 214 274 342 387
#     4  12  25  41  65  97 137 174 220 272 324 398
#     4   8  17  35  66  93 129 163 210 277 328 386
#     4  12  25  39  65  98 132 175 220 273 333 388
#     4  11  22  44  65  93 134 178 219 265 333 392
#     4  10  22  41  67  91 132 182 221 265 321 395
#
# _framework density 25.732495
#
# number of rings (size 3 to 8) (size 9 to 14) (size 15 to 20)
#    0.750    1.250    2.500    1.500    1.750    0.500 
#    0.000   14.375    0.000    0.000    0.000    0.000 
#    0.000    0.000    0.000    0.000    0.000    0.000 
#
# Total GULP energy -89181.319736 kJ/mol
# GULP energy per Si atom -5573.832483 kJ/mol
# Density = 2.567393 g / cm^3
# Si number density = 25.732495 Si / 1000 Ang^3
#
#
#
# Elastic Constant Matrix: (Units=GPa)
#
#
# Indices 1 2 3 4 5 6 
#
# 1 112.1362 37.6183 18.1197 -0.1728 -6.7072 4.1855
# 2 37.6183 64.6671 22.8055 6.3598 4.5073 10.2754
# 3 18.1197 22.8055 83.3817 30.2222 18.3971 6.3356
# 4 -0.1728 6.3598 30.2222 34.1218 6.9039 -12.7379
# 5 -6.7072 4.5073 18.3971 6.9039 36.8986 4.1269
# 6 4.1855 10.2754 6.3356 -12.7379 4.1269 39.3745
#
#
#
# Elastic Compliance Matrix: (Units=1/GPa)
#
#
# Indices 1 2 3 4 5 6 
#
# 1 0.011834 -0.006737 -0.003162 0.004133 0.003556 0.001973
# 2 -0.006737 0.021567 -0.002320 -0.003829 -0.001356 -0.005636
# 3 -0.003162 -0.002320 0.023854 -0.022912 -0.006825 -0.009594
# 4 0.004133 -0.003829 -0.022912 0.059353 -0.001098 0.023563
# 5 0.003556 -0.001356 -0.006825 -0.001098 0.031814 -0.002616
# 6 0.001973 -0.005636 -0.009594 0.023563 -0.002616 0.036098
#
#
# Mechanical properties :
#
#
# Convention : Reuss Voigt Hill
#
# Bulk Modulus (GPa) = 30.47059 46.36355 38.41707
# Shear Modulus (GPa) = 22.73788 34.18841 28.46314
#
# Velocity S-wave (km/s) = 2.97581 3.64896 3.32944
# Velocity P-wave (km/s) = 4.86562 5.98413 5.45363
#
# Compressibility (1/GPa) = 0.03281853
#
# Stress axis : x y z
#
# Youngs Moduli (GPa) = 84.50126 46.36611 41.92202
#
# Poissons Ratio (x) = 0.31237 0.13255
# Poissons Ratio (y) = 0.56929 0.09725
# Poissons Ratio (z) = 0.26717 0.10755
#
# Static dielectric constant tensor:
#      x y z
#    x 2.182100 -0.051330 0.019540 
#    y -0.051330 2.075620 0.017430 
#    z 0.019540 0.017430 2.132920 
# 
# From -- ./inp_files/467495.got.cif
#   From: 2010.05.17/outbox.cif.g08.bks.cpg/sg2_234_cif.got.tgz:467495.got - 2010.06.03 11:33:40.
