data_PCOD9027773
_publ_section_title
;
Structure prediction by ZEFSAII (Michael W. Deem and Ramdas Pophale) SiO2 
 PCOD9027773
Probable space group: P -1
;
_chemical_formula_sum "Si O2"
_cell_formula_units_Z 16
_cell_length_a 12.159913
_cell_length_b 11.959465
_cell_length_c 7.753659
_cell_angle_alpha 141.361957
_cell_angle_beta 76.223061
_cell_angle_gamma 101.605285
_cell_volume 683.592405
_symmetry_space_group_name_H-M "P -1"
_symmetry_group_IT_number 2
_symmetry_cell_setting 'triclinic'
loop_
_space_group_symop_operation_xyz
x,y,z
-x,-y,-z
loop_
_atom_site_type_symbol
_atom_site_label
_atom_site_fract_x
_atom_site_fract_y
_atom_site_fract_z
Si Si1 0.219929 0.521140 0.338255
Si Si2 0.621186 0.555525 0.109686
Si Si3 0.252798 0.762148 0.146390
Si Si4 0.092870 0.832955 0.578440
Si Si5 0.612691 0.897747 0.375418
Si Si6 0.616497 0.842520 0.921577
Si Si7 0.141053 0.204293 0.208385
Si Si8 0.376004 0.770094 0.769682
O O1 0.267414 0.438144 0.046187
O O2 0.154562 0.698393 0.523785
O O3 0.143560 0.385964 0.314832
O O4 0.334859 0.593205 0.474768
O O5 0.663786 0.403762 0.041438
O O6 0.500000 0.500000 0.000000
O O7 0.603592 0.768644 0.389158
O O8 0.131896 0.760783 0.287494
O O9 0.300183 0.942687 0.433853
O O10 0.274957 0.793324 0.974574
O O11 0.959625 0.811014 0.636218
O O12 0.127197 0.033393 0.877060
O O13 0.500000 0.000000 0.500000
O O14 0.631128 0.803119 0.071326
O O15 0.736548 0.787657 0.734382
O O16 0.498918 0.758235 0.797619
O O17 0.614062 0.055862 0.145606
#
# Coordination Sequence:
#
# PCOD9027773 Si02
#       8
#     2   2   2   2   2   2   2   2
#     4  11  22  40  61  91 127 157 200 254 308 365
#     4  11  21  34  60  89 115 159 205 245 298 358
#     4  11  22  40  58  89 123 159 204 252 303 357
#     4  10  22  41  69  87 114 159 215 266 288 347
#     4  12  20  38  62  86 122 158 206 256 292 352
#     4  11  21  40  60  92 125 164 199 244 305 372
#     4  11  21  40  67  91 113 158 220 252 300 350
#     4  11  24  38  60  92 133 168 188 243 325 377
#
# _framework density 23.405761999999999
#
# number of rings (size 3 to 8) (size 9 to 14) (size 15 to 20)
#    0.000    1.000    6.250    1.125    0.000    0.500 
#    2.250    1.250    0.000    0.000    0.000    0.000 
#    0.000    0.000    0.000    0.000    0.000    0.000 
#
# Total GULP energy -89240.249775 kJ/mol
# GULP energy per Si atom -5577.515611 kJ/mol
# Density = 2.335249 g / cm^3
# Si number density = 23.405762 Si / 1000 Ang^3
#
#
#
# Elastic Constant Matrix: (Units=GPa)
#
#
# Indices 1 2 3 4 5 6 
#
# 1 62.1126 18.6389 20.6358 -1.2990 -16.7501 29.2410
# 2 18.6389 102.3332 36.0543 13.8557 -4.7487 10.8380
# 3 20.6358 36.0543 60.6886 10.0806 -17.0731 3.9049
# 4 -1.2990 13.8557 10.0806 42.0759 9.9930 -7.1385
# 5 -16.7501 -4.7487 -17.0731 9.9930 25.3800 -6.4771
# 6 29.2410 10.8380 3.9049 -7.1385 -6.4771 33.7739
#
#
#
# Elastic Compliance Matrix: (Units=1/GPa)
#
#
# Indices 1 2 3 4 5 6 
#
# 1 0.034772 -0.000220 -0.004668 -0.006036 0.015026 -0.027889
# 2 -0.000220 0.013274 -0.008037 -0.002414 -0.003206 -0.004264
# 3 -0.004668 -0.008037 0.029497 -0.008401 0.019906 0.005252
# 4 -0.006036 -0.002414 -0.008401 0.032956 -0.020509 0.010004
# 5 0.015026 -0.003206 0.019906 -0.020509 0.068800 -0.005423
# 6 -0.027889 -0.004264 0.005252 0.010004 -0.005423 0.055590
#
#
# Mechanical properties :
#
#
# Convention : Reuss Voigt Hill
#
# Bulk Modulus (GPa) = 19.34573 41.75469 30.55021
# Shear Modulus (GPa) = 17.98739 30.23298 24.11019
#
# Velocity S-wave (km/s) = 2.77520 3.59791 3.21299
# Velocity P-wave (km/s) = 4.30723 5.92774 5.18124
#
# Compressibility (1/GPa) = 0.05169098
#
# Stress axis : x y z
#
# Youngs Moduli (GPa) = 28.75863 75.33736 33.90134
#
# Poissons Ratio (x) = 0.01661 0.15826
# Poissons Ratio (y) = 0.00634 0.27248
# Poissons Ratio (z) = 0.13425 0.60551
#
# Static dielectric constant tensor:
#      x y z
#    x 1.919740 0.011110 -0.073070 
#    y 0.011110 2.164030 0.094240 
#    z -0.073070 0.094240 2.063890 
# 
# From -- ./inp_files/260971.got.cif
#   From: 2010.05.17/outbox.cif.g08.bks.cpg/sg2_131_cif.got.tgz:260971.got - 2010.06.03 11:33:40.
