data_PCOD9027047
_publ_section_title
;
Structure prediction by ZEFSAII (Michael W. Deem and Ramdas Pophale) SiO2 
 PCOD9027047
Probable space group: P -1
;
_chemical_formula_sum "Si O2"
_cell_formula_units_Z 14
_cell_length_a 10.290280
_cell_length_b 5.344002
_cell_length_c 11.977858
_cell_angle_alpha 119.076621
_cell_angle_beta 78.935449
_cell_angle_gamma 113.459421
_cell_volume 528.080788
_symmetry_space_group_name_H-M "P -1"
_symmetry_group_IT_number 2
_symmetry_cell_setting 'triclinic'
loop_
_space_group_symop_operation_xyz
x,y,z
-x,-y,-z
loop_
_atom_site_type_symbol
_atom_site_label
_atom_site_fract_x
_atom_site_fract_y
_atom_site_fract_z
Si Si1 0.701347 0.540404 0.551819
Si Si2 0.620861 0.433799 0.080229
Si Si3 0.064618 0.137685 0.900690
Si Si4 0.916960 0.391181 0.376435
Si Si5 0.103786 0.807048 0.258710
Si Si6 0.433904 0.542210 0.664355
Si Si7 0.397660 0.774065 0.187156
O O1 0.761077 0.299220 0.434891
O O2 0.565615 0.423228 0.627572
O O3 0.655088 0.644218 0.463750
O O4 0.815582 0.830429 0.655309
O O5 0.770844 0.669365 0.063546
O O6 0.650127 0.431918 0.206668
O O7 0.486869 0.548995 0.126917
O O8 0.598368 0.162976 0.935659
O O9 0.964926 0.270125 0.869918
O O10 0.069351 0.877504 0.757004
O O11 0.000000 0.000000 0.000000
O O12 0.000000 0.500000 0.500000
O O13 0.980207 0.675069 0.341690
O O14 0.232629 0.677347 0.227587
O O15 0.516188 0.901833 0.701668
#
# Coordination Sequence:
#
# PCOD9027047 Si02
#       7
#     2   2   2   2   2   2   2
#     4  10  22  42  64 100 134 176 224 280 339 405
#     4  11  24  42  69  95 135 177 227 278 340 407
#     4  12  28  47  70 104 137 181 232 283 342 411
#     4  12  25  41  70 101 138 181 226 275 339 407
#     4  11  25  45  69 100 142 178 227 287 341 400
#     4  10  22  41  66  95 135 173 224 282 337 400
#     4  10  24  43  66  99 129 182 224 278 340 403
#
# _framework density 26.511094
#
# number of rings (size 3 to 8) (size 9 to 14) (size 15 to 20)
#    0.000    1.143    1.429    3.429    4.000    9.143 
#    0.000    2.857    0.000    0.000    0.000    0.000 
#    0.000    0.000    0.000    0.000    0.000    0.000 
#
# Total GULP energy -78146.584048 kJ/mol
# GULP energy per Si atom -5581.898861 kJ/mol
# Density = 2.645075 g / cm^3
# Si number density = 26.511094 Si / 1000 Ang^3
#
#
#
# Elastic Constant Matrix: (Units=GPa)
#
#
# Indices 1 2 3 4 5 6 
#
# 1 123.7408 5.5710 23.4120 4.5904 -7.1209 8.6248
# 2 5.5710 41.9527 18.0523 -18.1345 3.0860 1.7588
# 3 23.4120 18.0523 180.1568 0.8706 17.5064 12.2607
# 4 4.5904 -18.1345 0.8706 36.7266 -0.7239 -5.2914
# 5 -7.1209 3.0860 17.5064 -0.7239 50.7125 -1.1615
# 6 8.6248 1.7588 12.2607 -5.2914 -1.1615 23.1917
#
#
#
# Elastic Compliance Matrix: (Units=1/GPa)
#
#
# Indices 1 2 3 4 5 6 
#
# 1 0.008721 -0.001785 -0.000881 -0.002368 0.001532 -0.003106
# 2 -0.001785 0.032746 -0.003313 0.016999 -0.000771 0.003772
# 3 -0.000881 -0.003313 0.006463 -0.002222 -0.002264 -0.003459
# 4 -0.002368 0.016999 -0.002222 0.037311 0.000145 0.009286
# 5 0.001532 -0.000771 -0.002264 0.000145 0.020805 0.001761
# 6 -0.003106 0.003772 -0.003459 0.009286 0.001761 0.048023
#
#
# Mechanical properties :
#
#
# Convention : Reuss Voigt Hill
#
# Bulk Modulus (GPa) = 27.79955 48.88010 38.33983
# Shear Modulus (GPa) = 28.08718 42.04718 35.06718
#
# Velocity S-wave (km/s) = 3.25845 3.98681 3.64089
# Velocity P-wave (km/s) = 4.96643 6.29845 5.67168
#
# Compressibility (1/GPa) = 0.03597181
#
# Stress axis : x y z
#
# Youngs Moduli (GPa) = 114.66751 30.53854 154.72063
#
# Poissons Ratio (x) = 0.05452 0.13623
# Poissons Ratio (y) = 0.20471 0.51262
# Poissons Ratio (z) = 0.10096 0.10118
#
# Static dielectric constant tensor:
#      x y z
#    x 3.174800 -0.189630 0.045010 
#    y -0.189630 2.175100 -0.013500 
#    z 0.045010 -0.013500 2.005920 
# 
# From -- ./inp_files/77758.got.cif
#   From: 2010.05.17/outbox.cif.g08.bks.cpg/sg2_39_cif.got.tgz:77758.got - 2010.06.03 11:33:40.
