data_PCOD9027224
_publ_section_title
;
Structure prediction by ZEFSAII (Michael W. Deem and Ramdas Pophale) SiO2 
 PCOD9027224
Probable space group: P -1
;
_chemical_formula_sum "Si O2"
_cell_formula_units_Z 12
_cell_length_a 10.010309
_cell_length_b 8.201663
_cell_length_c 8.547659
_cell_angle_alpha 84.858426
_cell_angle_beta 90.779721
_cell_angle_gamma 131.816080
_cell_volume 519.911610
_symmetry_space_group_name_H-M "P -1"
_symmetry_group_IT_number 2
_symmetry_cell_setting 'triclinic'
loop_
_space_group_symop_operation_xyz
x,y,z
-x,-y,-z
loop_
_atom_site_type_symbol
_atom_site_label
_atom_site_fract_x
_atom_site_fract_y
_atom_site_fract_z
Si Si1 0.088823 0.412421 0.433931
Si Si2 0.823588 0.987483 0.655701
Si Si3 0.725960 0.027731 0.972895
Si Si4 0.060774 0.234596 0.135513
Si Si5 0.334336 0.662016 0.917487
Si Si6 0.545875 0.226456 0.446932
O O1 0.040737 0.357646 0.256692
O O2 0.302576 0.589663 0.446851
O O3 0.000000 0.500000 0.500000
O O4 0.993111 0.184764 0.542545
O O5 0.857918 0.849806 0.761560
O O6 0.644709 0.837151 0.559697
O O7 0.783343 0.083944 0.786966
O O8 0.718493 0.201029 0.033761
O O9 0.870357 0.043167 0.070477
O O10 0.528383 0.788885 0.988438
O O11 0.190761 0.412830 0.990883
O O12 0.364572 0.688066 0.730442
O O13 0.500000 0.000000 0.500000
#
# Coordination Sequence:
#
# PCOD9027224 Si02
#       6
#     2   2   2   2   2   2
#     4  12  24  41  68  92 129 172 214 259 318 379
#     4  11  25  43  64  98 130 170 211 261 329 375
#     4  10  22  41  67  91 129 167 216 262 310 381
#     4  12  25  40  66  99 133 164 211 270 322 376
#     4  10  23  41  67  96 121 171 222 257 318 374
#     4  11  24  43  69  91 129 168 217 267 309 385
#
# _framework density 23.080843999999999
#
# number of rings (size 3 to 8) (size 9 to 14) (size 15 to 20)
#    0.000    1.000    1.667    4.500    4.667    4.667 
#    0.000    0.000    0.000    0.000    0.000    0.000 
#    0.000    0.000    0.000    0.000    0.000    0.000 
#
# Total GULP energy -67220.565297 kJ/mol
# GULP energy per Si atom -5601.713775 kJ/mol
# Density = 2.302831 g / cm^3
# Si number density = 23.080844 Si / 1000 Ang^3
#
#
#
# Elastic Constant Matrix: (Units=GPa)
#
#
# Indices 1 2 3 4 5 6 
#
# 1 73.0848 25.0039 7.1178 1.4098 25.2759 22.9363
# 2 25.0039 55.6035 19.6733 10.5809 -0.6398 16.3546
# 3 7.1178 19.6733 75.2935 -4.5112 -0.3836 9.4247
# 4 1.4098 10.5809 -4.5112 46.2268 6.8060 13.6804
# 5 25.2759 -0.6398 -0.3836 6.8060 34.8332 11.2798
# 6 22.9363 16.3546 9.4247 13.6804 11.2798 34.4614
#
#
#
# Elastic Compliance Matrix: (Units=1/GPa)
#
#
# Indices 1 2 3 4 5 6 
#
# 1 0.026438 -0.011310 0.002074 0.007544 -0.017594 -0.010032
# 2 -0.011310 0.028192 -0.005979 -0.006837 0.011724 -0.005340
# 3 0.002074 -0.005979 0.015406 0.004160 -0.000929 -0.004103
# 4 0.007544 -0.006837 0.004160 0.027875 -0.007241 -0.011610
# 5 -0.017594 0.011724 -0.000929 -0.007241 0.044845 -0.005404
# 6 -0.010032 -0.005340 -0.004103 -0.011610 -0.005404 0.045729
#
#
# Mechanical properties :
#
#
# Convention : Reuss Voigt Hill
#
# Bulk Modulus (GPa) = 25.24830 34.17465 29.71147
# Shear Modulus (GPa) = 21.54102 33.25008 27.39555
#
# Velocity S-wave (km/s) = 3.05829 3.79963 3.44894
# Velocity P-wave (km/s) = 4.84083 5.83851 5.36292
#
# Compressibility (1/GPa) = 0.03960663
#
# Stress axis : x y z
#
# Youngs Moduli (GPa) = 37.82479 35.47077 64.91153
#
# Poissons Ratio (x) = 0.40116 -0.13462
# Poissons Ratio (y) = 0.42779 0.38808
# Poissons Ratio (z) = -0.07844 0.21207
#
# Static dielectric constant tensor:
#      x y z
#    x 1.924200 -0.026670 -0.028010 
#    y -0.026670 1.837970 0.029380 
#    z -0.028010 0.029380 1.818030 
# 
# From -- ./inp_files/150592.got.cif
#   From: 2010.05.17/outbox.cif.g08.bks.cpg/sg2_76_cif.got.tgz:150592.got - 2010.06.03 11:33:40.
