data_PCOD9027936
_publ_section_title
;
Structure prediction by ZEFSAII (Michael W. Deem and Ramdas Pophale) SiO2 
 PCOD9027936
Probable space group: P -1
;
_chemical_formula_sum "Si O2"
_cell_formula_units_Z 13
_cell_length_a 12.162014
_cell_length_b 8.869612
_cell_length_c 7.954269
_cell_angle_alpha 111.253269
_cell_angle_beta 114.853680
_cell_angle_gamma 38.943230
_cell_volume 488.420716
_symmetry_space_group_name_H-M "P -1"
_symmetry_group_IT_number 2
_symmetry_cell_setting 'triclinic'
loop_
_space_group_symop_operation_xyz
x,y,z
-x,-y,-z
loop_
_atom_site_type_symbol
_atom_site_label
_atom_site_fract_x
_atom_site_fract_y
_atom_site_fract_z
Si Si1 0.454077 0.476465 0.237354
Si Si2 0.667230 0.953765 0.062375
Si Si3 0.500000 0.000000 0.500000
Si Si4 0.825077 0.642519 0.329833
Si Si5 0.065422 0.804673 0.725378
Si Si6 0.782065 0.062675 0.918993
Si Si7 0.724088 0.472343 0.559912
O O1 0.593864 0.197692 0.177380
O O2 0.373757 0.658071 0.107920
O O3 0.571529 0.498599 0.409989
O O4 0.287930 0.556137 0.262737
O O5 0.830314 0.720582 0.181760
O O6 0.719672 0.952117 0.905315
O O7 0.500000 0.000000 0.000000
O O8 0.646648 0.890467 0.400072
O O9 0.646013 0.722432 0.561146
O O10 0.806079 0.466247 0.228373
O O11 0.000000 0.500000 0.500000
O O12 0.100042 0.746511 0.525779
O O13 0.104241 0.946110 0.876280
O O14 0.879796 0.944084 0.754804
#
# Coordination Sequence:
#
# PCOD9027936 Si02
#       7
#     2   2   1   2   2   2   2
#     4  11  23  41  73 103 138 190 243 303 360 437
#     4  12  26  45  76 108 147 197 250 303 375 448
#     4  10  22  44  68 104 142 188 242 314 366 430
#     4  11  26  46  72 107 148 191 248 309 372 439
#     4  10  24  47  66 102 145 191 236 307 362 446
#     4  11  25  45  70 102 148 192 244 296 375 448
#     4  10  22  41  70 102 139 183 250 297 364 429
#
# _framework density 26.616398
#
# number of rings (size 3 to 8) (size 9 to 14) (size 15 to 20)
#    0.000    1.231    3.077    1.385    6.462    1.231 
#   11.077    0.000    0.000    0.000    0.000    0.000 
#    0.000    0.000    0.000    0.000    0.000    0.000 
#
# Total GULP energy -72458.166395 kJ/mol
# GULP energy per Si atom -5573.705107 kJ/mol
# Density = 2.655582 g / cm^3
# Si number density = 26.616398 Si / 1000 Ang^3
#
#
#
# Elastic Constant Matrix: (Units=GPa)
#
#
# Indices 1 2 3 4 5 6 
#
# 1 160.2869 32.1387 41.4858 5.4295 -29.4369 10.1338
# 2 32.1387 127.3337 37.4696 0.6693 -15.8909 8.7690
# 3 41.4858 37.4696 44.3360 16.9303 1.1522 -6.2568
# 4 5.4295 0.6693 16.9303 42.3263 -1.5733 -14.1959
# 5 -29.4369 -15.8909 1.1522 -1.5733 59.7377 16.4530
# 6 10.1338 8.7690 -6.2568 -14.1959 16.4530 49.7064
#
#
#
# Elastic Compliance Matrix: (Units=1/GPa)
#
#
# Indices 1 2 3 4 5 6 
#
# 1 0.011813 0.003448 -0.016323 0.002858 0.009133 -0.007278
# 2 0.003448 0.013468 -0.017403 0.004405 0.007524 -0.006502
# 3 -0.016323 -0.017403 0.062052 -0.018046 -0.018528 0.015188
# 4 0.002858 0.004405 -0.018046 0.032080 0.002475 0.004711
# 5 0.009133 0.007524 -0.018528 0.002475 0.027497 -0.013916
# 6 -0.007278 -0.006502 0.015188 0.004711 -0.013916 0.030612
#
#
# Mechanical properties :
#
#
# Convention : Reuss Voigt Hill
#
# Bulk Modulus (GPa) = 37.34623 61.57164 49.45893
# Shear Modulus (GPa) = 20.24254 45.07825 32.66040
#
# Velocity S-wave (km/s) = 2.76076 4.11983 3.50677
# Velocity P-wave (km/s) = 4.92180 6.76860 5.91769
#
# Compressibility (1/GPa) = 0.02677647
#
# Stress axis : x y z
#
# Youngs Moduli (GPa) = 84.65423 74.25068 16.11546
#
# Poissons Ratio (x) = -0.25598 0.26305
# Poissons Ratio (y) = -0.29185 0.28046
# Poissons Ratio (z) = 1.38178 1.29220
#
# Static dielectric constant tensor:
#      x y z
#    x 2.172980 -0.020130 -0.124020 
#    y -0.020130 1.992820 0.052130 
#    z -0.124020 0.052130 2.302440 
# 
# From -- ./inp_files/240560.got.cif
#   From: 2010.05.17/outbox.cif.g08.bks.cpg/sg2_121_cif.got.tgz:240560.got - 2010.06.03 11:33:40.
