data_PCOD9027256
_publ_section_title
;
Structure prediction by ZEFSAII (Michael W. Deem and Ramdas Pophale) SiO2 
 PCOD9027256
Probable space group: P -1
;
_chemical_formula_sum "Si O2"
_cell_formula_units_Z 16
_cell_length_a 8.839472
_cell_length_b 20.929579
_cell_length_c 9.372865
_cell_angle_alpha 54.907172
_cell_angle_beta 46.968772
_cell_angle_gamma 31.275968
_cell_volume 657.904771
_symmetry_space_group_name_H-M "P -1"
_symmetry_group_IT_number 2
_symmetry_cell_setting 'triclinic'
loop_
_space_group_symop_operation_xyz
x,y,z
-x,-y,-z
loop_
_atom_site_type_symbol
_atom_site_label
_atom_site_fract_x
_atom_site_fract_y
_atom_site_fract_z
Si Si1 0.839775 0.646807 0.565536
Si Si2 0.010532 0.773668 0.315883
Si Si3 0.724855 0.019411 0.700041
Si Si4 0.109082 0.129893 0.448957
Si Si5 0.974858 0.322093 0.129986
Si Si6 0.749728 0.518095 0.224015
Si Si7 0.152015 0.767807 0.905897
Si Si8 0.610366 0.733882 0.297686
O O1 0.499437 0.708838 0.752509
O O2 0.837716 0.639358 0.403851
O O3 0.840848 0.738799 0.477654
O O4 0.116802 0.531193 0.637793
O O5 0.868617 0.876381 0.388352
O O6 0.381703 0.653553 0.286989
O O7 0.059656 0.779685 0.112285
O O8 0.649731 0.996073 0.632645
O O9 0.882755 0.906797 0.840590
O O10 0.470482 0.150485 0.769698
O O11 0.000000 0.000000 0.500000
O O12 0.147201 0.205945 0.264919
O O13 0.735360 0.210480 0.548987
O O14 0.755334 0.436062 0.232606
O O15 0.819526 0.316380 0.107745
O O16 0.212109 0.313505 0.906859
O O17 0.000000 0.500000 0.000000
#
# Coordination Sequence:
#
# PCOD9027256 Si02
#       8
#     2   2   2   2   2   2   2   2
#     4  12  23  43  66  95 131 170 216 272 312 383
#     4  12  25  45  63  95 134 172 213 270 325 373
#     4   9  19  42  70  93 131 170 209 265 326 377
#     4  10  22  41  67  93 131 171 209 267 319 381
#     4  11  23  43  66  97 127 172 216 264 317 389
#     4  12  26  45  67  93 134 172 212 270 328 374
#     4  11  23  43  68  95 132 168 219 267 311 388
#     4  11  22  43  70  95 130 171 213 263 326 378
#
# _framework density 24.319631000000001
#
# number of rings (size 3 to 8) (size 9 to 14) (size 15 to 20)
#    0.000    1.000    7.500    1.125    0.000    2.500 
#    0.000    7.500    0.000    0.000    0.000    0.000 
#    0.000    0.000    0.000    0.000    0.000    0.000 
#
# Total GULP energy -89549.086810 kJ/mol
# GULP energy per Si atom -5596.817926 kJ/mol
# Density = 2.426428 g / cm^3
# Si number density = 24.319631 Si / 1000 Ang^3
#
#
#
# Elastic Constant Matrix: (Units=GPa)
#
#
# Indices 1 2 3 4 5 6 
#
# 1 133.9251 32.9261 50.7885 -2.0062 25.2775 -4.5559
# 2 32.9261 74.8462 10.8623 1.6968 16.5722 9.6895
# 3 50.7885 10.8623 116.1401 -7.6682 3.7597 -3.2632
# 4 -2.0062 1.6968 -7.6682 40.8716 -3.5017 6.2994
# 5 25.2775 16.5722 3.7597 -3.5017 51.0690 0.0082
# 6 -4.5559 9.6895 -3.2632 6.2994 0.0082 42.8498
#
#
#
# Elastic Compliance Matrix: (Units=1/GPa)
#
#
# Indices 1 2 3 4 5 6 
#
# 1 0.010702 -0.003429 -0.004233 -0.000724 -0.003923 0.001698
# 2 -0.003429 0.016195 -0.000046 -0.000548 -0.003592 -0.003949
# 3 -0.004233 -0.000046 0.010545 0.001885 0.001463 0.000086
# 4 -0.000724 -0.000548 0.001885 0.025541 0.002150 -0.003565
# 5 -0.003923 -0.003592 0.001463 0.002150 0.022728 0.000186
# 6 0.001698 -0.003949 0.000086 -0.003565 0.000186 0.024941
#
#
# Mechanical properties :
#
#
# Convention : Reuss Voigt Hill
#
# Bulk Modulus (GPa) = 45.39850 57.11837 51.25843
# Shear Modulus (GPa) = 37.47840 42.31372 39.89606
#
# Velocity S-wave (km/s) = 3.92991 4.17574 4.05469
# Velocity P-wave (km/s) = 6.26899 6.84007 6.56075
#
# Compressibility (1/GPa) = 0.02202716
#
# Stress axis : x y z
#
# Youngs Moduli (GPa) = 93.43786 61.74875 94.83134
#
# Poissons Ratio (x) = 0.21171 0.40138
# Poissons Ratio (y) = 0.32036 0.00438
# Poissons Ratio (z) = 0.39548 0.00285
#
# Static dielectric constant tensor:
#      x y z
#    x 1.976720 -0.012620 0.010160 
#    y -0.012620 1.939480 -0.010530 
#    z 0.010160 -0.010530 1.905560 
# 
# From -- ./inp_files/223374.got.cif
#   From: 2010.05.17/outbox.cif.g08.bks.cpg/sg2_112_cif.got.tgz:223374.got - 2010.06.03 11:33:40.
