data_PCOD9027570
_publ_section_title
;
Structure prediction by ZEFSAII (Michael W. Deem and Ramdas Pophale) SiO2 
 PCOD9027570
Probable space group: P -1
;
_chemical_formula_sum "Si O2"
_cell_formula_units_Z 16
_cell_length_a 11.942842
_cell_length_b 8.686091
_cell_length_c 8.224562
_cell_angle_alpha 72.455700
_cell_angle_beta 104.040013
_cell_angle_gamma 73.631665
_cell_volume 728.785706
_symmetry_space_group_name_H-M "P -1"
_symmetry_group_IT_number 2
_symmetry_cell_setting 'triclinic'
loop_
_space_group_symop_operation_xyz
x,y,z
-x,-y,-z
loop_
_atom_site_type_symbol
_atom_site_label
_atom_site_fract_x
_atom_site_fract_y
_atom_site_fract_z
Si Si1 0.292838 0.722142 0.881075
Si Si2 0.576318 0.989442 0.692445
Si Si3 0.636234 0.764118 0.227405
Si Si4 0.237577 0.033533 0.008253
Si Si5 0.560496 0.657504 0.913620
Si Si6 0.992481 0.331452 0.955326
Si Si7 0.110258 0.417973 0.435087
Si Si8 0.971980 0.179557 0.332809
O O1 0.410231 0.734639 0.818671
O O2 0.178560 0.718260 0.732324
O O3 0.363219 0.537770 0.054199
O O4 0.238040 0.876801 0.944059
O O5 0.699971 0.024190 0.772696
O O6 0.615845 0.785507 0.812034
O O7 0.500000 0.000000 0.500000
O O8 0.474363 0.121349 0.733174
O O9 0.757038 0.654392 0.408369
O O10 0.674432 0.896288 0.089168
O O11 0.588609 0.657670 0.116341
O O12 0.111505 0.201462 0.938865
O O13 0.895399 0.436988 0.747687
O O14 0.977373 0.204403 0.130345
O O15 0.000000 0.500000 0.000000
O O16 0.000000 0.500000 0.500000
O O17 0.069900 0.263677 0.399446
O O18 0.000000 0.000000 0.500000
#
# Coordination Sequence:
#
# PCOD9027570 Si02
#       8
#     2   2   2   2   2   2   2   2
#     4  11  22  41  68  92 133 173 217 264 338 400
#     4  11  24  37  68  99 125 171 224 281 322 380
#     4  11  20  41  69  96 128 169 232 268 329 392
#     4  11  21  43  67  92 132 173 225 273 330 401
#     4  10  22  41  68  95 127 176 219 269 327 397
#     4  10  25  42  67  98 129 176 227 278 327 393
#     4  11  22  41  69  97 128 172 228 276 323 393
#     4  11  26  42  65  95 137 177 214 270 343 397
#
# _framework density 21.954326999999999
#
# number of rings (size 3 to 8) (size 9 to 14) (size 15 to 20)
#    0.000    1.250    3.750    2.250    8.750    0.500 
#    0.000    0.625    8.250    0.000    0.000    0.000 
#    0.000    0.000    0.000    0.000    0.000    0.000 
#
# Total GULP energy -89083.296644 kJ/mol
# GULP energy per Si atom -5567.706040 kJ/mol
# Density = 2.190436 g / cm^3
# Si number density = 21.954327 Si / 1000 Ang^3
#
#
#
# Elastic Constant Matrix: (Units=GPa)
#
#
# Indices 1 2 3 4 5 6 
#
# 1 44.0874 5.8942 12.2189 -8.5794 19.8444 -0.4123
# 2 5.8942 93.0521 8.2963 -14.6244 1.2612 -10.4372
# 3 12.2189 8.2963 130.6944 -7.7290 9.6044 0.8769
# 4 -8.5794 -14.6244 -7.7290 20.3076 -2.5960 7.0044
# 5 19.8444 1.2612 9.6044 -2.5960 38.4148 -4.1997
# 6 -0.4123 -10.4372 0.8769 7.0044 -4.1997 24.2946
#
#
#
# Elastic Compliance Matrix: (Units=1/GPa)
#
#
# Indices 1 2 3 4 5 6 
#
# 1 0.033008 -0.000385 -0.001013 0.013328 -0.016571 -0.006276
# 2 -0.000385 0.012348 -0.000378 0.007557 0.000756 0.003264
# 3 -0.001013 -0.000378 0.008047 0.002692 -0.001458 -0.001498
# 4 0.013328 0.007557 0.002692 0.066431 -0.005139 -0.016666
# 5 -0.016571 0.000756 -0.001458 -0.005139 0.035426 0.007702
# 6 -0.006276 0.003264 -0.001498 -0.016666 0.007702 0.048648
#
#
# Mechanical properties :
#
#
# Convention : Reuss Voigt Hill
#
# Bulk Modulus (GPa) = 20.06047 35.62807 27.84427
# Shear Modulus (GPa) = 22.31355 32.69834 27.50595
#
# Velocity S-wave (km/s) = 3.19150 3.86344 3.54343
# Velocity P-wave (km/s) = 4.76845 6.01374 5.42693
#
# Compressibility (1/GPa) = 0.04984929
#
# Stress axis : x y z
#
# Youngs Moduli (GPa) = 30.29531 80.98282 124.27598
#
# Poissons Ratio (x) = 0.03119 0.12595
# Poissons Ratio (y) = 0.01167 0.04703
# Poissons Ratio (z) = 0.03070 0.03064
#
# Static dielectric constant tensor:
#      x y z
#    x 2.003160 -0.325620 0.025630 
#    y -0.325620 2.977660 0.020820 
#    z 0.025630 0.020820 1.899920 
# 
# From -- ./inp_files/243100.got.cif
#   From: 2010.05.17/outbox.cif.g08.bks.cpg/sg2_122_cif.got.tgz:243100.got - 2010.06.03 11:33:40.
