data_PCOD9027858
_publ_section_title
;
Structure prediction by ZEFSAII (Michael W. Deem and Ramdas Pophale) SiO2 
 PCOD9027858
Probable space group: P -1
;
_chemical_formula_sum "Si O2"
_cell_formula_units_Z 12
_cell_length_a 11.160476
_cell_length_b 10.032395
_cell_length_c 11.245166
_cell_angle_alpha 54.550005
_cell_angle_beta 45.217903
_cell_angle_gamma 88.554326
_cell_volume 545.038261
_symmetry_space_group_name_H-M "P -1"
_symmetry_group_IT_number 2
_symmetry_cell_setting 'triclinic'
loop_
_space_group_symop_operation_xyz
x,y,z
-x,-y,-z
loop_
_atom_site_type_symbol
_atom_site_label
_atom_site_fract_x
_atom_site_fract_y
_atom_site_fract_z
Si Si1 0.305776 0.236667 0.774919
Si Si2 0.458888 0.430639 0.925476
Si Si3 0.685109 0.973743 0.887217
Si Si4 0.635131 0.291752 0.154940
Si Si5 0.127816 0.439570 0.378834
Si Si6 0.802563 0.049494 0.233640
O O1 0.500000 0.500000 0.500000
O O2 0.291653 0.115873 0.727981
O O3 0.343044 0.137495 0.910141
O O4 0.061816 0.165037 0.002976
O O5 0.332524 0.504042 0.920122
O O6 0.717327 0.564144 0.636614
O O7 0.500000 0.500000 0.000000
O O8 0.343712 0.185862 0.107688
O O9 0.936402 0.204295 0.579003
O O10 0.500000 0.000000 0.000000
O O11 0.765760 0.219998 0.151140
O O12 0.367623 0.095907 0.462881
O O13 0.721230 0.368432 0.921820
O O14 0.000000 0.500000 0.500000
#
# Coordination Sequence:
#
# PCOD9027858 Si02
#       6
#     2   2   2   2   2   2
#     4  11  25  44  74 100 139 185 244 292 346 430
#     4  10  23  42  64  99 142 178 227 294 357 411
#     4  12  25  41  71 108 136 182 243 289 353 426
#     4  10  22  41  69  97 139 185 231 286 360 415
#     4  11  22  41  69 100 139 187 231 296 351 420
#     4  10  23  46  68  99 140 191 233 289 358 428
#
# _framework density 22.016802999999999
#
# number of rings (size 3 to 8) (size 9 to 14) (size 15 to 20)
#    0.000    1.333    1.667    3.000    4.667    5.333 
#    0.000   12.500    0.000    0.000    0.000    0.000 
#    0.000    0.000    0.000    0.000    0.000    0.000 
#
# Total GULP energy -66940.168076 kJ/mol
# GULP energy per Si atom -5578.347340 kJ/mol
# Density = 2.196669 g / cm^3
# Si number density = 22.016803 Si / 1000 Ang^3
#
#
#
# Elastic Constant Matrix: (Units=GPa)
#
#
# Indices 1 2 3 4 5 6 
#
# 1 111.4749 62.9674 66.1172 -3.4110 3.8524 -29.5730
# 2 62.9674 158.1202 56.9299 -12.5930 -10.7168 -30.8113
# 3 66.1172 56.9299 137.2654 2.6111 6.7675 -3.8963
# 4 -3.4110 -12.5930 2.6111 46.0136 3.2754 -6.9164
# 5 3.8524 -10.7168 6.7675 3.2754 36.6979 4.4310
# 6 -29.5730 -30.8113 -3.8963 -6.9164 4.4310 51.1110
#
#
#
# Elastic Compliance Matrix: (Units=1/GPa)
#
#
# Indices 1 2 3 4 5 6 
#
# 1 0.016716 -0.002685 -0.006629 0.002271 -0.002494 0.008071
# 2 -0.002685 0.009653 -0.002788 0.003033 0.002835 0.004217
# 3 -0.006629 -0.002788 0.011617 -0.002539 -0.001448 -0.004849
# 4 0.002271 0.003033 -0.002539 0.023956 -0.001789 0.006346
# 5 -0.002494 0.002835 -0.001448 -0.001789 0.029081 -0.002607
# 6 0.008071 0.004217 -0.004849 0.006346 -0.002607 0.027493
#
#
# Mechanical properties :
#
#
# Convention : Reuss Voigt Hill
#
# Bulk Modulus (GPa) = 72.56328 86.54327 79.55327
# Shear Modulus (GPa) = 33.94102 41.48756 37.71429
#
# Velocity S-wave (km/s) = 3.93058 4.34563 4.14330
# Velocity P-wave (km/s) = 7.32318 8.03570 7.68770
#
# Compressibility (1/GPa) = 0.01378108
#
# Stress axis : x y z
#
# Youngs Moduli (GPa) = 59.82179 103.59571 86.08402
#
# Poissons Ratio (x) = 0.27819 0.57067
# Poissons Ratio (y) = 0.16064 0.23998
# Poissons Ratio (z) = 0.39657 0.28880
#
# Static dielectric constant tensor:
#      x y z
#    x 1.886070 -0.004160 -0.004270 
#    y -0.004160 1.869100 0.011660 
#    z -0.004270 0.011660 1.856680 
# 
# From -- ./inp_files/241808.got.cif
#   From: 2010.05.17/outbox.cif.g08.bks.cpg/sg2_121_cif.got.tgz:241808.got - 2010.06.03 11:33:40.
