data_PCOD9027853
_publ_section_title
;
Structure prediction by ZEFSAII (Michael W. Deem and Ramdas Pophale) SiO2 
 PCOD9027853
Probable space group: P -1
;
_chemical_formula_sum "Si O2"
_cell_formula_units_Z 16
_cell_length_a 9.195474
_cell_length_b 14.032629
_cell_length_c 8.063739
_cell_angle_alpha 120.677542
_cell_angle_beta 72.429710
_cell_angle_gamma 70.877178
_cell_volume 690.461830
_symmetry_space_group_name_H-M "P -1"
_symmetry_group_IT_number 2
_symmetry_cell_setting 'triclinic'
loop_
_space_group_symop_operation_xyz
x,y,z
-x,-y,-z
loop_
_atom_site_type_symbol
_atom_site_label
_atom_site_fract_x
_atom_site_fract_y
_atom_site_fract_z
Si Si1 0.702107 0.380712 0.480691
Si Si2 0.217450 0.412383 0.966859
Si Si3 0.517847 0.166966 0.083678
Si Si4 0.568298 0.330412 0.976410
Si Si5 0.913010 0.298295 0.643053
Si Si6 0.667235 0.582397 0.433254
Si Si7 0.603075 0.998546 0.221634
Si Si8 0.787021 0.827711 0.303535
O O1 0.562361 0.523339 0.757315
O O2 0.877672 0.278696 0.447528
O O3 0.749376 0.435405 0.354468
O O4 0.557381 0.345479 0.454524
O O5 0.239282 0.429762 0.781734
O O6 0.145478 0.318696 0.922565
O O7 0.426351 0.332565 0.900135
O O8 0.100345 0.562038 0.222033
O O9 0.631473 0.208035 0.972601
O O10 0.337922 0.312602 0.345751
O O11 0.622483 0.069855 0.119960
O O12 0.443828 0.100791 0.932356
O O13 0.733271 0.324510 0.824193
O O14 0.088321 0.188283 0.597232
O O15 0.416976 0.109709 0.489325
O O16 0.762409 0.919586 0.237443
#
# Coordination Sequence:
#
# PCOD9027853 Si02
#       8
#     2   2   2   2   2   2   2   2
#     4   9  18  32  56  87 120 148 178 224 291 348
#     4  11  18  36  59  90 113 153 184 220 288 357
#     4  10  20  36  64  79 106 147 206 236 266 332
#     4  10  18  34  61  87 115 146 187 229 284 342
#     4  11  21  36  57  93 122 141 177 243 289 337
#     4  10  17  31  59  87 111 150 188 221 277 352
#     4  10  22  41  60  79 105 159 205 233 271 331
#     4  11  23  39  61  81 114 152 196 235 281 331
#
# _framework density 23.172896000000001
#
# number of rings (size 3 to 8) (size 9 to 14) (size 15 to 20)
#    0.000    1.750    5.000    1.125    0.000    0.000 
#    0.000    4.375    0.000    0.000    0.000    0.000 
#    0.000    0.000    0.000    0.000    0.000    0.000 
#
# Total GULP energy -89398.600558 kJ/mol
# GULP energy per Si atom -5587.412535 kJ/mol
# Density = 2.312015 g / cm^3
# Si number density = 23.172896 Si / 1000 Ang^3
#
#
#
# Elastic Constant Matrix: (Units=GPa)
#
#
# Indices 1 2 3 4 5 6 
#
# 1 65.0556 41.0073 7.8137 2.2008 10.0387 -20.0156
# 2 41.0073 162.4261 -2.0757 -20.9824 -1.5940 -21.9658
# 3 7.8137 -2.0757 40.0828 -0.9408 15.5550 1.5178
# 4 2.2008 -20.9824 -0.9408 25.5946 2.5119 7.9944
# 5 10.0387 -1.5940 15.5550 2.5119 23.0807 -2.8018
# 6 -20.0156 -21.9658 1.5178 7.9944 -2.8018 41.6566
#
#
#
# Elastic Compliance Matrix: (Units=1/GPa)
#
#
# Indices 1 2 3 4 5 6 
#
# 1 0.023887 -0.006041 -0.003025 -0.009534 -0.006541 0.009792
# 2 -0.006041 0.008720 0.001131 0.007436 0.001699 0.000341
# 3 -0.003025 0.001131 0.035060 0.006325 -0.023521 -0.004930
# 4 -0.009534 0.007436 0.006325 0.050274 -0.006405 -0.010970
# 5 -0.006541 0.001699 -0.023521 -0.006405 0.063335 0.004099
# 6 0.009792 0.000341 -0.004930 -0.010970 0.004099 0.031451
#
#
# Mechanical properties :
#
#
# Convention : Reuss Voigt Hill
#
# Bulk Modulus (GPa) = 19.30630 40.11722 29.71176
# Shear Modulus (GPa) = 20.33649 32.78766 26.56208
#
# Velocity S-wave (km/s) = 2.96564 3.76562 3.38931
# Velocity P-wave (km/s) = 4.48065 6.02131 5.30718
#
# Compressibility (1/GPa) = 0.05179656
#
# Stress axis : x y z
#
# Youngs Moduli (GPa) = 41.86292 114.68280 28.52274
#
# Poissons Ratio (x) = 0.69281 0.08629
# Poissons Ratio (y) = 0.25290 -0.03227
# Poissons Ratio (z) = 0.12665 -0.12974
#
# Static dielectric constant tensor:
#      x y z
#    x 1.881620 -0.045760 0.023870 
#    y -0.045760 1.932070 0.010040 
#    z 0.023870 0.010040 1.875470 
# 
# From -- ./inp_files/170678.got.cif
#   From: 2010.05.17/outbox.cif.g08.bks.cpg/sg2_86_cif.got.tgz:170678.got - 2010.06.03 11:33:40.
