data_PCOD9027679
_publ_section_title
;
Structure prediction by ZEFSAII (Michael W. Deem and Ramdas Pophale) SiO2 
 PCOD9027679
Probable space group: P -1
;
_chemical_formula_sum "Si O2"
_cell_formula_units_Z 14
_cell_length_a 7.332309
_cell_length_b 12.171173
_cell_length_c 8.142392
_cell_angle_alpha 125.814201
_cell_angle_beta 62.898016
_cell_angle_gamma 88.983652
_cell_volume 482.151914
_symmetry_space_group_name_H-M "P -1"
_symmetry_group_IT_number 2
_symmetry_cell_setting 'triclinic'
loop_
_space_group_symop_operation_xyz
x,y,z
-x,-y,-z
loop_
_atom_site_type_symbol
_atom_site_label
_atom_site_fract_x
_atom_site_fract_y
_atom_site_fract_z
Si Si1 0.744201 0.612281 0.062444
Si Si2 0.776966 0.859671 0.884284
Si Si3 0.155422 0.441401 0.540605
Si Si4 0.084874 0.916275 0.559192
Si Si5 0.233309 0.710964 0.760500
Si Si6 0.639222 0.348654 0.976310
Si Si7 0.472272 0.878349 0.592068
O O1 0.004089 0.489222 0.177271
O O2 0.593475 0.655096 0.994611
O O3 0.695623 0.759229 0.316597
O O4 0.638187 0.510445 0.107964
O O5 0.747399 0.733717 0.674454
O O6 0.894158 0.941431 0.792185
O O7 0.972442 0.785479 0.876054
O O8 0.557426 0.980185 0.162329
O O9 0.301729 0.537055 0.547747
O O10 0.000000 0.500000 0.500000
O O11 0.188320 0.743916 0.316596
O O12 0.293148 0.941607 0.573266
O O13 0.000000 0.000000 0.500000
O O14 0.364984 0.782478 0.657259
O O15 0.274424 0.723616 0.947063
#
# Coordination Sequence:
#
# PCOD9027679 Si02
#       7
#     2   2   2   2   2   2   2
#     4  10  22  40  59  92 126 166 197 264 302 371
#     4  10  19  38  59  90 124 163 204 256 301 368
#     4  10  22  41  63  89 128 164 201 250 324 358
#     4  10  17  31  58  90 119 154 204 260 296 348
#     4  10  21  38  64  97 118 166 206 258 301 374
#     4  10  20  35  62  90 124 154 219 245 305 355
#     4  10  21  37  64  91 125 156 215 253 302 362
#
# _framework density 29.036491000000002
#
# number of rings (size 3 to 8) (size 9 to 14) (size 15 to 20)
#    0.000    2.000    1.429    3.429    6.000    1.143 
#    0.000    2.857    0.000    2.571    0.000   23.000 
#    0.000    0.000    0.000    0.000    0.000    0.000 
#
# Total GULP energy -78591.992230 kJ/mol
# GULP energy per Si atom -5613.713731 kJ/mol
# Density = 2.897040 g / cm^3
# Si number density = 29.036491 Si / 1000 Ang^3
#
#
#
# Elastic Constant Matrix: (Units=GPa)
#
#
# Indices 1 2 3 4 5 6 
#
# 1 118.4751 30.4603 48.6509 -0.2047 -0.3811 -25.4572
# 2 30.4603 122.3880 55.6598 -2.7679 -1.0541 -9.7648
# 3 48.6509 55.6598 245.0975 28.2150 -28.7194 -5.8951
# 4 -0.2047 -2.7679 28.2150 60.8464 -2.5309 9.6816
# 5 -0.3811 -1.0541 -28.7194 -2.5309 39.3159 -13.7969
# 6 -25.4572 -9.7648 -5.8951 9.6816 -13.7969 40.5044
#
#
#
# Elastic Compliance Matrix: (Units=1/GPa)
#
#
# Indices 1 2 3 4 5 6 
#
# 1 0.010896 -0.001504 -0.001450 -0.000390 0.001380 0.006838
# 2 -0.001504 0.009571 -0.002150 0.001325 -0.001120 0.000351
# 3 -0.001450 -0.002150 0.005752 -0.002840 0.004517 0.001625
# 4 -0.000390 0.001325 -0.002840 0.018609 -0.002868 -0.005764
# 5 0.001380 -0.001120 0.004517 -0.002868 0.033180 0.013243
# 6 0.006838 0.000351 0.001625 -0.005764 0.013243 0.035196
#
#
# Mechanical properties :
#
#
# Convention : Reuss Voigt Hill
#
# Bulk Modulus (GPa) = 62.46088 83.94474 73.20281
# Shear Modulus (GPa) = 38.83526 51.54597 45.19062
#
# Velocity S-wave (km/s) = 3.66110 4.21790 3.94933
# Velocity P-wave (km/s) = 6.27929 7.25905 6.78687
#
# Compressibility (1/GPa) = 0.01601002
#
# Stress axis : x y z
#
# Youngs Moduli (GPa) = 91.77903 104.47914 173.86585
#
# Poissons Ratio (x) = 0.15710 0.25214
# Poissons Ratio (y) = 0.13800 0.37389
# Poissons Ratio (z) = 0.13310 0.22468
#
# Static dielectric constant tensor:
#      x y z
#    x 2.223250 -0.003360 -0.033250 
#    y -0.003360 2.248920 0.010740 
#    z -0.033250 0.010740 2.268460 
# 
# From -- ./inp_files/209443.got.cif
#   From: 2010.05.17/outbox.cif.g08.bks.cpg/sg2_105_cif.got.tgz:209443.got - 2010.06.03 11:33:40.
