data_PCOD9027922
_publ_section_title
;
Structure prediction by ZEFSAII (Michael W. Deem and Ramdas Pophale) SiO2 
 PCOD9027922
Probable space group: P -1
;
_chemical_formula_sum "Si O2"
_cell_formula_units_Z 15
_cell_length_a 10.399272
_cell_length_b 9.244922
_cell_length_c 9.460979
_cell_angle_alpha 42.693343
_cell_angle_beta 80.071701
_cell_angle_gamma 77.904630
_cell_volume 602.840256
_symmetry_space_group_name_H-M "P -1"
_symmetry_group_IT_number 2
_symmetry_cell_setting 'triclinic'
loop_
_space_group_symop_operation_xyz
x,y,z
-x,-y,-z
loop_
_atom_site_type_symbol
_atom_site_label
_atom_site_fract_x
_atom_site_fract_y
_atom_site_fract_z
Si Si1 0.500000 0.000000 0.500000
Si Si2 0.362450 0.449359 0.130132
Si Si3 0.535037 0.831481 0.323226
Si Si4 0.143757 0.119259 0.020606
Si Si5 0.839229 0.652770 0.414526
Si Si6 0.052668 0.767714 0.462367
Si Si7 0.616340 0.223292 0.871726
Si Si8 0.140344 0.540295 0.881443
O O1 0.383008 0.193706 0.332239
O O2 0.528412 0.150807 0.523735
O O3 0.344611 0.583291 0.182489
O O4 0.246126 0.551544 0.975536
O O5 0.500000 0.500000 0.000000
O O6 0.688133 0.743987 0.369531
O O7 0.466802 0.714540 0.296548
O O8 0.534773 0.078472 0.091973
O O9 0.191285 0.325754 0.937187
O O10 0.057037 0.003980 0.230088
O O11 0.262099 0.941089 0.085790
O O12 0.086865 0.213382 0.814621
O O13 0.865014 0.410646 0.526908
O O14 0.906964 0.698615 0.516783
O O15 0.110600 0.729021 0.635590
O O16 0.000000 0.500000 0.000000
#
# Coordination Sequence:
#
# PCOD9027922 Si02
#       8
#     1   2   2   2   2   2   2   2
#     4  12  26  44  72 110 148 186 248 302 370 434
#     4  12  28  48  72 106 148 194 247 307 367 435
#     4  10  22  42  69 105 140 185 234 299 358 435
#     4  10  22  44  71 104 143 185 244 299 365 440
#     4   9  21  39  67 104 141 177 242 299 352 439
#     4  10  22  41  70 101 138 192 237 290 369 433
#     4  10  23  45  73  99 145 188 239 298 367 432
#     4  11  28  48  70 106 153 189 240 309 367 439
#
# _framework density 24.882213
#
# number of rings (size 3 to 8) (size 9 to 14) (size 15 to 20)
#    0.000    1.600    1.333    1.200    9.333    7.467 
#    0.000    0.000    0.000    0.000    0.000    0.000 
#    0.000    0.000    0.000    0.000    0.000    0.000 
#
# Total GULP energy -83657.782534 kJ/mol
# GULP energy per Si atom -5577.185502 kJ/mol
# Density = 2.482558 g / cm^3
# Si number density = 24.882213 Si / 1000 Ang^3
#
#
#
# Elastic Constant Matrix: (Units=GPa)
#
#
# Indices 1 2 3 4 5 6 
#
# 1 97.2472 41.9295 30.8041 17.4504 40.5887 9.6063
# 2 41.9295 113.1109 19.5066 15.8255 28.9763 5.6605
# 3 30.8041 19.5066 128.0382 2.8299 24.1946 19.7740
# 4 17.4504 15.8255 2.8299 42.3405 8.8129 11.4027
# 5 40.5887 28.9763 24.1946 8.8129 45.4959 9.4826
# 6 9.6063 5.6605 19.7740 11.4027 9.4826 38.6448
#
#
#
# Elastic Compliance Matrix: (Units=1/GPa)
#
#
# Indices 1 2 3 4 5 6 
#
# 1 0.017879 -0.002546 -0.001538 -0.003896 -0.012975 0.001049
# 2 -0.002546 0.011285 -0.000364 -0.002486 -0.004447 0.000991
# 3 -0.001538 -0.000364 0.009388 0.001876 -0.002873 -0.004217
# 4 -0.003896 -0.002486 0.001876 0.028122 0.000280 -0.007994
# 5 -0.012975 -0.004447 -0.002873 0.000280 0.038746 -0.004243
# 6 0.001049 0.000991 -0.004217 -0.007994 -0.004243 0.031028
#
#
# Mechanical properties :
#
#
# Convention : Reuss Voigt Hill
#
# Bulk Modulus (GPa) = 33.71955 58.09741 45.90848
# Shear Modulus (GPa) = 32.21022 41.70664 36.95843
#
# Velocity S-wave (km/s) = 3.60183 4.09854 3.85819
# Velocity P-wave (km/s) = 5.55686 6.76735 6.19176
#
# Compressibility (1/GPa) = 0.02965638
#
# Stress axis : x y z
#
# Youngs Moduli (GPa) = 55.93193 88.61366 106.51497
#
# Poissons Ratio (x) = 0.22560 0.16377
# Poissons Ratio (y) = 0.14239 0.03882
# Poissons Ratio (z) = 0.08600 0.03230
#
# Static dielectric constant tensor:
#      x y z
#    x 2.007990 0.010440 -0.079220 
#    y 0.010440 1.933920 0.035870 
#    z -0.079220 0.035870 2.085780 
# 
# From -- ./inp_files/242071.got.cif
#   From: 2010.05.17/outbox.cif.g08.bks.cpg/sg2_122_cif.got.tgz:242071.got - 2010.06.03 11:33:40.
