data_PCOD9028450
_publ_section_title
;
Structure prediction by ZEFSAII (Michael W. Deem and Ramdas Pophale) SiO2 
 PCOD9028450
Probable space group: P -1
;
_chemical_formula_sum "Si O2"
_cell_formula_units_Z 16
_cell_length_a 9.212667
_cell_length_b 13.552259
_cell_length_c 12.993798
_cell_angle_alpha 148.319773
_cell_angle_beta 107.824876
_cell_angle_gamma 80.812450
_cell_volume 794.435691
_symmetry_space_group_name_H-M "P -1"
_symmetry_group_IT_number 2
_symmetry_cell_setting 'triclinic'
loop_
_space_group_symop_operation_xyz
x,y,z
-x,-y,-z
loop_
_atom_site_type_symbol
_atom_site_label
_atom_site_fract_x
_atom_site_fract_y
_atom_site_fract_z
Si Si1 0.182738 0.095700 0.116674
Si Si2 0.348326 0.373552 0.802497
Si Si3 0.906869 0.557073 0.686340
Si Si4 0.177270 0.979933 0.505413
Si Si5 0.166426 0.597534 0.079010
Si Si6 0.723973 0.331797 0.622577
Si Si7 0.226909 0.687505 0.757921
Si Si8 0.385785 0.359581 0.557486
O O1 0.182351 0.264699 0.184000
O O2 0.254054 0.211004 0.335847
O O3 0.266038 0.916962 0.958557
O O4 0.000000 0.000000 0.000000
O O5 0.288960 0.177011 0.676490
O O6 0.367152 0.330203 0.649220
O O7 0.500000 0.500000 0.000000
O O8 0.216188 0.497635 0.902220
O O9 0.859535 0.451062 0.688398
O O10 0.843036 0.405978 0.447670
O O11 0.087647 0.632931 0.763865
O O12 0.178109 0.824497 0.276427
O O13 0.236734 0.873721 0.521785
O O14 0.000000 0.000000 0.500000
O O15 0.275455 0.573731 0.179825
O O16 0.000000 0.500000 0.000000
O O17 0.555880 0.327186 0.533905
O O18 0.360446 0.573272 0.715863
#
# Coordination Sequence:
#
# PCOD9028450 Si02
#       8
#     2   2   2   2   2   2   2   2
#     4   9  20  43  61  95 127 160 223 266 322 400
#     4  12  23  43  66  92 137 178 216 279 327 388
#     4   9  19  41  64  89 126 163 214 272 321 391
#     4  10  23  42  64  94 135 173 230 270 322 403
#     4  10  22  42  62  91 131 167 220 268 327 385
#     4  10  23  42  61  96 134 168 216 273 327 389
#     4   9  20  38  65  92 122 165 216 267 326 390
#     4  11  24  39  64  95 130 171 216 266 336 383
#
# _framework density 20.140082
#
# number of rings (size 3 to 8) (size 9 to 14) (size 15 to 20)
#    0.750    1.250    2.500    0.750    3.500    6.000 
#    4.500    1.250    0.000    0.000    0.000    0.000 
#    0.000    0.000    0.000    0.000    0.000    0.000 
#
# Total GULP energy -89156.314974 kJ/mol
# GULP energy per Si atom -5572.269686 kJ/mol
# Density = 2.009424 g / cm^3
# Si number density = 20.140082 Si / 1000 Ang^3
#
#
#
# Elastic Constant Matrix: (Units=GPa)
#
#
# Indices 1 2 3 4 5 6 
#
# 1 85.2635 19.0833 24.0361 10.9464 -3.7101 -18.4334
# 2 19.0833 64.6899 28.8083 20.9311 -8.3376 -16.0818
# 3 24.0361 28.8083 106.5700 34.9767 -1.3400 -10.6634
# 4 10.9464 20.9311 34.9767 33.4249 -11.6839 -3.4000
# 5 -3.7101 -8.3376 -1.3400 -11.6839 31.0199 -0.2563
# 6 -18.4334 -16.0818 -10.6634 -3.4000 -0.2563 30.7986
#
#
#
# Elastic Compliance Matrix: (Units=1/GPa)
#
#
# Indices 1 2 3 4 5 6 
#
# 1 0.014225 -0.001161 -0.001877 -0.000876 0.001038 0.007170
# 2 -0.001161 0.022419 -0.001346 -0.010630 0.001903 0.009388
# 3 -0.001877 -0.001346 0.015932 -0.017271 -0.006389 0.001730
# 4 -0.000876 -0.010630 -0.017271 0.061152 0.019283 -0.005143
# 5 0.001038 0.001903 -0.006389 0.019283 0.039875 0.001863
# 6 0.007170 0.009388 0.001730 -0.005143 0.001863 0.041709
#
#
# Mechanical properties :
#
#
# Convention : Reuss Voigt Hill
#
# Bulk Modulus (GPa) = 22.82715 44.48652 33.65683
# Shear Modulus (GPa) = 22.86421 31.35506 27.10963
#
# Velocity S-wave (km/s) = 3.37302 3.94997 3.67284
# Velocity P-wave (km/s) = 5.15058 6.55283 5.89356
#
# Compressibility (1/GPa) = 0.04380749
#
# Stress axis : x y z
#
# Youngs Moduli (GPa) = 70.29940 44.60532 62.76652
#
# Poissons Ratio (x) = 0.05179 0.11779
# Poissons Ratio (y) = 0.08163 0.08451
# Poissons Ratio (z) = 0.13192 0.06006
#
# Static dielectric constant tensor:
#      x y z
#    x 1.749590 -0.042280 -0.008540 
#    y -0.042280 1.720860 -0.005590 
#    z -0.008540 -0.005590 1.721680 
# 
# From -- ./inp_files/503390.got.cif
#   From: 2010.05.17/outbox.cif.g08.bks.cpg/sg2_252_cif.got.tgz:503390.got - 2010.06.03 11:33:40.
