data_PCOD9028788
_publ_section_title
;
Structure prediction by ZEFSAII (Michael W. Deem and Ramdas Pophale) SiO2 
 PCOD9028788
Probable space group: P -1
;
_chemical_formula_sum "Si O2"
_cell_formula_units_Z 16
_cell_length_a 11.732844
_cell_length_b 11.497659
_cell_length_c 5.410342
_cell_angle_alpha 63.696734
_cell_angle_beta 88.898091
_cell_angle_gamma 76.430083
_cell_volume 633.008828
_symmetry_space_group_name_H-M "P -1"
_symmetry_group_IT_number 2
_symmetry_cell_setting 'triclinic'
loop_
_space_group_symop_operation_xyz
x,y,z
-x,-y,-z
loop_
_atom_site_type_symbol
_atom_site_label
_atom_site_fract_x
_atom_site_fract_y
_atom_site_fract_z
Si Si1 0.636227 0.999457 0.053934
Si Si2 0.297620 0.154814 0.288443
Si Si3 0.502715 0.705527 0.782902
Si Si4 0.040961 0.842203 0.191835
Si Si5 0.296321 0.764867 0.396238
Si Si6 0.921247 0.654459 0.643429
Si Si7 0.129627 0.605760 0.045711
Si Si8 0.378531 0.537616 0.249659
O O1 0.676383 0.931661 0.378914
O O2 0.711015 0.922878 0.889959
O O3 0.500000 0.000000 0.000000
O O4 0.662386 0.144949 0.901060
O O5 0.414169 0.208222 0.202908
O O6 0.182666 0.275528 0.229444
O O7 0.377542 0.780538 0.606609
O O8 0.571651 0.620601 0.626609
O O9 0.479902 0.602343 0.083310
O O10 0.156727 0.815163 0.387756
O O11 0.088224 0.749830 0.039746
O O12 0.940670 0.774226 0.359506
O O13 0.000000 0.000000 0.000000
O O14 0.328580 0.613578 0.429901
O O15 0.888448 0.520932 0.669941
O O16 0.047472 0.605346 0.816881
O O17 0.268270 0.574477 0.031810
#
# Coordination Sequence:
#
# PCOD9028788 Si02
#       8
#     2   2   2   2   2   2   2   2
#     4  12  26  47  71 106 146 192 237 292 361 440
#     4  12  27  45  74 106 144 189 242 294 363 430
#     4  11  22  41  67 100 137 180 233 297 359 428
#     4  11  25  45  66 101 139 190 239 305 363 438
#     4  11  24  41  68  96 139 183 237 292 363 427
#     4  11  24  45  70 100 138 189 241 308 350 442
#     4  10  23  45  70 100 137 185 250 295 370 424
#     4  10  22  42  65 100 135 180 236 298 358 431
#
# _framework density 25.276109999999999
#
# number of rings (size 3 to 8) (size 9 to 14) (size 15 to 20)
#    0.000    1.000    2.500    3.375    5.250    0.500 
#    0.000    0.000    0.000    0.000    0.000    0.000 
#    0.000    0.000    0.000    0.000    0.000    0.000 
#
# Total GULP energy -89545.704770 kJ/mol
# GULP energy per Si atom -5596.606548 kJ/mol
# Density = 2.521858 g / cm^3
# Si number density = 25.276110 Si / 1000 Ang^3
#
#
#
# Elastic Constant Matrix: (Units=GPa)
#
#
# Indices 1 2 3 4 5 6 
#
# 1 115.8711 26.0968 27.8306 -5.8898 8.5847 0.4832
# 2 26.0968 153.6533 39.1365 -11.8810 -0.7692 -1.7544
# 3 27.8306 39.1365 73.3743 -5.7864 -4.0325 1.2271
# 4 -5.8898 -11.8810 -5.7864 39.0263 7.4665 -5.9319
# 5 8.5847 -0.7692 -4.0325 7.4665 43.7500 -8.7736
# 6 0.4832 -1.7544 1.2271 -5.9319 -8.7736 35.2817
#
#
#
# Elastic Compliance Matrix: (Units=1/GPa)
#
#
# Indices 1 2 3 4 5 6 
#
# 1 0.009862 -0.000740 -0.003385 0.001176 -0.002560 -0.000493
# 2 -0.000740 0.007733 -0.003723 0.001852 -0.000221 0.000780
# 3 -0.003385 -0.003723 0.017051 0.000468 0.002062 -0.000140
# 4 0.001176 0.001852 0.000468 0.027792 -0.004156 0.003699
# 5 -0.002560 -0.000221 0.002062 -0.004156 0.025370 0.005562
# 6 -0.000493 0.000780 -0.000140 0.003699 0.005562 0.030399
#
#
# Mechanical properties :
#
#
# Convention : Reuss Voigt Hill
#
# Bulk Modulus (GPa) = 52.77449 58.78073 55.77761
# Shear Modulus (GPa) = 35.65813 40.26726 37.96270
#
# Velocity S-wave (km/s) = 3.76006 3.99569 3.87967
# Velocity P-wave (km/s) = 6.30677 6.67782 6.49494
#
# Compressibility (1/GPa) = 0.01894855
#
# Stress axis : x y z
#
# Youngs Moduli (GPa) = 101.40390 129.31334 58.64666
#
# Poissons Ratio (x) = 0.09571 0.19854
# Poissons Ratio (y) = 0.07505 0.21835
# Poissons Ratio (z) = 0.34329 0.48146
#
# Static dielectric constant tensor:
#      x y z
#    x 1.970650 -0.029250 -0.017140 
#    y -0.029250 2.028530 0.009350 
#    z -0.017140 0.009350 2.091510 
# 
# From -- ./inp_files/67031.got.cif
#   From: 2010.05.17/outbox.cif.g08.bks.cpg/sg2_34_cif.got.tgz:67031.got - 2010.06.03 11:33:40.
