data_PCOD9028304
_publ_section_title
;
Structure prediction by ZEFSAII (Michael W. Deem and Ramdas Pophale) SiO2 
 PCOD9028304
Probable space group: P -1
;
_chemical_formula_sum "Si O2"
_cell_formula_units_Z 16
_cell_length_a 8.888738
_cell_length_b 15.660482
_cell_length_c 17.209084
_cell_angle_alpha 40.384682
_cell_angle_beta 151.818855
_cell_angle_gamma 139.591035
_cell_volume 700.560896
_symmetry_space_group_name_H-M "P -1"
_symmetry_group_IT_number 2
_symmetry_cell_setting 'triclinic'
loop_
_space_group_symop_operation_xyz
x,y,z
-x,-y,-z
loop_
_atom_site_type_symbol
_atom_site_label
_atom_site_fract_x
_atom_site_fract_y
_atom_site_fract_z
Si Si1 0.382124 0.454618 0.565648
Si Si2 0.124062 0.868258 0.132563
Si Si3 0.347730 0.124693 0.361250
Si Si4 0.313932 0.659375 0.742714
Si Si5 0.496320 0.332863 0.849885
Si Si6 0.584850 0.034776 0.102338
Si Si7 0.730732 0.296351 0.557163
Si Si8 0.461036 0.608735 0.006063
O O1 0.500000 0.500000 0.500000
O O2 0.584181 0.382456 0.766743
O O3 0.356084 0.586299 0.512663
O O4 0.015670 0.352072 0.449594
O O5 0.315484 0.834800 0.317168
O O6 0.807839 0.733553 0.071933
O O7 0.375832 0.911755 0.145989
O O8 0.000000 0.000000 0.000000
O O9 0.396051 0.206394 0.244816
O O10 0.527541 0.240469 0.426051
O O11 0.977981 0.064401 0.266883
O O12 0.500000 0.000000 0.500000
O O13 0.442739 0.529240 0.871829
O O14 0.243016 0.645183 0.812535
O O15 0.680739 0.405187 0.961535
O O16 0.122677 0.346479 0.679514
O O17 0.490386 0.176482 0.971537
O O18 0.500000 0.000000 0.000000
#
# Coordination Sequence:
#
# PCOD9028304 Si02
#       8
#     2   2   2   2   2   2   2   2
#     4  12  26  43  73 108 143 188 242 301 362 432
#     4  11  22  43  73 103 142 187 241 289 360 427
#     4  12  28  45  72 107 147 193 237 305 365 431
#     4  11  23  44  69 103 146 181 242 293 362 422
#     4  11  22  45  72  97 141 191 236 285 362 426
#     4  12  27  43  70 105 141 188 242 291 351 435
#     4  11  23  46  74 100 145 192 234 297 368 425
#     4  10  22  41  75 102 137 194 231 297 357 421
#
# _framework density 22.838843000000001
#
# number of rings (size 3 to 8) (size 9 to 14) (size 15 to 20)
#    0.000    0.750    6.250    2.625    3.500    3.500 
#    0.000    1.875    0.000    0.000    0.000    0.000 
#    0.000    0.000    0.000    0.000    0.000    0.000 
#
# Total GULP energy -89383.419412 kJ/mol
# GULP energy per Si atom -5586.463713 kJ/mol
# Density = 2.278686 g / cm^3
# Si number density = 22.838843 Si / 1000 Ang^3
#
#
#
# Elastic Constant Matrix: (Units=GPa)
#
#
# Indices 1 2 3 4 5 6 
#
# 1 146.6388 34.1386 31.4799 4.5032 -32.2336 17.7891
# 2 34.1386 65.6624 19.8050 -7.0593 8.1042 13.7614
# 3 31.4799 19.8050 60.6226 -5.6091 -24.6239 2.9230
# 4 4.5032 -7.0593 -5.6091 39.0450 -4.5941 -11.3611
# 5 -32.2336 8.1042 -24.6239 -4.5941 49.5574 -5.7163
# 6 17.7891 13.7614 2.9230 -11.3611 -5.7163 46.0532
#
#
#
# Elastic Compliance Matrix: (Units=1/GPa)
#
#
# Indices 1 2 3 4 5 6 
#
# 1 0.010054 -0.005665 -0.000751 -0.002031 0.006695 -0.001813
# 2 -0.005665 0.024109 -0.010007 0.000281 -0.013261 -0.005957
# 3 -0.000751 -0.010007 0.026697 0.005335 0.015464 0.004822
# 4 -0.002031 0.000281 0.005335 0.029665 0.004991 0.008300
# 5 0.006695 -0.013261 0.015464 0.004991 0.035545 0.006038
# 6 -0.001813 -0.005957 0.004822 0.008300 0.006038 0.026686
#
#
# Mechanical properties :
#
#
# Convention : Reuss Voigt Hill
#
# Bulk Modulus (GPa) = 35.69874 49.30786 42.50330
# Shear Modulus (GPa) = 25.64898 39.43115 32.54006
#
# Velocity S-wave (km/s) = 3.35482 4.15962 3.77871
# Velocity P-wave (km/s) = 5.53814 6.68627 6.13911
#
# Compressibility (1/GPa) = 0.02801219
#
# Stress axis : x y z
#
# Youngs Moduli (GPa) = 99.46691 41.47892 37.45710
#
# Poissons Ratio (x) = 0.23499 0.02813
# Poissons Ratio (y) = 0.56350 0.37485
# Poissons Ratio (z) = 0.07470 0.41510
#
# Static dielectric constant tensor:
#      x y z
#    x 1.901950 0.017400 -0.052350 
#    y 0.017400 1.903090 0.000230 
#    z -0.052350 0.000230 1.872270 
# 
# From -- ./inp_files/561372.got.cif
#   From: 2010.05.17/outbox.cif.g08.bks.cpg/sg2_281_cif.got.tgz:561372.got - 2010.06.03 11:33:40.
