data_PCOD9028902
_publ_section_title
;
Structure prediction by ZEFSAII (Michael W. Deem and Ramdas Pophale) SiO2 
 PCOD9028902
Probable space group: P -1
;
_chemical_formula_sum "Si O2"
_cell_formula_units_Z 16
_cell_length_a 7.670039
_cell_length_b 13.520806
_cell_length_c 14.523633
_cell_angle_alpha 30.948431
_cell_angle_beta 111.753461
_cell_angle_gamma 103.333920
_cell_volume 707.318477
_symmetry_space_group_name_H-M "P -1"
_symmetry_group_IT_number 2
_symmetry_cell_setting 'triclinic'
loop_
_space_group_symop_operation_xyz
x,y,z
-x,-y,-z
loop_
_atom_site_type_symbol
_atom_site_label
_atom_site_fract_x
_atom_site_fract_y
_atom_site_fract_z
Si Si1 0.801575 0.457465 0.367060
Si Si2 0.552091 0.264465 0.177887
Si Si3 0.926019 0.567287 0.828174
Si Si4 0.104784 0.859873 0.521692
Si Si5 0.917958 0.297637 0.700593
Si Si6 0.149125 0.172051 0.146849
Si Si7 0.611722 0.324652 0.936509
Si Si8 0.865221 0.058064 0.051183
O O1 0.847051 0.282912 0.442678
O O2 0.773206 0.384292 0.523711
O O3 0.611473 0.604206 0.182781
O O4 0.990067 0.550934 0.342307
O O5 0.704394 0.168019 0.358449
O O6 0.367679 0.163391 0.220319
O O7 0.500000 0.500000 0.000000
O O8 0.633906 0.240983 0.110163
O O9 0.719900 0.511910 0.813107
O O10 0.955928 0.773602 0.627492
O O11 0.000000 0.500000 0.000000
O O12 0.068749 0.400907 0.933600
O O13 0.060284 0.072120 0.295917
O O14 0.831575 0.167204 0.860651
O O15 0.100918 0.169437 0.785322
O O16 0.073790 0.077430 0.117825
O O17 0.715324 0.166680 0.009156
#
# Coordination Sequence:
#
# PCOD9028902 Si02
#       8
#     2   2   2   2   2   2   2   2
#     4  11  22  40  67  97 122 174 232 267 329 399
#     4  12  21  40  66  97 138 177 216 269 334 395
#     4  11  22  41  61  90 140 178 210 268 332 387
#     4  12  23  41  67  96 131 183 224 264 324 416
#     4  10  22  43  69  87 128 179 220 279 333 399
#     4  11  23  41  66  94 129 178 226 266 327 413
#     4  11  22  39  67 100 135 171 216 281 334 394
#     4  10  22  42  65  94 129 172 219 276 342 387
#
# _framework density 22.620645
#
# number of rings (size 3 to 8) (size 9 to 14) (size 15 to 20)
#    0.000    1.000    5.000    2.625    0.000    1.500 
#    0.000    0.000    0.000    0.000    0.000    0.000 
#    0.000    0.000    0.000    0.000    0.000    0.000 
#
# Total GULP energy -89345.236474 kJ/mol
# GULP energy per Si atom -5584.077280 kJ/mol
# Density = 2.256916 g / cm^3
# Si number density = 22.620645 Si / 1000 Ang^3
#
#
#
# Elastic Constant Matrix: (Units=GPa)
#
#
# Indices 1 2 3 4 5 6 
#
# 1 62.5104 26.0641 10.3258 0.1944 -10.0565 -4.4887
# 2 26.0641 93.9458 19.1540 21.2158 5.9453 -16.9588
# 3 10.3258 19.1540 88.8671 15.5158 -18.6391 -2.0003
# 4 0.1944 21.2158 15.5158 41.6803 -0.2055 1.3386
# 5 -10.0565 5.9453 -18.6391 -0.2055 34.1406 1.5340
# 6 -4.4887 -16.9588 -2.0003 1.3386 1.5340 39.7996
#
#
#
# Elastic Compliance Matrix: (Units=1/GPa)
#
#
# Indices 1 2 3 4 5 6 
#
# 1 0.019979 -0.007011 0.000062 0.003525 0.007211 -0.001128
# 2 -0.007011 0.016470 -0.002672 -0.007602 -0.006735 0.006608
# 3 0.000062 -0.002672 0.014214 -0.003871 0.008247 -0.000605
# 4 0.003525 -0.007602 -0.003871 0.029419 0.000607 -0.004049
# 5 0.007211 -0.006735 0.008247 0.000607 0.037233 -0.003097
# 6 -0.001128 0.006608 -0.000605 -0.004049 -0.003097 0.028040
#
#
# Mechanical properties :
#
#
# Convention : Reuss Voigt Hill
#
# Bulk Modulus (GPa) = 31.82752 39.60124 35.71438
# Shear Modulus (GPa) = 28.55989 35.77605 32.16797
#
# Velocity S-wave (km/s) = 3.55710 3.98121 3.77512
# Velocity P-wave (km/s) = 5.56519 6.21917 5.90124
#
# Compressibility (1/GPa) = 0.03141935
#
# Stress axis : x y z
#
# Youngs Moduli (GPa) = 50.05306 60.71590 70.35537
#
# Poissons Ratio (x) = 0.42570 -0.00433
# Poissons Ratio (y) = 0.35094 0.18798
# Poissons Ratio (z) = -0.00308 0.16222
#
# Static dielectric constant tensor:
#      x y z
#    x 1.863480 -0.002070 -0.032520 
#    y -0.002070 1.882660 -0.020740 
#    z -0.032520 -0.020740 1.834390 
# 
# From -- ./inp_files/505130.got.cif
#   From: 2010.05.17/outbox.cif.g08.bks.cpg/sg2_253_cif.got.tgz:505130.got - 2010.06.03 11:33:40.
