data_PCOD9028807
_publ_section_title
;
Structure prediction by ZEFSAII (Michael W. Deem and Ramdas Pophale) SiO2 
 PCOD9028807
Probable space group: P -1
;
_chemical_formula_sum "Si O2"
_cell_formula_units_Z 14
_cell_length_a 5.324255
_cell_length_b 11.956991
_cell_length_c 11.488542
_cell_angle_alpha 108.973718
_cell_angle_beta 75.409562
_cell_angle_gamma 127.769886
_cell_volume 545.367046
_symmetry_space_group_name_H-M "P -1"
_symmetry_group_IT_number 2
_symmetry_cell_setting 'triclinic'
loop_
_space_group_symop_operation_xyz
x,y,z
-x,-y,-z
loop_
_atom_site_type_symbol
_atom_site_label
_atom_site_fract_x
_atom_site_fract_y
_atom_site_fract_z
Si Si1 0.347330 0.416166 0.106644
Si Si2 0.129468 0.665466 0.515959
Si Si3 0.227732 0.440654 0.692409
Si Si4 0.214350 0.117461 0.614776
Si Si5 0.351980 0.135301 0.030313
Si Si6 0.696122 0.173430 0.770683
Si Si7 0.299444 0.729241 0.762220
O O1 0.503359 0.523902 0.235548
O O2 0.388660 0.286491 0.066952
O O3 0.976078 0.338447 0.132961
O O4 0.500000 0.500000 0.000000
O O5 0.474676 0.752552 0.446106
O O6 0.174577 0.744303 0.659325
O O7 0.000000 0.500000 0.500000
O O8 0.880467 0.650873 0.445531
O O9 0.348382 0.602646 0.696197
O O10 0.899444 0.346684 0.773906
O O11 0.394962 0.091227 0.688041
O O12 0.969690 0.148044 0.707413
O O13 0.000000 0.000000 0.500000
O O14 0.423125 0.130404 0.156751
O O15 0.573303 0.141425 0.905308
O O16 0.000000 0.000000 0.000000
#
# Coordination Sequence:
#
# PCOD9028807 Si02
#       7
#     2   2   2   2   2   2   2
#     4  11  23  40  72 100 144 184 243 296 359 438
#     4   9  21  43  68 101 140 180 237 297 370 428
#     4   9  21  40  65 104 132 184 236 295 361 428
#     4  11  26  47  72 104 137 194 246 303 366 448
#     4  11  27  45  65 106 142 191 241 300 369 437
#     4  11  25  45  75  98 143 189 244 301 365 447
#     4  10  22  42  65 103 142 183 233 303 363 433
#
# _framework density 25.670783
#
# number of rings (size 3 to 8) (size 9 to 14) (size 15 to 20)
#    0.000    1.714    0.000    2.143   12.000    4.571 
#   12.857    0.000    0.000    0.000    0.000    0.000 
#    0.000    0.000    0.000    0.000    0.000    0.000 
#
# Total GULP energy -78258.991805 kJ/mol
# GULP energy per Si atom -5589.927986 kJ/mol
# Density = 2.561235 g / cm^3
# Si number density = 25.670783 Si / 1000 Ang^3
#
#
#
# Elastic Constant Matrix: (Units=GPa)
#
#
# Indices 1 2 3 4 5 6 
#
# 1 90.0985 38.0961 39.0574 15.6233 10.3149 21.5811
# 2 38.0961 115.6126 64.7210 14.5644 6.7559 18.9027
# 3 39.0574 64.7210 164.0946 15.5336 21.6727 22.4772
# 4 15.6233 14.5644 15.5336 42.8177 19.7400 10.6649
# 5 10.3149 6.7559 21.6727 19.7400 52.3313 5.1419
# 6 21.5811 18.9027 22.4772 10.6649 5.1419 41.6782
#
#
#
# Elastic Compliance Matrix: (Units=1/GPa)
#
#
# Indices 1 2 3 4 5 6 
#
# 1 0.014545 -0.002918 -0.001355 -0.002367 -0.000565 -0.004802
# 2 -0.002918 0.012229 -0.003924 -0.001975 0.001524 -0.001602
# 3 -0.001355 -0.003924 0.008545 0.000476 -0.002757 -0.001909
# 4 -0.002367 -0.001975 0.000476 0.030788 -0.010627 -0.004702
# 5 -0.000565 0.001524 -0.002757 -0.010627 0.024092 0.000835
# 6 -0.004802 -0.001602 -0.001909 -0.004702 0.000835 0.029336
#
#
# Mechanical properties :
#
#
# Convention : Reuss Voigt Hill
#
# Bulk Modulus (GPa) = 52.83678 72.61721 62.72699
# Shear Modulus (GPa) = 35.15237 42.56084 38.85661
#
# Velocity S-wave (km/s) = 3.70449 4.07621 3.89479
# Velocity P-wave (km/s) = 6.23898 7.10657 6.68686
#
# Compressibility (1/GPa) = 0.01892621
#
# Stress axis : x y z
#
# Youngs Moduli (GPa) = 68.74998 81.77015 117.03320
#
# Poissons Ratio (x) = 0.23863 0.15854
# Poissons Ratio (y) = 0.20063 0.45920
# Poissons Ratio (z) = 0.09313 0.32084
#
# Static dielectric constant tensor:
#      x y z
#    x 2.069050 -0.050810 0.024810 
#    y -0.050810 2.041470 0.033550 
#    z 0.024810 0.033550 2.041370 
# 
# From -- ./inp_files/367851.got.cif
#   From: 2010.05.17/outbox.cif.g08.bks.cpg/sg2_184_cif.got.tgz:367851.got - 2010.06.03 11:33:40.
