data_PCOD9028388
_publ_section_title
;
Structure prediction by ZEFSAII (Michael W. Deem and Ramdas Pophale) SiO2 
 PCOD9028388
Probable space group: P -1
;
_chemical_formula_sum "Si O2"
_cell_formula_units_Z 16
_cell_length_a 18.568403
_cell_length_b 8.234898
_cell_length_c 8.124447
_cell_angle_alpha 52.229427
_cell_angle_beta 49.351862
_cell_angle_gamma 58.855182
_cell_volume 730.451601
_symmetry_space_group_name_H-M "P -1"
_symmetry_group_IT_number 2
_symmetry_cell_setting 'triclinic'
loop_
_space_group_symop_operation_xyz
x,y,z
-x,-y,-z
loop_
_atom_site_type_symbol
_atom_site_label
_atom_site_fract_x
_atom_site_fract_y
_atom_site_fract_z
Si Si1 0.598030 0.390824 0.704067
Si Si2 0.436183 0.218956 0.900977
Si Si3 0.707000 0.170158 0.954712
Si Si4 0.100000 0.705165 0.029143
Si Si5 0.874648 0.847634 0.309642
Si Si6 0.802672 0.163193 0.484863
Si Si7 0.403507 0.154782 0.606223
Si Si8 0.757339 0.576508 0.777638
O O1 0.500112 0.386249 0.757735
O O2 0.610911 0.246184 0.936880
O O3 0.692943 0.279479 0.527877
O O4 0.609532 0.620317 0.599813
O O5 0.416310 0.214490 0.740516
O O6 0.333906 0.263552 0.115695
O O7 0.500000 0.000000 0.000000
O O8 0.792754 0.139763 0.709444
O O9 0.718820 0.367546 0.919202
O O10 0.685686 0.965529 0.201253
O O11 0.160607 0.510995 0.155405
O O12 0.985915 0.734892 0.205393
O O13 0.128423 0.704059 0.793788
O O14 0.129061 0.925945 0.913013
O O15 0.806657 0.680455 0.489825
O O16 0.838682 0.938414 0.487675
O O17 0.500000 0.000000 0.500000
#
# Coordination Sequence:
#
# PCOD9028388 Si02
#       8
#     2   2   2   2   2   2   2   2
#     4  10  22  42  61  83 125 163 206 234 306 349
#     4  12  24  41  64  89 122 167 206 245 296 362
#     4  10  24  41  56  90 128 157 198 258 297 346
#     4   9  20  39  67  90 116 156 211 244 304 370
#     4   9  19  40  68  88 121 155 200 257 305 358
#     4   8  18  41  63  82 123 158 192 251 299 356
#     4  12  25  39  60  85 118 163 209 249 292 349
#     4  12  23  38  65  92 123 158 209 245 304 360
#
# _framework density 21.904257999999999
#
# number of rings (size 3 to 8) (size 9 to 14) (size 15 to 20)
#    1.500    0.250    1.250    3.750    1.750    3.000 
#    0.000    1.250    0.000    0.000    0.000    0.000 
#    0.000    0.000    0.000    0.000    0.000    0.000 
#
# Total GULP energy -89144.377192 kJ/mol
# GULP energy per Si atom -5571.523575 kJ/mol
# Density = 2.185440 g / cm^3
# Si number density = 21.904258 Si / 1000 Ang^3
#
#
#
# Elastic Constant Matrix: (Units=GPa)
#
#
# Indices 1 2 3 4 5 6 
#
# 1 32.7367 24.2053 27.3568 3.1034 -14.4079 -13.7512
# 2 24.2053 80.3030 56.4815 -0.4475 -18.1922 -26.1314
# 3 27.3568 56.4815 119.2673 3.9301 -31.7083 -12.6523
# 4 3.1034 -0.4475 3.9301 48.7533 -7.2779 -7.1962
# 5 -14.4079 -18.1922 -31.7083 -7.2779 25.3689 -0.4252
# 6 -13.7512 -26.1314 -12.6523 -7.1962 -0.4252 32.6827
#
#
#
# Elastic Compliance Matrix: (Units=1/GPa)
#
#
# Indices 1 2 3 4 5 6 
#
# 1 0.055413 -0.000948 -0.001972 0.004525 0.030013 0.023180
# 2 -0.000948 0.027160 -0.007786 0.005498 0.011113 0.019658
# 3 -0.001972 -0.007786 0.016049 0.000708 0.013551 -0.000510
# 4 0.004525 0.005498 0.000708 0.024170 0.014534 0.012085
# 5 0.030013 0.011113 0.013551 0.014534 0.086061 0.031079
# 6 0.023180 0.019658 -0.000510 0.012085 0.031079 0.058936
#
#
# Mechanical properties :
#
#
# Convention : Reuss Voigt Hill
#
# Bulk Modulus (GPa) = 12.95173 49.82158 31.38665
# Shear Modulus (GPa) = 15.87612 29.64520 22.76066
#
# Velocity S-wave (km/s) = 2.69512 3.68285 3.22700
# Velocity P-wave (km/s) = 3.95103 6.39367 5.31459
#
# Compressibility (1/GPa) = 0.07720978
#
# Stress axis : x y z
#
# Youngs Moduli (GPa) = 18.04632 36.81864 62.30785
#
# Poissons Ratio (x) = 0.03491 0.12288
# Poissons Ratio (y) = 0.01711 0.48512
# Poissons Ratio (z) = 0.03559 0.28667
#
# Static dielectric constant tensor:
#      x y z
#    x 1.816680 0.045310 -0.008110 
#    y 0.045310 1.828370 -0.060070 
#    z -0.008110 -0.060070 1.845630 
# 
# From -- ./inp_files/343294.got.cif
#   From: 2010.05.17/outbox.cif.g08.bks.cpg/sg2_172_cif.got.tgz:343294.got - 2010.06.03 11:33:40.
