data_PCOD9028737
_publ_section_title
;
Structure prediction by ZEFSAII (Michael W. Deem and Ramdas Pophale) SiO2 
 PCOD9028737
Probable space group: P -1
;
_chemical_formula_sum "Si O2"
_cell_formula_units_Z 13
_cell_length_a 10.542274
_cell_length_b 14.682923
_cell_length_c 7.068179
_cell_angle_alpha 120.189554
_cell_angle_beta 80.416532
_cell_angle_gamma 137.725857
_cell_volume 595.051694
_symmetry_space_group_name_H-M "P -1"
_symmetry_group_IT_number 2
_symmetry_cell_setting 'triclinic'
loop_
_space_group_symop_operation_xyz
x,y,z
-x,-y,-z
loop_
_atom_site_type_symbol
_atom_site_label
_atom_site_fract_x
_atom_site_fract_y
_atom_site_fract_z
Si Si1 0.458619 0.415581 0.729223
Si Si2 0.950753 0.351250 0.572949
Si Si3 0.000000 0.000000 0.000000
Si Si4 0.678844 0.268331 0.221178
Si Si5 0.689426 0.116896 0.717694
Si Si6 0.279616 0.089126 0.332291
Si Si7 0.211887 0.341880 0.378989
O O1 0.341492 0.231493 0.585031
O O2 0.337710 0.417591 0.621111
O O3 0.666081 0.525638 0.679559
O O4 0.500000 0.500000 0.000000
O O5 0.783879 0.295719 0.418189
O O6 0.868314 0.286025 0.735179
O O7 0.157915 0.547219 0.712028
O O8 0.003253 0.268699 0.393041
O O9 0.918389 0.012754 0.845065
O O10 0.821960 0.800869 0.807003
O O11 0.464532 0.182304 0.238934
O O12 0.650538 0.156308 0.961197
O O13 0.500000 0.000000 0.500000
O O14 0.740745 0.028628 0.660727
#
# Coordination Sequence:
#
# PCOD9028737 Si02
#       7
#     2   2   1   2   2   2   2
#     4  10  23  43  67  94 131 177 227 275 330 404
#     4  11  24  44  70  99 138 179 229 277 343 408
#     4  10  24  40  74  92 132 182 228 272 340 398
#     4  11  24  45  70  97 142 182 222 279 342 411
#     4  12  26  41  69 109 137 176 228 282 343 404
#     4  11  23  47  69 101 137 183 225 281 346 398
#     4  10  22  42  64  97 129 178 221 278 338 391
#
# _framework density 21.846844999999998
#
# number of rings (size 3 to 8) (size 9 to 14) (size 15 to 20)
#    0.000    1.231    3.077    1.846    2.154    4.923 
#    0.000    3.077    0.000    0.000    0.000    0.000 
#    0.000    0.000    0.000    0.000    0.000    0.000 
#
# Total GULP energy -72453.562469 kJ/mol
# GULP energy per Si atom -5573.350959 kJ/mol
# Density = 2.179712 g / cm^3
# Si number density = 21.846845 Si / 1000 Ang^3
#
#
#
# Elastic Constant Matrix: (Units=GPa)
#
#
# Indices 1 2 3 4 5 6 
#
# 1 59.7276 8.8642 31.4978 -11.4837 5.4008 -15.4822
# 2 8.8642 84.7836 34.2187 -13.7015 4.1217 -21.1815
# 3 31.4978 34.2187 140.6404 -4.4680 5.5739 -13.4271
# 4 -11.4837 -13.7015 -4.4680 21.7881 0.8681 1.0297
# 5 5.4008 4.1217 5.5739 0.8681 29.4883 -1.3555
# 6 -15.4822 -21.1815 -13.4271 1.0297 -1.3555 31.4600
#
#
#
# Elastic Compliance Matrix: (Units=1/GPa)
#
#
# Indices 1 2 3 4 5 6 
#
# 1 0.025379 0.005383 -0.005073 0.015265 -0.004281 0.013265
# 2 0.005383 0.018208 -0.003907 0.012989 -0.002591 0.012704
# 3 -0.005073 -0.003907 0.008988 -0.003224 -0.000184 -0.001194
# 4 0.015265 0.012989 -0.003224 0.061059 -0.005218 0.012658
# 5 -0.004281 -0.002591 -0.000184 -0.005218 0.035143 -0.002245
# 6 0.013265 0.012704 -0.001194 0.012658 -0.002245 0.045847
#
#
# Mechanical properties :
#
#
# Convention : Reuss Voigt Hill
#
# Bulk Modulus (GPa) = 22.03568 48.25702 35.14635
# Shear Modulus (GPa) = 23.04724 30.58534 26.81629
#
# Velocity S-wave (km/s) = 3.25152 3.74570 3.50732
# Velocity P-wave (km/s) = 4.91984 6.39091 5.70301
#
# Compressibility (1/GPa) = 0.04538094
#
# Stress axis : x y z
#
# Youngs Moduli (GPa) = 39.40188 54.92167 111.25915
#
# Poissons Ratio (x) = -0.29564 0.56438
# Poissons Ratio (y) = -0.21210 0.43474
# Poissons Ratio (z) = 0.19987 0.21461
#
# Static dielectric constant tensor:
#      x y z
#    x 1.848730 -0.011140 -0.036720 
#    y -0.011140 1.823040 -0.000370 
#    z -0.036720 -0.000370 1.743020 
# 
# From -- ./inp_files/23214.got.cif
#   From: 2010.05.17/outbox.cif.g08.bks.cpg/sg2_12_cif.got.tgz:23214.got - 2010.06.03 11:33:40.
