data_PCOD9028414
_publ_section_title
;
Structure prediction by ZEFSAII (Michael W. Deem and Ramdas Pophale) SiO2 
 PCOD9028414
Probable space group: P -1
;
_chemical_formula_sum "Si O2"
_cell_formula_units_Z 16
_cell_length_a 14.690424
_cell_length_b 12.456901
_cell_length_c 14.616996
_cell_angle_alpha 146.308177
_cell_angle_beta 29.272697
_cell_angle_gamma 141.556301
_cell_volume 709.086004
_symmetry_space_group_name_H-M "P -1"
_symmetry_group_IT_number 2
_symmetry_cell_setting 'triclinic'
loop_
_space_group_symop_operation_xyz
x,y,z
-x,-y,-z
loop_
_atom_site_type_symbol
_atom_site_label
_atom_site_fract_x
_atom_site_fract_y
_atom_site_fract_z
Si Si1 0.567959 0.736313 0.601085
Si Si2 0.212041 0.080081 0.936103
Si Si3 0.494325 0.276330 0.989291
Si Si4 0.763074 0.750722 0.625091
Si Si5 0.699746 0.287518 0.332198
Si Si6 0.161312 0.938296 0.485188
Si Si7 0.105085 0.728493 0.581402
Si Si8 0.514063 0.723336 0.304929
O O1 0.500000 0.500000 0.500000
O O2 0.642204 0.808062 0.687019
O O3 0.386934 0.785904 0.742420
O O4 0.746019 0.829988 0.446120
O O5 0.369867 0.197906 0.953436
O O6 0.030808 0.176446 0.166972
O O7 0.322591 0.111457 0.765441
O O8 0.168432 0.856827 0.853402
O O9 0.355587 0.243429 0.174631
O O10 0.566825 0.512899 0.089098
O O11 0.670784 0.170688 0.770701
O O12 0.781209 0.521901 0.430240
O O13 0.972244 0.879523 0.548864
O O14 0.529923 0.253391 0.533090
O O15 0.115307 0.852896 0.566657
O O16 0.313461 0.720342 0.428910
O O17 0.000000 0.500000 0.500000
#
# Coordination Sequence:
#
# PCOD9028414 Si02
#       8
#     2   2   2   2   2   2   2   2
#     4  10  22  43  69  92 128 170 212 273 329 367
#     4  12  21  38  63  92 131 172 209 261 319 379
#     4  11  21  38  66  95 127 169 216 263 314 385
#     4  10  23  43  66  94 127 164 215 269 322 381
#     4  10  22  42  61  92 132 170 211 265 321 379
#     4  12  22  40  68  99 127 169 216 263 318 387
#     4  12  22  36  63  97 133 169 211 260 313 380
#     4  11  22  38  60  92 131 173 212 254 317 384
#
# _framework density 22.564257999999999
#
# number of rings (size 3 to 8) (size 9 to 14) (size 15 to 20)
#    0.000    1.000    5.000    2.625    0.000    1.000 
#    0.000    6.250    0.000   11.250    0.000    0.000 
#    0.000    0.000    0.000    0.000    0.000    0.000 
#
# Total GULP energy -89478.195986 kJ/mol
# GULP energy per Si atom -5592.387249 kJ/mol
# Density = 2.251290 g / cm^3
# Si number density = 22.564258 Si / 1000 Ang^3
#
#
#
# Elastic Constant Matrix: (Units=GPa)
#
#
# Indices 1 2 3 4 5 6 
#
# 1 129.8592 36.8858 12.5279 -4.4873 -13.0969 6.4443
# 2 36.8858 129.6276 23.8901 -9.0896 -6.0025 -5.5799
# 3 12.5279 23.8901 79.1628 4.6286 -20.6415 9.7508
# 4 -4.4873 -9.0896 4.6286 30.9165 4.6180 -8.2492
# 5 -13.0969 -6.0025 -20.6415 4.6180 28.2186 -3.6897
# 6 6.4443 -5.5799 9.7508 -8.2492 -3.6897 31.7950
#
#
#
# Elastic Compliance Matrix: (Units=1/GPa)
#
#
# Indices 1 2 3 4 5 6 
#
# 1 0.008854 -0.002623 0.000733 -0.000776 0.003924 -0.002226
# 2 -0.002623 0.009564 -0.003821 0.004469 -0.002148 0.004292
# 3 0.000733 -0.003821 0.018451 -0.007618 0.013368 -0.006903
# 4 -0.000776 0.004469 -0.007618 0.039456 -0.009821 0.012375
# 5 0.003924 -0.002148 0.013368 -0.009821 0.047891 -0.002262
# 6 -0.002226 0.004292 -0.006903 0.012375 -0.002262 0.037721
#
#
# Mechanical properties :
#
#
# Convention : Reuss Voigt Hill
#
# Bulk Modulus (GPa) = 39.29911 53.91747 46.60829
# Shear Modulus (GPa) = 27.49638 35.87573 31.68606
#
# Velocity S-wave (km/s) = 3.49461 3.99173 3.75141
# Velocity P-wave (km/s) = 5.80839 6.72251 6.28210
#
# Compressibility (1/GPa) = 0.02544587
#
# Stress axis : x y z
#
# Youngs Moduli (GPa) = 112.93845 104.56158 54.19847
#
# Poissons Ratio (x) = 0.27428 -0.03972
# Poissons Ratio (y) = 0.29625 0.20711
# Poissons Ratio (z) = -0.08278 0.39956
#
# Static dielectric constant tensor:
#      x y z
#    x 1.866410 -0.004600 0.027350 
#    y -0.004600 1.891530 0.026040 
#    z 0.027350 0.026040 1.792160 
# 
# From -- ./inp_files/505096.got.cif
#   From: 2010.05.17/outbox.cif.g08.bks.cpg/sg2_253_cif.got.tgz:505096.got - 2010.06.03 11:33:40.
