data_PCOD9028042
_publ_section_title
;
Structure prediction by ZEFSAII (Michael W. Deem and Ramdas Pophale) SiO2 
 PCOD9028042
Probable space group: P -1
;
_chemical_formula_sum "Si O2"
_cell_formula_units_Z 16
_cell_length_a 8.899555
_cell_length_b 23.380849
_cell_length_c 13.993470
_cell_angle_alpha 21.952581
_cell_angle_beta 40.089349
_cell_angle_gamma 53.913971
_cell_volume 606.741113
_symmetry_space_group_name_H-M "P -1"
_symmetry_group_IT_number 2
_symmetry_cell_setting 'triclinic'
loop_
_space_group_symop_operation_xyz
x,y,z
-x,-y,-z
loop_
_atom_site_type_symbol
_atom_site_label
_atom_site_fract_x
_atom_site_fract_y
_atom_site_fract_z
Si Si1 0.206483 0.314832 0.001727
Si Si2 0.627298 0.987869 0.857389
Si Si3 0.125045 0.244341 0.932409
Si Si4 0.607972 0.821032 0.407223
Si Si5 0.655044 0.910822 0.614342
Si Si6 0.250120 0.261240 0.339386
Si Si7 0.827475 0.618822 0.503398
Si Si8 0.022443 0.459418 0.246131
O O1 0.427888 0.269375 0.005811
O O2 0.921844 0.151847 0.431118
O O3 0.201359 0.325660 0.873233
O O4 0.192609 0.487661 0.767987
O O5 0.431039 0.012186 0.843339
O O6 0.500000 0.000000 0.000000
O O7 0.664801 0.820138 0.095924
O O8 0.075546 0.339113 0.718985
O O9 0.841157 0.063263 0.361511
O O10 0.745112 0.834013 0.419865
O O11 0.762630 0.772160 0.328587
O O12 0.312748 0.642593 0.826403
O O13 0.797626 0.868535 0.522639
O O14 0.500000 0.000000 0.500000
O O15 0.058504 0.340584 0.332905
O O16 0.550400 0.431932 0.920432
O O17 0.992703 0.610057 0.529147
#
# Coordination Sequence:
#
# PCOD9028042 Si02
#       8
#     2   2   2   2   2   2   2   2
#     4  10  23  40  61  89 122 165 206 244 302 366
#     4  10  17  31  60  87 118 152 204 254 284 350
#     4  11  23  38  62  95 122 162 203 249 301 368
#     4   8  15  30  57  89 116 149 200 246 294 351
#     4  11  25  40  58  86 129 166 197 244 316 366
#     4   9  19  36  63  88 118 162 196 254 304 353
#     4   9  17  35  62  93 112 152 213 242 292 357
#     4   8  17  35  62  86 117 154 205 250 290 359
#
# _framework density 26.370391000000001
#
# number of rings (size 3 to 8) (size 9 to 14) (size 15 to 20)
#    0.000    2.500    1.250    3.000    7.000    1.000 
#    0.000    3.125    0.000    0.000    0.000    0.000 
#    0.000    0.000    0.000    0.000    0.000    0.000 
#
# Total GULP energy -89314.915816 kJ/mol
# GULP energy per Si atom -5582.182238 kJ/mol
# Density = 2.631037 g / cm^3
# Si number density = 26.370391 Si / 1000 Ang^3
#
#
#
# Elastic Constant Matrix: (Units=GPa)
#
#
# Indices 1 2 3 4 5 6 
#
# 1 79.1596 51.6369 39.2433 -24.6712 33.9385 -17.2721
# 2 51.6369 105.2204 37.8451 -3.8776 22.7563 -5.3230
# 3 39.2433 37.8451 95.3664 11.1797 9.8915 -11.5611
# 4 -24.6712 -3.8776 11.1797 30.9356 -6.6355 18.2508
# 5 33.9385 22.7563 9.8915 -6.6355 55.9625 -8.7000
# 6 -17.2721 -5.3230 -11.5611 18.2508 -8.7000 44.3269
#
#
#
# Elastic Compliance Matrix: (Units=1/GPa)
#
#
# Indices 1 2 3 4 5 6 
#
# 1 0.055204 -0.013140 -0.023235 0.053709 -0.019537 -0.012076
# 2 -0.013140 0.015380 0.000348 -0.008891 0.000694 0.000615
# 3 -0.023235 0.000348 0.024510 -0.033080 0.007638 0.012500
# 4 0.053709 -0.008891 -0.033080 0.102718 -0.016254 -0.034250
# 5 -0.019537 0.000694 0.007638 -0.016254 0.027166 0.006487
# 6 -0.012076 0.000615 0.012500 -0.034250 0.006487 0.036563
#
#
# Mechanical properties :
#
#
# Convention : Reuss Voigt Hill
#
# Bulk Modulus (GPa) = 43.40343 59.68855 51.54599
# Shear Modulus (GPa) = 14.65091 36.31307 25.48199
#
# Velocity S-wave (km/s) = 2.35964 3.71487 3.11193
# Velocity P-wave (km/s) = 4.89068 6.40970 5.70101
#
# Compressibility (1/GPa) = 0.02303965
#
# Stress axis : x y z
#
# Youngs Moduli (GPa) = 18.11476 65.01815 40.79960
#
# Poissons Ratio (x) = 0.85435 0.94800
# Poissons Ratio (y) = 0.23803 -0.01422
# Poissons Ratio (z) = 0.42090 -0.02266
#
# Static dielectric constant tensor:
#      x y z
#    x 2.106740 -0.036260 -0.026770 
#    y -0.036260 2.051750 0.015640 
#    z -0.026770 0.015640 2.135350 
# 
# From -- ./inp_files/404472.got.cif
#   From: 2010.05.17/outbox.cif.g08.bks.cpg/sg2_203_cif.got.tgz:404472.got - 2010.06.03 11:33:40.
