data_PCOD9028684
_publ_section_title
;
Structure prediction by ZEFSAII (Michael W. Deem and Ramdas Pophale) SiO2 
 PCOD9028684
Probable space group: P -1
;
_chemical_formula_sum "Si O2"
_cell_formula_units_Z 14
_cell_length_a 11.112708
_cell_length_b 15.506529
_cell_length_c 8.367668
_cell_angle_alpha 133.211179
_cell_angle_beta 82.858206
_cell_angle_gamma 132.080829
_cell_volume 612.942722
_symmetry_space_group_name_H-M "P -1"
_symmetry_group_IT_number 2
_symmetry_cell_setting 'triclinic'
loop_
_space_group_symop_operation_xyz
x,y,z
-x,-y,-z
loop_
_atom_site_type_symbol
_atom_site_label
_atom_site_fract_x
_atom_site_fract_y
_atom_site_fract_z
Si Si1 0.007012 0.123019 0.051246
Si Si2 0.267869 0.668260 0.826797
Si Si3 0.155140 0.528648 0.304700
Si Si4 0.294058 0.383590 0.079364
Si Si5 0.766274 0.793226 0.436964
Si Si6 0.956294 0.706292 0.443063
Si Si7 0.362774 0.902867 0.557317
O O1 0.863357 0.984978 0.746673
O O2 0.957665 0.190972 0.263188
O O3 0.234570 0.313092 0.181726
O O4 0.000000 0.000000 0.000000
O O5 0.238226 0.601336 0.565276
O O6 0.079010 0.608889 0.821732
O O7 0.226886 0.529784 0.784550
O O8 0.487640 0.903173 0.107209
O O9 0.174875 0.410657 0.091173
O O10 0.292574 0.724267 0.421878
O O11 0.531217 0.597583 0.283002
O O12 0.232502 0.224056 0.775638
O O13 0.877044 0.763128 0.448522
O O14 0.145231 0.797441 0.434221
O O15 0.500000 0.000000 0.500000
#
# Coordination Sequence:
#
# PCOD9028684 Si02
#       7
#     2   2   2   2   2   2   2
#     4  10  22  42  64  93 124 166 213 257 305 372
#     4  10  22  43  67  92 127 162 212 262 311 379
#     4  10  23  42  67  94 125 166 210 257 314 377
#     4  11  23  43  66  94 128 170 207 258 321 366
#     4  10  25  41  65  95 130 165 213 259 313 372
#     4  10  23  42  66  95 126 167 210 260 314 372
#     4  11  26  41  65  99 125 166 209 258 323 375
#
# _framework density 22.840634999999999
#
# number of rings (size 3 to 8) (size 9 to 14) (size 15 to 20)
#    0.000    1.714    1.429    0.857    6.000    6.857 
#    5.143    0.000    0.000    0.000    0.000    0.000 
#    0.000    0.000    0.000    0.000    0.000    0.000 
#
# Total GULP energy -78260.272460 kJ/mol
# GULP energy per Si atom -5590.019461 kJ/mol
# Density = 2.278865 g / cm^3
# Si number density = 22.840635 Si / 1000 Ang^3
#
#
#
# Elastic Constant Matrix: (Units=GPa)
#
#
# Indices 1 2 3 4 5 6 
#
# 1 47.4832 31.0576 0.9098 6.1394 -10.3558 -3.9667
# 2 31.0576 134.1198 1.1042 2.9179 -7.3892 15.2115
# 3 0.9098 1.1042 62.9968 0.6726 -9.3959 8.2251
# 4 6.1394 2.9179 0.6726 35.5942 -1.0814 -13.2204
# 5 -10.3558 -7.3892 -9.3959 -1.0814 22.6171 -0.2190
# 6 -3.9667 15.2115 8.2251 -13.2204 -0.2190 25.5879
#
#
#
# Elastic Compliance Matrix: (Units=1/GPa)
#
#
# Indices 1 2 3 4 5 6 
#
# 1 0.028834 -0.006956 0.000322 -0.001088 0.011089 0.008035
# 2 -0.006956 0.010173 0.001198 -0.003011 0.000404 -0.009063
# 3 0.000322 0.001198 0.018109 -0.003268 0.007827 -0.008105
# 4 -0.001088 -0.003011 -0.003268 0.036571 -0.000882 0.021559
# 5 0.011089 0.000404 0.007827 -0.000882 0.052623 -0.001043
# 6 0.008035 -0.009063 -0.008105 0.021559 -0.001043 0.059450
#
#
# Mechanical properties :
#
#
# Convention : Reuss Voigt Hill
#
# Bulk Modulus (GPa) = 21.62490 34.52698 28.07594
# Shear Modulus (GPa) = 21.54734 30.86172 26.20453
#
# Velocity S-wave (km/s) = 3.07478 3.67982 3.39082
# Velocity P-wave (km/s) = 4.70042 5.76230 5.25823
#
# Compressibility (1/GPa) = 0.04624299
#
# Stress axis : x y z
#
# Youngs Moduli (GPa) = 34.68088 98.30254 55.22218
#
# Poissons Ratio (x) = 0.68382 -0.01779
# Poissons Ratio (y) = 0.24125 -0.06615
# Poissons Ratio (z) = -0.01117 -0.11775
#
# Static dielectric constant tensor:
#      x y z
#    x 1.777660 0.028950 0.015570 
#    y 0.028950 1.754550 -0.065900 
#    z 0.015570 -0.065900 1.913890 
# 
# From -- ./inp_files/28366.got.cif
#   From: 2010.05.17/outbox.cif.g08.bks.cpg/sg2_15_cif.got.tgz:28366.got - 2010.06.03 11:33:40.
