data_PCOD9028457
_publ_section_title
;
Structure prediction by ZEFSAII (Michael W. Deem and Ramdas Pophale) SiO2 
 PCOD9028457
Probable space group: P -1
;
_chemical_formula_sum "Si O2"
_cell_formula_units_Z 14
_cell_length_a 13.413650
_cell_length_b 6.600391
_cell_length_c 14.837502
_cell_angle_alpha 59.414240
_cell_angle_beta 46.242251
_cell_angle_gamma 38.453176
_cell_volume 588.464540
_symmetry_space_group_name_H-M "P -1"
_symmetry_group_IT_number 2
_symmetry_cell_setting 'triclinic'
loop_
_space_group_symop_operation_xyz
x,y,z
-x,-y,-z
loop_
_atom_site_type_symbol
_atom_site_label
_atom_site_fract_x
_atom_site_fract_y
_atom_site_fract_z
Si Si1 0.662602 0.118003 0.298616
Si Si2 0.468071 0.306471 0.883273
Si Si3 0.285981 0.217855 0.289675
Si Si4 0.072353 0.816786 0.091501
Si Si5 0.951101 0.292200 0.408964
Si Si6 0.410366 0.000840 0.452757
Si Si7 0.177596 0.886484 0.194606
O O1 0.582444 0.411466 0.214867
O O2 0.597069 0.943647 0.339852
O O3 0.580415 0.215358 0.430224
O O4 0.890915 0.876697 0.220555
O O5 0.636150 0.187899 0.873018
O O6 0.540910 0.023517 0.833058
O O7 0.276320 0.462027 0.020531
O O8 0.336581 0.031676 0.393577
O O9 0.232609 0.551831 0.260230
O O10 0.105687 0.300062 0.342193
O O11 0.120863 0.944987 0.111566
O O12 0.000000 0.000000 0.000000
O O13 0.746821 0.633416 0.488567
O O14 0.000000 0.000000 0.500000
O O15 0.999153 0.177343 0.301425
#
# Coordination Sequence:
#
# PCOD9028457 Si02
#       7
#     2   2   2   2   2   2   2
#     4  10  22  42  62  92 135 170 213 261 319 381
#     4  10  22  44  66  97 125 170 224 261 316 386
#     4  11  22  38  68  98 129 169 213 266 326 375
#     4  10  23  44  66  92 129 172 217 268 320 377
#     4  11  22  37  63 101 131 166 216 260 321 393
#     4  11  21  40  64  95 138 169 210 265 320 390
#     4  11  22  42  69  94 129 167 216 269 322 373
#
# _framework density 23.790728000000001
#
# number of rings (size 3 to 8) (size 9 to 14) (size 15 to 20)
#    0.000    1.429    2.857    2.571    2.000    1.143 
#   10.286    2.143    0.000    0.000    0.000    0.000 
#    0.000    0.000    0.000    0.000    0.000    0.000 
#
# Total GULP energy -78307.572732 kJ/mol
# GULP energy per Si atom -5593.398052 kJ/mol
# Density = 2.373658 g / cm^3
# Si number density = 23.790728 Si / 1000 Ang^3
#
#
#
# Elastic Constant Matrix: (Units=GPa)
#
#
# Indices 1 2 3 4 5 6 
#
# 1 130.2190 40.7238 64.6426 16.2899 29.9496 -14.1385
# 2 40.7238 79.5207 38.7986 7.6731 2.7373 -0.7471
# 3 64.6426 38.7986 98.5128 7.1531 8.7511 -4.8926
# 4 16.2899 7.6731 7.1531 53.1973 -10.0071 9.8313
# 5 29.9496 2.7373 8.7511 -10.0071 50.6473 -6.6208
# 6 -14.1385 -0.7471 -4.8926 9.8313 -6.6208 29.8684
#
#
#
# Elastic Compliance Matrix: (Units=1/GPa)
#
#
# Indices 1 2 3 4 5 6 
#
# 1 0.015871 -0.003521 -0.007538 -0.006067 -0.008260 0.006356
# 2 -0.003521 0.016458 -0.004396 -0.000091 0.001730 -0.001562
# 3 -0.007538 -0.004396 0.016514 0.001268 0.001967 -0.000954
# 4 -0.006067 -0.000091 0.001268 0.023423 0.006843 -0.008859
# 5 -0.008260 0.001730 0.001967 0.006843 0.025530 -0.000138
# 6 0.006356 -0.001562 -0.000954 -0.008859 -0.000138 0.039179
#
#
# Mechanical properties :
#
#
# Convention : Reuss Voigt Hill
#
# Bulk Modulus (GPa) = 55.76040 66.28694 61.02367
# Shear Modulus (GPa) = 28.75834 37.68177 33.22005
#
# Velocity S-wave (km/s) = 3.48056 3.98412 3.74082
# Velocity P-wave (km/s) = 6.29612 7.00623 6.66065
#
# Compressibility (1/GPa) = 0.01793387
#
# Stress axis : x y z
#
# Youngs Moduli (GPa) = 63.00707 60.76149 60.55333
#
# Poissons Ratio (x) = 0.21392 0.45644
# Poissons Ratio (y) = 0.22183 0.26621
# Poissons Ratio (z) = 0.47494 0.26712
#
# Static dielectric constant tensor:
#      x y z
#    x 1.894890 -0.032890 0.010570 
#    y -0.032890 1.940750 -0.028930 
#    z 0.010570 -0.028930 1.947640 
# 
# From -- ./inp_files/510798.got.cif
#   From: 2010.05.17/outbox.cif.g08.bks.cpg/sg2_256_cif.got.tgz:510798.got - 2010.06.03 11:33:40.
