data_PCOD9028309
_publ_section_title
;
Structure prediction by ZEFSAII (Michael W. Deem and Ramdas Pophale) SiO2 
 PCOD9028309
Probable space group: P -1
;
_chemical_formula_sum "Si O2"
_cell_formula_units_Z 14
_cell_length_a 18.614880
_cell_length_b 11.956124
_cell_length_c 9.267474
_cell_angle_alpha 43.485351
_cell_angle_beta 144.904626
_cell_angle_gamma 154.623425
_cell_volume 507.433615
_symmetry_space_group_name_H-M "P -1"
_symmetry_group_IT_number 2
_symmetry_cell_setting 'triclinic'
loop_
_space_group_symop_operation_xyz
x,y,z
-x,-y,-z
loop_
_atom_site_type_symbol
_atom_site_label
_atom_site_fract_x
_atom_site_fract_y
_atom_site_fract_z
Si Si1 0.108327 0.819581 0.336992
Si Si2 0.810576 0.497095 0.702560
Si Si3 0.052106 0.003760 0.746646
Si Si4 0.331255 0.210997 0.565076
Si Si5 0.163090 0.545746 0.549850
Si Si6 0.609240 0.960906 0.911579
Si Si7 0.407718 0.256513 0.200051
O O1 0.059729 0.608929 0.363757
O O2 0.908788 0.650897 0.259051
O O3 0.274773 0.997483 0.572677
O O4 0.218917 0.051833 0.192167
O O5 0.986056 0.748587 0.852605
O O6 0.863878 0.539429 0.578750
O O7 0.759764 0.263623 0.888245
O O8 0.613109 0.415034 0.468513
O O9 0.877104 0.902372 0.651566
O O10 0.000000 0.000000 0.500000
O O11 0.292801 0.288592 0.897322
O O12 0.500000 0.500000 0.500000
O O13 0.378564 0.178263 0.828632
O O14 0.391906 0.817660 0.703728
O O15 0.604024 0.890271 0.806296
#
# Coordination Sequence:
#
# PCOD9028309 Si02
#       7
#     2   2   2   2   2   2   2
#     4  11  23  45  70 106 150 182 240 305 366 428
#     4  11  23  48  79 107 143 191 251 312 351 432
#     4  12  27  48  72 110 151 196 246 293 367 447
#     4  12  29  49  67 109 154 194 236 298 381 442
#     4  10  22  41  75 109 138 181 242 308 366 410
#     4  11  23  48  75 104 139 192 251 299 358 430
#     4  11  23  47  75 105 141 191 248 294 362 428
#
# _framework density 27.589815999999999
#
# number of rings (size 3 to 8) (size 9 to 14) (size 15 to 20)
#    0.000    0.857    4.286    2.571    2.000    4.571 
#    7.714    0.000    0.000    0.000    0.000    0.000 
#    0.000    0.000    0.000    0.000    0.000    0.000 
#
# Total GULP energy -78131.195645 kJ/mol
# GULP energy per Si atom -5580.799689 kJ/mol
# Density = 2.752702 g / cm^3
# Si number density = 27.589816 Si / 1000 Ang^3
#
#
#
# Elastic Constant Matrix: (Units=GPa)
#
#
# Indices 1 2 3 4 5 6 
#
# 1 120.7796 35.5992 15.3816 6.9520 7.9277 -2.6618
# 2 35.5992 111.7173 19.5752 11.7248 12.9750 -10.8952
# 3 15.3816 19.5752 90.1720 15.8391 11.3424 3.8260
# 4 6.9520 11.7248 15.8391 60.2389 5.9110 -4.6742
# 5 7.9277 12.9750 11.3424 5.9110 29.4475 7.8543
# 6 -2.6618 -10.8952 3.8260 -4.6742 7.8543 40.6528
#
#
#
# Elastic Compliance Matrix: (Units=1/GPa)
#
#
# Indices 1 2 3 4 5 6 
#
# 1 0.009248 -0.002647 -0.000845 -0.000222 -0.000991 0.000142
# 2 -0.002647 0.010990 -0.001403 -0.000746 -0.004419 0.003672
# 3 -0.000845 -0.001403 0.012455 -0.002707 -0.003055 -0.001325
# 4 -0.000222 -0.000746 -0.002707 0.017973 -0.002887 0.002665
# 5 -0.000991 -0.004419 -0.003055 -0.002887 0.040353 -0.009090
# 6 0.000142 0.003672 -0.001325 0.002665 -0.009090 0.027779
#
#
# Mechanical properties :
#
#
# Convention : Reuss Voigt Hill
#
# Bulk Modulus (GPa) = 43.66343 51.53120 47.59732
# Shear Modulus (GPa) = 36.70432 42.87537 39.78985
#
# Velocity S-wave (km/s) = 3.65136 3.94639 3.80174
# Velocity P-wave (km/s) = 5.79973 6.28359 6.04650
#
# Compressibility (1/GPa) = 0.02290246
#
# Stress axis : x y z
#
# Youngs Moduli (GPa) = 108.12872 90.99121 80.29091
#
# Poissons Ratio (x) = 0.24082 0.06788
# Poissons Ratio (y) = 0.28618 0.11267
# Poissons Ratio (z) = 0.09141 0.12768
#
# Static dielectric constant tensor:
#      x y z
#    x 2.279510 0.058380 -0.190460 
#    y 0.058380 2.344520 -0.041680 
#    z -0.190460 -0.041680 2.781320 
# 
# From -- ./inp_files/168667.got.cif
#   From: 2010.05.17/outbox.cif.g08.bks.cpg/sg2_85_cif.got.tgz:168667.got - 2010.06.03 11:33:40.
