data_PCOD9028617
_publ_section_title
;
Structure prediction by ZEFSAII (Michael W. Deem and Ramdas Pophale) SiO2 
 PCOD9028617
Probable space group: P -1
;
_chemical_formula_sum "Si O2"
_cell_formula_units_Z 15
_cell_length_a 11.497152
_cell_length_b 11.906235
_cell_length_c 7.563189
_cell_angle_alpha 128.627622
_cell_angle_beta 128.807205
_cell_angle_gamma 83.660735
_cell_volume 559.211555
_symmetry_space_group_name_H-M "P -1"
_symmetry_group_IT_number 2
_symmetry_cell_setting 'triclinic'
loop_
_space_group_symop_operation_xyz
x,y,z
-x,-y,-z
loop_
_atom_site_type_symbol
_atom_site_label
_atom_site_fract_x
_atom_site_fract_y
_atom_site_fract_z
Si Si1 0.649932 0.663950 0.010542
Si Si2 0.565359 0.842042 0.382655
Si Si3 0.972671 0.085092 0.387676
Si Si4 0.928108 0.132476 0.920905
Si Si5 0.000000 0.500000 0.500000
Si Si6 0.781597 0.233169 0.182800
Si Si7 0.484316 0.711891 0.566585
Si Si8 0.124152 0.630061 0.111851
O O1 0.603822 0.751332 0.889171
O O2 0.572786 0.476058 0.712593
O O3 0.573008 0.693700 0.144444
O O4 0.850469 0.754834 0.307179
O O5 0.553681 0.812068 0.551224
O O6 0.739178 0.992915 0.634138
O O7 0.403599 0.851637 0.155607
O O8 0.825569 0.135684 0.274552
O O9 0.957962 0.955952 0.091238
O O10 0.000000 0.000000 0.500000
O O11 0.938594 0.258291 0.212679
O O12 0.936544 0.236551 0.860623
O O13 0.157743 0.576729 0.573795
O O14 0.136362 0.558626 0.861363
O O15 0.311995 0.716274 0.453809
O O16 0.000000 0.500000 0.000000
#
# Coordination Sequence:
#
# PCOD9028617 Si02
#       8
#     2   2   2   2   1   2   2   2
#     4  10  26  45  64 105 137 179 230 278 345 411
#     4  11  23  45  74  97 137 180 233 284 338 406
#     4  11  26  42  66  99 143 179 222 282 346 405
#     4  10  24  45  66 102 132 182 228 280 343 407
#     4  10  22  42  64 102 134 170 224 278 336 394
#     4  11  23  43  71  98 134 179 230 279 340 404
#     4  11  23  45  71  98 138 183 227 280 344 408
#     4  11  25  41  71 101 138 176 227 283 340 405
#
# _framework density 26.823477
#
# number of rings (size 3 to 8) (size 9 to 14) (size 15 to 20)
#    0.000    1.333    2.667    2.000    7.467    0.000 
#    0.000    2.667    0.000    0.000    0.000    0.000 
#    0.000    0.000    0.000    0.000    0.000    0.000 
#
# Total GULP energy -83752.142379 kJ/mol
# GULP energy per Si atom -5583.476159 kJ/mol
# Density = 2.676243 g / cm^3
# Si number density = 26.823477 Si / 1000 Ang^3
#
#
#
# Elastic Constant Matrix: (Units=GPa)
#
#
# Indices 1 2 3 4 5 6 
#
# 1 103.2138 50.6788 25.4537 -2.7881 -2.3135 1.9131
# 2 50.6788 165.7450 60.4131 -12.6601 16.1672 28.9473
# 3 25.4537 60.4131 97.4172 -22.4722 28.5827 -4.6036
# 4 -2.7881 -12.6601 -22.4722 54.4454 -2.0637 -4.1375
# 5 -2.3135 16.1672 28.5827 -2.0637 45.6121 -2.5072
# 6 1.9131 28.9473 -4.6036 -4.1375 -2.5072 48.9259
#
#
#
# Elastic Compliance Matrix: (Units=1/GPa)
#
#
# Indices 1 2 3 4 5 6 
#
# 1 0.011946 -0.003594 -0.001916 -0.000777 0.003132 0.001574
# 2 -0.003594 0.010425 -0.005815 -0.000691 -0.000631 -0.006665
# 3 -0.001916 -0.005815 0.018804 0.006367 -0.009237 0.005350
# 4 -0.000777 -0.000691 0.006367 0.020895 -0.002693 0.002667
# 5 0.003132 -0.000631 -0.009237 -0.002693 0.028006 0.000589
# 6 0.001574 -0.006665 0.005350 0.002667 0.000589 0.025080
#
#
# Mechanical properties :
#
#
# Convention : Reuss Voigt Hill
#
# Bulk Modulus (GPa) = 53.98311 71.05190 62.51751
# Shear Modulus (GPa) = 34.72699 45.11871 39.92285
#
# Velocity S-wave (km/s) = 3.60203 4.10574 3.86211
# Velocity P-wave (km/s) = 6.12115 7.00160 6.57612
#
# Compressibility (1/GPa) = 0.01852431
#
# Stress axis : x y z
#
# Youngs Moduli (GPa) = 83.71124 95.92708 53.18051
#
# Poissons Ratio (x) = 0.34474 0.10191
# Poissons Ratio (y) = 0.30084 0.30924
# Poissons Ratio (z) = 0.16041 0.55781
#
# Static dielectric constant tensor:
#      x y z
#    x 2.170090 0.498260 0.161810 
#    y 0.498260 -1.020120 -2.411740 
#    z 0.161810 -2.411740 0.509960 
# 
# From -- ./inp_files/260814.got.cif
#   From: 2010.05.17/outbox.cif.g08.bks.cpg/sg2_131_cif.got.tgz:260814.got - 2010.06.03 11:33:40.
