data_PCOD9028320
_publ_section_title
;
Structure prediction by ZEFSAII (Michael W. Deem and Ramdas Pophale) SiO2 
 PCOD9028320
Probable space group: P -1
;
_chemical_formula_sum "Si O2"
_cell_formula_units_Z 12
_cell_length_a 10.000859
_cell_length_b 16.762366
_cell_length_c 12.038266
_cell_angle_alpha 36.332254
_cell_angle_beta 141.990480
_cell_angle_gamma 155.007888
_cell_volume 491.525045
_symmetry_space_group_name_H-M "P -1"
_symmetry_group_IT_number 2
_symmetry_cell_setting 'triclinic'
loop_
_space_group_symop_operation_xyz
x,y,z
-x,-y,-z
loop_
_atom_site_type_symbol
_atom_site_label
_atom_site_fract_x
_atom_site_fract_y
_atom_site_fract_z
Si Si1 0.376522 0.411921 0.744789
Si Si2 0.309132 0.606247 0.226302
Si Si3 0.336707 0.288805 0.086285
Si Si4 0.747232 0.231479 0.429326
Si Si5 0.376251 0.192699 0.552253
Si Si6 0.419678 0.000907 0.072270
O O1 0.535087 0.426423 0.720737
O O2 0.394571 0.312373 0.965245
O O3 0.535536 0.624779 0.650152
O O4 0.009313 0.286392 0.620593
O O5 0.524010 0.729560 0.340849
O O6 0.971771 0.395251 0.292322
O O7 0.327827 0.761229 0.003662
O O8 0.948059 0.114731 0.037553
O O9 0.500000 0.500000 0.000000
O O10 0.526426 0.251901 0.304132
O O11 0.500000 0.000000 0.500000
O O12 0.544626 0.128627 0.700963
O O13 0.000000 0.000000 0.500000
O O14 0.500000 0.000000 0.000000
#
# Coordination Sequence:
#
# PCOD9028320 Si02
#       6
#     2   2   2   2   2   2
#     4  11  26  49  69 110 147 184 242 293 348 434
#     4  10  23  48  72 103 147 183 241 292 346 440
#     4  12  27  46  72 104 148 188 234 299 360 414
#     4  11  25  47  75 105 142 187 236 295 362 416
#     4  10  22  41  76 106 134 187 237 287 353 418
#     4  10  23  45  71  99 142 181 239 289 348 427
#
# _framework density 24.413813000000001
#
# number of rings (size 3 to 8) (size 9 to 14) (size 15 to 20)
#    0.000    1.333    0.000    6.000    7.000    7.333 
#    9.000    0.000    0.000    0.000    0.000    0.000 
#    0.000    0.000    0.000    0.000    0.000    0.000 
#
# Total GULP energy -67112.489628 kJ/mol
# GULP energy per Si atom -5592.707469 kJ/mol
# Density = 2.435825 g / cm^3
# Si number density = 24.413813 Si / 1000 Ang^3
#
#
#
# Elastic Constant Matrix: (Units=GPa)
#
#
# Indices 1 2 3 4 5 6 
#
# 1 120.6390 44.9933 51.2354 -3.5215 16.0562 12.2382
# 2 44.9933 184.5957 32.9306 -12.7630 16.4427 1.4560
# 3 51.2354 32.9306 106.8212 0.1327 25.9832 -5.4675
# 4 -3.5215 -12.7630 0.1327 46.0296 -3.9172 15.8686
# 5 16.0562 16.4427 25.9832 -3.9172 50.3699 -8.1506
# 6 12.2382 1.4560 -5.4675 15.8686 -8.1506 26.6074
#
#
#
# Elastic Compliance Matrix: (Units=1/GPa)
#
#
# Indices 1 2 3 4 5 6 
#
# 1 0.012587 -0.001570 -0.005593 0.003707 -0.001887 -0.009642
# 2 -0.001570 0.006217 -0.000968 0.001971 -0.001091 -0.001327
# 3 -0.005593 -0.000968 0.013684 -0.003177 -0.004231 0.006036
# 4 0.003707 0.001971 -0.003177 0.029506 -0.001198 -0.020430
# 5 -0.001887 -0.001091 -0.004231 -0.001198 0.024226 0.008194
# 6 -0.009642 -0.001327 0.006036 -0.020430 0.008194 0.058026
#
#
# Mechanical properties :
#
#
# Convention : Reuss Voigt Hill
#
# Bulk Modulus (GPa) = 61.62820 74.48606 68.05713
# Shear Modulus (GPa) = 30.13578 43.46116 36.79847
#
# Velocity S-wave (km/s) = 3.51718 4.22380 3.88658
# Velocity P-wave (km/s) = 6.46468 7.37315 6.93381
#
# Compressibility (1/GPa) = 0.01622634
#
# Stress axis : x y z
#
# Youngs Moduli (GPa) = 79.44496 160.86081 73.07646
#
# Poissons Ratio (x) = 0.25254 0.40868
# Poissons Ratio (y) = 0.12472 0.07077
# Poissons Ratio (z) = 0.44430 0.15579
#
# Static dielectric constant tensor:
#      x y z
#    x 1.984610 0.008540 -0.070050 
#    y 0.008540 1.887240 -0.035330 
#    z -0.070050 -0.035330 2.049510 
# 
# From -- ./inp_files/524072.got.cif
#   From: 2010.05.17/outbox.cif.g08.bks.cpg/sg2_263_cif.got.tgz:524072.got - 2010.06.03 11:33:40.
