data_PCOD9028183
_publ_section_title
;
Structure prediction by ZEFSAII (Michael W. Deem and Ramdas Pophale) SiO2 
 PCOD9028183
Probable space group: P -1
;
_chemical_formula_sum "Si O2"
_cell_formula_units_Z 16
_cell_length_a 9.160952
_cell_length_b 10.393238
_cell_length_c 11.775887
_cell_angle_alpha 58.139870
_cell_angle_beta 130.117395
_cell_angle_gamma 121.866069
_cell_volume 697.125760
_symmetry_space_group_name_H-M "P -1"
_symmetry_group_IT_number 2
_symmetry_cell_setting 'triclinic'
loop_
_space_group_symop_operation_xyz
x,y,z
-x,-y,-z
loop_
_atom_site_type_symbol
_atom_site_label
_atom_site_fract_x
_atom_site_fract_y
_atom_site_fract_z
Si Si1 0.819690 0.851395 0.498899
Si Si2 0.791097 0.771518 0.822475
Si Si3 0.010832 0.635405 0.559120
Si Si4 0.861726 0.324316 0.037112
Si Si5 0.720619 0.494341 0.081351
Si Si6 0.426436 0.702017 0.289116
Si Si7 0.267028 0.963651 0.419975
Si Si8 0.408942 0.578038 0.585651
O O1 0.638236 0.833029 0.329314
O O2 0.740048 0.906646 0.548374
O O3 0.900681 0.703198 0.576475
O O4 0.000000 0.000000 0.500000
O O5 0.811154 0.956369 0.763585
O O6 0.562767 0.677990 0.709762
O O7 0.971282 0.766095 0.828661
O O8 0.817755 0.665237 0.991981
O O9 0.149211 0.544761 0.733241
O O10 0.816875 0.522908 0.449779
O O11 0.142173 0.789017 0.481400
O O12 0.725620 0.355290 0.057347
O O13 0.729844 0.261732 0.889912
O O14 0.000000 0.500000 0.000000
O O15 0.500000 0.500000 0.000000
O O16 0.378010 0.672280 0.412283
O O17 0.469295 0.542138 0.339433
O O18 0.500000 0.000000 0.500000
#
# Coordination Sequence:
#
# PCOD9028183 Si02
#       8
#     2   2   2   2   2   2   2   2
#     4   9  19  36  64  88 118 159 212 251 304 354
#     4  11  21  38  67  92 116 163 212 248 304 369
#     4  10  22  39  64  89 124 159 207 255 305 363
#     4  10  19  34  60  92 122 156 204 252 303 362
#     4  11  22  37  56  90 128 161 193 250 315 362
#     4  10  17  31  61  96 119 151 207 261 303 353
#     4  11  22  40  61  88 123 165 203 249 311 369
#     4  10  18  32  63  95 119 147 210 266 298 349
#
# _framework density 22.951384000000001
#
# number of rings (size 3 to 8) (size 9 to 14) (size 15 to 20)
#    0.000    1.750    3.750    3.000    1.750    0.000 
#    0.000    2.500    5.500    6.000    0.000    0.000 
#    0.000    0.000    0.000    0.000    0.000    0.000 
#
# Total GULP energy -89098.291663 kJ/mol
# GULP energy per Si atom -5568.643229 kJ/mol
# Density = 2.289915 g / cm^3
# Si number density = 22.951384 Si / 1000 Ang^3
#
#
#
# Elastic Constant Matrix: (Units=GPa)
#
#
# Indices 1 2 3 4 5 6 
#
# 1 147.6613 29.0313 64.2934 -3.0547 28.2104 15.6813
# 2 29.0313 92.6610 67.6264 -5.2343 6.5718 23.9168
# 3 64.2934 67.6264 145.9114 -3.4040 21.0975 3.4583
# 4 -3.0547 -5.2343 -3.4040 39.1635 1.9761 5.9812
# 5 28.2104 6.5718 21.0975 1.9761 42.0307 0.3980
# 6 15.6813 23.9168 3.4583 5.9812 0.3980 35.5799
#
#
#
# Elastic Compliance Matrix: (Units=1/GPa)
#
#
# Indices 1 2 3 4 5 6 
#
# 1 0.009810 0.001963 -0.004380 0.001718 -0.004722 -0.005453
# 2 0.001963 0.022301 -0.010806 0.004545 0.000553 -0.015576
# 3 -0.004380 -0.010806 0.013898 -0.001705 -0.002343 0.008156
# 4 0.001718 0.004545 -0.001705 0.027499 -0.002223 -0.008245
# 5 -0.004722 0.000553 -0.002343 -0.002223 0.028137 0.001996
# 6 -0.005453 -0.015576 0.008156 -0.008245 0.001996 0.041550
#
#
# Mechanical properties :
#
#
# Convention : Reuss Voigt Hill
#
# Bulk Modulus (GPa) = 51.11829 78.68176 64.90002
# Shear Modulus (GPa) = 28.38285 38.37366 33.37826
#
# Velocity S-wave (km/s) = 3.52042 4.09339 3.81767
# Velocity P-wave (km/s) = 6.23260 7.52977 6.91168
#
# Compressibility (1/GPa) = 0.01956247
#
# Stress axis : x y z
#
# Youngs Moduli (GPa) = 101.93226 44.84045 71.95485
#
# Poissons Ratio (x) = -0.08801 0.31520
# Poissons Ratio (y) = -0.20008 0.77753
# Poissons Ratio (z) = 0.44651 0.48454
#
# Static dielectric constant tensor:
#      x y z
#    x 2.340130 -0.101200 -0.206240 
#    y -0.101200 1.872750 -0.008190 
#    z -0.206240 -0.008190 2.010770 
# 
# From -- ./inp_files/389588.got.cif
#   From: 2010.05.17/outbox.cif.g08.bks.cpg/sg2_195_cif.got.tgz:389588.got - 2010.06.03 11:33:40.
