data_PCOD9028157
_publ_section_title
;
Structure prediction by ZEFSAII (Michael W. Deem and Ramdas Pophale) SiO2 
 PCOD9028157
Probable space group: P -1
;
_chemical_formula_sum "Si O2"
_cell_formula_units_Z 16
_cell_length_a 11.178030
_cell_length_b 20.171765
_cell_length_c 8.673650
_cell_angle_alpha 138.306607
_cell_angle_beta 110.639184
_cell_angle_gamma 36.191042
_cell_volume 592.164495
_symmetry_space_group_name_H-M "P -1"
_symmetry_group_IT_number 2
_symmetry_cell_setting 'triclinic'
loop_
_space_group_symop_operation_xyz
x,y,z
-x,-y,-z
loop_
_atom_site_type_symbol
_atom_site_label
_atom_site_fract_x
_atom_site_fract_y
_atom_site_fract_z
Si Si1 0.018113 0.100502 0.736234
Si Si2 0.836024 0.297834 0.694876
Si Si3 0.608643 0.090357 0.849986
Si Si4 0.751210 0.532406 0.885356
Si Si5 0.600048 0.731695 0.437881
Si Si6 0.115403 0.673498 0.700817
Si Si7 0.395501 0.734939 0.618555
Si Si8 0.777095 0.737729 0.792484
O O1 0.832898 0.286906 0.857694
O O2 0.324520 0.919944 0.550949
O O3 0.000000 0.000000 0.500000
O O4 0.943293 0.174371 0.007946
O O5 0.647167 0.507901 0.895276
O O6 0.785540 0.224840 0.469560
O O7 0.137093 0.123929 0.492939
O O8 0.427291 0.277541 0.975651
O O9 0.706763 0.102095 0.045296
O O10 0.425158 0.138360 0.944102
O O11 0.923104 0.352315 0.526347
O O12 0.820049 0.555181 0.104455
O O13 0.560899 0.674539 0.451955
O O14 0.645919 0.798802 0.675116
O O15 0.413430 0.451176 0.498665
O O16 0.929918 0.735648 0.837852
O O17 0.000000 0.500000 0.500000
#
# Coordination Sequence:
#
# PCOD9028157 Si02
#       8
#     2   2   2   2   2   2   2   2
#     4  12  27  45  72 105 153 190 243 299 366 436
#     4  12  25  41  70 105 150 188 242 299 360 437
#     4  10  23  45  67 108 144 188 241 302 366 420
#     4  11  25  43  70 110 146 184 247 296 368 425
#     4  11  23  44  71 106 142 195 234 297 367 419
#     4  11  26  47  71 111 137 197 248 293 365 441
#     4  10  22  41  71  98 144 191 238 289 368 432
#     4  11  22  48  79  97 147 194 246 295 360 440
#
# _framework density 27.019517
#
# number of rings (size 3 to 8) (size 9 to 14) (size 15 to 20)
#    0.000    1.000    6.250    1.125    5.250    5.000 
#    0.000    0.625    0.000    0.000    0.000    0.000 
#    0.000    0.000    0.000    0.000    0.000    0.000 
#
# Total GULP energy -89471.053620 kJ/mol
# GULP energy per Si atom -5591.940851 kJ/mol
# Density = 2.695802 g / cm^3
# Si number density = 27.019517 Si / 1000 Ang^3
#
#
#
# Elastic Constant Matrix: (Units=GPa)
#
#
# Indices 1 2 3 4 5 6 
#
# 1 73.6989 34.1661 17.6486 -4.7134 -8.8488 1.5656
# 2 34.1661 109.9509 -3.6739 -9.6883 -0.7884 23.4365
# 3 17.6486 -3.6739 127.7520 -22.2990 -12.4699 12.8517
# 4 -4.7134 -9.6883 -22.2990 35.6412 5.6556 -2.8183
# 5 -8.8488 -0.7884 -12.4699 5.6556 37.3746 1.7667
# 6 1.5656 23.4365 12.8517 -2.8183 1.7667 42.1566
#
#
#
# Elastic Compliance Matrix: (Units=1/GPa)
#
#
# Indices 1 2 3 4 5 6 
#
# 1 0.017418 -0.006373 -0.002900 -0.001450 0.003073 0.003555
# 2 -0.006373 0.013115 0.002638 0.003865 -0.000579 -0.007576
# 3 -0.002900 0.002638 0.009940 0.005916 0.001983 -0.004077
# 4 -0.001450 0.003865 0.005916 0.033004 -0.003209 -0.001558
# 5 0.003073 -0.000579 0.001983 -0.003209 0.028704 -0.001814
# 6 0.003555 -0.007576 -0.004077 -0.001558 -0.001814 0.029016
#
#
# Mechanical properties :
#
#
# Convention : Reuss Voigt Hill
#
# Bulk Modulus (GPa) = 36.76070 45.29814 41.02942
# Shear Modulus (GPa) = 32.56578 40.58521 36.57549
#
# Velocity S-wave (km/s) = 3.47546 3.87986 3.68322
# Velocity P-wave (km/s) = 5.45343 6.07227 5.77115
#
# Compressibility (1/GPa) = 0.02720297
#
# Stress axis : x y z
#
# Youngs Moduli (GPa) = 57.41044 76.25042 100.59884
#
# Poissons Ratio (x) = 0.48594 0.29176
# Poissons Ratio (y) = 0.36587 -0.26537
# Poissons Ratio (z) = 0.16651 -0.20114
#
# Static dielectric constant tensor:
#      x y z
#    x 2.098150 0.012020 -0.000780 
#    y 0.012020 2.129310 0.038720 
#    z -0.000780 0.038720 2.192230 
# 
# From -- ./inp_files/283398.got.cif
#   From: 2010.05.17/outbox.cif.g08.bks.cpg/sg2_142_cif.got.tgz:283398.got - 2010.06.03 11:33:40.
