data_PCOD9028961
_publ_section_title
;
Structure prediction by ZEFSAII (Michael W. Deem and Ramdas Pophale) SiO2 
 PCOD9028961
Probable space group: P -1
;
_chemical_formula_sum "Si O2"
_cell_formula_units_Z 14
_cell_length_a 16.604552
_cell_length_b 11.363171
_cell_length_c 5.335389
_cell_angle_alpha 125.341298
_cell_angle_beta 52.937521
_cell_angle_gamma 132.302348
_cell_volume 568.091898
_symmetry_space_group_name_H-M "P -1"
_symmetry_group_IT_number 2
_symmetry_cell_setting 'triclinic'
loop_
_space_group_symop_operation_xyz
x,y,z
-x,-y,-z
loop_
_atom_site_type_symbol
_atom_site_label
_atom_site_fract_x
_atom_site_fract_y
_atom_site_fract_z
Si Si1 0.425794 0.245257 0.784236
Si Si2 0.039846 0.291062 0.268058
Si Si3 0.201881 0.904151 0.261995
Si Si4 0.096435 0.621927 0.771566
Si Si5 0.570637 0.377292 0.154785
Si Si6 0.390480 0.917899 0.296455
Si Si7 0.250530 0.241787 0.749014
O O1 0.501108 0.312616 0.467433
O O2 0.303317 0.225150 0.896220
O O3 0.413588 0.063867 0.627865
O O4 0.489176 0.357140 0.043154
O O5 0.121002 0.485617 0.430981
O O6 0.935085 0.179385 0.516851
O O7 0.969407 0.309753 0.193193
O O8 0.121509 0.213725 0.974785
O O9 0.275744 0.885102 0.321515
O O10 0.250733 0.100943 0.396846
O O11 0.201043 0.783863 0.898723
O O12 0.000000 0.500000 0.000000
O O13 0.667708 0.567365 0.244914
O O14 0.619941 0.256576 0.835588
O O15 0.500000 0.000000 0.000000
#
# Coordination Sequence:
#
# PCOD9028961 Si02
#       7
#     2   2   2   2   2   2   2
#     4  10  23  47  64 100 139 178 226 286 338 405
#     4  10  22  42  65  97 128 174 227 271 340 402
#     4  10  22  45  62  96 137 170 222 280 337 403
#     4   9  21  41  66  90 133 169 223 280 327 395
#     4  11  23  43  68 100 136 179 230 282 338 404
#     4   9  21  41  68  97 130 177 232 277 340 403
#     4  11  24  41  66  98 135 176 219 277 347 406
#
# _framework density 24.643899999999999
#
# number of rings (size 3 to 8) (size 9 to 14) (size 15 to 20)
#    0.000    2.000    0.000    1.714    6.000    2.857 
#   25.714    0.000    0.000    0.000    0.000    0.000 
#    0.000    0.000    0.000    0.000    0.000    0.000 
#
# Total GULP energy -78267.828121 kJ/mol
# GULP energy per Si atom -5590.559152 kJ/mol
# Density = 2.458781 g / cm^3
# Si number density = 24.643900 Si / 1000 Ang^3
#
#
#
# Elastic Constant Matrix: (Units=GPa)
#
#
# Indices 1 2 3 4 5 6 
#
# 1 -2.0647 50.8658 55.3274 24.7999 -22.7825 -11.8356
# 2 50.8658 135.7928 40.0968 28.3745 9.0820 11.1155
# 3 55.3274 40.0968 97.3299 32.7365 -4.5784 7.5446
# 4 24.7999 28.3745 32.7365 56.7558 -0.9212 1.4982
# 5 -22.7825 9.0820 -4.5784 -0.9212 51.8914 7.8796
# 6 -11.8356 11.1155 7.5446 1.4982 7.8796 37.2565
#
#
#
# Elastic Compliance Matrix: (Units=1/GPa)
#
#
# Indices 1 2 3 4 5 6 
#
# 1 -0.017692 0.005210 0.007949 0.000624 -0.006849 -0.007361
# 2 0.005210 0.007479 -0.005007 -0.003134 0.000409 0.000477
# 3 0.007949 -0.005007 0.010262 -0.006840 0.004974 0.001164
# 4 0.000624 -0.003134 -0.006840 0.022825 0.000394 0.001517
# 5 -0.006849 0.000409 0.004974 0.000394 0.017711 -0.007067
# 6 -0.007361 0.000477 0.001164 0.001517 -0.007067 0.025558
#
#
# Mechanical properties :
#
#
# Convention : Reuss Voigt Hill
#
# Bulk Modulus (GPa) = 61.14270 58.18200 59.66235
# Shear Modulus (GPa) = 90.43199 34.83193 62.63196
#
# Velocity S-wave (km/s) = 6.06425 3.76361 5.04678
# Velocity P-wave (km/s) = 8.59639 6.52278 7.63035
#
# Compressibility (1/GPa) = 0.01635518
#
# Stress axis : x y z
#
# Youngs Moduli (GPa) = -56.52250 133.70159 97.44287
#
# Poissons Ratio (x) = -0.69661 -0.77459
# Poissons Ratio (y) = 0.29449 0.48786
# Poissons Ratio (z) = 0.44931 0.66940
#
# Static dielectric constant tensor:
#      x y z
#    x 1.903260 -0.004710 0.005610 
#    y -0.004710 2.007660 -0.028500 
#    z 0.005610 -0.028500 2.000410 
# 
# From -- ./inp_files/95597.got.cif
#   From: 2010.05.17/outbox.cif.g08.bks.cpg/sg2_48_cif.got.tgz:95597.got - 2010.06.03 11:33:40.
