data_PCOD9028735
_publ_section_title
;
Structure prediction by ZEFSAII (Michael W. Deem and Ramdas Pophale) SiO2 
 PCOD9028735
Probable space group: P -1
;
_chemical_formula_sum "Si O2"
_cell_formula_units_Z 13
_cell_length_a 13.715660
_cell_length_b 11.528987
_cell_length_c 11.989263
_cell_angle_alpha 140.566843
_cell_angle_beta 151.691278
_cell_angle_gamma 31.778289
_cell_volume 471.287861
_symmetry_space_group_name_H-M "P -1"
_symmetry_group_IT_number 2
_symmetry_cell_setting 'triclinic'
loop_
_space_group_symop_operation_xyz
x,y,z
-x,-y,-z
loop_
_atom_site_type_symbol
_atom_site_label
_atom_site_fract_x
_atom_site_fract_y
_atom_site_fract_z
Si Si1 0.207695 0.491230 0.400507
Si Si2 0.898302 0.850875 0.018487
Si Si3 0.625119 0.565245 0.823668
Si Si4 0.200937 0.041854 0.683423
Si Si5 0.000000 0.000000 0.000000
Si Si6 0.374418 0.204096 0.802041
Si Si7 0.434208 0.355397 0.753498
O O1 0.240576 0.262225 0.245688
O O2 0.425786 0.504279 0.582539
O O3 0.229216 0.504207 0.565538
O O4 0.949209 0.696615 0.241809
O O5 0.983441 0.931242 0.061240
O O6 0.677368 0.056728 0.016243
O O7 0.146146 0.640056 0.163987
O O8 0.468747 0.820024 0.815929
O O9 0.710631 0.579948 0.047146
O O10 0.256024 0.078312 0.637820
O O11 0.000000 0.000000 0.500000
O O12 0.688852 0.165615 0.810274
O O13 0.335432 0.259676 0.673855
O O14 0.500000 0.500000 0.000000
#
# Coordination Sequence:
#
# PCOD9028735 Si02
#       7
#     2   2   2   2   1   2   2
#     4  11  23  44  71 101 137 182 220 283 339 396
#     4  11  24  43  69 104 136 180 226 273 343 403
#     4  11  22  49  68  94 148 176 221 289 334 391
#     4  10  24  45  69  99 137 183 228 279 336 399
#     4  10  22  42  64  96 146 172 208 284 340 392
#     4  11  23  42  71 100 130 187 225 270 348 401
#     4  11  22  43  68  99 136 174 226 275 340 407
#
# _framework density 27.58399
#
# number of rings (size 3 to 8) (size 9 to 14) (size 15 to 20)
#    0.000    1.231    4.615    0.462    0.000    3.692 
#    8.308    1.538    0.000    0.000    0.000    0.000 
#    0.000    0.000    0.000    0.000    0.000    0.000 
#
# Total GULP energy -72403.013558 kJ/mol
# GULP energy per Si atom -5569.462581 kJ/mol
# Density = 2.752121 g / cm^3
# Si number density = 27.583990 Si / 1000 Ang^3
#
#
#
# Elastic Constant Matrix: (Units=GPa)
#
#
# Indices 1 2 3 4 5 6 
#
# 1 188.2771 57.8179 40.5032 -1.1554 44.2125 5.2879
# 2 57.8179 107.8195 17.3542 -42.6144 1.4297 3.4289
# 3 40.5032 17.3542 82.5516 -20.1968 2.6527 4.5206
# 4 -1.1554 -42.6144 -20.1968 54.3409 0.0720 7.7557
# 5 44.2125 1.4297 2.6527 0.0720 42.3336 -3.1831
# 6 5.2879 3.4289 4.5206 7.7557 -3.1831 41.1318
#
#
#
# Elastic Compliance Matrix: (Units=1/GPa)
#
#
# Indices 1 2 3 4 5 6 
#
# 1 0.012015 -0.008915 -0.005876 -0.008993 -0.011817 0.000626
# 2 -0.008915 0.020500 0.004439 0.018074 0.008021 -0.003838
# 3 -0.005876 0.004439 0.016494 0.009898 0.004716 -0.002929
# 4 -0.008993 0.018074 0.009898 0.037176 0.007507 -0.007867
# 5 -0.011817 0.008021 0.004716 0.007507 0.035509 0.001665
# 6 0.000626 -0.003838 -0.002929 -0.007867 0.001665 0.026486
#
#
# Mechanical properties :
#
#
# Convention : Reuss Voigt Hill
#
# Bulk Modulus (GPa) = 35.32958 67.77767 51.55363
# Shear Modulus (GPa) = 28.03958 45.09279 36.56618
#
# Velocity S-wave (km/s) = 3.19174 4.04758 3.64487
# Velocity P-wave (km/s) = 5.13992 6.81679 6.03686
#
# Compressibility (1/GPa) = 0.02830489
#
# Stress axis : x y z
#
# Youngs Moduli (GPa) = 83.22771 48.78046 60.62865
#
# Poissons Ratio (x) = 0.43488 0.35624
# Poissons Ratio (y) = 0.74198 -0.26912
# Poissons Ratio (z) = 0.48903 -0.21652
#
# Static dielectric constant tensor:
#      x y z
#    x 2.158870 0.048820 -0.020310 
#    y 0.048820 2.162230 -0.051180 
#    z -0.020310 -0.051180 2.241030 
# 
# From -- ./inp_files/521137.got.cif
#   From: 2010.05.17/outbox.cif.g08.bks.cpg/sg2_261_cif.got.tgz:521137.got - 2010.06.03 11:33:40.
