data_PCOD9028015
_publ_section_title
;
Structure prediction by ZEFSAII (Michael W. Deem and Ramdas Pophale) SiO2 
 PCOD9028015
Probable space group: P -1
;
_chemical_formula_sum "Si O2"
_cell_formula_units_Z 16
_cell_length_a 12.107678
_cell_length_b 7.301848
_cell_length_c 11.743265
_cell_angle_alpha 71.445677
_cell_angle_beta 90.218300
_cell_angle_gamma 135.577426
_cell_volume 648.678995
_symmetry_space_group_name_H-M "P -1"
_symmetry_group_IT_number 2
_symmetry_cell_setting 'triclinic'
loop_
_space_group_symop_operation_xyz
x,y,z
-x,-y,-z
loop_
_atom_site_type_symbol
_atom_site_label
_atom_site_fract_x
_atom_site_fract_y
_atom_site_fract_z
Si Si1 0.008198 0.728869 0.026354
Si Si2 0.350563 0.453496 0.213326
Si Si3 0.018093 0.980832 0.195244
Si Si4 0.433948 0.483048 0.625119
Si Si5 0.615438 0.835645 0.969024
Si Si6 0.239984 0.606336 0.574234
Si Si7 0.632083 0.184310 0.712889
Si Si8 0.742706 0.130819 0.256318
O O1 0.944714 0.782953 0.120766
O O2 0.882978 0.387457 0.117472
O O3 0.203622 0.963574 0.013119
O O4 0.973371 0.789805 0.895864
O O5 0.438596 0.404733 0.297447
O O6 0.274598 0.512043 0.286708
O O7 0.208330 0.183604 0.185853
O O8 0.493141 0.753748 0.083916
O O9 0.914179 0.746668 0.342711
O O10 0.500000 0.500000 0.500000
O O11 0.389016 0.648412 0.594881
O O12 0.282307 0.130960 0.708099
O O13 0.633727 0.006054 0.831738
O O14 0.500000 0.500000 0.000000
O O15 0.278810 0.731524 0.424042
O O16 0.215069 0.743331 0.639505
O O17 0.440043 0.008728 0.733357
#
# Coordination Sequence:
#
# PCOD9028015 Si02
#       8
#     2   2   2   2   2   2   2   2
#     4  10  22  43  65 103 131 172 233 282 334 398
#     4  11  23  43  66  98 135 173 226 284 328 407
#     4  10  22  41  70  97 135 181 221 277 346 396
#     4  11  23  43  68 105 132 180 229 264 340 406
#     4  12  25  41  69  98 129 175 226 281 337 400
#     4  11  23  44  69  98 138 185 219 278 343 400
#     4  11  25  43  62  99 137 174 226 274 342 401
#     4  10  23  42  71  98 138 177 226 282 329 405
#
# _framework density 24.665512
#
# number of rings (size 3 to 8) (size 9 to 14) (size 15 to 20)
#    0.000    1.250    3.750    2.250    5.250    2.500 
#    2.250    5.000    0.000    0.000    0.000    0.000 
#    0.000    0.000    0.000    0.000    0.000    0.000 
#
# Total GULP energy -89443.697874 kJ/mol
# GULP energy per Si atom -5590.231117 kJ/mol
# Density = 2.460937 g / cm^3
# Si number density = 24.665512 Si / 1000 Ang^3
#
#
#
# Elastic Constant Matrix: (Units=GPa)
#
#
# Indices 1 2 3 4 5 6 
#
# 1 39.6524 0.1359 25.3761 3.9565 10.4457 -3.2625
# 2 0.1359 73.7639 28.5399 -0.2136 -0.7081 -4.8630
# 3 25.3761 28.5399 175.6615 -2.7748 7.5357 25.2376
# 4 3.9565 -0.2136 -2.7748 33.1168 2.3121 -5.6328
# 5 10.4457 -0.7081 7.5357 2.3121 40.1603 -7.3632
# 6 -3.2625 -4.8630 25.2376 -5.6328 -7.3632 39.3084
#
#
#
# Elastic Compliance Matrix: (Units=1/GPa)
#
#
# Indices 1 2 3 4 5 6 
#
# 1 0.030838 0.002231 -0.005282 -0.002898 -0.005963 0.004694
# 2 0.002231 0.015219 -0.003497 0.000234 0.001168 0.004565
# 3 -0.005282 -0.003497 0.007977 0.000316 -0.001339 -0.006198
# 4 -0.002898 0.000234 0.000316 0.031276 -0.000369 0.003998
# 5 -0.005963 0.001168 -0.001339 -0.000369 0.027782 0.005661
# 6 0.004694 0.004565 -0.006198 0.003998 0.005661 0.032007
#
#
# Mechanical properties :
#
#
# Convention : Reuss Voigt Hill
#
# Bulk Modulus (GPa) = 24.42789 44.13128 34.27958
# Shear Modulus (GPa) = 29.09675 38.18549 33.64112
#
# Velocity S-wave (km/s) = 3.43833 3.93890 3.69710
# Velocity P-wave (km/s) = 5.06833 6.21428 5.67033
#
# Compressibility (1/GPa) = 0.04093681
#
# Stress axis : x y z
#
# Youngs Moduli (GPa) = 32.42776 65.70903 125.36256
#
# Poissons Ratio (x) = -0.14657 0.66212
# Poissons Ratio (y) = -0.07233 0.43841
# Poissons Ratio (z) = 0.17127 0.22979
#
# Static dielectric constant tensor:
#      x y z
#    x 2.040450 -0.077990 -0.084590 
#    y -0.077990 2.011840 0.000270 
#    z -0.084590 0.000270 2.001120 
# 
# From -- ./inp_files/445659.got.cif
#   From: 2010.05.17/outbox.cif.g08.bks.cpg/sg2_223_cif.got.tgz:445659.got - 2010.06.03 11:33:40.
