data_PCOD9028904
_publ_section_title
;
Structure prediction by ZEFSAII (Michael W. Deem and Ramdas Pophale) SiO2 
 PCOD9028904
Probable space group: P -1
;
_chemical_formula_sum "Si O2"
_cell_formula_units_Z 12
_cell_length_a 15.724590
_cell_length_b 9.755547
_cell_length_c 6.888683
_cell_angle_alpha 111.969326
_cell_angle_beta 48.703907
_cell_angle_gamma 142.407243
_cell_volume 458.097116
_symmetry_space_group_name_H-M "P -1"
_symmetry_group_IT_number 2
_symmetry_cell_setting 'triclinic'
loop_
_space_group_symop_operation_xyz
x,y,z
-x,-y,-z
loop_
_atom_site_type_symbol
_atom_site_label
_atom_site_fract_x
_atom_site_fract_y
_atom_site_fract_z
Si Si1 0.997367 0.522518 0.744588
Si Si2 0.546155 0.323659 0.087787
Si Si3 0.776961 0.813899 0.497092
Si Si4 0.714830 0.931964 0.313694
Si Si5 0.383585 0.972418 0.814599
Si Si6 0.099668 0.311469 0.479437
O O1 0.792138 0.301574 0.007674
O O2 0.000000 0.500000 0.500000
O O3 0.119708 0.787218 0.745085
O O4 0.090297 0.467869 0.651817
O O5 0.483671 0.125841 0.939140
O O6 0.753841 0.556043 0.843291
O O7 0.429272 0.351425 0.228393
O O8 0.840751 0.727935 0.449703
O O9 0.777119 0.843334 0.278860
O O10 0.910603 0.067413 0.537367
O O11 0.534064 0.786850 0.635747
O O12 0.669231 0.926131 0.160077
O O13 0.500000 0.000000 0.500000
#
# Coordination Sequence:
#
# PCOD9028904 Si02
#       6
#     2   2   2   2   2   2
#     4  12  21  41  64  95 128 168 212 262 319 376
#     4  10  22  42  65  94 130 168 215 260 323 376
#     4   9  21  41  64  98 122 175 214 256 323 383
#     4  10  23  41  65  93 133 162 219 262 314 384
#     4  12  25  40  62 100 135 165 214 269 321 377
#     4  11  20  38  73  88 129 176 208 262 323 379
#
# _framework density 26.195318
#
# number of rings (size 3 to 8) (size 9 to 14) (size 15 to 20)
#    1.000    0.333    5.000    2.000    2.333    1.333 
#    0.000    1.667    0.000    0.000    0.000    0.000 
#    0.000    0.000    0.000    0.000    0.000    0.000 
#
# Total GULP energy -67153.361710 kJ/mol
# GULP energy per Si atom -5596.113476 kJ/mol
# Density = 2.613570 g / cm^3
# Si number density = 26.195318 Si / 1000 Ang^3
#
#
#
# Elastic Constant Matrix: (Units=GPa)
#
#
# Indices 1 2 3 4 5 6 
#
# 1 84.3183 4.4802 33.8368 -1.9908 18.5393 -20.7608
# 2 4.4802 47.6997 30.3868 -10.7755 6.2117 -15.0320
# 3 33.8368 30.3868 131.6176 -42.9661 5.5728 -0.6603
# 4 -1.9908 -10.7755 -42.9661 37.3610 -2.9136 3.5675
# 5 18.5393 6.2117 5.5728 -2.9136 45.5662 -2.5302
# 6 -20.7608 -15.0320 -0.6603 3.5675 -2.5302 37.4145
#
#
#
# Elastic Compliance Matrix: (Units=1/GPa)
#
#
# Indices 1 2 3 4 5 6 
#
# 1 0.020694 0.007914 -0.010080 -0.010262 -0.008094 0.014916
# 2 0.007914 0.032087 -0.010627 -0.004623 -0.005637 0.017155
# 3 -0.010080 -0.010627 0.018719 0.019289 0.003877 -0.011109
# 4 -0.010262 -0.004623 0.019289 0.048551 0.004912 -0.011508
# 5 -0.008094 -0.005637 0.003877 0.004912 0.025546 -0.005428
# 6 0.014916 0.017155 -0.011109 -0.011508 -0.005428 0.042431
#
#
# Mechanical properties :
#
#
# Convention : Reuss Voigt Hill
#
# Bulk Modulus (GPa) = 21.77940 44.56035 33.16988
# Shear Modulus (GPa) = 21.84188 37.06380 29.45284
#
# Velocity S-wave (km/s) = 2.89071 3.76560 3.35678
# Velocity P-wave (km/s) = 4.41292 5.99617 5.26440
#
# Compressibility (1/GPa) = 0.04591495
#
# Stress axis : x y z
#
# Youngs Moduli (GPa) = 48.32285 31.16544 53.42037
#
# Poissons Ratio (x) = -0.24664 0.53846
# Poissons Ratio (y) = -0.38241 0.56768
# Poissons Ratio (z) = 0.48708 0.33119
#
# Static dielectric constant tensor:
#      x y z
#    x 2.114980 -0.039190 -0.014450 
#    y -0.039190 2.025880 0.020100 
#    z -0.014450 0.020100 2.041820 
# 
# From -- ./inp_files/290536.got.cif
#   From: 2010.05.17/outbox.cif.g08.bks.cpg/sg2_146_cif.got.tgz:290536.got - 2010.06.03 11:33:40.
