data_PCOD9028451
_publ_section_title
;
Structure prediction by ZEFSAII (Michael W. Deem and Ramdas Pophale) SiO2 
 PCOD9028451
Probable space group: P -1
;
_chemical_formula_sum "Si O2"
_cell_formula_units_Z 16
_cell_length_a 27.933822
_cell_length_b 8.652595
_cell_length_c 6.876594
_cell_angle_alpha 78.734846
_cell_angle_beta 96.213485
_cell_angle_gamma 151.594506
_cell_volume 768.191005
_symmetry_space_group_name_H-M "P -1"
_symmetry_group_IT_number 2
_symmetry_cell_setting 'triclinic'
loop_
_space_group_symop_operation_xyz
x,y,z
-x,-y,-z
loop_
_atom_site_type_symbol
_atom_site_label
_atom_site_fract_x
_atom_site_fract_y
_atom_site_fract_z
Si Si1 0.218331 0.256140 0.742580
Si Si2 0.270422 0.751646 0.713315
Si Si3 0.942924 0.710400 0.179464
Si Si4 0.153270 0.782018 0.062779
Si Si5 0.406759 0.610656 0.573222
Si Si6 0.586067 0.662388 0.623515
Si Si7 0.011927 0.704371 0.554837
Si Si8 0.632396 0.756789 0.037761
O O1 0.272499 0.570590 0.759078
O O2 0.299856 0.390789 0.619968
O O3 0.119292 0.016895 0.634667
O O4 0.179167 0.036730 0.958246
O O5 0.157112 0.489356 0.743424
O O6 0.315767 0.954066 0.486500
O O7 0.332785 0.006622 0.857269
O O8 0.004387 0.817220 0.360422
O O9 0.906212 0.460140 0.089852
O O10 0.000000 0.000000 0.000000
O O11 0.081392 0.550265 0.272179
O O12 0.261299 0.005291 0.061641
O O13 0.402515 0.482008 0.417688
O O14 0.500000 0.000000 0.500000
O O15 0.417477 0.523754 0.783880
O O16 0.500000 0.500000 0.500000
O O17 0.568694 0.617635 0.855316
O O18 0.000000 0.500000 0.500000
#
# Coordination Sequence:
#
# PCOD9028451 Si02
#       8
#     2   2   2   2   2   2   2   2
#     4  11  23  42  66  99 133 172 219 276 331 392
#     4  10  23  41  63  92 132 169 224 267 321 392
#     4  11  24  42  62  91 132 175 220 272 320 390
#     4  10  22  42  62  91 131 169 222 267 319 395
#     4  10  23  44  67  97 132 165 216 276 327 396
#     4  11  23  43  68  94 129 167 217 273 326 396
#     4  12  25  38  67  96 132 179 217 270 338 382
#     4   9  22  42  68  91 125 178 211 268 333 381
#
# _framework density 20.828154000000001
#
# number of rings (size 3 to 8) (size 9 to 14) (size 15 to 20)
#    0.000    1.500    1.250    3.375    3.500    6.500 
#    0.000    3.750    0.000    0.000    0.000    0.000 
#    0.000    0.000    0.000    0.000    0.000    0.000 
#
# Total GULP energy -89481.960712 kJ/mol
# GULP energy per Si atom -5592.622545 kJ/mol
# Density = 2.078075 g / cm^3
# Si number density = 20.828154 Si / 1000 Ang^3
#
#
#
# Elastic Constant Matrix: (Units=GPa)
#
#
# Indices 1 2 3 4 5 6 
#
# 1 90.8420 37.4929 51.5101 -1.4831 3.9752 -16.5539
# 2 37.4929 86.7535 49.0402 -21.8157 17.2101 -8.6818
# 3 51.5101 49.0402 134.5856 -6.1297 9.4041 -0.5223
# 4 -1.4831 -21.8157 -6.1297 39.0902 5.6689 3.6155
# 5 3.9752 17.2101 9.4041 5.6689 33.0539 -4.0345
# 6 -16.5539 -8.6818 -0.5223 3.6155 -4.0345 44.8220
#
#
#
# Elastic Compliance Matrix: (Units=1/GPa)
#
#
# Indices 1 2 3 4 5 6 
#
# 1 0.016999 -0.005985 -0.004784 -0.004548 0.003919 0.005783
# 2 -0.005985 0.022287 -0.004394 0.013259 -0.011919 -0.000087
# 3 -0.004784 -0.004394 0.010852 -0.000643 -0.000417 -0.002477
# 4 -0.004548 0.013259 -0.000643 0.034805 -0.012516 -0.003053
# 5 0.003919 -0.011919 -0.000417 -0.012516 0.038696 0.003626
# 6 0.005783 -0.000087 -0.002477 -0.003053 0.003626 0.024973
#
#
# Mechanical properties :
#
#
# Convention : Reuss Voigt Hill
#
# Bulk Modulus (GPa) = 50.47140 65.36306 57.91723
# Shear Modulus (GPa) = 26.94803 35.00241 30.97522
#
# Velocity S-wave (km/s) = 3.60088 4.10388 3.86058
# Velocity P-wave (km/s) = 6.44774 7.34207 6.90939
#
# Compressibility (1/GPa) = 0.01981320
#
# Stress axis : x y z
#
# Youngs Moduli (GPa) = 58.82783 44.86891 92.14506
#
# Poissons Ratio (x) = 0.26853 0.44080
# Poissons Ratio (y) = 0.35207 0.40489
# Poissons Ratio (z) = 0.28142 0.19716
#
# Static dielectric constant tensor:
#      x y z
#    x 1.767200 0.014660 -0.002960 
#    y 0.014660 1.730600 0.008970 
#    z -0.002960 0.008970 1.727200 
# 
# From -- ./inp_files/81325.got.cif
#   From: 2010.05.17/outbox.cif.g08.bks.cpg/sg2_41_cif.got.tgz:81325.got - 2010.06.03 11:33:40.
