data_PCOD9028558
_publ_section_title
;
Structure prediction by ZEFSAII (Michael W. Deem and Ramdas Pophale) SiO2 
 PCOD9028558
Probable space group: P -1
;
_chemical_formula_sum "Si O2"
_cell_formula_units_Z 14
_cell_length_a 20.074571
_cell_length_b 6.148947
_cell_length_c 10.426085
_cell_angle_alpha 117.571751
_cell_angle_beta 140.205848
_cell_angle_gamma 91.750125
_cell_volume 534.899603
_symmetry_space_group_name_H-M "P -1"
_symmetry_group_IT_number 2
_symmetry_cell_setting 'triclinic'
loop_
_space_group_symop_operation_xyz
x,y,z
-x,-y,-z
loop_
_atom_site_type_symbol
_atom_site_label
_atom_site_fract_x
_atom_site_fract_y
_atom_site_fract_z
Si Si1 0.853219 0.527119 0.548734
Si Si2 0.451430 0.725302 0.172980
Si Si3 0.614259 0.843067 0.687462
Si Si4 0.168324 0.226006 0.967863
Si Si5 0.901827 0.174296 0.856552
Si Si6 0.679010 0.161853 0.443862
Si Si7 0.829766 0.665947 0.295410
O O1 0.736016 0.273918 0.413717
O O2 0.812089 0.429224 0.315102
O O3 0.888359 0.870392 0.717187
O O4 0.006930 0.650279 0.831786
O O5 0.561942 0.769270 0.442241
O O6 0.417324 0.933235 0.245830
O O7 0.515965 0.879592 0.170033
O O8 0.295610 0.350145 0.846901
O O9 0.500000 0.500000 0.500000
O O10 0.762174 0.932379 0.952410
O O11 0.198465 0.385092 0.913191
O O12 0.245537 0.501820 0.269754
O O13 0.997590 0.981945 0.649896
O O14 0.748736 0.036655 0.577270
O O15 0.000000 0.500000 0.000000
#
# Coordination Sequence:
#
# PCOD9028558 Si02
#       7
#     2   2   2   2   2   2   2
#     4  10  22  42  63  93 140 173 212 272 332 380
#     4  11  24  40  67  99 132 167 231 264 330 392
#     4  11  21  44  67  93 131 183 216 271 317 408
#     4  11  23  43  72  94 133 172 222 269 340 377
#     4   9  19  39  66  93 124 178 226 260 305 405
#     4  11  23  41  70  97 123 184 230 254 313 419
#     4  11  24  43  61 106 138 162 212 286 333 386
#
# _framework density 26.173137000000001
#
# number of rings (size 3 to 8) (size 9 to 14) (size 15 to 20)
#    0.000    1.429    2.857    3.429    4.000    1.143 
#   10.286    0.714    0.000    0.000    0.000    0.000 
#    0.000    0.000    0.000    0.000    0.000    0.000 
#
# Total GULP energy -78049.351929 kJ/mol
# GULP energy per Si atom -5574.953709 kJ/mol
# Density = 2.611357 g / cm^3
# Si number density = 26.173137 Si / 1000 Ang^3
#
#
#
# Elastic Constant Matrix: (Units=GPa)
#
#
# Indices 1 2 3 4 5 6 
#
# 1 104.2749 67.0604 36.1148 8.5759 18.8782 28.3568
# 2 67.0604 112.2131 44.9042 -16.1912 5.5423 20.7800
# 3 36.1148 44.9042 122.8095 -12.9706 21.6589 11.6248
# 4 8.5759 -16.1912 -12.9706 50.3527 20.5459 11.1007
# 5 18.8782 5.5423 21.6589 20.5459 45.0346 6.9119
# 6 28.3568 20.7800 11.6248 11.1007 6.9119 64.0065
#
#
#
# Elastic Compliance Matrix: (Units=1/GPa)
#
#
# Indices 1 2 3 4 5 6 
#
# 1 0.018777 -0.010623 -0.001260 -0.004869 -0.003207 -0.003451
# 2 -0.010623 0.017574 -0.002496 0.006980 0.000586 -0.001820
# 3 -0.001260 -0.002496 0.011283 0.005317 -0.006885 -0.000860
# 4 -0.004869 0.006980 0.005317 0.031506 -0.014994 -0.004920
# 5 -0.003207 0.000586 -0.006885 -0.014994 0.033403 0.001475
# 6 -0.003451 -0.001820 -0.000860 -0.004920 0.001475 0.018593
#
#
# Mechanical properties :
#
#
# Convention : Reuss Voigt Hill
#
# Bulk Modulus (GPa) = 52.97262 70.60626 61.78944
# Shear Modulus (GPa) = 30.08688 44.62661 37.35674
#
# Velocity S-wave (km/s) = 3.39415 4.13371 3.78205
# Velocity P-wave (km/s) = 5.97023 7.05823 6.53690
#
# Compressibility (1/GPa) = 0.01887768
#
# Stress axis : x y z
#
# Youngs Moduli (GPa) = 53.25550 56.90296 88.62923
#
# Poissons Ratio (x) = 0.60446 0.11165
# Poissons Ratio (y) = 0.56572 0.22120
# Poissons Ratio (z) = 0.06709 0.14202
#
# Static dielectric constant tensor:
#      x y z
#    x 2.098610 -0.041700 -0.033580 
#    y -0.041700 2.152240 0.110470 
#    z -0.033580 0.110470 2.345260 
# 
# From -- ./inp_files/473447.got.cif
#   From: 2010.05.17/outbox.cif.g08.bks.cpg/sg2_237_cif.got.tgz:473447.got - 2010.06.03 11:33:40.
