data_PCOD9028298
_publ_section_title
;
Structure prediction by ZEFSAII (Michael W. Deem and Ramdas Pophale) SiO2 
 PCOD9028298
Probable space group: P -1
;
_chemical_formula_sum "Si O2"
_cell_formula_units_Z 14
_cell_length_a 8.476822
_cell_length_b 14.972125
_cell_length_c 8.196391
_cell_angle_alpha 61.990928
_cell_angle_beta 76.256821
_cell_angle_gamma 39.610851
_cell_volume 571.116846
_symmetry_space_group_name_H-M "P -1"
_symmetry_group_IT_number 2
_symmetry_cell_setting 'triclinic'
loop_
_space_group_symop_operation_xyz
x,y,z
-x,-y,-z
loop_
_atom_site_type_symbol
_atom_site_label
_atom_site_fract_x
_atom_site_fract_y
_atom_site_fract_z
Si Si1 0.247041 0.143122 0.839631
Si Si2 0.808098 0.348386 0.373994
Si Si3 0.548690 0.781155 0.507517
Si Si4 0.092365 0.926726 0.318534
Si Si5 0.823059 0.680211 0.863804
Si Si6 0.264073 0.533173 0.344442
Si Si7 0.678867 0.113573 0.032460
O O1 0.338661 0.179472 0.653242
O O2 0.984568 0.313955 0.824988
O O3 0.183748 0.061188 0.862233
O O4 0.500000 0.000000 0.000000
O O5 0.905566 0.188779 0.521269
O O6 0.515468 0.475028 0.283251
O O7 0.793637 0.414294 0.495322
O O8 0.992971 0.315322 0.230408
O O9 0.250076 0.914999 0.423486
O O10 0.635983 0.759143 0.687457
O O11 0.673384 0.614683 0.566620
O O12 0.268424 0.852011 0.175896
O O13 0.823899 0.093587 0.168933
O O14 0.615861 0.771311 0.978771
O O15 0.000000 0.500000 0.000000
#
# Coordination Sequence:
#
# PCOD9028298 Si02
#       7
#     2   2   2   2   2   2   2
#     4  12  23  39  71 110 131 175 232 294 329 396
#     4  10  22  42  72  95 134 184 229 275 347 406
#     4  11  24  43  70 103 142 181 230 284 343 409
#     4  10  22  45  74 100 128 192 231 282 335 410
#     4  12  29  44  66 103 143 185 226 287 358 402
#     4  10  22  41  74  96 132 179 241 268 330 416
#     4  11  25  43  70 102 145 171 235 284 345 412
#
# _framework density 24.513373999999999
#
# number of rings (size 3 to 8) (size 9 to 14) (size 15 to 20)
#    0.000    1.143    4.286    0.429    8.000    2.857 
#    0.000    4.286    0.000    0.000    0.000    0.000 
#    0.000    0.000    0.000    0.000    0.000    0.000 
#
# Total GULP energy -78289.895262 kJ/mol
# GULP energy per Si atom -5592.135376 kJ/mol
# Density = 2.445758 g / cm^3
# Si number density = 24.513374 Si / 1000 Ang^3
#
#
#
# Elastic Constant Matrix: (Units=GPa)
#
#
# Indices 1 2 3 4 5 6 
#
# 1 74.9402 9.7803 63.4052 -3.8938 -17.1113 -27.4915
# 2 9.7803 102.9197 47.5447 -6.0963 -20.1074 -29.6480
# 3 63.4052 47.5447 105.5696 -1.1476 -28.2902 -38.9065
# 4 -3.8938 -6.0963 -1.1476 33.7002 -16.1285 1.8559
# 5 -17.1113 -20.1074 -28.2902 -16.1285 61.8732 -6.6103
# 6 -27.4915 -29.6480 -38.9065 1.8559 -6.6103 49.5734
#
#
#
# Elastic Compliance Matrix: (Units=1/GPa)
#
#
# Indices 1 2 3 4 5 6 
#
# 1 0.034674 0.010896 -0.019513 0.008321 0.007566 0.011128
# 2 0.010896 0.017656 -0.008194 0.007456 0.008121 0.010975
# 3 -0.019513 -0.008194 0.029709 -0.000131 0.006393 0.008452
# 4 0.008321 0.007456 -0.000131 0.039045 0.015871 0.009626
# 5 0.007566 0.008121 0.006393 0.015871 0.029818 0.017452
# 6 0.011128 0.010975 0.008452 0.009626 0.017452 0.041507
#
#
# Mechanical properties :
#
#
# Convention : Reuss Voigt Hill
#
# Bulk Modulus (GPa) = 20.65386 58.32109 39.48748
# Shear Modulus (GPa) = 20.64665 39.87599 30.26132
#
# Velocity S-wave (km/s) = 2.90532 4.03762 3.51733
# Velocity P-wave (km/s) = 4.43828 6.75127 5.71306
#
# Compressibility (1/GPa) = 0.04841709
#
# Stress axis : x y z
#
# Youngs Moduli (GPa) = 28.84006 56.63860 33.65978
#
# Poissons Ratio (x) = -0.61714 0.65681
# Poissons Ratio (y) = -0.31425 0.27581
# Poissons Ratio (z) = 0.56276 0.46409
#
# Static dielectric constant tensor:
#      x y z
#    x 2.050270 0.016820 0.093150 
#    y 0.016820 1.985560 0.065250 
#    z 0.093150 0.065250 1.915720 
# 
# From -- ./inp_files/214286.got.cif
#   From: 2010.05.17/outbox.cif.g08.bks.cpg/sg2_108_cif.got.tgz:214286.got - 2010.06.03 11:33:40.
