data_PCOD9028540
_publ_section_title
;
Structure prediction by ZEFSAII (Michael W. Deem and Ramdas Pophale) SiO2 
 PCOD9028540
Probable space group: P -1
;
_chemical_formula_sum "Si O2"
_cell_formula_units_Z 16
_cell_length_a 7.050323
_cell_length_b 12.069340
_cell_length_c 9.896855
_cell_angle_alpha 102.816380
_cell_angle_beta 98.468284
_cell_angle_gamma 48.460557
_cell_volume 614.644633
_symmetry_space_group_name_H-M "P -1"
_symmetry_group_IT_number 2
_symmetry_cell_setting 'triclinic'
loop_
_space_group_symop_operation_xyz
x,y,z
-x,-y,-z
loop_
_atom_site_type_symbol
_atom_site_label
_atom_site_fract_x
_atom_site_fract_y
_atom_site_fract_z
Si Si1 0.060560 0.917109 0.776147
Si Si2 0.465023 0.157599 0.584734
Si Si3 0.832223 0.637520 0.626201
Si Si4 0.580287 0.388758 0.354932
Si Si5 0.798556 0.362608 0.795870
Si Si6 0.161158 0.068077 0.617723
Si Si7 0.178325 0.426252 0.816585
Si Si8 0.675815 0.222976 0.948726
O O1 0.136777 0.770052 0.668787
O O2 0.172725 0.978426 0.719231
O O3 0.221264 0.838582 0.908943
O O4 0.783784 0.069880 0.835871
O O5 0.299102 0.220372 0.445638
O O6 0.754931 0.035637 0.533830
O O7 0.377566 0.303925 0.690945
O O8 0.367341 0.089538 0.642247
O O9 0.602606 0.648045 0.654408
O O10 0.007196 0.585496 0.763624
O O11 0.000000 0.500000 0.500000
O O12 0.500000 0.500000 0.500000
O O13 0.479007 0.490266 0.237474
O O14 0.989717 0.395033 0.823537
O O15 0.797738 0.287335 0.909348
O O16 0.902989 0.237683 0.655108
O O17 0.625241 0.637018 0.057282
#
# Coordination Sequence:
#
# PCOD9028540 Si02
#       8
#     2   2   2   2   2   2   2   2
#     4  10  22  42  63  91 129 167 218 269 308 379
#     4   9  16  30  60  89 121 163 200 258 327 378
#     4   9  18  34  58  90 131 158 202 261 316 388
#     4  11  23  38  63  94 129 168 205 265 327 380
#     4   9  21  38  59  90 128 165 212 263 310 383
#     4   9  17  34  58  88 121 162 201 261 323 362
#     4   9  19  36  61  92 125 165 211 261 319 384
#     4  10  22  42  69  87 126 179 217 262 319 367
#
# _framework density 26.031300000000002
#
# number of rings (size 3 to 8) (size 9 to 14) (size 15 to 20)
#    0.000    2.500    1.250    0.750    3.500    1.500 
#    0.000   17.500    2.750    0.000    0.000    0.000 
#    0.000    0.000    0.000    0.000    0.000    0.000 
#
# Total GULP energy -89387.736469 kJ/mol
# GULP energy per Si atom -5586.733529 kJ/mol
# Density = 2.597205 g / cm^3
# Si number density = 26.031300 Si / 1000 Ang^3
#
#
#
# Elastic Constant Matrix: (Units=GPa)
#
#
# Indices 1 2 3 4 5 6 
#
# 1 95.0253 31.9964 20.7514 -14.9380 -13.4170 -12.7731
# 2 31.9964 174.2248 40.8429 -7.4524 -10.5720 -23.7352
# 3 20.7514 40.8429 98.0394 -1.1226 -5.7689 2.8902
# 4 -14.9380 -7.4524 -1.1226 58.5250 -3.9347 -3.8895
# 5 -13.4170 -10.5720 -5.7689 -3.9347 26.7335 -6.4594
# 6 -12.7731 -23.7352 2.8902 -3.8895 -6.4594 36.5731
#
#
#
# Elastic Compliance Matrix: (Units=1/GPa)
#
#
# Indices 1 2 3 4 5 6 
#
# 1 0.014051 -0.000336 -0.002472 0.004542 0.008723 0.006908
# 2 -0.000336 0.007610 -0.003031 0.001474 0.003828 0.005894
# 3 -0.002472 -0.003031 0.012035 -0.001124 -0.000993 -0.004076
# 4 0.004542 0.001474 -0.001124 0.019266 0.006880 0.005896
# 5 0.008723 0.003828 -0.000993 0.006880 0.047662 0.014759
# 6 0.006908 0.005894 -0.004076 0.005896 0.014759 0.037136
#
#
# Mechanical properties :
#
#
# Convention : Reuss Voigt Hill
#
# Bulk Modulus (GPa) = 45.41941 61.60789 53.51365
# Shear Modulus (GPa) = 31.89219 42.61291 37.25255
#
# Velocity S-wave (km/s) = 3.50401 4.05036 3.78705
# Velocity P-wave (km/s) = 5.81865 6.75219 6.30273
#
# Compressibility (1/GPa) = 0.02201702
#
# Stress axis : x y z
#
# Youngs Moduli (GPa) = 71.17057 131.40215 83.09211
#
# Poissons Ratio (x) = 0.04417 0.20543
# Poissons Ratio (y) = 0.02392 0.25184
# Poissons Ratio (z) = 0.17596 0.39826
#
# Static dielectric constant tensor:
#      x y z
#    x 2.064920 -0.011490 0.079850 
#    y -0.011490 2.059570 0.055220 
#    z 0.079850 0.055220 2.146660 
# 
# From -- ./inp_files/254176.got.cif
#   From: 2010.05.17/outbox.cif.g08.bks.cpg/sg2_128_cif.got.tgz:254176.got - 2010.06.03 11:33:40.
