data_PCOD9028390
_publ_section_title
;
Structure prediction by ZEFSAII (Michael W. Deem and Ramdas Pophale) SiO2 
 PCOD9028390
Probable space group: P -1
;
_chemical_formula_sum "Si O2"
_cell_formula_units_Z 16
_cell_length_a 17.344691
_cell_length_b 7.528995
_cell_length_c 9.737710
_cell_angle_alpha 131.872350
_cell_angle_beta 67.437140
_cell_angle_gamma 83.840474
_cell_volume 742.335546
_symmetry_space_group_name_H-M "P -1"
_symmetry_group_IT_number 2
_symmetry_cell_setting 'triclinic'
loop_
_space_group_symop_operation_xyz
x,y,z
-x,-y,-z
loop_
_atom_site_type_symbol
_atom_site_label
_atom_site_fract_x
_atom_site_fract_y
_atom_site_fract_z
Si Si1 0.279601 0.956936 0.542012
Si Si2 0.149357 0.318190 0.590898
Si Si3 0.051737 0.383555 0.258403
Si Si4 0.808967 0.262092 0.090853
Si Si5 0.653952 0.642491 0.895292
Si Si6 0.201837 0.464355 0.043084
Si Si7 0.444979 0.820447 0.156286
Si Si8 0.300897 0.950744 0.075330
O O1 0.320412 0.627546 0.353941
O O2 0.361307 0.981862 0.411369
O O3 0.181648 0.115836 0.596688
O O4 0.253954 0.141260 0.789409
O O5 0.203322 0.116022 0.321081
O O6 0.034736 0.515439 0.741858
O O7 0.193833 0.515098 0.686679
O O8 0.000000 0.500000 0.500000
O O9 0.117742 0.048109 0.060453
O O10 0.116909 0.508902 0.227499
O O11 0.709612 0.268916 0.122879
O O12 0.837661 0.344255 0.967808
O O13 0.698258 0.816211 0.896682
O O14 0.712765 0.511053 0.929231
O O15 0.536973 0.857324 0.100288
O O16 0.391075 0.845318 0.063547
O O17 0.500000 0.500000 0.000000
#
# Coordination Sequence:
#
# PCOD9028390 Si02
#       8
#     2   2   2   2   2   2   2   2
#     4   9  22  40  62  91 119 166 209 253 309 366
#     4  10  22  42  61  86 125 163 204 258 305 360
#     4  12  24  43  61  96 123 162 211 257 307 368
#     4  11  23  41  63  88 125 166 201 260 304 362
#     4  11  21  38  64  93 124 167 200 260 308 366
#     4  11  24  42  65  90 126 165 208 253 311 366
#     4   9  19  38  64  89 124 163 206 252 307 367
#     4  11  21  40  61  94 128 158 209 252 308 368
#
# _framework density 21.553595999999999
#
# number of rings (size 3 to 8) (size 9 to 14) (size 15 to 20)
#    0.000    1.500    2.500    3.000    1.750    3.000 
#    4.500    3.750    0.000   11.250    0.000    0.000 
#    0.000    0.000    0.000    0.000    0.000    0.000 
#
# Total GULP energy -89284.021774 kJ/mol
# GULP energy per Si atom -5580.251361 kJ/mol
# Density = 2.150454 g / cm^3
# Si number density = 21.553596 Si / 1000 Ang^3
#
#
#
# Elastic Constant Matrix: (Units=GPa)
#
#
# Indices 1 2 3 4 5 6 
#
# 1 112.5902 12.7282 22.3126 -1.2142 -7.6853 -3.0577
# 2 12.7282 64.8796 6.8145 9.2001 -10.4802 3.6890
# 3 22.3126 6.8145 47.1246 -0.1461 4.4960 1.3813
# 4 -1.2142 9.2001 -0.1461 22.4992 -2.0809 -3.7727
# 5 -7.6853 -10.4802 4.4960 -2.0809 31.7100 12.7412
# 6 -3.0577 3.6890 1.3813 -3.7727 12.7412 36.7535
#
#
#
# Elastic Compliance Matrix: (Units=1/GPa)
#
#
# Indices 1 2 3 4 5 6 
#
# 1 0.010207 -0.001262 -0.004914 0.001345 0.002695 0.000364
# 2 -0.001262 0.018651 -0.002719 -0.007891 0.007906 -0.005426
# 3 -0.004914 -0.002719 0.024478 0.000635 -0.005949 0.001072
# 4 0.001345 -0.007891 0.000635 0.048673 -0.001788 0.006496
# 5 0.002695 0.007906 -0.005949 -0.001788 0.041525 -0.014925
# 6 0.000364 -0.005426 0.001072 0.006496 -0.014925 0.033584
#
#
# Mechanical properties :
#
#
# Convention : Reuss Voigt Hill
#
# Bulk Modulus (GPa) = 28.13297 34.25609 31.19453
# Shear Modulus (GPa) = 24.18307 30.37515 27.27911
#
# Velocity S-wave (km/s) = 3.35326 3.75812 3.56144
# Velocity P-wave (km/s) = 5.29843 5.89569 5.60502
#
# Compressibility (1/GPa) = 0.03554548
#
# Stress axis : x y z
#
# Youngs Moduli (GPa) = 97.97551 53.61668 40.85263
#
# Poissons Ratio (x) = 0.06769 0.20074
# Poissons Ratio (y) = 0.12369 0.11108
# Poissons Ratio (z) = 0.48143 0.14578
#
# Static dielectric constant tensor:
#      x y z
#    x 1.941180 0.000590 -0.041090 
#    y 0.000590 1.827450 -0.021400 
#    z -0.041090 -0.021400 1.784790 
# 
# From -- ./inp_files/448331.got.cif
#   From: 2010.05.17/outbox.cif.g08.bks.cpg/sg2_225_cif.got.tgz:448331.got - 2010.06.03 11:33:40.
