data_PCOD9028602
_publ_section_title
;
Structure prediction by ZEFSAII (Michael W. Deem and Ramdas Pophale) SiO2 
 PCOD9028602
Probable space group: P -1
;
_chemical_formula_sum "Si O2"
_cell_formula_units_Z 14
_cell_length_a 7.554913
_cell_length_b 7.401253
_cell_length_c 18.273440
_cell_angle_alpha 82.190541
_cell_angle_beta 34.282205
_cell_angle_gamma 84.528336
_cell_volume 569.934334
_symmetry_space_group_name_H-M "P -1"
_symmetry_group_IT_number 2
_symmetry_cell_setting 'triclinic'
loop_
_space_group_symop_operation_xyz
x,y,z
-x,-y,-z
loop_
_atom_site_type_symbol
_atom_site_label
_atom_site_fract_x
_atom_site_fract_y
_atom_site_fract_z
Si Si1 0.752030 0.952234 0.522055
Si Si2 0.135891 0.436005 0.259870
Si Si3 0.522887 0.275916 0.253452
Si Si4 0.757613 0.638240 0.018088
Si Si5 0.211619 0.193836 0.644235
Si Si6 0.807489 0.875464 0.844779
Si Si7 0.364351 0.033580 0.876454
O O1 0.535793 0.786231 0.640296
O O2 0.863923 0.875602 0.409301
O O3 0.553629 0.129749 0.556844
O O4 0.000000 0.000000 0.500000
O O5 0.233849 0.381870 0.311599
O O6 0.024536 0.260758 0.261406
O O7 0.897254 0.599428 0.325012
O O8 0.486798 0.486385 0.104132
O O9 0.858305 0.379998 0.110636
O O10 0.516420 0.078056 0.226604
O O11 0.750365 0.773169 0.944299
O O12 0.609478 0.751021 0.130413
O O13 0.994947 0.066202 0.777591
O O14 0.497954 0.928793 0.905397
O O15 0.000000 0.000000 0.000000
#
# Coordination Sequence:
#
# PCOD9028602 Si02
#       7
#     2   2   2   2   2   2   2
#     4  11  24  47  75  97 130 181 232 284 343 400
#     4  11  24  39  66 102 136 176 222 270 338 413
#     4  10  22  42  63  99 137 173 222 279 334 400
#     4  11  20  38  64  97 138 177 215 268 336 404
#     4  11  25  47  72 100 134 177 231 285 336 398
#     4  11  21  41  62  96 140 170 222 278 330 399
#     4   9  19  32  60  91 128 176 214 260 328 394
#
# _framework density 24.564235
#
# number of rings (size 3 to 8) (size 9 to 14) (size 15 to 20)
#    0.000    1.429    2.857    3.000    0.000    0.571 
#    2.571    6.429    0.000    0.000    0.000    0.000 
#    0.000    0.000    0.000    0.000    0.000    0.000 
#
# Total GULP energy -78113.366682 kJ/mol
# GULP energy per Si atom -5579.526192 kJ/mol
# Density = 2.450833 g / cm^3
# Si number density = 24.564235 Si / 1000 Ang^3
#
#
#
# Elastic Constant Matrix: (Units=GPa)
#
#
# Indices 1 2 3 4 5 6 
#
# 1 97.7116 17.3693 18.9352 12.1467 -23.4986 -15.9437
# 2 17.3693 136.8858 8.2154 29.4408 -10.0987 -19.0502
# 3 18.9352 8.2154 36.3545 0.9448 -5.6823 -24.7844
# 4 12.1467 29.4408 0.9448 34.2875 -10.1348 -5.2165
# 5 -23.4986 -10.0987 -5.6823 -10.1348 30.0448 2.4512
# 6 -15.9437 -19.0502 -24.7844 -5.2165 2.4512 27.9093
#
#
#
# Elastic Compliance Matrix: (Units=1/GPa)
#
#
# Indices 1 2 3 4 5 6 
#
# 1 0.013961 0.000021 -0.002642 -0.001363 0.009596 0.004547
# 2 0.000021 0.009899 0.004502 -0.006875 0.001110 0.009384
# 3 -0.002642 0.004502 0.078529 0.009278 0.011553 0.072019
# 4 -0.001363 -0.006875 0.009278 0.039990 0.011111 0.009267
# 5 0.009596 0.001110 0.011553 0.011111 0.045909 0.014544
# 6 0.004547 0.009384 0.072019 0.009267 0.014544 0.109243
#
#
# Mechanical properties :
#
#
# Convention : Reuss Voigt Hill
#
# Bulk Modulus (GPa) = 9.42052 39.99907 24.70980
# Shear Modulus (GPa) = 15.19050 33.54379 24.36715
#
# Velocity S-wave (km/s) = 2.48946 3.69935 3.15298
# Velocity P-wave (km/s) = 3.47945 5.87926 4.83075
#
# Compressibility (1/GPa) = 0.10615125
#
# Stress axis : x y z
#
# Youngs Moduli (GPa) = 71.62558 101.01895 12.73420
#
# Poissons Ratio (x) = -0.00210 0.03364
# Poissons Ratio (y) = -0.00149 -0.05733
# Poissons Ratio (z) = 0.18921 -0.45476
#
# Static dielectric constant tensor:
#      x y z
#    x 2.053180 0.088370 -0.029880 
#    y 0.088370 1.912180 0.123420 
#    z -0.029880 0.123420 1.978190 
# 
# From -- ./inp_files/586693.got.cif
#   From: 2010.05.17/outbox.cif.g08.bks.cpg/sg2_294_cif.got.tgz:586693.got - 2010.06.03 11:33:40.
