data_PCOD9028002
_publ_section_title
;
Structure prediction by ZEFSAII (Michael W. Deem and Ramdas Pophale) SiO2 
 PCOD9028002
Probable space group: P -1
;
_chemical_formula_sum "Si O2"
_cell_formula_units_Z 13
_cell_length_a 5.227596
_cell_length_b 19.609710
_cell_length_c 10.028291
_cell_angle_alpha 138.566569
_cell_angle_beta 95.770313
_cell_angle_gamma 62.268985
_cell_volume 545.362470
_symmetry_space_group_name_H-M "P -1"
_symmetry_group_IT_number 2
_symmetry_cell_setting 'triclinic'
loop_
_space_group_symop_operation_xyz
x,y,z
-x,-y,-z
loop_
_atom_site_type_symbol
_atom_site_label
_atom_site_fract_x
_atom_site_fract_y
_atom_site_fract_z
Si Si1 0.975388 0.888072 0.796191
Si Si2 0.184766 0.762889 0.375623
Si Si3 0.656876 0.647789 0.564212
Si Si4 0.142119 0.079485 0.650766
Si Si5 0.116515 0.211171 0.106192
Si Si6 0.500000 0.500000 0.500000
Si Si7 0.091241 0.377860 0.742982
O O1 0.926240 0.886725 0.634418
O O2 0.320909 0.751223 0.629126
O O3 0.783061 0.868403 0.866032
O O4 0.000000 0.000000 0.000000
O O5 0.537147 0.728394 0.354207
O O6 0.073784 0.793166 0.262700
O O7 0.142050 0.657376 0.273981
O O8 0.680775 0.732151 0.799613
O O9 0.704931 0.522389 0.437552
O O10 0.913620 0.606617 0.396058
O O11 0.500000 0.000000 0.500000
O O12 0.141225 0.121121 0.861620
O O13 0.000000 0.000000 0.500000
O O14 0.760240 0.342866 0.279361
O O15 0.000000 0.500000 0.000000
#
# Coordination Sequence:
#
# PCOD9028002 Si02
#       7
#     2   2   2   2   2   1   2
#     4  10  22  41  70  95 134 177 233 294 344 416
#     4  11  24  46  66 105 134 186 237 284 357 422
#     4  10  23  43  67 107 130 185 240 291 362 423
#     4  12  29  48  70 103 148 193 241 295 365 435
#     4  11  24  44  70 101 141 182 242 296 357 434
#     4  10  24  42  70 100 142 182 236 300 364 428
#     4  11  24  44  72 101 144 181 234 293 355 433
#
# _framework density 23.837361000000001
#
# number of rings (size 3 to 8) (size 9 to 14) (size 15 to 20)
#    0.000    1.231    1.538    2.769    8.615    3.077 
#    0.000    0.000    0.000    0.000    0.000    0.000 
#    0.000    0.000    0.000    0.000    0.000    0.000 
#
# Total GULP energy -72373.682298 kJ/mol
# GULP energy per Si atom -5567.206331 kJ/mol
# Density = 2.378311 g / cm^3
# Si number density = 23.837361 Si / 1000 Ang^3
#
#
#
# Elastic Constant Matrix: (Units=GPa)
#
#
# Indices 1 2 3 4 5 6 
#
# 1 89.1934 19.8410 14.7644 4.4602 15.6534 6.2548
# 2 19.8410 70.3008 13.5555 12.2661 0.9490 21.0555
# 3 14.7644 13.5555 112.0164 -2.5061 24.7700 -2.1335
# 4 4.4602 12.2661 -2.5061 36.7840 2.0622 10.0012
# 5 15.6534 0.9490 24.7700 2.0622 35.9802 8.0579
# 6 6.2548 21.0555 -2.1335 10.0012 8.0579 37.5954
#
#
#
# Elastic Compliance Matrix: (Units=1/GPa)
#
#
# Indices 1 2 3 4 5 6 
#
# 1 0.013041 -0.003994 0.000098 -0.000297 -0.005938 0.001424
# 2 -0.003994 0.019928 -0.003590 -0.003754 0.006378 -0.011068
# 3 0.000098 -0.003590 0.011407 0.001320 -0.008812 0.004179
# 4 -0.000297 -0.003754 0.001320 0.030135 -0.001167 -0.005540
# 5 -0.005938 0.006378 -0.008812 -0.001167 0.038826 -0.011095
# 6 0.001424 -0.011068 0.004179 -0.005540 -0.011095 0.036650
#
#
# Mechanical properties :
#
#
# Convention : Reuss Voigt Hill
#
# Bulk Modulus (GPa) = 34.01031 40.87026 37.44029
# Shear Modulus (GPa) = 28.61065 36.96192 32.78628
#
# Velocity S-wave (km/s) = 3.46821 3.94202 3.71268
# Velocity P-wave (km/s) = 5.50787 6.15647 5.84118
#
# Compressibility (1/GPa) = 0.02940285
#
# Stress axis : x y z
#
# Youngs Moduli (GPa) = 76.68207 50.18074 87.66867
#
# Poissons Ratio (x) = 0.20042 -0.00858
# Poissons Ratio (y) = 0.30627 0.31475
# Poissons Ratio (z) = -0.00751 0.18016
#
# Static dielectric constant tensor:
#      x y z
#    x 2.077720 -0.034970 -0.041150 
#    y -0.034970 1.963460 -0.071010 
#    z -0.041150 -0.071010 1.897500 
# 
# From -- ./inp_files/23486.got.cif
#   From: 2010.05.17/outbox.cif.g08.bks.cpg/sg2_12_cif.got.tgz:23486.got - 2010.06.03 11:33:40.
