data_PCOD9028196
_publ_section_title
;
Structure prediction by ZEFSAII (Michael W. Deem and Ramdas Pophale) SiO2 
 PCOD9028196
Probable space group: P -1
;
_chemical_formula_sum "Si O2"
_cell_formula_units_Z 16
_cell_length_a 18.266443
_cell_length_b 15.445881
_cell_length_c 11.324448
_cell_angle_alpha 147.580444
_cell_angle_beta 145.962472
_cell_angle_gamma 24.136290
_cell_volume 675.189695
_symmetry_space_group_name_H-M "P -1"
_symmetry_group_IT_number 2
_symmetry_cell_setting 'triclinic'
loop_
_space_group_symop_operation_xyz
x,y,z
-x,-y,-z
loop_
_atom_site_type_symbol
_atom_site_label
_atom_site_fract_x
_atom_site_fract_y
_atom_site_fract_z
Si Si1 0.030262 0.786771 0.493280
Si Si2 0.053974 0.052770 0.017145
Si Si3 0.443423 0.874151 0.065741
Si Si4 0.234523 0.589104 0.298780
Si Si5 0.360523 0.819372 0.632564
Si Si6 0.539085 0.293924 0.872892
Si Si7 0.211884 0.372138 0.421712
Si Si8 0.142532 0.478829 0.818911
O O1 0.064235 0.915367 0.765353
O O2 0.093248 0.752044 0.402199
O O3 0.149457 0.538884 0.422320
O O4 0.809790 0.944824 0.387522
O O5 0.261792 0.938910 0.176738
O O6 0.000000 0.000000 0.000000
O O7 0.911881 0.316751 0.095545
O O8 0.447994 0.719107 0.982947
O O9 0.651978 0.760707 0.211696
O O10 0.297664 0.128986 0.213738
O O11 0.389089 0.868740 0.856877
O O12 0.289607 0.698654 0.421732
O O13 0.434379 0.358362 0.353229
O O14 0.154139 0.531479 0.031603
O O15 0.372449 0.322304 0.649053
O O16 0.500000 0.500000 0.000000
O O17 0.024088 0.501019 0.390486
#
# Coordination Sequence:
#
# PCOD9028196 Si02
#       8
#     2   2   2   2   2   2   2   2
#     4  12  25  44  72 105 141 186 241 288 355 426
#     4  12  26  46  73 108 141 185 245 298 349 429
#     4  11  25  46  72 104 147 186 234 295 366 423
#     4  10  22  41  72 106 140 183 238 298 351 421
#     4  10  22  41  72 106 138 185 236 300 353 418
#     4  12  25  48  71 101 141 187 245 298 348 426
#     4  12  28  45  68 107 146 196 230 298 364 430
#     4  11  25  46  72 105 145 188 238 295 362 421
#
# _framework density 23.697043000000001
#
# number of rings (size 3 to 8) (size 9 to 14) (size 15 to 20)
#    0.000    0.750    3.750    3.000    0.000    5.500 
#    0.000    2.500    0.000    0.000    0.000    0.000 
#    0.000    0.000    0.000    0.000    0.000    0.000 
#
# Total GULP energy -89645.562504 kJ/mol
# GULP energy per Si atom -5602.847656 kJ/mol
# Density = 2.364311 g / cm^3
# Si number density = 23.697043 Si / 1000 Ang^3
#
#
#
# Elastic Constant Matrix: (Units=GPa)
#
#
# Indices 1 2 3 4 5 6 
#
# 1 63.0925 16.4329 19.9987 -11.5224 -1.1384 -13.1209
# 2 16.4329 133.1103 23.7745 -29.1551 -1.8249 -10.6556
# 3 19.9987 23.7745 73.4693 -16.6535 5.2734 -6.5218
# 4 -11.5224 -29.1551 -16.6535 37.7282 -9.7463 10.4444
# 5 -1.1384 -1.8249 5.2734 -9.7463 24.6414 -3.1135
# 6 -13.1209 -10.6556 -6.5218 10.4444 -3.1135 43.4666
#
#
#
# Elastic Compliance Matrix: (Units=1/GPa)
#
#
# Indices 1 2 3 4 5 6 
#
# 1 0.018857 -0.000474 -0.004099 0.003279 0.003570 0.004429
# 2 -0.000474 0.009578 -0.001519 0.007501 0.004038 0.000464
# 3 -0.004099 -0.001519 0.016321 0.004326 -0.002128 -0.000353
# 4 0.003279 0.007501 0.004326 0.040567 0.015172 -0.005183
# 5 0.003570 0.004038 -0.002128 0.015172 0.047694 0.001519
# 6 0.004429 0.000464 -0.000353 -0.005183 0.001519 0.025758
#
#
# Mechanical properties :
#
#
# Convention : Reuss Voigt Hill
#
# Bulk Modulus (GPa) = 30.70208 43.34271 37.02239
# Shear Modulus (GPa) = 27.50039 35.13164 31.31601
#
# Velocity S-wave (km/s) = 3.41030 3.85454 3.63921
# Velocity P-wave (km/s) = 5.33771 6.17576 5.77197
#
# Compressibility (1/GPa) = 0.03257109
#
# Stress axis : x y z
#
# Youngs Moduli (GPa) = 53.03101 104.40879 61.27255
#
# Poissons Ratio (x) = 0.04949 0.25117
# Poissons Ratio (y) = 0.02514 0.09306
# Poissons Ratio (z) = 0.21739 0.15857
#
# Static dielectric constant tensor:
#      x y z
#    x 1.883620 0.003470 0.003550 
#    y 0.003470 1.922560 -0.011360 
#    z 0.003550 -0.011360 1.879360 
# 
# From -- ./inp_files/472528.got.cif
#   From: 2010.05.17/outbox.cif.g08.bks.cpg/sg2_237_cif.got.tgz:472528.got - 2010.06.03 11:33:40.
