data_PCOD9028342
_publ_section_title
;
Structure prediction by ZEFSAII (Michael W. Deem and Ramdas Pophale) SiO2 
 PCOD9028342
Probable space group: P -1
;
_chemical_formula_sum "Si O2"
_cell_formula_units_Z 15
_cell_length_a 15.431267
_cell_length_b 12.160073
_cell_length_c 18.068568
_cell_angle_alpha 144.612036
_cell_angle_beta 21.878758
_cell_angle_gamma 144.809871
_cell_volume 702.118467
_symmetry_space_group_name_H-M "P -1"
_symmetry_group_IT_number 2
_symmetry_cell_setting 'triclinic'
loop_
_space_group_symop_operation_xyz
x,y,z
-x,-y,-z
loop_
_atom_site_type_symbol
_atom_site_label
_atom_site_fract_x
_atom_site_fract_y
_atom_site_fract_z
Si Si1 0.903892 0.613136 0.751716
Si Si2 0.959860 0.334559 0.023384
Si Si3 0.421548 0.838615 0.408935
Si Si4 0.913841 0.781139 0.983952
Si Si5 0.500000 0.000000 0.000000
Si Si6 0.010123 0.229367 0.769662
Si Si7 0.465261 0.808928 0.197278
Si Si8 0.574951 0.866650 0.706127
O O1 0.975261 0.639273 0.796276
O O2 0.758301 0.388753 0.728623
O O3 0.149475 0.706801 0.564502
O O4 0.709287 0.738099 0.961247
O O5 0.060601 0.569117 0.084238
O O6 0.681483 0.291645 0.195510
O O7 0.978157 0.225334 0.024835
O O8 0.084554 0.259113 0.813505
O O9 0.457290 0.922773 0.343337
O O10 0.500000 0.000000 0.500000
O O11 0.622158 0.718474 0.188499
O O12 0.000000 0.000000 0.000000
O O13 0.605177 0.914097 0.794509
O O14 0.768271 0.052176 0.855549
O O15 0.214369 0.203375 0.538640
O O16 0.439679 0.936194 0.217311
#
# Coordination Sequence:
#
# PCOD9028342 Si02
#       8
#     2   2   2   2   1   2   2   2
#     4  10  22  42  58  90 134 166 210 261 314 381
#     4  10  23  41  66  93 127 164 218 268 317 377
#     4  11  22  36  63  92 129 166 213 253 312 388
#     4  11  22  38  62  96 129 167 207 263 318 382
#     4  10  24  44  62  94 126 160 214 268 322 384
#     4  10  23  44  65  93 123 168 214 271 323 378
#     4  10  24  40  63  90 128 171 209 262 321 382
#     4  11  23  41  69  91 123 170 213 265 324 382
#
# _framework density 21.363917000000001
#
# number of rings (size 3 to 8) (size 9 to 14) (size 15 to 20)
#    0.000    1.600    1.333    2.800    3.733    1.067 
#    2.400    0.000    0.000    0.000    0.000    0.000 
#    0.000    0.000    0.000    0.000    0.000    0.000 
#
# Total GULP energy -83529.828476 kJ/mol
# GULP energy per Si atom -5568.655232 kJ/mol
# Density = 2.131529 g / cm^3
# Si number density = 21.363917 Si / 1000 Ang^3
#
#
#
# Elastic Constant Matrix: (Units=GPa)
#
#
# Indices 1 2 3 4 5 6 
#
# 1 130.6911 21.3273 27.2891 12.4781 27.9640 -0.3432
# 2 21.3273 54.3649 12.2387 -9.2323 -3.2508 -5.7293
# 3 27.2891 12.2387 110.5426 -22.5207 27.4812 3.9343
# 4 12.4781 -9.2323 -22.5207 30.0964 6.5100 0.9893
# 5 27.9640 -3.2508 27.4812 6.5100 34.5918 -1.6914
# 6 -0.3432 -5.7293 3.9343 0.9893 -1.6914 21.7079
#
#
#
# Elastic Compliance Matrix: (Units=1/GPa)
#
#
# Indices 1 2 3 4 5 6 
#
# 1 0.010927 -0.005508 -0.001388 -0.005646 -0.007252 -0.001337
# 2 -0.005508 0.023200 -0.002090 0.005994 0.007494 0.006726
# 3 -0.001388 -0.002090 0.017177 0.016456 -0.016096 -0.005691
# 4 -0.005646 0.005994 0.016456 0.053865 -0.018346 -0.005374
# 5 -0.007252 0.007494 -0.016096 -0.018346 0.052189 0.009683
# 6 -0.001337 0.006726 -0.005691 -0.005374 0.009683 0.049851
#
#
# Mechanical properties :
#
#
# Convention : Reuss Voigt Hill
#
# Bulk Modulus (GPa) = 29.99985 46.36765 38.18375
# Shear Modulus (GPa) = 21.16033 32.92878 27.04456
#
# Velocity S-wave (km/s) = 3.15059 3.93023 3.56181
# Velocity P-wave (km/s) = 5.22568 6.50742 5.90145
#
# Compressibility (1/GPa) = 0.03333350
#
# Stress axis : x y z
#
# Youngs Moduli (GPa) = 91.51334 43.10292 58.21787
#
# Poissons Ratio (x) = 0.23740 0.08079
# Poissons Ratio (y) = 0.50403 0.12168
# Poissons Ratio (z) = 0.12699 0.09009
#
# Static dielectric constant tensor:
#      x y z
#    x 1.783640 0.011460 0.010920 
#    y 0.011460 1.803530 -0.016210 
#    z 0.010920 -0.016210 1.792300 
# 
# From -- ./inp_files/573465.got.cif
#   From: 2010.05.17/outbox.cif.g08.bks.cpg/sg2_287_cif.got.tgz:573465.got - 2010.06.03 11:33:40.
