data_PCOD9028110
_publ_section_title
;
Structure prediction by ZEFSAII (Michael W. Deem and Ramdas Pophale) SiO2 
 PCOD9028110
Probable space group: P -1
;
_chemical_formula_sum "Si O2"
_cell_formula_units_Z 14
_cell_length_a 8.664405
_cell_length_b 8.472458
_cell_length_c 12.082291
_cell_angle_alpha 67.326474
_cell_angle_beta 58.424062
_cell_angle_gamma 106.409287
_cell_volume 549.170702
_symmetry_space_group_name_H-M "P -1"
_symmetry_group_IT_number 2
_symmetry_cell_setting 'triclinic'
loop_
_space_group_symop_operation_xyz
x,y,z
-x,-y,-z
loop_
_atom_site_type_symbol
_atom_site_label
_atom_site_fract_x
_atom_site_fract_y
_atom_site_fract_z
Si Si1 0.428967 0.995437 0.901906
Si Si2 0.972196 0.573964 0.126750
Si Si3 0.822118 0.117759 0.564456
Si Si4 0.164515 0.881767 0.705893
Si Si5 0.457795 0.647809 0.540109
Si Si6 0.326192 0.331425 0.310772
Si Si7 0.767508 0.770205 0.012974
O O1 0.651224 0.124425 0.704563
O O2 0.291092 0.094437 0.933712
O O3 0.500000 0.000000 0.000000
O O4 0.241323 0.746514 0.000504
O O5 0.892874 0.343965 0.169858
O O6 0.815285 0.484908 0.320646
O O7 0.882650 0.692480 0.068080
O O8 0.807636 0.121296 0.435171
O O9 0.092900 0.294606 0.439076
O O10 0.746924 0.875850 0.675594
O O11 0.389253 0.098317 0.616633
O O12 0.956775 0.887969 0.813960
O O13 0.500000 0.500000 0.500000
O O14 0.553402 0.666039 0.622978
O O15 0.521952 0.559170 0.119904
#
# Coordination Sequence:
#
# PCOD9028110 Si02
#       7
#     2   2   2   2   2   2   2
#     4  12  29  46  72 107 149 195 241 304 370 427
#     4  11  25  46  69 105 145 192 244 299 357 438
#     4  10  24  45  71 104 150 182 248 290 365 438
#     4  11  24  43  78 109 140 195 242 294 362 435
#     4  10  22  41  71 110 145 183 241 300 364 423
#     4   9  22  43  71 101 143 194 230 299 358 442
#     4  11  25  46  72 103 148 186 247 300 367 419
#
# _framework density 25.492984
#
# number of rings (size 3 to 8) (size 9 to 14) (size 15 to 20)
#    0.000    1.429    0.000    3.000   10.000    8.000 
#    0.000    0.000    0.000    0.000    0.000    0.000 
#    0.000    0.000    0.000    0.000    0.000    0.000 
#
# Total GULP energy -78308.030280 kJ/mol
# GULP energy per Si atom -5593.430734 kJ/mol
# Density = 2.543496 g / cm^3
# Si number density = 25.492984 Si / 1000 Ang^3
#
#
#
# Elastic Constant Matrix: (Units=GPa)
#
#
# Indices 1 2 3 4 5 6 
#
# 1 88.6827 26.4661 48.3504 6.3904 -18.2276 3.4470
# 2 26.4661 68.8425 30.7806 3.9859 -4.4248 -14.3726
# 3 48.3504 30.7806 144.7368 15.5506 -42.5171 -2.0959
# 4 6.3904 3.9859 15.5506 48.7937 -7.4829 -15.9148
# 5 -18.2276 -4.4248 -42.5171 -7.4829 55.4349 5.7060
# 6 3.4470 -14.3726 -2.0959 -15.9148 5.7060 45.0903
#
#
#
# Elastic Compliance Matrix: (Units=1/GPa)
#
#
# Indices 1 2 3 4 5 6 
#
# 1 0.015250 -0.004939 -0.003271 -0.001398 0.002301 -0.003677
# 2 -0.004939 0.019235 -0.003525 0.002149 -0.003276 0.007518
# 3 -0.003271 -0.003525 0.011036 -0.002412 0.006998 -0.002097
# 4 -0.001398 0.002149 -0.002412 0.024313 0.000193 0.009236
# 5 0.002301 -0.003276 0.006998 0.000193 0.024329 -0.003905
# 6 -0.003677 0.007518 -0.002097 0.009236 -0.003905 0.028512
#
#
# Mechanical properties :
#
#
# Convention : Reuss Voigt Hill
#
# Bulk Modulus (GPa) = 45.35012 57.05068 51.20040
# Shear Modulus (GPa) = 32.57400 42.97476 37.77438
#
# Velocity S-wave (km/s) = 3.57846 4.11024 3.85353
# Velocity P-wave (km/s) = 5.90777 6.70470 6.31881
#
# Compressibility (1/GPa) = 0.02205066
#
# Stress axis : x y z
#
# Youngs Moduli (GPa) = 65.57294 51.98737 90.61374
#
# Poissons Ratio (x) = 0.25677 0.29642
# Poissons Ratio (y) = 0.32387 0.31943
# Poissons Ratio (z) = 0.21450 0.18326
#
# Static dielectric constant tensor:
#      x y z
#    x 2.041660 -0.022330 0.071780 
#    y -0.022330 2.017600 0.000510 
#    z 0.071780 0.000510 2.200120 
# 
# From -- ./inp_files/381628.got.cif
#   From: 2010.05.17/outbox.cif.g08.bks.cpg/sg2_191_cif.got.tgz:381628.got - 2010.06.03 11:33:40.
