data_PCOD9028262
_publ_section_title
;
Structure prediction by ZEFSAII (Michael W. Deem and Ramdas Pophale) SiO2 
 PCOD9028262
Probable space group: P -1
;
_chemical_formula_sum "Si O2"
_cell_formula_units_Z 14
_cell_length_a 11.068727
_cell_length_b 8.726076
_cell_length_c 15.678591
_cell_angle_alpha 44.618942
_cell_angle_beta 141.537898
_cell_angle_gamma 136.345637
_cell_volume 611.867058
_symmetry_space_group_name_H-M "P -1"
_symmetry_group_IT_number 2
_symmetry_cell_setting 'triclinic'
loop_
_space_group_symop_operation_xyz
x,y,z
-x,-y,-z
loop_
_atom_site_type_symbol
_atom_site_label
_atom_site_fract_x
_atom_site_fract_y
_atom_site_fract_z
Si Si1 0.911201 0.904377 0.220116
Si Si2 0.788890 0.203738 0.146007
Si Si3 0.956462 0.315369 0.473186
Si Si4 0.184719 0.989884 0.169307
Si Si5 0.795839 0.504994 0.632292
Si Si6 0.252080 0.055759 0.609584
Si Si7 0.492207 0.501246 0.097480
O O1 0.726518 0.654770 0.196355
O O2 0.004880 0.887773 0.370699
O O3 0.815519 0.100781 0.109982
O O4 0.078994 0.959433 0.216291
O O5 0.013195 0.370076 0.245118
O O6 0.682238 0.995157 0.240256
O O7 0.647924 0.356486 0.005265
O O8 0.000000 0.500000 0.500000
O O9 0.114235 0.457293 0.430099
O O10 0.749985 0.156183 0.369042
O O11 0.375084 0.238956 0.170258
O O12 0.259302 0.774286 0.273775
O O13 0.000000 0.000000 0.000000
O O14 0.664993 0.679536 0.485465
O O15 0.000000 0.000000 0.500000
O O16 0.500000 0.500000 0.000000
#
# Coordination Sequence:
#
# PCOD9028262 Si02
#       7
#     2   2   2   2   2   2   2
#     4  12  22  40  67  91 127 160 205 260 307 369
#     4  10  19  38  63  95 120 164 209 249 311 364
#     4  10  17  31  63  98 114 161 204 247 311 359
#     4  12  24  41  62  93 123 168 209 249 309 367
#     4  10  17  36  63  90 126 155 210 250 298 378
#     4   8  16  31  59  92 119 155 208 249 298 371
#     4  12  26  42  60  91 126 168 208 250 312 368
#
# _framework density 22.880786000000001
#
# number of rings (size 3 to 8) (size 9 to 14) (size 15 to 20)
#    0.000    1.714    8.571    0.429    2.000    0.571 
#    0.000    0.714    0.000    0.857    0.000    1.000 
#    0.000    0.000    0.000    0.000    0.000    0.000 
#
# Total GULP energy -78001.395466 kJ/mol
# GULP energy per Si atom -5571.528248 kJ/mol
# Density = 2.282871 g / cm^3
# Si number density = 22.880786 Si / 1000 Ang^3
#
#
#
# Elastic Constant Matrix: (Units=GPa)
#
#
# Indices 1 2 3 4 5 6 
#
# 1 78.5464 70.5878 16.4618 -3.5818 -1.4993 -27.6218
# 2 70.5878 147.4695 19.5135 -35.9353 -14.0531 -6.2000
# 3 16.4618 19.5135 60.3762 -17.7599 -1.5165 -2.4693
# 4 -3.5818 -35.9353 -17.7599 41.8731 -16.1722 -7.3376
# 5 -1.4993 -14.0531 -1.5165 -16.1722 34.1064 -4.9206
# 6 -27.6218 -6.2000 -2.4693 -7.3376 -4.9206 36.6006
#
#
#
# Elastic Compliance Matrix: (Units=1/GPa)
#
#
# Indices 1 2 3 4 5 6 
#
# 1 0.049259 -0.031827 -0.013154 -0.034748 -0.025044 0.020563
# 2 -0.031827 0.033974 0.010980 0.042978 0.032818 -0.004496
# 3 -0.013154 0.010980 0.024617 0.025624 0.017344 0.001063
# 4 -0.034748 0.042978 0.025624 0.095204 0.063974 0.010472
# 5 -0.025044 0.032818 0.017344 0.063974 0.074384 0.010655
# 6 0.020563 -0.004496 0.001063 0.010472 0.010655 0.045682
#
#
# Mechanical properties :
#
#
# Convention : Reuss Voigt Hill
#
# Bulk Modulus (GPa) = 25.09524 55.50205 40.29864
# Shear Modulus (GPa) = 12.36386 34.50462 23.43424
#
# Velocity S-wave (km/s) = 2.32709 3.88753 3.20377
# Velocity P-wave (km/s) = 4.26756 6.66785 5.59787
#
# Compressibility (1/GPa) = 0.03984820
#
# Stress axis : x y z
#
# Youngs Moduli (GPa) = 20.30074 29.43439 40.62268
#
# Poissons Ratio (x) = 0.93682 0.53433
# Poissons Ratio (y) = 0.64612 -0.44604
# Poissons Ratio (z) = 0.26703 -0.32319
#
# Static dielectric constant tensor:
#      x y z
#    x 1.941370 -0.047440 0.121590 
#    y -0.047440 1.928240 -0.093180 
#    z 0.121590 -0.093180 1.923960 
# 
# From -- ./inp_files/515095.got.cif
#   From: 2010.05.17/outbox.cif.g08.bks.cpg/sg2_258_cif.got.tgz:515095.got - 2010.06.03 11:33:40.
