data_PCOD9028138
_publ_section_title
;
Structure prediction by ZEFSAII (Michael W. Deem and Ramdas Pophale) SiO2 
 PCOD9028138
Probable space group: P -1
;
_chemical_formula_sum "Si O2"
_cell_formula_units_Z 16
_cell_length_a 16.027267
_cell_length_b 20.277425
_cell_length_c 26.406125
_cell_angle_alpha 17.753266
_cell_angle_beta 17.478550
_cell_angle_gamma 28.142027
_cell_volume 751.987081
_symmetry_space_group_name_H-M "P -1"
_symmetry_group_IT_number 2
_symmetry_cell_setting 'triclinic'
loop_
_space_group_symop_operation_xyz
x,y,z
-x,-y,-z
loop_
_atom_site_type_symbol
_atom_site_label
_atom_site_fract_x
_atom_site_fract_y
_atom_site_fract_z
Si Si1 0.333527 0.542910 0.989841
Si Si2 0.599751 0.607268 0.052089
Si Si3 0.722489 0.831147 0.624952
Si Si4 0.691257 0.583588 0.540951
Si Si5 0.229276 0.773588 0.619968
Si Si6 0.290473 0.955194 0.935243
Si Si7 0.732507 0.574006 0.354317
Si Si8 0.285549 0.750438 0.308796
O O1 0.388861 0.503691 0.928236
O O2 0.409439 0.347119 0.122880
O O3 0.005333 0.517683 0.212440
O O4 0.497537 0.783015 0.744366
O O5 0.460216 0.813982 0.973552
O O6 0.926232 0.682592 0.831755
O O7 0.387449 0.445886 0.333031
O O8 0.990716 0.772830 0.486686
O O9 0.815786 0.074725 0.417830
O O10 0.397922 0.606297 0.667487
O O11 0.750904 0.366225 0.639533
O O12 0.985021 0.789116 0.213454
O O13 0.474471 0.933686 0.324975
O O14 0.219746 0.164991 0.850348
O O15 0.500000 0.500000 0.500000
O O16 0.632363 0.422763 0.573086
O O17 0.500000 0.000000 0.000000
#
# Coordination Sequence:
#
# PCOD9028138 Si02
#       8
#     2   2   2   2   2   2   2   2
#     4  10  22  42  67  99 133 180 227 283 344 412
#     4  12  26  45  70 106 143 182 236 294 350 415
#     4  10  22  41  71  96 134 177 231 280 346 417
#     4  12  27  46  71 105 145 185 231 295 356 416
#     4  12  24  44  73 103 138 187 240 284 349 422
#     4  12  25  45  74 103 138 186 242 288 342 422
#     4  11  25  43  70 100 137 179 232 284 342 414
#     4  11  25  44  69 101 139 180 225 284 353 414
#
# _framework density 21.276961
#
# number of rings (size 3 to 8) (size 9 to 14) (size 15 to 20)
#    0.000    0.750    2.500    4.500    8.750    0.000 
#    0.000    1.250    0.000    0.000    0.000    0.000 
#    0.000    0.000    0.000    0.000    0.000    0.000 
#
# Total GULP energy -89373.236014 kJ/mol
# GULP energy per Si atom -5585.827251 kJ/mol
# Density = 2.122853 g / cm^3
# Si number density = 21.276961 Si / 1000 Ang^3
#
#
#
# Elastic Constant Matrix: (Units=GPa)
#
#
# Indices 1 2 3 4 5 6 
#
# 1 49.1227 -4.0477 58.7778 12.3498 33.5832 45.1073
# 2 -4.0477 51.3538 13.6668 3.4918 25.1477 35.5188
# 3 58.7778 13.6668 46.7633 14.3175 -34.8688 -2.9092
# 4 12.3498 3.4918 14.3175 24.0074 11.1676 -1.6522
# 5 33.5832 25.1477 -34.8688 11.1676 5.8780 -22.8754
# 6 45.1073 35.5188 -2.9092 -1.6522 -22.8754 35.9563
#
#
#
# Elastic Compliance Matrix: (Units=1/GPa)
#
#
# Indices 1 2 3 4 5 6 
#
# 1 0.009821 -0.006305 0.002391 -0.011282 0.012529 0.001553
# 2 -0.006305 0.018134 0.009232 -0.008099 0.006019 -0.005800
# 3 0.002391 0.009232 0.014398 -0.009996 -0.004626 -0.014357
# 4 -0.011282 -0.008099 -0.009996 0.061247 -0.011837 0.016629
# 5 0.012529 0.006019 -0.004626 -0.011837 0.013577 -0.013943
# 6 0.001553 -0.005800 -0.014357 0.016629 -0.013943 0.022324
#
#
# Mechanical properties :
#
#
# Convention : Reuss Voigt Hill
#
# Bulk Modulus (GPa) = 18.87182 31.55931 25.21556
# Shear Modulus (GPa) = 34.12307 18.42452 26.27379
#
# Velocity S-wave (km/s) = 4.00904 2.94587 3.51785
# Velocity P-wave (km/s) = 5.50624 5.14157 5.32703
#
# Compressibility (1/GPa) = 0.05298907
#
# Stress axis : x y z
#
# Youngs Moduli (GPa) = 101.82267 55.14578 69.45252
#
# Poissons Ratio (x) = 0.34769 -0.16608
# Poissons Ratio (y) = 0.64198 -0.64115
# Poissons Ratio (z) = -0.24349 -0.50908
#
# Static dielectric constant tensor:
#      x y z
#    x 1.792710 -0.023790 -0.013680 
#    y -0.023790 1.766890 -0.007930 
#    z -0.013680 -0.007930 1.875400 
# 
# From -- ./inp_files/612178.got.cif
#   From: 2010.05.17/outbox.cif.g08.bks.cpg/sg2_307_cif.got.tgz:612178.got - 2010.06.03 11:33:40.
