data_PCOD9028219
_publ_section_title
;
Structure prediction by ZEFSAII (Michael W. Deem and Ramdas Pophale) SiO2 
 PCOD9028219
Probable space group: P -1
;
_chemical_formula_sum "Si O2"
_cell_formula_units_Z 16
_cell_length_a 11.543042
_cell_length_b 5.921780
_cell_length_c 11.787193
_cell_angle_alpha 62.746453
_cell_angle_beta 75.790531
_cell_angle_gamma 78.073499
_cell_volume 690.194475
_symmetry_space_group_name_H-M "P -1"
_symmetry_group_IT_number 2
_symmetry_cell_setting 'triclinic'
loop_
_space_group_symop_operation_xyz
x,y,z
-x,-y,-z
loop_
_atom_site_type_symbol
_atom_site_label
_atom_site_fract_x
_atom_site_fract_y
_atom_site_fract_z
Si Si1 0.082791 0.487062 0.312689
Si Si2 0.877560 0.304214 0.517783
Si Si3 0.940519 0.290585 0.981635
Si Si4 0.548328 0.871563 0.874544
Si Si5 0.331208 0.595193 0.919071
Si Si6 0.530953 0.599249 0.282826
Si Si7 0.302719 0.104595 0.384783
Si Si8 0.655265 0.700065 0.457197
O O1 0.064029 0.690712 0.372582
O O2 0.070230 0.582166 0.168375
O O3 0.217800 0.366877 0.330605
O O4 0.986434 0.288899 0.407091
O O5 0.791301 0.564744 0.450481
O O6 0.783335 0.101909 0.581904
O O7 0.805771 0.286470 0.064276
O O8 0.000000 0.500000 0.000000
O O9 0.000000 0.000000 0.000000
O O10 0.421260 0.757726 0.929183
O O11 0.592549 0.876426 0.732687
O O12 0.531370 0.172706 0.834539
O O13 0.645348 0.688394 0.964145
O O14 0.380026 0.566392 0.785364
O O15 0.605804 0.716974 0.338768
O O16 0.431091 0.464015 0.407709
O O17 0.342790 0.058649 0.515400
#
# Coordination Sequence:
#
# PCOD9028219 Si02
#       8
#     2   2   2   2   2   2   2   2
#     4  10  24  45  68 102 138 185 260 295 372 440
#     4  10  22  41  72  96 136 192 238 310 364 442
#     4  12  31  54  78 109 153 204 252 313 373 446
#     4  11  23  41  73 103 139 193 241 309 366 448
#     4  11  26  47  71 105 139 193 254 298 374 446
#     4  11  23  42  65 103 150 186 233 304 373 449
#     4  11  20  42  67 105 137 190 240 306 375 438
#     4  10  23  38  64 102 145 182 237 292 377 445
#
# _framework density 23.181873
#
# number of rings (size 3 to 8) (size 9 to 14) (size 15 to 20)
#    0.000    1.250    3.750    0.750    5.250    1.500 
#    0.000    0.000    0.000    0.000    0.000    0.000 
#    0.000    0.000    0.000    0.000    0.000    0.000 
#
# Total GULP energy -89309.065776 kJ/mol
# GULP energy per Si atom -5581.816611 kJ/mol
# Density = 2.312911 g / cm^3
# Si number density = 23.181873 Si / 1000 Ang^3
#
#
#
# Elastic Constant Matrix: (Units=GPa)
#
#
# Indices 1 2 3 4 5 6 
#
# 1 126.8746 45.2573 31.8619 12.9677 -7.0713 -10.2180
# 2 45.2573 78.9288 44.3166 10.9948 -0.4167 -14.1295
# 3 31.8619 44.3166 88.0282 18.5423 9.7582 0.5857
# 4 12.9677 10.9948 18.5423 34.7155 -0.0423 -4.7060
# 5 -7.0713 -0.4167 9.7582 -0.0423 36.7802 8.2878
# 6 -10.2180 -14.1295 0.5857 -4.7060 8.2878 43.9475
#
#
#
# Elastic Compliance Matrix: (Units=1/GPa)
#
#
# Indices 1 2 3 4 5 6 
#
# 1 0.010236 -0.004977 -0.001096 -0.001630 0.002152 0.000214
# 2 -0.004977 0.021770 -0.009416 0.000804 0.000444 0.005970
# 3 -0.001096 -0.009416 0.018477 -0.006948 -0.004454 -0.003433
# 4 -0.001630 0.000804 -0.006948 0.033331 0.000814 0.003388
# 5 0.002152 0.000444 -0.004454 0.000814 0.029882 -0.004846
# 6 0.000214 0.005970 -0.003433 0.003388 -0.004846 0.026046
#
#
# Mechanical properties :
#
#
# Convention : Reuss Voigt Hill
#
# Bulk Modulus (GPa) = 51.27081 59.63370 55.45225
# Shear Modulus (GPa) = 28.21301 34.58169 31.39735
#
# Velocity S-wave (km/s) = 3.49238 3.86652 3.68420
# Velocity P-wave (km/s) = 6.19896 6.76117 6.48616
#
# Compressibility (1/GPa) = 0.01950428
#
# Stress axis : x y z
#
# Youngs Moduli (GPa) = 97.69164 45.93525 54.12031
#
# Poissons Ratio (x) = 0.22864 0.05931
# Poissons Ratio (y) = 0.48625 0.50962
# Poissons Ratio (z) = 0.10705 0.43254
#
# Static dielectric constant tensor:
#      x y z
#    x 1.860910 0.004450 0.016860 
#    y 0.004450 2.077480 -0.011750 
#    z 0.016860 -0.011750 1.853000 
# 
# From -- ./inp_files/409835.got.cif
#   From: 2010.05.17/outbox.cif.g08.bks.cpg/sg2_205_cif.got.tgz:409835.got - 2010.06.03 11:33:40.
