data_PCOD9028994
_publ_section_title
;
Structure prediction by ZEFSAII (Michael W. Deem and Ramdas Pophale) SiO2 
 PCOD9028994
Probable space group: P -1
;
_chemical_formula_sum "Si O2"
_cell_formula_units_Z 12
_cell_length_a 7.963265
_cell_length_b 5.803158
_cell_length_c 12.286815
_cell_angle_alpha 72.429226
_cell_angle_beta 110.890403
_cell_angle_gamma 98.915502
_cell_volume 505.010609
_symmetry_space_group_name_H-M "P -1"
_symmetry_group_IT_number 2
_symmetry_cell_setting 'triclinic'
loop_
_space_group_symop_operation_xyz
x,y,z
-x,-y,-z
loop_
_atom_site_type_symbol
_atom_site_label
_atom_site_fract_x
_atom_site_fract_y
_atom_site_fract_z
Si Si1 0.578698 0.035832 0.354176
Si Si2 0.183016 0.779806 0.258206
Si Si3 0.169341 0.066941 0.774742
Si Si4 0.617126 0.656385 0.590655
Si Si5 0.481707 0.294921 0.931050
Si Si6 0.137926 0.719851 0.022468
O O1 0.517280 0.288873 0.350026
O O2 0.380777 0.912172 0.295404
O O3 0.715708 0.019881 0.288666
O O4 0.659423 0.899378 0.496485
O O5 0.214585 0.494957 0.316752
O O6 0.101122 0.842397 0.112320
O O7 0.033928 0.855493 0.299390
O O8 0.291824 0.286603 0.827090
O O9 0.153021 0.860539 0.892465
O O10 0.500000 0.500000 0.500000
O O11 0.660303 0.359678 0.895743
O O12 0.500000 0.500000 0.000000
O O13 0.500000 0.000000 0.000000
O O14 0.000000 0.500000 0.000000
#
# Coordination Sequence:
#
# PCOD9028994 Si02
#       6
#     2   2   2   2   2   2
#     4  10  22  47  72  98 140 179 239 297 362 434
#     4  11  23  41  70 102 141 183 234 291 357 424
#     4  11  24  44  70 107 141 193 243 291 363 435
#     4   9  22  46  71 100 133 182 230 301 368 426
#     4  10  22  42  65  98 145 193 243 293 354 434
#     4  11  24  42  66 104 149 191 234 294 356 437
#
# _framework density 23.761876000000001
#
# number of rings (size 3 to 8) (size 9 to 14) (size 15 to 20)
#    0.000    1.667    1.667    1.500    2.333    4.667 
#    6.000    7.500    0.000    0.000    0.000    0.000 
#    0.000    0.000    0.000    0.000    0.000    0.000 
#
# Total GULP energy -66922.969033 kJ/mol
# GULP energy per Si atom -5576.914086 kJ/mol
# Density = 2.370779 g / cm^3
# Si number density = 23.761876 Si / 1000 Ang^3
#
#
#
# Elastic Constant Matrix: (Units=GPa)
#
#
# Indices 1 2 3 4 5 6 
#
# 1 195.3632 59.9029 66.3122 0.6706 -27.3811 -19.3069
# 2 59.9029 104.0320 48.8193 15.5274 -13.3666 -14.6372
# 3 66.3122 48.8193 120.1585 -5.2409 -8.7663 -19.1718
# 4 0.6706 15.5274 -5.2409 42.4305 -14.1109 -1.8565
# 5 -27.3811 -13.3666 -8.7663 -14.1109 39.6413 6.5946
# 6 -19.3069 -14.6372 -19.1718 -1.8565 6.5946 52.5964
#
#
#
# Elastic Compliance Matrix: (Units=1/GPa)
#
#
# Indices 1 2 3 4 5 6 
#
# 1 0.007479 -0.002811 -0.002488 0.002060 0.004303 0.000590
# 2 -0.002811 0.014243 -0.004321 -0.005764 -0.000345 0.001197
# 3 -0.002488 -0.004321 0.011986 0.003289 0.000257 0.002337
# 4 0.002060 -0.005764 0.003289 0.029626 0.010744 0.000050
# 5 0.004303 -0.000345 0.000257 0.010744 0.032312 -0.002095
# 6 0.000590 0.001197 0.002337 0.000050 -0.002095 0.020678
#
#
# Mechanical properties :
#
#
# Convention : Reuss Voigt Hill
#
# Bulk Modulus (GPa) = 69.11441 85.51361 77.31401
# Shear Modulus (GPa) = 35.61554 43.23492 39.42523
#
# Velocity S-wave (km/s) = 3.87570 4.27020 4.07772
# Velocity P-wave (km/s) = 7.01267 7.77037 7.40122
#
# Compressibility (1/GPa) = 0.01446876
#
# Stress axis : x y z
#
# Youngs Moduli (GPa) = 133.70266 70.20927 83.43029
#
# Poissons Ratio (x) = 0.19735 0.20755
# Poissons Ratio (y) = 0.37582 0.36053
# Poissons Ratio (z) = 0.33261 0.30340
#
# Static dielectric constant tensor:
#      x y z
#    x 1.973310 -0.080650 0.030780 
#    y -0.080650 2.499930 0.166180 
#    z 0.030780 0.166180 2.102690 
# 
# From -- ./inp_files/372414.got.cif
#   From: 2010.05.17/outbox.cif.g08.bks.cpg/sg2_187_cif.got.tgz:372414.got - 2010.06.03 11:33:40.
