data_PCOD9028578
_publ_section_title
;
Structure prediction by ZEFSAII (Michael W. Deem and Ramdas Pophale) SiO2 
 PCOD9028578
Probable space group: P -1
;
_chemical_formula_sum "Si O2"
_cell_formula_units_Z 15
_cell_length_a 15.242954
_cell_length_b 11.549829
_cell_length_c 26.070987
_cell_angle_alpha 30.971465
_cell_angle_beta 15.567691
_cell_angle_gamma 31.315867
_cell_volume 620.411944
_symmetry_space_group_name_H-M "P -1"
_symmetry_group_IT_number 2
_symmetry_cell_setting 'triclinic'
loop_
_space_group_symop_operation_xyz
x,y,z
-x,-y,-z
loop_
_atom_site_type_symbol
_atom_site_label
_atom_site_fract_x
_atom_site_fract_y
_atom_site_fract_z
Si Si1 0.429032 0.270941 0.669954
Si Si2 0.713032 0.341955 0.652113
Si Si3 0.685120 0.397756 0.040128
Si Si4 0.321843 0.026907 0.274027
Si Si5 0.507487 0.339357 0.434426
Si Si6 0.697053 0.738662 0.993151
Si Si7 0.500000 0.500000 0.000000
Si Si8 0.591033 0.959926 0.607164
O O1 0.548914 0.466405 0.562209
O O2 0.651361 0.148394 0.544443
O O3 0.391910 0.083182 0.805045
O O4 0.061129 0.362202 0.820311
O O5 0.687352 0.557819 0.546020
O O6 0.440758 0.379365 0.835820
O O7 0.644859 0.141187 0.729121
O O8 0.070222 0.230595 0.518410
O O9 0.626151 0.609133 0.031261
O O10 0.432839 0.422542 0.125923
O O11 0.652036 0.177964 0.175914
O O12 0.361933 0.276846 0.140934
O O13 0.000000 0.000000 0.500000
O O14 0.446982 0.105967 0.583192
O O15 0.903707 0.288855 0.218391
O O16 0.500000 0.000000 0.000000
#
# Coordination Sequence:
#
# PCOD9028578 Si02
#       8
#     2   2   2   2   2   2   1   2
#     4  10  22  42  63  95 139 177 222 278 345 418
#     4  11  23  42  70  98 137 180 236 274 341 422
#     4  11  26  42  66 100 137 178 227 287 348 413
#     4  11  22  41  66 102 135 176 230 282 342 413
#     4  10  24  40  70  99 127 182 228 284 339 413
#     4  11  22  46  71  91 131 187 229 279 345 417
#     4  12  24  40  66 100 138 174 228 286 354 398
#     4  12  22  42  65 101 138 179 221 291 348 404
#
# _framework density 24.177485000000001
#
# number of rings (size 3 to 8) (size 9 to 14) (size 15 to 20)
#    0.000    1.067    4.000    2.000    1.867    3.733 
#    0.000    0.667    0.000    0.000    0.000    0.000 
#    0.000    0.000    0.000    0.000    0.000    0.000 
#
# Total GULP energy -83655.740395 kJ/mol
# GULP energy per Si atom -5577.049360 kJ/mol
# Density = 2.412246 g / cm^3
# Si number density = 24.177485 Si / 1000 Ang^3
#
#
#
# Elastic Constant Matrix: (Units=GPa)
#
#
# Indices 1 2 3 4 5 6 
#
# 1 55.3698 28.5018 17.2973 -2.4691 29.1448 -7.4211
# 2 28.5018 113.8944 32.7608 -15.8941 12.8431 -23.9014
# 3 17.2973 32.7608 76.9834 -10.8233 25.0562 -11.4073
# 4 -2.4691 -15.8941 -10.8233 46.8364 -1.0175 17.7860
# 5 29.1448 12.8431 25.0562 -1.0175 28.1955 -8.2508
# 6 -7.4211 -23.9014 -11.4073 17.7860 -8.2508 34.0181
#
#
#
# Elastic Compliance Matrix: (Units=1/GPa)
#
#
# Indices 1 2 3 4 5 6 
#
# 1 0.050904 -0.010746 0.012240 0.004071 -0.061177 -0.009307
# 2 -0.010746 0.013550 -0.006415 -0.000348 0.013076 0.008378
# 3 0.012240 -0.006415 0.023252 0.004730 -0.031434 -0.004136
# 4 0.004071 -0.000348 0.004730 0.028097 -0.011716 -0.015303
# 5 -0.061177 0.013076 -0.031434 -0.011716 0.126745 0.022167
# 6 -0.009307 0.008378 -0.004136 -0.015303 0.022167 0.045242
#
#
# Mechanical properties :
#
#
# Convention : Reuss Voigt Hill
#
# Bulk Modulus (GPa) = 12.84288 44.81859 28.83073
# Shear Modulus (GPa) = 15.45188 32.98920 24.22054
#
# Velocity S-wave (km/s) = 2.53079 3.69787 3.16853
# Velocity P-wave (km/s) = 3.72335 6.06711 5.03355
#
# Compressibility (1/GPa) = 0.07786417
#
# Stress axis : x y z
#
# Youngs Moduli (GPa) = 19.64500 73.80316 43.00641
#
# Poissons Ratio (x) = 0.79308 -0.52641
# Poissons Ratio (y) = 0.21110 0.27588
# Poissons Ratio (z) = -0.24046 0.47344
#
# Static dielectric constant tensor:
#      x y z
#    x 1.964270 -0.086680 -0.032530 
#    y -0.086680 2.013560 0.015770 
#    z -0.032530 0.015770 1.915420 
# 
# From -- ./inp_files/611909.got.cif
#   From: 2010.05.17/outbox.cif.g08.bks.cpg/sg2_306_cif.got.tgz:611909.got - 2010.06.03 11:33:40.
