data_PCOD9028733
_publ_section_title
;
Structure prediction by ZEFSAII (Michael W. Deem and Ramdas Pophale) SiO2 
 PCOD9028733
Probable space group: P -1
;
_chemical_formula_sum "Si O2"
_cell_formula_units_Z 15
_cell_length_a 16.529566
_cell_length_b 6.749905
_cell_length_c 7.033840
_cell_angle_alpha 61.616300
_cell_angle_beta 116.789881
_cell_angle_gamma 123.008999
_cell_volume 559.097397
_symmetry_space_group_name_H-M "P -1"
_symmetry_group_IT_number 2
_symmetry_cell_setting 'triclinic'
loop_
_space_group_symop_operation_xyz
x,y,z
-x,-y,-z
loop_
_atom_site_type_symbol
_atom_site_label
_atom_site_fract_x
_atom_site_fract_y
_atom_site_fract_z
Si Si1 0.817495 0.187267 0.756205
Si Si2 0.000000 0.500000 0.500000
Si Si3 0.361863 0.932090 0.895721
Si Si4 0.115922 0.168908 0.882612
Si Si5 0.539116 0.424173 0.881903
Si Si6 0.905312 0.714017 0.785044
Si Si7 0.601328 0.970881 0.659385
Si Si8 0.147570 0.892163 0.594899
O O1 0.872176 0.438812 0.808746
O O2 0.880719 0.199152 0.621468
O O3 0.706679 0.147838 0.595627
O O4 0.805485 0.957049 0.987921
O O5 0.919591 0.641444 0.341138
O O6 0.946344 0.337375 0.321964
O O7 0.253436 0.908497 0.744768
O O8 0.445839 0.196721 0.791266
O O9 0.384507 0.703278 0.952052
O O10 0.377814 0.958039 0.128008
O O11 0.148792 0.290191 0.070591
O O12 0.016441 0.908434 0.871709
O O13 0.584696 0.692195 0.712446
O O14 0.500000 0.500000 0.000000
O O15 0.864001 0.855025 0.524595
O O16 0.500000 0.000000 0.500000
#
# Coordination Sequence:
#
# PCOD9028733 Si02
#       8
#     2   1   2   2   2   2   2   2
#     4  11  24  40  66  96 131 177 222 268 328 404
#     4  10  22  42  64  96 138 160 216 278 318 388
#     4  10  23  44  70  92 131 182 212 276 340 386
#     4   9  20  41  64  93 129 172 214 272 326 386
#     4   9  22  43  67  93 125 168 221 280 320 391
#     4   9  20  41  64  91 130 170 215 265 326 393
#     4  11  27  42  63 102 134 170 225 278 328 396
#     4  10  24  41  67  95 129 178 217 268 333 392
#
# _framework density 26.828955000000001
#
# number of rings (size 3 to 8) (size 9 to 14) (size 15 to 20)
#    0.000    2.133    0.000    1.200   11.200    2.667 
#    0.000    2.000    0.000    0.000    0.000    0.000 
#    0.000    0.000    0.000    0.000    0.000    0.000 
#
# Total GULP energy -83653.568809 kJ/mol
# GULP energy per Si atom -5576.904587 kJ/mol
# Density = 2.676789 g / cm^3
# Si number density = 26.828955 Si / 1000 Ang^3
#
#
#
# Elastic Constant Matrix: (Units=GPa)
#
#
# Indices 1 2 3 4 5 6 
#
# 1 100.7405 39.3503 47.4289 6.1705 20.4609 -14.2548
# 2 39.3503 159.1288 66.4648 -33.1775 7.4897 -33.2673
# 3 47.4289 66.4648 152.2835 -5.5188 50.3322 -10.0655
# 4 6.1705 -33.1775 -5.5188 38.4263 -4.6818 12.8139
# 5 20.4609 7.4897 50.3322 -4.6818 55.0670 3.7507
# 6 -14.2548 -33.2673 -10.0655 12.8139 3.7507 49.8094
#
#
#
# Elastic Compliance Matrix: (Units=1/GPa)
#
#
# Indices 1 2 3 4 5 6 
#
# 1 0.013654 -0.003263 -0.001495 -0.006892 -0.004088 0.003507
# 2 -0.003263 0.011583 -0.005128 0.009394 0.004920 0.002979
# 3 -0.001495 -0.005128 0.012710 -0.003839 -0.010725 0.000511
# 4 -0.006892 0.009394 -0.003839 0.038025 0.008495 -0.006896
# 5 -0.004088 0.004920 -0.010725 0.008495 0.029840 -0.004484
# 6 0.003507 0.002979 0.000511 -0.006896 -0.004484 0.025284
#
#
# Mechanical properties :
#
#
# Convention : Reuss Voigt Hill
#
# Bulk Modulus (GPa) = 55.02375 79.84897 67.43636
# Shear Modulus (GPa) = 31.86212 45.92111 38.89161
#
# Velocity S-wave (km/s) = 3.44990 4.14167 3.81151
# Velocity P-wave (km/s) = 6.03512 7.25934 6.67536
#
# Compressibility (1/GPa) = 0.01817397
#
# Stress axis : x y z
#
# Youngs Moduli (GPa) = 73.24022 86.33514 78.67883
#
# Poissons Ratio (x) = 0.28175 0.11763
# Poissons Ratio (y) = 0.23901 0.40344
# Poissons Ratio (z) = 0.10950 0.44270
#
# Static dielectric constant tensor:
#      x y z
#    x 1.628530 -0.936620 0.153380 
#    y -0.936620 0.660160 0.434370 
#    z 0.153380 0.434370 2.053940 
# 
# From -- ./inp_files/37109.got.cif
#   From: 2010.05.17/outbox.cif.g08.bks.cpg/sg2_19_cif.got.tgz:37109.got - 2010.06.03 11:33:40.
