data_PCOD9028600
_publ_section_title
;
Structure prediction by ZEFSAII (Michael W. Deem and Ramdas Pophale) SiO2 
 PCOD9028600
Probable space group: P -1
;
_chemical_formula_sum "Si O2"
_cell_formula_units_Z 16
_cell_length_a 11.863268
_cell_length_b 17.149001
_cell_length_c 7.646637
_cell_angle_alpha 103.934562
_cell_angle_beta 58.353079
_cell_angle_gamma 56.729236
_cell_volume 741.392686
_symmetry_space_group_name_H-M "P -1"
_symmetry_group_IT_number 2
_symmetry_cell_setting 'triclinic'
loop_
_space_group_symop_operation_xyz
x,y,z
-x,-y,-z
loop_
_atom_site_type_symbol
_atom_site_label
_atom_site_fract_x
_atom_site_fract_y
_atom_site_fract_z
Si Si1 0.006397 0.899742 0.745666
Si Si2 0.078147 0.239041 0.155757
Si Si3 0.292738 0.805661 0.791314
Si Si4 0.159291 0.297726 0.813072
Si Si5 0.063324 0.806854 0.264493
Si Si6 0.261642 0.417348 0.873777
Si Si7 0.574037 0.975594 0.726308
Si Si8 0.283195 0.556370 0.141179
O O1 0.189515 0.847502 0.701587
O O2 0.083653 0.843150 0.453993
O O3 0.945898 0.844612 0.852664
O O4 0.790344 0.066343 0.006994
O O5 0.913448 0.352591 0.503116
O O6 0.016532 0.309362 0.061255
O O7 0.348520 0.121139 0.895679
O O8 0.563911 0.661214 0.473390
O O9 0.182667 0.795762 0.006421
O O10 0.253350 0.326411 0.864668
O O11 0.346397 0.148766 0.487762
O O12 0.990450 0.424351 0.881737
O O13 0.176776 0.663784 0.131301
O O14 0.795040 0.923527 0.509395
O O15 0.347969 0.435847 0.960587
O O16 0.500000 0.000000 0.000000
O O17 0.500000 0.500000 0.000000
#
# Coordination Sequence:
#
# PCOD9028600 Si02
#       8
#     2   2   2   2   2   2   2   2
#     4  10  22  42  63  99 131 162 231 277 328 396
#     4  11  23  42  70  94 126 174 221 274 330 394
#     4  11  24  41  66  95 137 175 213 284 341 395
#     4  11  25  42  65  99 129 173 222 272 338 397
#     4  11  23  41  68  97 128 179 223 274 339 395
#     4  11  24  43  63  95 138 171 217 275 332 403
#     4  12  21  42  66  94 129 167 223 277 325 393
#     4  11  24  43  66  97 136 172 225 271 325 408
#
# _framework density 21.581008000000001
#
# number of rings (size 3 to 8) (size 9 to 14) (size 15 to 20)
#    0.000    1.000    3.750    3.750    1.750    3.000 
#    0.000    1.250    0.000    0.000    0.000    0.000 
#    0.000    0.000    0.000    0.000    0.000    0.000 
#
# Total GULP energy -89407.050633 kJ/mol
# GULP energy per Si atom -5587.940665 kJ/mol
# Density = 2.153189 g / cm^3
# Si number density = 21.581008 Si / 1000 Ang^3
#
#
#
# Elastic Constant Matrix: (Units=GPa)
#
#
# Indices 1 2 3 4 5 6 
#
# 1 80.0034 18.2794 26.3149 14.2881 20.4976 13.1438
# 2 18.2794 58.5309 50.4063 1.8553 23.1779 12.0920
# 3 26.3149 50.4063 122.9170 10.6547 8.6903 19.8157
# 4 14.2881 1.8553 10.6547 23.7392 1.9458 -2.3127
# 5 20.4976 23.1779 8.6903 1.9458 35.7208 11.8917
# 6 13.1438 12.0920 19.8157 -2.3127 11.8917 31.2195
#
#
#
# Elastic Compliance Matrix: (Units=1/GPa)
#
#
# Indices 1 2 3 4 5 6 
#
# 1 0.017390 0.000505 -0.001915 -0.009373 -0.008018 -0.003942
# 2 0.000505 0.038189 -0.015274 0.005825 -0.022958 0.003867
# 3 -0.001915 -0.015274 0.015884 -0.006351 0.010039 -0.007654
# 4 -0.009373 0.005825 -0.006351 0.051477 -0.003246 0.010771
# 5 -0.008018 -0.022958 0.010039 -0.003246 0.049638 -0.013253
# 6 -0.003942 0.003867 -0.007654 0.010771 -0.013253 0.042897
#
#
# Mechanical properties :
#
#
# Convention : Reuss Voigt Hill
#
# Bulk Modulus (GPa) = 26.25097 50.16139 38.20618
# Shear Modulus (GPa) = 19.11746 29.23259 24.17503
#
# Velocity S-wave (km/s) = 2.97955 3.68442 3.35057
# Velocity P-wave (km/s) = 4.90176 6.43379 5.71931
#
# Compressibility (1/GPa) = 0.03809382
#
# Stress axis : x y z
#
# Youngs Moduli (GPa) = 57.50475 26.18579 62.95710
#
# Poissons Ratio (x) = -0.01322 0.12057
# Poissons Ratio (y) = -0.02903 0.96160
# Poissons Ratio (z) = 0.11013 0.39996
#
# Static dielectric constant tensor:
#      x y z
#    x 1.883650 -0.043880 -0.018940 
#    y -0.043880 1.787810 0.032120 
#    z -0.018940 0.032120 1.767000 
# 
# From -- ./inp_files/279591.got.cif
#   From: 2010.05.17/outbox.cif.g08.bks.cpg/sg2_140_cif.got.tgz:279591.got - 2010.06.03 11:33:40.
