data_PCOD9028090
_publ_section_title
;
Structure prediction by ZEFSAII (Michael W. Deem and Ramdas Pophale) SiO2 
 PCOD9028090
Probable space group: P -1
;
_chemical_formula_sum "Si O2"
_cell_formula_units_Z 16
_cell_length_a 17.250937
_cell_length_b 9.659726
_cell_length_c 8.949907
_cell_angle_alpha 102.044472
_cell_angle_beta 59.873429
_cell_angle_gamma 143.831202
_cell_volume 702.604902
_symmetry_space_group_name_H-M "P -1"
_symmetry_group_IT_number 2
_symmetry_cell_setting 'triclinic'
loop_
_space_group_symop_operation_xyz
x,y,z
-x,-y,-z
loop_
_atom_site_type_symbol
_atom_site_label
_atom_site_fract_x
_atom_site_fract_y
_atom_site_fract_z
Si Si1 0.133542 0.702305 0.542573
Si Si2 0.431490 0.282101 0.301241
Si Si3 0.635243 0.238850 0.540671
Si Si4 0.839788 0.379550 0.958871
Si Si5 0.701970 0.704469 0.348411
Si Si6 0.555858 0.834116 0.043873
Si Si7 0.115040 0.306015 0.819831
Si Si8 0.783845 0.024070 0.089172
O O1 0.000000 0.500000 0.500000
O O2 0.014289 0.594637 0.766229
O O3 0.262770 0.981200 0.417976
O O4 0.248690 0.728367 0.494868
O O5 0.571189 0.440966 0.324212
O O6 0.369432 0.355372 0.433329
O O7 0.499364 0.316107 0.086057
O O8 0.557106 0.225984 0.748589
O O9 0.756668 0.494932 0.388269
O O10 0.500000 0.000000 0.500000
O O11 0.823796 0.517181 0.062031
O O12 0.696631 0.134948 0.937216
O O13 0.180134 0.760307 0.916907
O O14 0.869174 0.840768 0.210497
O O15 0.723848 0.876243 0.267300
O O16 0.644645 0.830486 0.056379
O O17 0.941345 0.143338 0.916358
#
# Coordination Sequence:
#
# PCOD9028090 Si02
#       8
#     2   2   2   2   2   2   2   2
#     4  12  24  44  74 106 149 186 237 309 371 421
#     4  11  26  46  68 101 146 187 242 290 369 426
#     4  12  24  39  71 110 144 185 240 300 358 431
#     4  10  22  41  71 104 134 181 235 302 357 417
#     4  11  27  44  71 102 144 197 237 295 355 442
#     4  10  24  43  70 101 139 184 237 298 358 416
#     4  12  23  42  69 105 141 178 247 292 355 427
#     4  10  22  44  72 102 135 189 238 290 361 428
#
# _framework density 22.772397999999999
#
# number of rings (size 3 to 8) (size 9 to 14) (size 15 to 20)
#    0.750    0.250    3.750    2.250    8.750    2.000 
#    0.000    0.625    0.000    0.000    0.000    0.000 
#    0.000    0.000    0.000    0.000    0.000    0.000 
#
# Total GULP energy -89182.567404 kJ/mol
# GULP energy per Si atom -5573.910463 kJ/mol
# Density = 2.272057 g / cm^3
# Si number density = 22.772398 Si / 1000 Ang^3
#
#
#
# Elastic Constant Matrix: (Units=GPa)
#
#
# Indices 1 2 3 4 5 6 
#
# 1 76.1641 13.0170 23.6903 21.0433 -29.1559 5.2074
# 2 13.0170 88.9588 47.0954 8.4319 -0.3334 11.4446
# 3 23.6903 47.0954 167.9846 22.7808 -33.4296 8.3832
# 4 21.0433 8.4319 22.7808 51.7485 0.9161 1.2168
# 5 -29.1559 -0.3334 -33.4296 0.9161 39.9830 -4.0899
# 6 5.2074 11.4446 8.3832 1.2168 -4.0899 26.1277
#
#
#
# Elastic Compliance Matrix: (Units=1/GPa)
#
#
# Indices 1 2 3 4 5 6 
#
# 1 0.023416 -0.004028 0.003264 -0.010648 0.019981 -0.000326
# 2 -0.004028 0.015065 -0.005152 0.001716 -0.007714 -0.005431
# 3 0.003264 -0.005152 0.009699 -0.004954 0.010599 0.000384
# 4 -0.010648 0.001716 -0.004954 0.025782 -0.012504 -0.000198
# 5 0.019981 -0.007714 0.010599 -0.012504 0.049101 0.004264
# 6 -0.000326 -0.005431 0.000384 -0.000198 0.004264 0.041271
#
#
# Mechanical properties :
#
#
# Convention : Reuss Voigt Hill
#
# Bulk Modulus (GPa) = 27.51294 55.63477 41.57385
# Shear Modulus (GPa) = 26.55580 40.19216 33.37398
#
# Velocity S-wave (km/s) = 3.41858 4.20569 3.83240
# Velocity P-wave (km/s) = 5.26215 6.93308 6.15458
#
# Compressibility (1/GPa) = 0.03634654
#
# Stress axis : x y z
#
# Youngs Moduli (GPa) = 42.70623 66.37713 103.10233
#
# Poissons Ratio (x) = 0.26737 -0.33648
# Poissons Ratio (y) = 0.17202 0.53123
# Poissons Ratio (z) = -0.13937 0.34201
#
# Static dielectric constant tensor:
#      x y z
#    x 2.023880 -0.029810 0.087840 
#    y -0.029810 1.935710 0.026850 
#    z 0.087840 0.026850 1.941550 
# 
# From -- ./inp_files/345436.got.cif
#   From: 2010.05.17/outbox.cif.g08.bks.cpg/sg2_173_cif.got.tgz:345436.got - 2010.06.03 11:33:40.
