data_PCOD9028528
_publ_section_title
;
Structure prediction by ZEFSAII (Michael W. Deem and Ramdas Pophale) SiO2 
 PCOD9028528
Probable space group: P -1
;
_chemical_formula_sum "Si O2"
_cell_formula_units_Z 15
_cell_length_a 12.387216
_cell_length_b 14.475822
_cell_length_c 8.568791
_cell_angle_alpha 40.576222
_cell_angle_beta 59.406171
_cell_angle_gamma 39.075954
_cell_volume 617.676166
_symmetry_space_group_name_H-M "P -1"
_symmetry_group_IT_number 2
_symmetry_cell_setting 'triclinic'
loop_
_space_group_symop_operation_xyz
x,y,z
-x,-y,-z
loop_
_atom_site_type_symbol
_atom_site_label
_atom_site_fract_x
_atom_site_fract_y
_atom_site_fract_z
Si Si1 0.156729 0.435402 0.862057
Si Si2 0.272870 0.553018 0.857806
Si Si3 0.401155 0.191582 0.434125
Si Si4 0.072727 0.267881 0.611575
Si Si5 0.060170 0.114162 0.140137
Si Si6 0.126373 0.940137 0.835769
Si Si7 0.616570 0.007556 0.796449
Si Si8 0.500000 0.500000 0.000000
O O1 0.274567 0.204942 0.086046
O O2 0.082274 0.531291 0.623307
O O3 0.257615 0.496033 0.771826
O O4 0.000000 0.500000 0.000000
O O5 0.349597 0.364439 0.147342
O O6 0.395189 0.578974 0.805884
O O7 0.074773 0.727862 0.835047
O O8 0.228358 0.253489 0.545973
O O9 0.500000 0.000000 0.500000
O O10 0.510046 0.163402 0.536535
O O11 0.025124 0.232597 0.855670
O O12 0.149175 0.088491 0.664743
O O13 0.256300 0.988782 0.208633
O O14 0.003286 0.999596 0.287235
O O15 0.309193 0.713835 0.955065
O O16 0.000000 0.000000 0.000000
O O17 0.500000 0.000000 0.000000
#
# Coordination Sequence:
#
# PCOD9028528 Si02
#       8
#     2   2   2   2   2   2   2   1
#     4  12  23  40  62  89 128 166 206 259 321 384
#     4  11  23  42  63  89 127 166 216 260 316 385
#     4  12  22  36  61  88 122 164 205 264 319 372
#     4  11  22  40  65  88 126 173 209 256 330 379
#     4  10  22  42  63  89 125 168 210 262 319 384
#     4   9  21  41  68  91 127 172 216 264 324 386
#     4  12  24  37  60  95 125 158 208 265 314 372
#     4  10  22  42  66  94 124 170 218 270 314 382
#
# _framework density 24.284569999999999
#
# number of rings (size 3 to 8) (size 9 to 14) (size 15 to 20)
#    0.000    1.067    5.333    0.800    1.867    1.067 
#    2.400    1.333    0.000    3.200    0.000    0.000 
#    0.000    0.000    0.000    0.000    0.000    0.000 
#
# Total GULP energy -83511.991558 kJ/mol
# GULP energy per Si atom -5567.466104 kJ/mol
# Density = 2.422930 g / cm^3
# Si number density = 24.284570 Si / 1000 Ang^3
#
#
#
# Elastic Constant Matrix: (Units=GPa)
#
#
# Indices 1 2 3 4 5 6 
#
# 1 163.9225 20.3787 20.8561 -4.6959 29.3086 -10.1284
# 2 20.3787 80.1900 9.4368 -1.0650 1.4083 -4.3965
# 3 20.8561 9.4368 97.7655 6.2157 7.6883 -4.4018
# 4 -4.6959 -1.0650 6.2157 16.3730 4.0499 -2.7731
# 5 29.3086 1.4083 7.6883 4.0499 26.1766 -6.9650
# 6 -10.1284 -4.3965 -4.4018 -2.7731 -6.9650 35.7285
#
#
#
# Elastic Compliance Matrix: (Units=1/GPa)
#
#
# Indices 1 2 3 4 5 6 
#
# 1 0.008358 -0.001719 -0.001169 0.005192 -0.009580 0.000549
# 2 -0.001719 0.013078 -0.001009 0.000529 0.001806 0.001391
# 3 -0.001169 -0.001009 0.010947 -0.004224 -0.001105 0.000350
# 4 0.005192 0.000529 -0.004224 0.068323 -0.014228 0.003546
# 5 -0.009580 0.001806 -0.001105 -0.014228 0.053118 0.006621
# 6 0.000549 0.001391 0.000350 0.003546 0.006621 0.029925
#
#
# Mechanical properties :
#
#
# Convention : Reuss Voigt Hill
#
# Bulk Modulus (GPa) = 40.66933 49.24682 44.95808
# Shear Modulus (GPa) = 25.03270 35.06937 30.05103
#
# Velocity S-wave (km/s) = 3.21410 3.80426 3.52156
# Velocity P-wave (km/s) = 5.52786 6.29441 5.92355
#
# Compressibility (1/GPa) = 0.02458855
#
# Stress axis : x y z
#
# Youngs Moduli (GPa) = 119.64014 76.46696 91.35312
#
# Poissons Ratio (x) = 0.13146 0.10680
# Poissons Ratio (y) = 0.20569 0.09214
# Poissons Ratio (z) = 0.13988 0.07712
#
# Static dielectric constant tensor:
#      x y z
#    x 1.757820 0.085480 0.028880 
#    y 0.085480 1.809420 -0.062490 
#    z 0.028880 -0.062490 1.908390 
# 
# From -- ./inp_files/198575.got.cif
#   From: 2010.05.17/outbox.cif.g08.bks.cpg/sg2_100_cif.got.tgz:198575.got - 2010.06.03 11:33:40.
