data_PCOD9028486
_publ_section_title
;
Structure prediction by ZEFSAII (Michael W. Deem and Ramdas Pophale) SiO2 
 PCOD9028486
Probable space group: P -1
;
_chemical_formula_sum "Si O2"
_cell_formula_units_Z 15
_cell_length_a 12.562114
_cell_length_b 10.034832
_cell_length_c 12.221956
_cell_angle_alpha 45.838635
_cell_angle_beta 144.499217
_cell_angle_gamma 125.156246
_cell_volume 641.700244
_symmetry_space_group_name_H-M "P -1"
_symmetry_group_IT_number 2
_symmetry_cell_setting 'triclinic'
loop_
_space_group_symop_operation_xyz
x,y,z
-x,-y,-z
loop_
_atom_site_type_symbol
_atom_site_label
_atom_site_fract_x
_atom_site_fract_y
_atom_site_fract_z
Si Si1 0.841199 0.223722 0.452501
Si Si2 0.076460 0.415727 0.386364
Si Si3 0.679385 0.529457 0.893472
Si Si4 0.750892 0.956961 0.328845
Si Si5 0.500000 0.500000 0.000000
Si Si6 0.796681 0.202891 0.781443
Si Si7 0.795555 0.926467 0.771713
Si Si8 0.344858 0.812607 0.083654
O O1 0.666723 0.352438 0.242811
O O2 0.019808 0.349991 0.498824
O O3 0.822492 0.088762 0.408900
O O4 0.847225 0.086933 0.637731
O O5 0.161050 0.243000 0.493015
O O6 0.212649 0.593342 0.395138
O O7 0.885828 0.470772 0.136666
O O8 0.686359 0.745574 0.740316
O O9 0.625606 0.385215 0.836358
O O10 0.557543 0.509554 0.911114
O O11 0.536792 0.921899 0.192260
O O12 0.770071 0.064685 0.167885
O O13 0.742656 0.208554 0.859111
O O14 0.701800 0.032552 0.733814
O O15 0.011878 0.156598 0.981328
#
# Coordination Sequence:
#
# PCOD9028486 Si02
#       8
#     2   2   2   2   1   2   2   2
#     4  11  23  43  68  97 129 184 220 277 320 410
#     4  10  22  42  68  97 132 167 233 265 333 392
#     4  10  23  42  70  97 129 185 211 279 325 401
#     4  11  24  41  66 102 130 175 221 276 335 391
#     4  10  22  42  62  96 134 164 232 262 328 386
#     4  10  24  43  65 103 134 174 216 286 327 397
#     4  10  24  43  68  98 134 177 227 264 341 390
#     4  11  24  43  65  98 138 172 218 279 340 375
#
# _framework density 23.375401
#
# number of rings (size 3 to 8) (size 9 to 14) (size 15 to 20)
#    0.000    1.600    2.667    1.200    5.600    3.733 
#    0.000    1.333    0.000    0.000    0.000    0.000 
#    0.000    0.000    0.000    0.000    0.000    0.000 
#
# Total GULP energy -83646.468843 kJ/mol
# GULP energy per Si atom -5576.431256 kJ/mol
# Density = 2.332220 g / cm^3
# Si number density = 23.375401 Si / 1000 Ang^3
#
#
#
# Elastic Constant Matrix: (Units=GPa)
#
#
# Indices 1 2 3 4 5 6 
#
# 1 108.7621 54.6356 15.7288 -19.5553 -11.5991 -28.5679
# 2 54.6356 114.3286 19.1365 -26.7057 -9.6051 -5.9780
# 3 15.7288 19.1365 72.0414 -29.9223 7.1120 -12.7327
# 4 -19.5553 -26.7057 -29.9223 36.1015 -3.1385 4.3739
# 5 -11.5991 -9.6051 7.1120 -3.1385 38.4583 -7.3332
# 6 -28.5679 -5.9780 -12.7327 4.3739 -7.3332 24.3146
#
#
#
# Elastic Compliance Matrix: (Units=1/GPa)
#
#
# Indices 1 2 3 4 5 6 
#
# 1 0.021880 -0.007098 0.004179 0.007564 0.009972 0.027798
# 2 -0.007098 0.013474 -0.000486 0.006535 0.000654 -0.006259
# 3 0.004179 -0.000486 0.023771 0.020006 0.001036 0.013951
# 4 0.007564 0.006535 0.020006 0.052166 0.007088 0.013724
# 5 0.009972 0.000654 0.001036 0.007088 0.033618 0.021283
# 6 0.027798 -0.006259 0.013951 0.013724 0.021283 0.083505
#
#
# Mechanical properties :
#
#
# Convention : Reuss Voigt Hill
#
# Bulk Modulus (GPa) = 19.11501 52.68152 35.89827
# Shear Modulus (GPa) = 19.78924 33.48362 26.63643
#
# Velocity S-wave (km/s) = 2.91277 3.78885 3.37932
# Velocity P-wave (km/s) = 4.41672 6.45961 5.53327
#
# Compressibility (1/GPa) = 0.05231490
#
# Stress axis : x y z
#
# Youngs Moduli (GPa) = 45.70305 74.21659 42.06890
#
# Poissons Ratio (x) = 0.52676 -0.17579
# Poissons Ratio (y) = 0.32438 0.02045
# Poissons Ratio (z) = -0.19097 0.03607
#
# Static dielectric constant tensor:
#      x y z
#    x 1.842880 0.035810 -0.001260 
#    y 0.035810 1.921740 0.008240 
#    z -0.001260 0.008240 1.896730 
# 
# From -- ./inp_files/181509.got.cif
#   From: 2010.05.17/outbox.cif.g08.bks.cpg/sg2_91_cif.got.tgz:181509.got - 2010.06.03 11:33:40.
