data_PCOD9028092
_publ_section_title
;
Structure prediction by ZEFSAII (Michael W. Deem and Ramdas Pophale) SiO2 
 PCOD9028092
Probable space group: P -1
;
_chemical_formula_sum "Si O2"
_cell_formula_units_Z 12
_cell_length_a 7.121525
_cell_length_b 16.953077
_cell_length_c 12.307736
_cell_angle_alpha 158.133302
_cell_angle_beta 119.283404
_cell_angle_gamma 66.838707
_cell_volume 474.232952
_symmetry_space_group_name_H-M "P -1"
_symmetry_group_IT_number 2
_symmetry_cell_setting 'triclinic'
loop_
_space_group_symop_operation_xyz
x,y,z
-x,-y,-z
loop_
_atom_site_type_symbol
_atom_site_label
_atom_site_fract_x
_atom_site_fract_y
_atom_site_fract_z
Si Si1 0.624583 0.908129 0.595442
Si Si2 0.998379 0.721559 0.846745
Si Si3 0.693417 0.484370 0.621034
Si Si4 0.875053 0.176807 0.641149
Si Si5 0.992929 0.325265 0.633382
Si Si6 0.383332 0.160805 0.241144
O O1 0.371825 0.864984 0.437278
O O2 0.766867 0.731076 0.374828
O O3 0.629508 0.904533 0.722267
O O4 0.762609 0.137071 0.889690
O O5 0.869543 0.680671 0.871842
O O6 0.851918 0.840736 0.880087
O O7 0.000000 0.500000 0.500000
O O8 0.500000 0.500000 0.500000
O O9 0.861696 0.315625 0.469927
O O10 0.536200 0.401460 0.574316
O O11 0.875019 0.182135 0.515916
O O12 0.000000 0.000000 0.500000
O O13 0.992409 0.421652 0.012764
O O14 0.500000 0.000000 0.000000
#
# Coordination Sequence:
#
# PCOD9028092 Si02
#       6
#     2   2   2   2   2   2
#     4  12  25  47  76 106 152 202 254 318 377 449
#     4  11  24  40  65 112 147 191 246 301 371 457
#     4  10  22  41  71 105 151 192 237 306 377 452
#     4  11  28  50  80 107 147 203 261 323 380 449
#     4  11  25  51  76 113 151 196 263 314 381 454
#     4  11  22  41  69 101 148 199 241 297 379 451
#
# _framework density 25.304020000000001
#
# number of rings (size 3 to 8) (size 9 to 14) (size 15 to 20)
#    0.000    1.000    1.667    4.000    2.333    4.667 
#    6.000    0.000    0.000    0.000    0.000    0.000 
#    0.000    0.000    0.000    0.000    0.000    0.000 
#
# Total GULP energy -66991.343724 kJ/mol
# GULP energy per Si atom -5582.611977 kJ/mol
# Density = 2.524643 g / cm^3
# Si number density = 25.304020 Si / 1000 Ang^3
#
#
#
# Elastic Constant Matrix: (Units=GPa)
#
#
# Indices 1 2 3 4 5 6 
#
# 1 95.8879 43.2996 38.7672 8.9968 19.9613 -14.1621
# 2 43.2996 165.8231 37.8240 22.4900 3.6179 -29.9928
# 3 38.7672 37.8240 128.2037 28.6553 29.3094 0.0365
# 4 8.9968 22.4900 28.6553 29.9564 -5.6415 1.9292
# 5 19.9613 3.6179 29.3094 -5.6415 66.4413 8.4787
# 6 -14.1621 -29.9928 0.0365 1.9292 8.4787 62.1633
#
#
#
# Elastic Compliance Matrix: (Units=1/GPa)
#
#
# Indices 1 2 3 4 5 6 
#
# 1 0.013614 -0.002385 -0.002543 -0.000623 -0.003198 0.002408
# 2 -0.002385 0.008127 -0.000373 -0.005351 -0.000477 0.003609
# 3 -0.002543 -0.000373 0.012806 -0.012358 -0.005969 0.000431
# 4 -0.000623 -0.005351 -0.012358 0.051870 0.011079 -0.005837
# 5 -0.003198 -0.000477 -0.005969 0.011079 0.020128 -0.004044
# 6 0.002408 0.003609 0.000431 -0.005837 -0.004044 0.019109
#
#
# Mechanical properties :
#
#
# Convention : Reuss Voigt Hill
#
# Bulk Modulus (GPa) = 41.76245 69.96624 55.86435
# Shear Modulus (GPa) = 34.66522 49.71378 42.18950
#
# Velocity S-wave (km/s) = 3.70530 4.43726 4.08769
# Velocity P-wave (km/s) = 5.90303 7.34592 6.66365
#
# Compressibility (1/GPa) = 0.02394495
#
# Stress axis : x y z
#
# Youngs Moduli (GPa) = 73.45392 123.04317 78.09033
#
# Poissons Ratio (x) = 0.29346 0.19861
# Poissons Ratio (y) = 0.17519 0.02910
# Poissons Ratio (z) = 0.18682 0.04585
#
# Static dielectric constant tensor:
#      x y z
#    x 2.018260 0.015620 -0.028190 
#    y 0.015620 1.987510 -0.061440 
#    z -0.028190 -0.061440 2.270570 
# 
# From -- ./inp_files/562844.got.cif
#   From: 2010.05.17/outbox.cif.g08.bks.cpg/sg2_282_cif.got.tgz:562844.got - 2010.06.03 11:33:40.
