data_PCOD9028069
_publ_section_title
;
Structure prediction by ZEFSAII (Michael W. Deem and Ramdas Pophale) SiO2 
 PCOD9028069
Probable space group: P -1
;
_chemical_formula_sum "Si O2"
_cell_formula_units_Z 14
_cell_length_a 8.230816
_cell_length_b 10.691556
_cell_length_c 13.259898
_cell_angle_alpha 73.720494
_cell_angle_beta 68.879343
_cell_angle_gamma 31.273247
_cell_volume 564.133736
_symmetry_space_group_name_H-M "P -1"
_symmetry_group_IT_number 2
_symmetry_cell_setting 'triclinic'
loop_
_space_group_symop_operation_xyz
x,y,z
-x,-y,-z
loop_
_atom_site_type_symbol
_atom_site_label
_atom_site_fract_x
_atom_site_fract_y
_atom_site_fract_z
Si Si1 0.847216 0.546288 0.417423
Si Si2 0.196024 0.605939 0.002969
Si Si3 0.074730 0.045609 0.879249
Si Si4 0.761850 0.936175 0.503170
Si Si5 0.955218 0.265848 0.226273
Si Si6 0.763076 0.643234 0.812762
Si Si7 0.766899 0.194873 0.710516
O O1 0.000000 0.500000 0.500000
O O2 0.995271 0.307407 0.432340
O O3 0.980636 0.541359 0.292444
O O4 0.465429 0.811626 0.451161
O O5 0.234386 0.431444 0.062941
O O6 0.925077 0.816406 0.097352
O O7 0.500000 0.500000 0.000000
O O8 0.100633 0.701862 0.890185
O O9 0.812054 0.193934 0.819555
O O10 0.423243 0.809421 0.805973
O O11 0.000000 0.000000 0.000000
O O12 0.989160 0.864255 0.388741
O O13 0.500000 0.000000 0.500000
O O14 0.604396 0.532331 0.288033
O O15 0.199679 0.228786 0.201397
O O16 0.104352 0.034134 0.278935
#
# Coordination Sequence:
#
# PCOD9028069 Si02
#       7
#     2   2   2   2   2   2   2
#     4  10  23  42  67 102 131 174 233 284 339 407
#     4  12  24  43  71 103 141 184 241 286 344 417
#     4  12  23  42  71 104 137 184 242 289 341 416
#     4  10  22  41  71 101 130 171 235 293 337 395
#     4  12  28  47  68 108 147 188 225 284 360 426
#     4  12  28  44  71 102 145 188 229 294 354 415
#     4  12  25  47  73 101 145 185 232 289 349 418
#
# _framework density 24.816811999999999
#
# number of rings (size 3 to 8) (size 9 to 14) (size 15 to 20)
#    0.000    0.571    4.286    3.000    8.000    0.571 
#    0.000    4.286    0.000    0.000    0.000    0.000 
#    0.000    0.000    0.000    0.000    0.000    0.000 
#
# Total GULP energy -78227.334906 kJ/mol
# GULP energy per Si atom -5587.666779 kJ/mol
# Density = 2.476033 g / cm^3
# Si number density = 24.816812 Si / 1000 Ang^3
#
#
#
# Elastic Constant Matrix: (Units=GPa)
#
#
# Indices 1 2 3 4 5 6 
#
# 1 87.8721 38.7160 49.0467 -14.3951 -10.2891 -3.4751
# 2 38.7160 176.2287 59.8956 0.2097 -5.1573 9.4788
# 3 49.0467 59.8956 153.4222 -11.1275 -20.8506 -6.8629
# 4 -14.3951 0.2097 -11.1275 50.4902 -0.3017 0.2533
# 5 -10.2891 -5.1573 -20.8506 -0.3017 38.6363 -11.2368
# 6 -3.4751 9.4788 -6.8629 0.2533 -11.2368 40.8932
#
#
#
# Elastic Compliance Matrix: (Units=1/GPa)
#
#
# Indices 1 2 3 4 5 6 
#
# 1 0.015170 -0.002255 -0.003271 0.003619 0.002568 0.001946
# 2 -0.002255 0.007123 -0.002520 -0.001225 -0.001821 -0.002758
# 3 -0.003271 -0.002520 0.009431 0.001169 0.004824 0.003207
# 4 0.003619 -0.001225 0.001169 0.021106 0.001942 0.001191
# 5 0.002568 -0.001821 0.004824 0.001942 0.031910 0.010206
# 6 0.001946 -0.002758 0.003207 0.001191 0.010206 0.028594
#
#
# Mechanical properties :
#
#
# Convention : Reuss Voigt Hill
#
# Bulk Modulus (GPa) = 63.96612 79.20439 71.58525
# Shear Modulus (GPa) = 37.13736 43.99490 40.56613
#
# Velocity S-wave (km/s) = 3.87261 4.21501 4.04743
# Velocity P-wave (km/s) = 6.76959 7.46146 7.12393
#
# Compressibility (1/GPa) = 0.01563328
#
# Stress axis : x y z
#
# Youngs Moduli (GPa) = 65.92049 140.39665 106.03252
#
# Poissons Ratio (x) = 0.31658 0.34680
# Poissons Ratio (y) = 0.14864 0.26715
# Poissons Ratio (z) = 0.21561 0.35374
#
# Static dielectric constant tensor:
#      x y z
#    x 0.849400 -1.041240 -0.516700 
#    y -1.041240 1.121780 -0.596400 
#    z -0.516700 -0.596400 1.628910 
# 
# From -- ./inp_files/55458.got.cif
#   From: 2010.05.17/outbox.cif.g08.bks.cpg/sg2_28_cif.got.tgz:55458.got - 2010.06.03 11:33:40.
