data_PCOD9028813
_publ_section_title
;
Structure prediction by ZEFSAII (Michael W. Deem and Ramdas Pophale) SiO2 
 PCOD9028813
Probable space group: P -1
;
_chemical_formula_sum "Si O2"
_cell_formula_units_Z 14
_cell_length_a 12.051457
_cell_length_b 11.316261
_cell_length_c 19.482656
_cell_angle_alpha 31.310720
_cell_angle_beta 152.735103
_cell_angle_gamma 153.744138
_cell_volume 516.585263
_symmetry_space_group_name_H-M "P -1"
_symmetry_group_IT_number 2
_symmetry_cell_setting 'triclinic'
loop_
_space_group_symop_operation_xyz
x,y,z
-x,-y,-z
loop_
_atom_site_type_symbol
_atom_site_label
_atom_site_fract_x
_atom_site_fract_y
_atom_site_fract_z
Si Si1 0.683306 0.410830 0.900314
Si Si2 0.175051 0.283532 0.873080
Si Si3 0.405743 0.158221 0.491269
Si Si4 0.186242 0.900998 0.786769
Si Si5 0.546767 0.771341 0.723419
Si Si6 0.424059 0.332901 0.611206
Si Si7 0.718959 0.140397 0.802438
O O1 0.432772 0.170805 0.832975
O O2 0.598214 0.622989 0.763833
O O3 0.000000 0.500000 0.000000
O O4 0.699818 0.289436 0.042821
O O5 0.361763 0.534895 0.797819
O O6 0.026215 0.321457 0.839303
O O7 0.877807 0.023815 0.802322
O O8 0.327414 0.138648 0.057593
O O9 0.649341 0.494070 0.464793
O O10 0.466367 0.065620 0.644107
O O11 0.394748 0.935141 0.546862
O O12 0.126572 0.173357 0.322597
O O13 0.189836 0.009301 0.659016
O O14 0.500000 0.500000 0.500000
O O15 0.707682 0.312317 0.773796
#
# Coordination Sequence:
#
# PCOD9028813 Si02
#       7
#     2   2   2   2   2   2   2
#     4  11  27  49  75 103 135 191 251 311 364 432
#     4  10  23  44  67 110 143 196 242 294 364 436
#     4  10  24  42  66 105 140 189 236 298 363 437
#     4  11  25  45  73 103 143 184 253 299 368 436
#     4  11  26  45  76 100 150 187 246 307 361 432
#     4  10  22  42  65 105 146 190 226 294 359 438
#     4   9  21  40  67 101 151 190 242 292 359 439
#
# _framework density 27.101042
#
# number of rings (size 3 to 8) (size 9 to 14) (size 15 to 20)
#    0.000    1.714    0.000    1.714   14.000    8.000 
#    2.571    2.857    0.000    0.000    0.000    0.000 
#    0.000    0.000    0.000    0.000    0.000    0.000 
#
# Total GULP energy -78031.164082 kJ/mol
# GULP energy per Si atom -5573.654577 kJ/mol
# Density = 2.703936 g / cm^3
# Si number density = 27.101042 Si / 1000 Ang^3
#
#
#
# Elastic Constant Matrix: (Units=GPa)
#
#
# Indices 1 2 3 4 5 6 
#
# 1 130.3314 14.1129 36.8192 -35.7183 22.7925 2.0502
# 2 14.1129 66.5012 8.3941 0.7918 6.4550 4.4138
# 3 36.8192 8.3941 161.2616 -29.4184 22.0155 0.4193
# 4 -35.7183 0.7918 -29.4184 55.0669 -10.6969 -4.8630
# 5 22.7925 6.4550 22.0155 -10.6969 63.1447 -21.4611
# 6 2.0502 4.4138 0.4193 -4.8630 -21.4611 34.7618
#
#
#
# Elastic Compliance Matrix: (Units=1/GPa)
#
#
# Indices 1 2 3 4 5 6 
#
# 1 0.010092 -0.001761 -0.000844 0.005495 -0.002656 -0.001233
# 2 -0.001761 0.016009 -0.000528 -0.002488 -0.002544 -0.003841
# 3 -0.000844 -0.000528 0.007210 0.002871 -0.001926 -0.000758
# 4 0.005495 -0.002488 0.002871 0.024393 0.003224 0.005360
# 5 -0.002656 -0.002544 -0.001926 0.003224 0.023536 0.015484
# 6 -0.001233 -0.003841 -0.000758 0.005360 0.015484 0.039646
#
#
# Mechanical properties :
#
#
# Convention : Reuss Voigt Hill
#
# Bulk Modulus (GPa) = 36.97515 52.97186 44.97350
# Shear Modulus (GPa) = 36.71953 50.51254 43.61604
#
# Velocity S-wave (km/s) = 3.68491 4.32193 4.01607
# Velocity P-wave (km/s) = 5.63718 6.67038 6.17542
#
# Compressibility (1/GPa) = 0.02704519
#
# Stress axis : x y z
#
# Youngs Moduli (GPa) = 99.08916 62.46445 138.69691
#
# Poissons Ratio (x) = 0.11000 0.11708
# Poissons Ratio (y) = 0.17449 0.07321
# Poissons Ratio (z) = 0.08365 0.03297
#
# Static dielectric constant tensor:
#      x y z
#    x 2.487520 -0.079990 -0.060550 
#    y -0.079990 2.400130 0.054100 
#    z -0.060550 0.054100 2.153020 
# 
# From -- ./inp_files/594696.got.cif
#   From: 2010.05.17/outbox.cif.g08.bks.cpg/sg2_298_cif.got.tgz:594696.got - 2010.06.03 11:33:40.
