data_PCOD9028312
_publ_section_title
;
Structure prediction by ZEFSAII (Michael W. Deem and Ramdas Pophale) SiO2 
 PCOD9028312
Probable space group: P -1
;
_chemical_formula_sum "Si O2"
_cell_formula_units_Z 14
_cell_length_a 23.099962
_cell_length_b 5.510952
_cell_length_c 12.173512
_cell_angle_alpha 81.150181
_cell_angle_beta 20.653927
_cell_angle_gamma 78.447459
_cell_volume 533.018256
_symmetry_space_group_name_H-M "P -1"
_symmetry_group_IT_number 2
_symmetry_cell_setting 'triclinic'
loop_
_space_group_symop_operation_xyz
x,y,z
-x,-y,-z
loop_
_atom_site_type_symbol
_atom_site_label
_atom_site_fract_x
_atom_site_fract_y
_atom_site_fract_z
Si Si1 0.174373 0.076530 0.716967
Si Si2 0.511521 0.815824 0.203837
Si Si3 0.277441 0.361751 0.973084
Si Si4 0.428113 0.784339 0.072481
Si Si5 0.121865 0.238413 0.039038
Si Si6 0.205416 0.463737 0.440018
Si Si7 0.026661 0.819504 0.361837
O O1 0.240106 0.730855 0.407324
O O2 0.207257 0.266992 0.548860
O O3 0.174753 0.225610 0.820316
O O4 0.000000 0.000000 0.000000
O O5 0.549442 0.726826 0.266789
O O6 0.322086 0.839777 0.494192
O O7 0.650347 0.638167 0.896957
O O8 0.544626 0.099696 0.103565
O O9 0.253390 0.249502 0.902792
O O10 0.206508 0.650352 0.063917
O O11 0.136988 0.300611 0.314295
O O12 0.500000 0.500000 0.000000
O O13 0.500000 0.000000 0.000000
O O14 0.976616 0.475589 0.293980
O O15 0.039837 0.993316 0.223398
O O16 0.000000 0.000000 0.500000
#
# Coordination Sequence:
#
# PCOD9028312 Si02
#       7
#     2   2   2   2   2   2   2
#     4  12  30  49  75 115 168 218 268 334 423 479
#     4  12  25  49  81 119 156 209 277 339 394 496
#     4  10  22  41  75 113 149 206 265 331 401 477
#     4  12  24  46  78 117 158 202 274 334 392 472
#     4  11  26  45  73 113 161 207 259 337 407 492
#     4  12  26  49  83 116 156 214 281 331 406 486
#     4   9  18  40  70 110 147 195 257 322 396 473
#
# _framework density 26.265518
#
# number of rings (size 3 to 8) (size 9 to 14) (size 15 to 20)
#    0.000    0.857    2.857    4.286    8.000    1.714 
#    2.571    0.714    0.000    0.000    0.000    0.000 
#    0.000    0.000    0.000    0.000    0.000    0.000 
#
# Total GULP energy -78036.770847 kJ/mol
# GULP energy per Si atom -5574.055061 kJ/mol
# Density = 2.620574 g / cm^3
# Si number density = 26.265518 Si / 1000 Ang^3
#
#
#
# Elastic Constant Matrix: (Units=GPa)
#
#
# Indices 1 2 3 4 5 6 
#
# 1 204.8453 47.5775 60.1636 8.4167 -33.0623 -7.7838
# 2 47.5775 123.5157 29.5488 14.8067 -21.3773 -3.8877
# 3 60.1636 29.5488 107.3440 8.3819 -12.0029 1.8800
# 4 8.4167 14.8067 8.3819 32.3220 -8.5316 -8.0580
# 5 -33.0623 -21.3773 -12.0029 -8.5316 49.0410 16.5150
# 6 -7.7838 -3.8877 1.8800 -8.0580 16.5150 35.0271
#
#
#
# Elastic Compliance Matrix: (Units=1/GPa)
#
#
# Indices 1 2 3 4 5 6 
#
# 1 0.006565 -0.001322 -0.003005 0.000538 0.003174 0.000101
# 2 -0.001322 0.009789 -0.001347 -0.003344 0.002891 -0.001267
# 3 -0.003005 -0.001347 0.011635 -0.002000 0.000627 -0.002197
# 4 0.000538 -0.003344 -0.002000 0.035152 0.002207 0.006902
# 5 0.003174 0.002891 0.000627 0.002207 0.028320 -0.011852
# 6 0.000101 -0.001267 -0.002197 0.006902 -0.011852 0.035725
#
#
# Mechanical properties :
#
#
# Convention : Reuss Voigt Hill
#
# Bulk Modulus (GPa) = 60.08832 78.92052 69.50442
# Shear Modulus (GPa) = 34.70245 43.17236 38.93741
#
# Velocity S-wave (km/s) = 3.63880 4.05864 3.85444
# Velocity P-wave (km/s) = 6.37035 7.21636 6.80651
#
# Compressibility (1/GPa) = 0.01664217
#
# Stress axis : x y z
#
# Youngs Moduli (GPa) = 152.31596 102.15581 85.94431
#
# Poissons Ratio (x) = 0.13506 0.25823
# Poissons Ratio (y) = 0.20138 0.11577
# Poissons Ratio (z) = 0.45765 0.13761
#
# Static dielectric constant tensor:
#      x y z
#    x 2.176100 0.030960 0.063860 
#    y 0.030960 2.140080 -0.001420 
#    z 0.063860 -0.001420 2.174360 
# 
# From -- ./inp_files/468106.got.cif
#   From: 2010.05.17/outbox.cif.g08.bks.cpg/sg2_235_cif.got.tgz:468106.got - 2010.06.03 11:33:40.
