data_PCOD9028148
_publ_section_title
;
Structure prediction by ZEFSAII (Michael W. Deem and Ramdas Pophale) SiO2 
 PCOD9028148
Probable space group: P -1
;
_chemical_formula_sum "Si O2"
_cell_formula_units_Z 16
_cell_length_a 18.531086
_cell_length_b 13.073558
_cell_length_c 9.684670
_cell_angle_alpha 52.505699
_cell_angle_beta 28.920794
_cell_angle_gamma 44.996800
_cell_volume 801.918890
_symmetry_space_group_name_H-M "P -1"
_symmetry_group_IT_number 2
_symmetry_cell_setting 'triclinic'
loop_
_space_group_symop_operation_xyz
x,y,z
-x,-y,-z
loop_
_atom_site_type_symbol
_atom_site_label
_atom_site_fract_x
_atom_site_fract_y
_atom_site_fract_z
Si Si1 0.159096 0.434366 0.387952
Si Si2 0.815986 0.131246 0.700217
Si Si3 0.305949 0.095566 0.418597
Si Si4 0.417257 0.396766 0.761521
Si Si5 0.744364 0.639715 0.211369
Si Si6 0.355534 0.909668 0.247495
Si Si7 0.089605 0.613754 0.638420
Si Si8 0.415476 0.907916 0.650199
O O1 0.207298 0.266026 0.471013
O O2 0.127053 0.520631 0.512579
O O3 0.000000 0.500000 0.500000
O O4 0.312119 0.439644 0.043957
O O5 0.740031 0.127242 0.681500
O O6 0.834016 0.275243 0.579576
O O7 0.699693 0.115095 0.025491
O O8 0.000000 0.000000 0.500000
O O9 0.251261 0.044768 0.411374
O O10 0.309777 0.999099 0.620955
O O11 0.498233 0.063294 0.092094
O O12 0.500000 0.500000 0.500000
O O13 0.294309 0.399067 0.843704
O O14 0.554054 0.230981 0.691136
O O15 0.826981 0.497443 0.284407
O O16 0.569036 0.757721 0.468384
O O17 0.887144 0.694001 0.925189
O O18 0.500000 0.000000 0.500000
#
# Coordination Sequence:
#
# PCOD9028148 Si02
#       8
#     2   2   2   2   2   2   2   2
#     4  11  24  42  68  99 133 181 215 276 336 400
#     4  12  28  44  67  99 139 177 218 286 337 395
#     4  10  22  41  71  98 129 173 232 264 328 407
#     4  11  23  42  68  99 134 170 226 274 332 393
#     4  11  24  45  69  95 134 184 217 275 334 400
#     4  10  22  43  67  98 129 177 220 277 328 394
#     4  11  26  44  65 102 140 174 226 272 342 404
#     4  12  23  43  70  99 130 175 228 272 334 401
#
# _framework density 19.952141999999998
#
# number of rings (size 3 to 8) (size 9 to 14) (size 15 to 20)
#    0.000    1.000    3.750    2.250    5.250    1.500 
#    2.250    0.625    0.000    0.000    0.000    0.000 
#    0.000    0.000    0.000    0.000    0.000    0.000 
#
# Total GULP energy -89484.462794 kJ/mol
# GULP energy per Si atom -5592.778925 kJ/mol
# Density = 1.990673 g / cm^3
# Si number density = 19.952142 Si / 1000 Ang^3
#
#
#
# Elastic Constant Matrix: (Units=GPa)
#
#
# Indices 1 2 3 4 5 6 
#
# 1 149.8176 52.5058 38.4736 -6.0005 9.7366 4.9665
# 2 52.5058 92.3136 53.3866 -8.4659 2.2627 10.9740
# 3 38.4736 53.3866 108.0179 -12.0310 1.5137 4.5622
# 4 -6.0005 -8.4659 -12.0310 41.0805 4.4980 -0.3190
# 5 9.7366 2.2627 1.5137 4.4980 24.9807 0.7948
# 6 4.9665 10.9740 4.5622 -0.3190 0.7948 31.5084
#
#
#
# Elastic Compliance Matrix: (Units=1/GPa)
#
#
# Indices 1 2 3 4 5 6 
#
# 1 0.008614 -0.004337 -0.000848 0.000448 -0.003005 0.000356
# 2 -0.004337 0.017999 -0.007062 0.000921 0.000467 -0.004565
# 3 -0.000848 -0.007062 0.013286 0.002348 -0.000280 0.000700
# 4 0.000448 0.000921 0.002348 0.025835 -0.005041 -0.000343
# 5 -0.003005 0.000467 -0.000280 -0.005041 0.042109 -0.000762
# 6 0.000356 -0.004565 0.000700 -0.000343 -0.000762 0.033186
#
#
# Mechanical properties :
#
#
# Convention : Reuss Voigt Hill
#
# Bulk Modulus (GPa) = 64.91205 70.98678 67.94942
# Shear Modulus (GPa) = 29.29854 33.23281 31.26568
#
# Velocity S-wave (km/s) = 3.83618 4.08564 3.96287
# Velocity P-wave (km/s) = 7.22677 7.61001 7.42087
#
# Compressibility (1/GPa) = 0.01540546
#
# Stress axis : x y z
#
# Youngs Moduli (GPa) = 116.09334 55.55785 75.26681
#
# Poissons Ratio (x) = 0.24093 0.06381
# Poissons Ratio (y) = 0.50345 0.53157
# Poissons Ratio (z) = 0.09842 0.39238
#
# Static dielectric constant tensor:
#      x y z
#    x 1.706840 -0.015810 0.000800 
#    y -0.015810 1.757830 0.035640 
#    z 0.000800 0.035640 1.709910 
# 
# From -- ./inp_files/333004.got.cif
#   From: 2010.05.17/outbox.cif.g08.bks.cpg/sg2_167_cif.got.tgz:333004.got - 2010.06.03 11:33:40.
