data_PCOD9028791
_publ_section_title
;
Structure prediction by ZEFSAII (Michael W. Deem and Ramdas Pophale) SiO2 
 PCOD9028791
Probable space group: P -1
;
_chemical_formula_sum "Si O2"
_cell_formula_units_Z 15
_cell_length_a 16.566377
_cell_length_b 7.552911
_cell_length_c 11.239934
_cell_angle_alpha 96.410506
_cell_angle_beta 135.169222
_cell_angle_gamma 119.637907
_cell_volume 565.570941
_symmetry_space_group_name_H-M "P -1"
_symmetry_group_IT_number 2
_symmetry_cell_setting 'triclinic'
loop_
_space_group_symop_operation_xyz
x,y,z
-x,-y,-z
loop_
_atom_site_type_symbol
_atom_site_label
_atom_site_fract_x
_atom_site_fract_y
_atom_site_fract_z
Si Si1 0.158635 0.216792 0.790399
Si Si2 0.595007 0.936373 0.055706
Si Si3 0.807212 0.690481 0.532280
Si Si4 0.500000 0.500000 0.000000
Si Si5 0.829041 0.343111 0.105289
Si Si6 0.826093 0.634500 0.799260
Si Si7 0.126021 0.824640 0.282107
Si Si8 0.577170 0.899259 0.590978
O O1 0.194116 0.467928 0.890255
O O2 0.359969 0.391798 0.963584
O O3 0.000000 0.000000 0.500000
O O4 0.028554 0.940914 0.730904
O O5 0.385922 0.561671 0.775410
O O6 0.658668 0.872558 0.211648
O O7 0.500000 0.000000 0.000000
O O8 0.761722 0.184286 0.150892
O O9 0.766103 0.518626 0.591777
O O10 0.817975 0.907989 0.596892
O O11 0.044041 0.599566 0.286614
O O12 0.690292 0.057239 0.846284
O O13 0.631611 0.471349 0.644001
O O14 0.926630 0.603617 0.974957
O O15 0.000000 0.000000 0.000000
O O16 0.297670 0.989781 0.384306
O O17 0.500000 0.000000 0.500000
#
# Coordination Sequence:
#
# PCOD9028791 Si02
#       8
#     2   2   2   1   2   2   2   2
#     4  11  23  48  69 100 144 185 246 305 353 437
#     4  12  24  48  74 107 145 183 251 307 354 439
#     4  10  22  44  70 101 144 189 232 303 363 427
#     4  12  26  44  78 100 138 194 234 306 378 402
#     4  11  23  44  72 101 148 187 237 306 360 426
#     4  10  22  42  65 100 139 182 236 290 355 430
#     4  10  24  44  68 104 147 190 239 290 360 445
#     4  12  24  42  67 103 148 188 236 301 350 435
#
# _framework density 26.521871000000001
#
# number of rings (size 3 to 8) (size 9 to 14) (size 15 to 20)
#    0.000    1.067    5.333    0.400    0.000    4.267 
#    0.000    4.000    0.000    0.000    0.000    0.000 
#    0.000    0.000    0.000    0.000    0.000    0.000 
#
# Total GULP energy -83653.551236 kJ/mol
# GULP energy per Si atom -5576.903416 kJ/mol
# Density = 2.646151 g / cm^3
# Si number density = 26.521871 Si / 1000 Ang^3
#
#
#
# Elastic Constant Matrix: (Units=GPa)
#
#
# Indices 1 2 3 4 5 6 
#
# 1 197.8116 56.4648 44.2538 32.8473 50.3382 29.6498
# 2 56.4648 129.4160 28.3343 31.8686 20.3829 34.7539
# 3 44.2538 28.3343 113.9102 29.8489 13.1738 21.1572
# 4 32.8473 31.8686 29.8489 46.9017 11.6859 8.4374
# 5 50.3382 20.3829 13.1738 11.6859 36.9168 18.2444
# 6 29.6498 34.7539 21.1572 8.4374 18.2444 53.3904
#
#
#
# Elastic Compliance Matrix: (Units=1/GPa)
#
#
# Indices 1 2 3 4 5 6 
#
# 1 0.008580 -0.001593 -0.001457 -0.001589 -0.010063 0.000540
# 2 -0.001593 0.011271 0.000377 -0.005870 0.000574 -0.005870
# 3 -0.001457 0.000377 0.011349 -0.006186 0.001381 -0.003428
# 4 -0.001589 -0.005870 -0.006186 0.030675 -0.003893 0.003637
# 5 -0.010063 0.000574 0.001381 -0.003893 0.046469 -0.010596
# 6 0.000540 -0.005870 -0.003428 0.003637 -0.010596 0.026656
#
#
# Mechanical properties :
#
#
# Convention : Reuss Voigt Hill
#
# Bulk Modulus (GPa) = 38.67852 77.69374 58.18613
# Shear Modulus (GPa) = 33.56539 48.24744 40.90641
#
# Velocity S-wave (km/s) = 3.56135 4.26978 3.93156
# Velocity P-wave (km/s) = 5.61482 7.32570 6.52657
#
# Compressibility (1/GPa) = 0.02585415
#
# Stress axis : x y z
#
# Youngs Moduli (GPa) = 116.55240 88.72442 88.11335
#
# Poissons Ratio (x) = 0.14135 0.12838
# Poissons Ratio (y) = 0.18568 -0.03325
# Poissons Ratio (z) = 0.16982 -0.03348
#
# Static dielectric constant tensor:
#      x y z
#    x 2.084750 0.199030 -0.103360 
#    y 0.199030 1.795030 0.206780 
#    z -0.103360 0.206780 2.082830 
# 
# From -- ./inp_files/447880.got.cif
#   From: 2010.05.17/outbox.cif.g08.bks.cpg/sg2_224_cif.got.tgz:447880.got - 2010.06.03 11:33:40.
