data_PCOD9028220
_publ_section_title
;
Structure prediction by ZEFSAII (Michael W. Deem and Ramdas Pophale) SiO2 
 PCOD9028220
Probable space group: P -1
;
_chemical_formula_sum "Si O2"
_cell_formula_units_Z 16
_cell_length_a 12.260610
_cell_length_b 5.043699
_cell_length_c 17.969126
_cell_angle_alpha 123.924085
_cell_angle_beta 129.973272
_cell_angle_gamma 48.977695
_cell_volume 624.314914
_symmetry_space_group_name_H-M "P -1"
_symmetry_group_IT_number 2
_symmetry_cell_setting 'triclinic'
loop_
_space_group_symop_operation_xyz
x,y,z
-x,-y,-z
loop_
_atom_site_type_symbol
_atom_site_label
_atom_site_fract_x
_atom_site_fract_y
_atom_site_fract_z
Si Si1 0.122023 0.758342 0.104800
Si Si2 0.495436 0.387350 0.396480
Si Si3 0.592741 0.866242 0.806634
Si Si4 0.175053 0.672079 0.512434
Si Si5 0.185929 0.543014 0.782081
Si Si6 0.759749 0.240473 0.003059
Si Si7 0.824321 0.912183 0.691528
Si Si8 0.691215 0.280198 0.282907
O O1 0.222856 0.442104 0.156088
O O2 0.151076 0.076960 0.206462
O O3 0.201593 0.633490 0.039256
O O4 0.933874 0.892745 0.039777
O O5 0.500000 0.500000 0.500000
O O6 0.456093 0.086240 0.294248
O O7 0.678098 0.251223 0.431082
O O8 0.347392 0.753479 0.354786
O O9 0.478838 0.716796 0.771727
O O10 0.610501 0.168424 0.908937
O O11 0.177662 0.414616 0.406700
O O12 0.241461 0.516620 0.599670
O O13 0.000000 0.000000 0.500000
O O14 0.255611 0.546427 0.894986
O O15 0.289879 0.598059 0.771769
O O16 0.002180 0.858926 0.738006
O O17 0.192273 0.151794 0.721519
#
# Coordination Sequence:
#
# PCOD9028220 Si02
#       8
#     2   2   2   2   2   2   2   2
#     4   9  21  42  65 106 131 180 241 303 355 428
#     4  10  24  41  66 108 138 188 247 297 358 434
#     4  10  23  42  66  99 140 185 233 303 358 427
#     4  11  23  43  69 103 144 192 236 296 365 428
#     4  11  26  46  70 106 139 193 238 298 356 435
#     4  10  22  41  72  96 138 181 242 295 361 420
#     4  10  22  44  72 103 142 189 241 300 361 429
#     4  11  27  46  67 103 148 187 244 287 366 437
#
# _framework density 25.628091999999999
#
# number of rings (size 3 to 8) (size 9 to 14) (size 15 to 20)
#    0.000    1.750    1.250    0.750    7.000    3.500 
#    9.000    0.000    0.000    0.000    0.000    0.000 
#    0.000    0.000    0.000    0.000    0.000    0.000 
#
# Total GULP energy -89155.046126 kJ/mol
# GULP energy per Si atom -5572.190383 kJ/mol
# Density = 2.556976 g / cm^3
# Si number density = 25.628092 Si / 1000 Ang^3
#
#
#
# Elastic Constant Matrix: (Units=GPa)
#
#
# Indices 1 2 3 4 5 6 
#
# 1 94.5406 26.3592 67.8532 -3.9544 4.7526 -15.0930
# 2 26.3592 76.2163 23.1184 -19.8198 9.9207 -16.1826
# 3 67.8532 23.1184 248.8866 -0.5686 8.5665 -0.0393
# 4 -3.9544 -19.8198 -0.5686 47.1352 -9.2536 5.7609
# 5 4.7526 9.9207 8.5665 -9.2536 47.5892 -11.0523
# 6 -15.0930 -16.1826 -0.0393 5.7609 -11.0523 31.7432
#
#
#
# Elastic Compliance Matrix: (Units=1/GPa)
#
#
# Indices 1 2 3 4 5 6 
#
# 1 0.015104 -0.003049 -0.003874 -0.000588 0.001132 0.006123
# 2 -0.003049 0.017377 -0.000748 0.006187 -0.000566 0.006088
# 3 -0.003874 -0.000748 0.005179 -0.000480 -0.001063 -0.002500
# 4 -0.000588 0.006187 -0.000480 0.024498 0.003540 -0.000339
# 5 0.001132 -0.000566 -0.001063 0.003540 0.023725 0.007866
# 6 0.006123 0.006088 -0.002500 -0.000339 0.007866 0.040316
#
#
# Mechanical properties :
#
#
# Convention : Reuss Voigt Hill
#
# Bulk Modulus (GPa) = 44.80710 72.70060 58.75385
# Shear Modulus (GPa) = 33.56158 45.44769 39.50463
#
# Velocity S-wave (km/s) = 3.62271 4.21569 3.93040
# Velocity P-wave (km/s) = 5.91779 7.21978 6.60096
#
# Compressibility (1/GPa) = 0.02231789
#
# Stress axis : x y z
#
# Youngs Moduli (GPa) = 66.20808 57.54660 193.10058
#
# Poissons Ratio (x) = 0.17544 0.74805
# Poissons Ratio (y) = 0.20184 0.14452
# Poissons Ratio (z) = 0.25648 0.04307
#
# Static dielectric constant tensor:
#      x y z
#    x 2.098130 0.018400 -0.075440 
#    y 0.018400 2.180410 0.099060 
#    z -0.075440 0.099060 2.130940 
# 
# From -- ./inp_files/564542.got.cif
#   From: 2010.05.17/outbox.cif.g08.bks.cpg/sg2_283_cif.got.tgz:564542.got - 2010.06.03 11:33:40.
