data_PCOD9028698
_publ_section_title
;
Structure prediction by ZEFSAII (Michael W. Deem and Ramdas Pophale) SiO2 
 PCOD9028698
Probable space group: P -1
;
_chemical_formula_sum "Si O2"
_cell_formula_units_Z 16
_cell_length_a 12.352074
_cell_length_b 9.082282
_cell_length_c 13.563885
_cell_angle_alpha 150.026667
_cell_angle_beta 125.281889
_cell_angle_gamma 47.644250
_cell_volume 561.708620
_symmetry_space_group_name_H-M "P -1"
_symmetry_group_IT_number 2
_symmetry_cell_setting 'triclinic'
loop_
_space_group_symop_operation_xyz
x,y,z
-x,-y,-z
loop_
_atom_site_type_symbol
_atom_site_label
_atom_site_fract_x
_atom_site_fract_y
_atom_site_fract_z
Si Si1 0.967981 0.287867 0.575219
Si Si2 0.261066 0.715132 0.977624
Si Si3 0.064175 0.671082 0.990293
Si Si4 0.483807 0.175026 0.916620
Si Si5 0.667713 0.548421 0.448072
Si Si6 0.150458 0.368825 0.564386
Si Si7 0.800431 0.812915 0.060679
Si Si8 0.582096 0.555309 0.741962
O O1 0.805460 0.425577 0.523951
O O2 0.977120 0.588393 0.811172
O O3 0.109122 0.161780 0.502363
O O4 0.000000 0.000000 0.500000
O O5 0.149602 0.857406 0.093266
O O6 0.372149 0.372446 0.886227
O O7 0.176031 0.638077 0.799275
O O8 0.361086 0.876348 0.080567
O O9 0.173319 0.325817 0.895451
O O10 0.950752 0.811755 0.100243
O O11 0.503418 0.838004 0.781316
O O12 0.438312 0.401970 0.123563
O O13 0.711263 0.745535 0.502506
O O14 0.495332 0.686837 0.463642
O O15 0.691907 0.188755 0.212635
O O16 0.000000 0.500000 0.500000
O O17 0.739122 0.583713 0.838549
#
# Coordination Sequence:
#
# PCOD9028698 Si02
#       8
#     2   2   2   2   2   2   2   2
#     4  10  20  34  53  76 104 134 182 215 251 312
#     4  10  17  32  47  76 104 133 170 219 258 300
#     4  10  21  33  51  81 109 137 172 218 267 316
#     4  10  18  27  52  72 107 129 173 218 255 301
#     4  11  18  34  55  77 104 140 175 217 258 306
#     4   9  19  30  48  76 105 131 169 215 259 300
#     4  11  19  33  54  79 110 138 169 215 274 315
#     4  11  18  32  50  79 103 138 176 210 263 310
#
# _framework density 28.484518000000001
#
# number of rings (size 3 to 8) (size 9 to 14) (size 15 to 20)
#    0.000    1.750    6.250    0.000    1.750    0.000 
#    0.000    6.250    0.000    0.000    0.000    0.875 
#    0.000    1.000    0.000    0.000    0.000    0.000 
#
# Total GULP energy -89287.544759 kJ/mol
# GULP energy per Si atom -5580.471547 kJ/mol
# Density = 2.841969 g / cm^3
# Si number density = 28.484518 Si / 1000 Ang^3
#
#
#
# Elastic Constant Matrix: (Units=GPa)
#
#
# Indices 1 2 3 4 5 6 
#
# 1 195.7267 46.3611 43.0719 11.5869 55.7184 56.4724
# 2 46.3611 106.7782 30.8383 -5.7886 4.9667 31.1031
# 3 43.0719 30.8383 114.6076 -11.4495 38.4251 -4.3957
# 4 11.5869 -5.7886 -11.4495 43.3208 -6.5888 9.0119
# 5 55.7184 4.9667 38.4251 -6.5888 47.6006 5.6258
# 6 56.4724 31.1031 -4.3957 9.0119 5.6258 59.7124
#
#
#
# Elastic Compliance Matrix: (Units=1/GPa)
#
#
# Indices 1 2 3 4 5 6 
#
# 1 0.012213 -0.002380 -0.000149 -0.003912 -0.013469 -0.008462
# 2 -0.002380 0.013497 -0.004802 0.003459 0.006474 -0.006264
# 3 -0.000149 -0.004802 0.014032 0.000443 -0.011140 0.004658
# 4 -0.003912 0.003459 0.000443 0.026489 0.007859 -0.002807
# 5 -0.013469 0.006474 -0.011140 0.007859 0.045819 0.003043
# 6 -0.008462 -0.006264 0.004658 -0.002807 0.003043 0.028493
#
#
# Mechanical properties :
#
#
# Convention : Reuss Voigt Hill
#
# Bulk Modulus (GPa) = 39.87548 73.07276 56.47412
# Shear Modulus (GPa) = 30.56878 49.91618 40.24248
#
# Velocity S-wave (km/s) = 3.27948 4.19071 3.76278
# Velocity P-wave (km/s) = 5.32629 7.00894 6.22473
#
# Compressibility (1/GPa) = 0.02507807
#
# Stress axis : x y z
#
# Youngs Moduli (GPa) = 81.87901 74.09177 71.26684
#
# Poissons Ratio (x) = 0.17636 0.01063
# Poissons Ratio (y) = 0.19490 0.34225
# Poissons Ratio (z) = 0.01221 0.35581
#
# Static dielectric constant tensor:
#      x y z
#    x 2.368060 -0.150500 -0.071720 
#    y -0.150500 2.258830 -0.014660 
#    z -0.071720 -0.014660 2.273040 
# 
# From -- ./inp_files/317491.got.cif
#   From: 2010.05.17/outbox.cif.g08.bks.cpg/sg2_159_cif.got.tgz:317491.got - 2010.06.03 11:33:40.
