data_PCOD9028773
_publ_section_title
;
Structure prediction by ZEFSAII (Michael W. Deem and Ramdas Pophale) SiO2 
 PCOD9028773
Probable space group: P -1
;
_chemical_formula_sum "Si O2"
_cell_formula_units_Z 12
_cell_length_a 8.185536
_cell_length_b 7.353573
_cell_length_c 9.354829
_cell_angle_alpha 95.934733
_cell_angle_beta 85.409608
_cell_angle_gamma 110.779007
_cell_volume 523.077567
_symmetry_space_group_name_H-M "P -1"
_symmetry_group_IT_number 2
_symmetry_cell_setting 'triclinic'
loop_
_space_group_symop_operation_xyz
x,y,z
-x,-y,-z
loop_
_atom_site_type_symbol
_atom_site_label
_atom_site_fract_x
_atom_site_fract_y
_atom_site_fract_z
Si Si1 0.177543 0.566546 0.356934
Si Si2 0.059503 0.046883 0.160972
Si Si3 0.318010 0.348034 0.547438
Si Si4 0.685071 0.548034 0.914291
Si Si5 0.849787 0.068642 0.442578
Si Si6 0.090924 0.388110 0.817459
O O1 0.187232 0.398060 0.448987
O O2 0.325246 0.598453 0.227868
O O3 0.182032 0.749238 0.467809
O O4 0.005452 0.499722 0.262920
O O5 0.234908 0.236607 0.148876
O O6 0.912175 0.082922 0.274602
O O7 0.053892 0.832332 0.191875
O O8 0.000000 0.000000 0.000000
O O9 0.500000 0.500000 0.500000
O O10 0.252978 0.383138 0.710234
O O11 0.314409 0.128243 0.530772
O O12 0.500000 0.500000 0.000000
O O13 0.827357 0.545119 0.026732
O O14 0.000000 0.000000 0.500000
#
# Coordination Sequence:
#
# PCOD9028773 Si02
#       6
#     2   2   2   2   2   2
#     4  12  24  41  73  97 132 182 228 270 334 404
#     4   9  20  39  66  92 134 174 220 268 329 394
#     4  11  24  42  68  99 139 170 219 285 337 385
#     4  11  24  42  68  97 138 175 222 284 339 389
#     4  11  22  41  69 101 132 172 229 273 327 405
#     4  10  22  42  64  99 127 179 230 264 328 409
#
# _framework density 22.941147999999998
#
# number of rings (size 3 to 8) (size 9 to 14) (size 15 to 20)
#    0.000    1.333    3.333    3.000    2.333    0.667 
#    0.000    0.833    0.000    0.000    0.000    0.000 
#    0.000    0.000    0.000    0.000    0.000    0.000 
#
# Total GULP energy -66930.881225 kJ/mol
# GULP energy per Si atom -5577.573435 kJ/mol
# Density = 2.288893 g / cm^3
# Si number density = 22.941148 Si / 1000 Ang^3
#
#
#
# Elastic Constant Matrix: (Units=GPa)
#
#
# Indices 1 2 3 4 5 6 
#
# 1 67.9708 45.4670 33.2749 -5.7064 -14.8086 2.6910
# 2 45.4670 161.3801 63.6962 -16.2401 -21.6284 -0.5188
# 3 33.2749 63.6962 194.1168 6.5508 -25.4697 -11.7996
# 4 -5.7064 -16.2401 6.5508 36.5702 -0.9137 -8.5276
# 5 -14.8086 -21.6284 -25.4697 -0.9137 46.4169 -10.6850
# 6 2.6910 -0.5188 -11.7996 -8.5276 -10.6850 37.4836
#
#
#
# Elastic Compliance Matrix: (Units=1/GPa)
#
#
# Indices 1 2 3 4 5 6 
#
# 1 0.019124 -0.004220 -0.001572 0.001297 0.003128 -0.000739
# 2 -0.004220 0.008842 -0.001960 0.003975 0.002076 0.001305
# 3 -0.001572 -0.001960 0.006645 -0.001629 0.002799 0.002605
# 4 0.001297 0.003975 -0.001629 0.031490 0.003762 0.007686
# 5 0.003128 0.002076 0.002799 0.003762 0.027263 0.009312
# 6 -0.000739 0.001305 0.002605 0.007686 0.009312 0.031972
#
#
# Mechanical properties :
#
#
# Convention : Reuss Voigt Hill
#
# Bulk Modulus (GPa) = 52.33928 78.70486 65.52207
# Shear Modulus (GPa) = 33.96516 42.82944 38.39730
#
# Velocity S-wave (km/s) = 3.85195 4.32548 4.09556
# Velocity P-wave (km/s) = 6.53050 7.70248 7.14057
#
# Compressibility (1/GPa) = 0.01910611
#
# Stress axis : x y z
#
# Youngs Moduli (GPa) = 52.28942 113.09905 150.49597
#
# Poissons Ratio (x) = 0.47732 0.23654
# Poissons Ratio (y) = 0.22068 0.29501
# Poissons Ratio (z) = 0.08219 0.22170
#
# Static dielectric constant tensor:
#      x y z
#    x 1.966670 0.037380 0.024960 
#    y 0.037380 2.008130 -0.001360 
#    z 0.024960 -0.001360 1.903600 
# 
# From -- ./inp_files/147371.got.cif
#   From: 2010.05.17/outbox.cif.g08.bks.cpg/sg2_74_cif.got.tgz:147371.got - 2010.06.03 11:33:40.
