data_PCOD9028772
_publ_section_title
;
Structure prediction by ZEFSAII (Michael W. Deem and Ramdas Pophale) SiO2 
 PCOD9028772
Probable space group: P -1
;
_chemical_formula_sum "Si O2"
_cell_formula_units_Z 14
_cell_length_a 17.490451
_cell_length_b 5.505301
_cell_length_c 7.375490
_cell_angle_alpha 104.285576
_cell_angle_beta 125.379398
_cell_angle_gamma 85.615000
_cell_volume 559.150608
_symmetry_space_group_name_H-M "P -1"
_symmetry_group_IT_number 2
_symmetry_cell_setting 'triclinic'
loop_
_space_group_symop_operation_xyz
x,y,z
-x,-y,-z
loop_
_atom_site_type_symbol
_atom_site_label
_atom_site_fract_x
_atom_site_fract_y
_atom_site_fract_z
Si Si1 0.173480 0.379781 0.579316
Si Si2 0.464004 0.920597 0.739119
Si Si3 0.630874 0.875085 0.689680
Si Si4 0.869051 0.073722 0.326733
Si Si5 0.006233 0.451121 0.786392
Si Si6 0.717846 0.445561 0.581866
Si Si7 0.807466 0.246191 0.970295
O O1 0.187368 0.145515 0.681917
O O2 0.237674 0.398157 0.494854
O O3 0.064386 0.361704 0.367468
O O4 0.189059 0.669797 0.729816
O O5 0.551802 0.841105 0.727497
O O6 0.380043 0.708215 0.620220
O O7 0.419841 0.116821 0.575849
O O8 0.500000 0.000000 0.000000
O O9 0.695219 0.643901 0.741425
O O10 0.698400 0.132200 0.842259
O O11 0.869391 0.032073 0.103702
O O12 0.958408 0.191189 0.584845
O O13 0.111248 0.514123 0.872389
O O14 0.000000 0.500000 0.000000
O O15 0.790516 0.259712 0.728350
#
# Coordination Sequence:
#
# PCOD9028772 Si02
#       7
#     2   2   2   2   2   2   2
#     4  10  25  42  70  99 145 182 248 284 354 422
#     4  10  24  47  70 101 138 183 231 301 366 441
#     4  10  25  42  70 102 140 177 243 295 363 436
#     4  10  25  43  63 105 141 187 243 297 349 421
#     4  10  22  42  64  98 139 192 238 294 344 427
#     4  11  24  43  71 101 139 187 235 295 363 428
#     4  11  23  43  67  99 142 186 232 301 355 414
#
# _framework density 25.037974999999999
#
# number of rings (size 3 to 8) (size 9 to 14) (size 15 to 20)
#    0.857    0.857    1.429    0.857   10.000    2.857 
#    0.000    0.000    0.000    0.000    0.000    0.000 
#    0.000    0.000    0.000    0.000    0.000    0.000 
#
# Total GULP energy -77968.654617 kJ/mol
# GULP energy per Si atom -5569.189615 kJ/mol
# Density = 2.498099 g / cm^3
# Si number density = 25.037975 Si / 1000 Ang^3
#
#
#
# Elastic Constant Matrix: (Units=GPa)
#
#
# Indices 1 2 3 4 5 6 
#
# 1 108.0374 57.0278 47.2041 -4.7699 6.0410 24.2410
# 2 57.0278 151.0067 57.6695 -14.2318 -9.3508 43.9669
# 3 47.2041 57.6695 174.5660 7.7896 3.1472 29.0476
# 4 -4.7699 -14.2318 7.7896 30.6522 16.7223 -0.9907
# 5 6.0410 -9.3508 3.1472 16.7223 32.6667 -0.2373
# 6 24.2410 43.9669 29.0476 -0.9907 -0.2373 40.6055
#
#
#
# Elastic Compliance Matrix: (Units=1/GPa)
#
#
# Indices 1 2 3 4 5 6 
#
# 1 0.012922 -0.003307 -0.002039 0.003652 -0.005028 -0.002615
# 2 -0.003307 0.011747 -0.001622 0.003926 0.002052 -0.009477
# 3 -0.002039 -0.001622 0.007350 -0.003568 0.001014 -0.002366
# 4 0.003652 0.003926 -0.003568 0.049130 -0.024378 -0.002823
# 5 -0.005028 0.002052 0.001014 -0.024378 0.044509 -0.000280
# 6 -0.002615 -0.009477 -0.002366 -0.002823 -0.000280 0.038072
#
#
# Mechanical properties :
#
#
# Convention : Reuss Voigt Hill
#
# Bulk Modulus (GPa) = 55.29803 84.15698 69.72750
# Shear Modulus (GPa) = 27.21932 38.89880 33.05906
#
# Velocity S-wave (km/s) = 3.30073 3.94584 3.63761
# Velocity P-wave (km/s) = 6.05475 7.37863 6.74923
#
# Compressibility (1/GPa) = 0.01808383
#
# Stress axis : x y z
#
# Youngs Moduli (GPa) = 77.38961 85.12942 136.05165
#
# Poissons Ratio (x) = 0.28152 0.27738
# Poissons Ratio (y) = 0.25593 0.22062
# Poissons Ratio (z) = 0.15778 0.13805
#
# Static dielectric constant tensor:
#      x y z
#    x 2.357360 -0.111090 -0.582260 
#    y -0.111090 2.124950 -0.016900 
#    z -0.582260 -0.016900 2.806590 
# 
# From -- ./inp_files/339390.got.cif
#   From: 2010.05.17/outbox.cif.g08.bks.cpg/sg2_170_cif.got.tgz:339390.got - 2010.06.03 11:33:40.
