data_PCOD9028384
_publ_section_title
;
Structure prediction by ZEFSAII (Michael W. Deem and Ramdas Pophale) SiO2 
 PCOD9028384
Probable space group: P -1
;
_chemical_formula_sum "Si O2"
_cell_formula_units_Z 16
_cell_length_a 18.639633
_cell_length_b 7.389832
_cell_length_c 5.261385
_cell_angle_alpha 63.295425
_cell_angle_beta 74.606492
_cell_angle_gamma 85.356417
_cell_volume 623.576333
_symmetry_space_group_name_H-M "P -1"
_symmetry_group_IT_number 2
_symmetry_cell_setting 'triclinic'
loop_
_space_group_symop_operation_xyz
x,y,z
-x,-y,-z
loop_
_atom_site_type_symbol
_atom_site_label
_atom_site_fract_x
_atom_site_fract_y
_atom_site_fract_z
Si Si1 0.565050 0.699428 0.585291
Si Si2 0.041308 0.584773 0.154935
Si Si3 0.808353 0.168024 0.593828
Si Si4 0.592923 0.298370 0.470372
Si Si5 0.837274 0.572981 0.543841
Si Si6 0.656372 0.988623 0.969741
Si Si7 0.878427 0.016794 0.125273
Si Si8 0.316617 0.404388 0.076722
O O1 0.578646 0.495766 0.535289
O O2 0.477720 0.729634 0.630789
O O3 0.603978 0.650140 0.842619
O O4 0.608586 0.899157 0.304696
O O5 0.124448 0.511077 0.185765
O O6 0.000000 0.500000 0.500000
O O7 0.052590 0.828027 0.977127
O O8 0.000000 0.500000 0.000000
O O9 0.838313 0.399033 0.442585
O O10 0.725508 0.149971 0.800752
O O11 0.818313 0.077987 0.361359
O O12 0.856065 0.054856 0.831676
O O13 0.602462 0.098423 0.754146
O O14 0.667523 0.376990 0.203098
O O15 0.750698 0.605390 0.658995
O O16 0.881334 0.778406 0.301910
O O17 0.697111 0.784664 0.977085
#
# Coordination Sequence:
#
# PCOD9028384 Si02
#       8
#     2   2   2   2   2   2   2   2
#     4  10  22  42  60  95 136 186 241 296 362 433
#     4  11  26  49  73 110 147 185 236 287 354 439
#     4  11  25  43  70 108 147 183 245 302 352 422
#     4  10  23  39  64  91 137 187 237 299 365 424
#     4  11  25  45  76 103 146 190 234 300 361 421
#     4  11  23  38  65  95 142 181 247 297 362 423
#     4  11  25  47  75 109 144 188 237 290 357 430
#     4  11  23  41  65 102 133 183 242 299 360 429
#
# _framework density 25.658443999999999
#
# number of rings (size 3 to 8) (size 9 to 14) (size 15 to 20)
#    0.000    1.250    1.250    3.750    3.500    6.500 
#    4.500    0.000    0.000    0.000    0.000    0.000 
#    0.000    0.000    0.000    0.000    0.000    0.000 
#
# Total GULP energy -89536.081028 kJ/mol
# GULP energy per Si atom -5596.005064 kJ/mol
# Density = 2.560004 g / cm^3
# Si number density = 25.658444 Si / 1000 Ang^3
#
#
#
# Elastic Constant Matrix: (Units=GPa)
#
#
# Indices 1 2 3 4 5 6 
#
# 1 52.0435 11.5301 2.2898 -13.8264 -11.8408 14.4523
# 2 11.5301 87.1564 42.6044 -26.8478 -3.6445 1.9585
# 3 2.2898 42.6044 143.7282 -29.6846 -16.7467 3.7091
# 4 -13.8264 -26.8478 -29.6846 45.1465 9.3697 -3.7155
# 5 -11.8408 -3.6445 -16.7467 9.3697 33.0148 -7.9785
# 6 14.4523 1.9585 3.7091 -3.7155 -7.9785 34.8404
#
#
#
# Elastic Compliance Matrix: (Units=1/GPa)
#
#
# Indices 1 2 3 4 5 6 
#
# 1 0.024923 -0.002205 0.002422 0.005934 0.006205 -0.008418
# 2 -0.002205 0.015433 -0.003452 0.006826 -0.002646 0.000537
# 3 0.002422 -0.003452 0.009218 0.003892 0.003944 -0.000474
# 4 0.005934 0.006826 0.003892 0.031399 -0.004270 -0.000889
# 5 0.006205 -0.002646 0.003944 -0.004270 0.036667 0.005096
# 6 -0.008418 0.000537 -0.000474 -0.000889 0.005096 0.033287
#
#
# Mechanical properties :
#
#
# Convention : Reuss Voigt Hill
#
# Bulk Modulus (GPa) = 23.19940 43.97517 33.58728
# Shear Modulus (GPa) = 29.10997 37.70060 33.40528
#
# Velocity S-wave (km/s) = 3.37191 3.83734 3.61213
# Velocity P-wave (km/s) = 4.92148 6.06708 5.52406
#
# Compressibility (1/GPa) = 0.04310456
#
# Stress axis : x y z
#
# Youngs Moduli (GPa) = 40.12437 64.79799 108.48462
#
# Poissons Ratio (x) = 0.14286 -0.26277
# Poissons Ratio (y) = 0.08846 0.37447
# Poissons Ratio (z) = -0.09719 0.22367
#
# Static dielectric constant tensor:
#      x y z
#    x 2.060350 -0.012190 -0.022760 
#    y -0.012190 2.028600 0.007530 
#    z -0.022760 0.007530 1.979560 
# 
# From -- ./inp_files/106079.got.cif
#   From: 2010.05.17/outbox.cif.g08.bks.cpg/sg2_54_cif.got.tgz:106079.got - 2010.06.03 11:33:40.
