data_PCOD9028413
_publ_section_title
;
Structure prediction by ZEFSAII (Michael W. Deem and Ramdas Pophale) SiO2 
 PCOD9028413
Probable space group: P -1
;
_chemical_formula_sum "Si O2"
_cell_formula_units_Z 16
_cell_length_a 15.450986
_cell_length_b 8.540034
_cell_length_c 10.909033
_cell_angle_alpha 40.383509
_cell_angle_beta 56.719857
_cell_angle_gamma 55.930425
_cell_volume 752.323275
_symmetry_space_group_name_H-M "P -1"
_symmetry_group_IT_number 2
_symmetry_cell_setting 'triclinic'
loop_
_space_group_symop_operation_xyz
x,y,z
-x,-y,-z
loop_
_atom_site_type_symbol
_atom_site_label
_atom_site_fract_x
_atom_site_fract_y
_atom_site_fract_z
Si Si1 0.594416 0.553449 0.216952
Si Si2 0.821201 0.461763 0.987256
Si Si3 0.543945 0.268037 0.016065
Si Si4 0.086310 0.078759 0.299238
Si Si5 0.964224 0.937333 0.258450
Si Si6 0.728044 0.366432 0.651414
Si Si7 0.855812 0.536353 0.659489
Si Si8 0.548575 0.749617 0.408322
O O1 0.535790 0.705098 0.054732
O O2 0.553195 0.689421 0.295430
O O3 0.554926 0.300813 0.414244
O O4 0.720438 0.506400 0.129084
O O5 0.782742 0.529488 0.837446
O O6 0.893133 0.652391 0.850701
O O7 0.886245 0.172023 0.113739
O O8 0.656426 0.265692 0.865833
O O9 0.500000 0.500000 0.000000
O O10 0.552706 0.031905 0.236604
O O11 0.198140 0.863897 0.344016
O O12 0.000000 0.000000 0.500000
O O13 0.040199 0.055618 0.213454
O O14 0.893852 0.789292 0.479071
O O15 0.040991 0.705200 0.263680
O O16 0.802036 0.500390 0.594068
O O17 0.648716 0.560733 0.509091
#
# Coordination Sequence:
#
# PCOD9028413 Si02
#       8
#     2   2   2   2   2   2   2   2
#     4  10  24  40  66  97 123 166 212 263 315 376
#     4  12  23  39  68  95 124 168 218 259 322 382
#     4  11  23  43  67  96 131 164 209 267 320 380
#     4  11  23  43  63  94 132 165 212 271 311 371
#     4  10  23  42  62  90 128 174 211 259 321 371
#     4  10  24  42  66  94 128 172 210 259 324 376
#     4  10  22  42  61  92 132 165 213 265 310 377
#     4  10  23  45  65  91 131 166 211 261 321 383
#
# _framework density 21.267451999999999
#
# number of rings (size 3 to 8) (size 9 to 14) (size 15 to 20)
#    0.000    1.500    1.250    2.625    1.750    8.000 
#    4.500    0.000    0.000    0.000    0.000    0.000 
#    0.000    0.000    0.000    0.000    0.000    0.000 
#
# Total GULP energy -89366.242018 kJ/mol
# GULP energy per Si atom -5585.390126 kJ/mol
# Density = 2.121905 g / cm^3
# Si number density = 21.267452 Si / 1000 Ang^3
#
#
#
# Elastic Constant Matrix: (Units=GPa)
#
#
# Indices 1 2 3 4 5 6 
#
# 1 52.3778 5.6431 27.0086 -7.9621 -8.3617 -2.0927
# 2 5.6431 64.7979 61.1904 1.1164 -13.1321 -3.2172
# 3 27.0086 61.1904 140.8074 -12.6989 -7.8170 -20.1639
# 4 -7.9621 1.1164 -12.6989 37.3659 0.8740 -8.5437
# 5 -8.3617 -13.1321 -7.8170 0.8740 20.9431 12.1978
# 6 -2.0927 -3.2172 -20.1639 -8.5437 12.1978 24.3396
#
#
#
# Elastic Compliance Matrix: (Units=1/GPa)
#
#
# Indices 1 2 3 4 5 6 
#
# 1 0.028594 0.018269 -0.016176 -0.007052 0.033239 -0.027660
# 2 0.018269 0.063485 -0.039724 -0.029416 0.074678 -0.070697
# 3 -0.016176 -0.039724 0.034849 0.023821 -0.052491 0.056897
# 4 -0.007052 -0.029416 0.023821 0.048015 -0.046695 0.055495
# 5 0.033239 0.074678 -0.052491 -0.046695 0.166161 -0.130420
# 6 -0.027660 -0.070697 0.056897 0.055495 -0.130420 0.161338
#
#
# Mechanical properties :
#
#
# Convention : Reuss Voigt Hill
#
# Bulk Modulus (GPa) = 19.35453 49.51857 34.43655
# Shear Modulus (GPa) = 8.40442 27.47246 17.93844
#
# Velocity S-wave (km/s) = 1.99006 3.59801 2.90740
# Velocity P-wave (km/s) = 3.79483 6.37143 5.24385
#
# Compressibility (1/GPa) = 0.05166748
#
# Stress axis : x y z
#
# Youngs Moduli (GPa) = 34.97264 15.75177 28.69496
#
# Poissons Ratio (x) = -0.28777 0.46416
# Poissons Ratio (y) = -0.63892 1.13988
# Poissons Ratio (z) = 0.56571 0.62572
#
# Static dielectric constant tensor:
#      x y z
#    x 1.794210 -0.009830 0.006180 
#    y -0.009830 1.872710 -0.098200 
#    z 0.006180 -0.098200 1.870180 
# 
# From -- ./inp_files/345903.got.cif
#   From: 2010.05.17/outbox.cif.g08.bks.cpg/sg2_173_cif.got.tgz:345903.got - 2010.06.03 11:33:40.
