data_PCOD9028656
_publ_section_title
;
Structure prediction by ZEFSAII (Michael W. Deem and Ramdas Pophale) SiO2 
 PCOD9028656
Probable space group: P -1
;
_chemical_formula_sum "Si O2"
_cell_formula_units_Z 16
_cell_length_a 11.384632
_cell_length_b 8.922624
_cell_length_c 6.604164
_cell_angle_alpha 100.601151
_cell_angle_beta 63.184210
_cell_angle_gamma 96.867285
_cell_volume 587.982534
_symmetry_space_group_name_H-M "P -1"
_symmetry_group_IT_number 2
_symmetry_cell_setting 'triclinic'
loop_
_space_group_symop_operation_xyz
x,y,z
-x,-y,-z
loop_
_atom_site_type_symbol
_atom_site_label
_atom_site_fract_x
_atom_site_fract_y
_atom_site_fract_z
Si Si1 0.506001 0.180055 0.045278
Si Si2 0.998799 0.204649 0.303143
Si Si3 0.833392 0.965181 0.182377
Si Si4 0.778466 0.238706 0.986024
Si Si5 0.627814 0.424360 0.480732
Si Si6 0.255506 0.340807 0.226341
Si Si7 0.944346 0.489568 0.816424
Si Si8 0.447790 0.166659 0.552500
O O1 0.658339 0.228304 0.920767
O O2 0.384261 0.252715 0.046457
O O3 0.471682 0.211755 0.313463
O O4 0.500000 0.000000 0.000000
O O5 0.131823 0.222063 0.339852
O O6 0.965131 0.383998 0.347901
O O7 0.883376 0.073189 0.359766
O O8 0.060425 0.146544 0.023360
O O9 0.796545 0.082877 0.058161
O O10 0.707492 0.856497 0.303347
O O11 0.729435 0.357061 0.224532
O O12 0.906962 0.308202 0.787021
O O13 0.500000 0.500000 0.500000
O O14 0.702664 0.542927 0.600007
O O15 0.553313 0.279834 0.610559
O O16 0.195454 0.438327 0.114811
O O17 0.000000 0.500000 0.000000
O O18 0.500000 0.000000 0.500000
#
# Coordination Sequence:
#
# PCOD9028656 Si02
#       8
#     2   2   2   2   2   2   2   2
#     4  11  23  40  62  99 139 167 215 278 335 404
#     4   9  23  39  69  91 132 174 227 274 318 390
#     4  11  20  43  65  96 131 179 223 268 334 397
#     4  11  21  39  65  91 133 174 212 273 336 395
#     4  11  22  41  62  94 138 174 211 275 340 394
#     4  10  22  42  64  99 131 169 231 270 327 400
#     4  10  22  42  64  91 123 170 226 270 329 382
#     4  11  23  39  68  95 130 183 213 266 343 400
#
# _framework density 27.211693
#
# number of rings (size 3 to 8) (size 9 to 14) (size 15 to 20)
#    0.750    0.750    6.250    0.750    1.750    1.500 
#    0.000    3.125    0.000    0.000    0.000    0.000 
#    0.000    0.000    0.000    0.000    0.000    0.000 
#
# Total GULP energy -89279.254283 kJ/mol
# GULP energy per Si atom -5579.953393 kJ/mol
# Density = 2.714976 g / cm^3
# Si number density = 27.211693 Si / 1000 Ang^3
#
#
#
# Elastic Constant Matrix: (Units=GPa)
#
#
# Indices 1 2 3 4 5 6 
#
# 1 183.4649 37.9388 21.4162 8.1406 11.2677 31.2680
# 2 37.9388 133.1675 22.3048 20.7436 9.4126 39.5349
# 3 21.4162 22.3048 66.9389 -6.8929 -16.5094 9.1136
# 4 8.1406 20.7436 -6.8929 44.1035 2.5213 -1.6126
# 5 11.2677 9.4126 -16.5094 2.5213 37.5657 7.3819
# 6 31.2680 39.5349 9.1136 -1.6126 7.3819 76.9246
#
#
#
# Elastic Compliance Matrix: (Units=1/GPa)
#
#
# Indices 1 2 3 4 5 6 
#
# 1 0.006338 -0.000518 -0.002309 -0.001220 -0.002343 -0.001837
# 2 -0.000518 0.010843 -0.004151 -0.005648 -0.003084 -0.004693
# 3 -0.002309 -0.004151 0.020133 0.004930 0.010288 -0.000197
# 4 -0.001220 -0.005648 0.004930 0.026356 0.001546 0.003219
# 5 -0.002343 -0.003084 0.010288 0.001546 0.032868 -0.001803
# 6 -0.001837 -0.004693 -0.000197 0.003219 -0.001803 0.016422
#
#
# Mechanical properties :
#
#
# Convention : Reuss Voigt Hill
#
# Bulk Modulus (GPa) = 42.80904 60.76563 51.78734
# Shear Modulus (GPa) = 37.11910 51.84619 44.48264
#
# Velocity S-wave (km/s) = 3.69736 4.36970 4.04751
# Velocity P-wave (km/s) = 5.83038 6.91652 6.39654
#
# Compressibility (1/GPa) = 0.02335955
#
# Stress axis : x y z
#
# Youngs Moduli (GPa) = 157.76741 92.22340 49.67040
#
# Poissons Ratio (x) = 0.04776 0.11468
# Poissons Ratio (y) = 0.08170 0.20617
# Poissons Ratio (z) = 0.36424 0.38280
#
# Static dielectric constant tensor:
#      x y z
#    x 2.240680 0.101340 0.068160 
#    y 0.101340 2.237530 0.002990 
#    z 0.068160 0.002990 2.246180 
# 
# From -- ./inp_files/239567.got.cif
#   From: 2010.05.17/outbox.cif.g08.bks.cpg/sg2_120_cif.got.tgz:239567.got - 2010.06.03 11:33:40.
