data_PCOD9028224
_publ_section_title
;
Structure prediction by ZEFSAII (Michael W. Deem and Ramdas Pophale) SiO2 
 PCOD9028224
Probable space group: P -1
;
_chemical_formula_sum "Si O2"
_cell_formula_units_Z 15
_cell_length_a 7.835773
_cell_length_b 15.167110
_cell_length_c 7.665046
_cell_angle_alpha 117.275563
_cell_angle_beta 91.471670
_cell_angle_gamma 48.734207
_cell_volume 553.998466
_symmetry_space_group_name_H-M "P -1"
_symmetry_group_IT_number 2
_symmetry_cell_setting 'triclinic'
loop_
_space_group_symop_operation_xyz
x,y,z
-x,-y,-z
loop_
_atom_site_type_symbol
_atom_site_label
_atom_site_fract_x
_atom_site_fract_y
_atom_site_fract_z
Si Si1 0.779461 0.449791 0.112897
Si Si2 0.647024 0.118551 0.372773
Si Si3 0.460260 0.807480 0.201117
Si Si4 0.239292 0.593200 0.314440
Si Si5 0.280508 0.096681 0.333366
Si Si6 0.017158 0.170636 0.056383
Si Si7 0.000000 0.500000 0.000000
Si Si8 0.507223 0.324827 0.271963
O O1 0.788227 0.465677 0.914762
O O2 0.911105 0.496493 0.199412
O O3 0.494651 0.547028 0.244967
O O4 0.935965 0.287694 0.021946
O O5 0.686273 0.156745 0.591842
O O6 0.489341 0.086865 0.380289
O O7 0.493692 0.247591 0.346587
O O8 0.893597 0.970243 0.153336
O O9 0.365210 0.953042 0.264216
O O10 0.441436 0.742135 0.978199
O O11 0.748371 0.678971 0.144117
O O12 0.297387 0.496697 0.392022
O O13 0.984474 0.759872 0.462884
O O14 0.230543 0.117751 0.143261
O O15 0.774645 0.262395 0.256088
#
# Coordination Sequence:
#
# PCOD9028224 Si02
#       8
#     2   2   2   2   2   2   1   2
#     4  10  22  41  72  97 146 192 234 296 360 424
#     4  12  26  45  74 109 142 197 244 302 366 426
#     4  12  27  47  77 104 147 190 243 305 369 425
#     4  10  23  47  67 105 146 191 241 295 365 433
#     4  12  26  46  75 106 149 192 242 305 363 439
#     4  11  25  46  71 107 153 190 242 302 364 435
#     4  12  24  44  72 110 136 186 248 298 354 438
#     4  11  26  49  71 108 151 190 246 303 356 439
#
# _framework density 27.075887000000002
#
# number of rings (size 3 to 8) (size 9 to 14) (size 15 to 20)
#    0.000    0.800    2.667    3.600    1.867    5.333 
#    0.000    0.000    0.000    0.000    0.000    0.000 
#    0.000    0.000    0.000    0.000    0.000    0.000 
#
# Total GULP energy -83901.351746 kJ/mol
# GULP energy per Si atom -5593.423450 kJ/mol
# Density = 2.701426 g / cm^3
# Si number density = 27.075887 Si / 1000 Ang^3
#
#
#
# Elastic Constant Matrix: (Units=GPa)
#
#
# Indices 1 2 3 4 5 6 
#
# 1 49.5427 9.8020 0.2278 14.9830 -2.3718 2.6967
# 2 9.8020 173.9308 48.5569 47.4612 -5.2779 21.4752
# 3 0.2278 48.5569 119.5194 24.7859 5.0336 -1.4385
# 4 14.9830 47.4612 24.7859 59.8565 -13.9017 0.9562
# 5 -2.3718 -5.2779 5.0336 -13.9017 37.8358 3.8918
# 6 2.6967 21.4752 -1.4385 0.9562 3.8918 38.2233
#
#
#
# Elastic Compliance Matrix: (Units=1/GPa)
#
#
# Indices 1 2 3 4 5 6 
#
# 1 0.022110 0.000346 0.001189 -0.006502 -0.000964 -0.001449
# 2 0.000346 0.008562 -0.002312 -0.005876 -0.000146 -0.004760
# 3 0.001189 -0.002312 0.010165 -0.003417 -0.003061 0.001995
# 4 -0.006502 -0.005876 -0.003417 0.026398 0.008712 0.002084
# 5 -0.000964 -0.000146 -0.003061 0.008712 0.030294 -0.003268
# 6 -0.001449 -0.004760 0.001995 0.002084 -0.003268 0.029294
#
#
# Mechanical properties :
#
#
# Convention : Reuss Voigt Hill
#
# Bulk Modulus (GPa) = 25.45644 51.12959 38.29301
# Shear Modulus (GPa) = 35.34284 46.14352 40.74318
#
# Velocity S-wave (km/s) = 3.61685 4.13271 3.88335
# Velocity P-wave (km/s) = 5.18309 6.45734 5.85498
#
# Compressibility (1/GPa) = 0.03928280
#
# Stress axis : x y z
#
# Youngs Moduli (GPa) = 45.22903 116.79481 98.37491
#
# Poissons Ratio (x) = -0.04039 -0.11695
# Poissons Ratio (y) = -0.01564 0.22741
# Poissons Ratio (z) = -0.05377 0.26999
#
# Static dielectric constant tensor:
#      x y z
#    x 6.045520 -0.124350 0.729950 
#    y -0.124350 2.011160 -0.076090 
#    z 0.729950 -0.076090 2.391130 
# 
# From -- ./inp_files/203049.got.cif
#   From: 2010.05.17/outbox.cif.g08.bks.cpg/sg2_102_cif.got.tgz:203049.got - 2010.06.03 11:33:40.
