data_PCOD9028574
_publ_section_title
;
Structure prediction by ZEFSAII (Michael W. Deem and Ramdas Pophale) SiO2 
 PCOD9028574
Probable space group: P -1
;
_chemical_formula_sum "Si O2"
_cell_formula_units_Z 16
_cell_length_a 11.245966
_cell_length_b 8.609615
_cell_length_c 14.254579
_cell_angle_alpha 59.599644
_cell_angle_beta 79.357998
_cell_angle_gamma 42.146063
_cell_volume 754.275092
_symmetry_space_group_name_H-M "P -1"
_symmetry_group_IT_number 2
_symmetry_cell_setting 'triclinic'
loop_
_space_group_symop_operation_xyz
x,y,z
-x,-y,-z
loop_
_atom_site_type_symbol
_atom_site_label
_atom_site_fract_x
_atom_site_fract_y
_atom_site_fract_z
Si Si1 0.574998 0.458941 0.705662
Si Si2 0.856149 0.233551 0.580119
Si Si3 0.667572 0.600021 0.321008
Si Si4 0.844302 0.495719 0.834736
Si Si5 0.555830 0.098562 0.261426
Si Si6 0.029094 0.115239 0.091812
Si Si7 0.971266 0.345829 0.213490
Si Si8 0.061279 0.153914 0.737262
O O1 0.664359 0.445336 0.603645
O O2 0.454701 0.421260 0.701949
O O3 0.473686 0.734123 0.695002
O O4 0.754562 0.178884 0.825002
O O5 0.813495 0.336789 0.450001
O O6 0.998079 0.204691 0.623391
O O7 0.938288 0.941766 0.673981
O O8 0.778434 0.576901 0.228541
O O9 0.573053 0.860154 0.322814
O O10 0.639903 0.654029 0.840458
O O11 0.883120 0.659895 0.793269
O O12 0.886643 0.422904 0.741027
O O13 0.993075 0.218781 0.960726
O O14 0.755367 0.939549 0.244721
O O15 0.951628 0.351666 0.102918
O O16 0.912115 0.074134 0.153805
#
# Coordination Sequence:
#
# PCOD9028574 Si02
#       8
#     2   2   2   2   2   2   2   2
#     4  10  22  43  63  99 135 166 229 273 315 405
#     4  10  22  44  67  90 135 181 210 274 338 381
#     4  12  24  42  67  99 134 177 220 272 335 384
#     4  12  22  44  66  96 134 174 215 275 335 382
#     4  12  24  41  68  99 136 171 224 273 318 401
#     4  10  22  43  69  89 135 180 210 273 340 383
#     4  10  22  42  63  95 134 168 225 274 318 403
#     4  10  22  43  61  99 132 164 224 268 316 401
#
# _framework density 21.212419000000001
#
# number of rings (size 3 to 8) (size 9 to 14) (size 15 to 20)
#    0.000    1.500    3.750    4.500    0.000    1.500 
#    4.500    1.250    0.000    0.000    0.000    0.000 
#    0.000    0.000    0.000    0.000    0.000    0.000 
#
# Total GULP energy -89098.800023 kJ/mol
# GULP energy per Si atom -5568.675001 kJ/mol
# Density = 2.116414 g / cm^3
# Si number density = 21.212419 Si / 1000 Ang^3
#
#
#
# Elastic Constant Matrix: (Units=GPa)
#
#
# Indices 1 2 3 4 5 6 
#
# 1 158.1800 32.0222 11.8656 -0.0273 15.2747 9.8166
# 2 32.0222 63.9633 0.4731 -3.3459 -0.9609 14.7407
# 3 11.8656 0.4731 48.1629 -4.5947 12.7649 1.7985
# 4 -0.0273 -3.3459 -4.5947 13.5892 -3.2949 -0.1568
# 5 15.2747 -0.9609 12.7649 -3.2949 13.1795 -3.0783
# 6 9.8166 14.7407 1.7985 -0.1568 -3.0783 41.6767
#
#
#
# Elastic Compliance Matrix: (Units=1/GPa)
#
#
# Indices 1 2 3 4 5 6 
#
# 1 0.008374 -0.004247 0.000897 -0.003684 -0.012136 -0.001419
# 2 -0.004247 0.019424 -0.000149 0.006314 0.006815 -0.005336
# 3 0.000897 -0.000149 0.028583 0.002579 -0.028911 -0.003518
# 4 -0.003684 0.006314 0.002579 0.081525 0.022733 0.000509
# 5 -0.012136 0.006815 -0.028911 0.022733 0.126725 0.011141
# 6 -0.001419 -0.005336 -0.003518 0.000509 0.011141 0.027192
#
#
# Mechanical properties :
#
#
# Convention : Reuss Voigt Hill
#
# Bulk Modulus (GPa) = 20.25025 39.89200 30.07113
# Shear Modulus (GPa) = 15.85883 28.75210 22.30546
#
# Velocity S-wave (km/s) = 2.73723 3.68562 3.24625
# Velocity P-wave (km/s) = 4.42233 6.07935 5.31580
#
# Compressibility (1/GPa) = 0.04938210
#
# Stress axis : x y z
#
# Youngs Moduli (GPa) = 119.42144 51.48395 34.98548
#
# Poissons Ratio (x) = 0.21864 -0.03137
# Poissons Ratio (y) = 0.50716 0.00521
# Poissons Ratio (z) = -0.10707 0.00767
#
# Static dielectric constant tensor:
#      x y z
#    x 1.840120 0.059890 0.012830 
#    y 0.059890 1.882290 -0.007180 
#    z 0.012830 -0.007180 1.710620 
# 
# From -- ./inp_files/448369.got.cif
#   From: 2010.05.17/outbox.cif.g08.bks.cpg/sg2_225_cif.got.tgz:448369.got - 2010.06.03 11:33:40.
