data_PCOD9028801
_publ_section_title
;
Structure prediction by ZEFSAII (Michael W. Deem and Ramdas Pophale) SiO2 
 PCOD9028801
Probable space group: P -1
;
_chemical_formula_sum "Si O2"
_cell_formula_units_Z 14
_cell_length_a 11.965074
_cell_length_b 9.505949
_cell_length_c 10.321814
_cell_angle_alpha 91.455161
_cell_angle_beta 144.113671
_cell_angle_gamma 109.452845
_cell_volume 548.581527
_symmetry_space_group_name_H-M "P -1"
_symmetry_group_IT_number 2
_symmetry_cell_setting 'triclinic'
loop_
_space_group_symop_operation_xyz
x,y,z
-x,-y,-z
loop_
_atom_site_type_symbol
_atom_site_label
_atom_site_fract_x
_atom_site_fract_y
_atom_site_fract_z
Si Si1 0.305152 0.617016 0.612073
Si Si2 0.445484 0.837286 0.262399
Si Si3 0.297631 0.019055 0.938608
Si Si4 0.114248 0.682548 0.182799
Si Si5 0.414432 0.524798 0.112377
Si Si6 0.002159 0.926207 0.139295
Si Si7 0.114575 0.304065 0.591688
O O1 0.227175 0.676017 0.420913
O O2 0.472188 0.563066 0.716671
O O3 0.104424 0.440901 0.496998
O O4 0.463740 0.785124 0.859597
O O5 0.372937 0.913191 0.084381
O O6 0.310654 0.820768 0.266753
O O7 0.369719 0.644606 0.152128
O O8 0.727903 0.960513 0.551970
O O9 0.149761 0.051196 0.901016
O O10 0.118634 0.893163 0.653539
O O11 0.940569 0.735438 0.050149
O O12 0.000000 0.500000 0.000000
O O13 0.644797 0.662872 0.237787
O O14 0.192985 0.382296 0.810168
O O15 0.000000 0.000000 0.000000
#
# Coordination Sequence:
#
# PCOD9028801 Si02
#       7
#     2   2   2   2   2   2   2
#     4  10  22  42  65 102 131 169 226 274 317 407
#     4  12  24  44  66  99 134 179 215 272 333 397
#     4  12  23  42  72  96 134 176 223 269 337 390
#     4  12  26  40  65 101 136 171 222 268 333 400
#     4   9  22  44  69  93 139 170 221 280 325 388
#     4  12  24  42  63  95 134 181 213 270 329 394
#     4   9  21  46  68  96 135 173 220 278 333 380
#
# _framework density 25.520365999999999
#
# number of rings (size 3 to 8) (size 9 to 14) (size 15 to 20)
#    0.857    0.286    4.286    2.143    4.000    1.714 
#    0.000    0.714    3.143    0.000    0.000    0.000 
#    0.000    0.000    0.000    0.000    0.000    0.000 
#
# Total GULP energy -78432.114108 kJ/mol
# GULP energy per Si atom -5602.293865 kJ/mol
# Density = 2.546228 g / cm^3
# Si number density = 25.520366 Si / 1000 Ang^3
#
#
#
# Elastic Constant Matrix: (Units=GPa)
#
#
# Indices 1 2 3 4 5 6 
#
# 1 69.2168 19.9959 6.4376 -12.1121 5.1770 -27.6588
# 2 19.9959 174.1754 47.7615 -8.6187 -13.1667 -19.1607
# 3 6.4376 47.7615 113.0630 15.9167 -17.4482 -13.2010
# 4 -12.1121 -8.6187 15.9167 65.3592 0.7639 -6.2794
# 5 5.1770 -13.1667 -17.4482 0.7639 31.2344 -8.7488
# 6 -27.6588 -19.1607 -13.2010 -6.2794 -8.7488 47.4138
#
#
#
# Elastic Compliance Matrix: (Units=1/GPa)
#
#
# Indices 1 2 3 4 5 6 
#
# 1 0.020417 -0.000756 -0.000206 0.004903 -0.000550 0.012095
# 2 -0.000756 0.007030 -0.002526 0.001599 0.002291 0.002331
# 3 -0.000206 -0.002526 0.011666 -0.003010 0.006368 0.002884
# 4 0.004903 0.001599 -0.003010 0.017628 -0.000896 0.004838
# 5 -0.000550 0.002291 0.006368 -0.000896 0.039317 0.009514
# 6 0.012095 0.002331 0.002884 0.004838 0.009514 0.032288
#
#
# Mechanical properties :
#
#
# Convention : Reuss Voigt Hill
#
# Bulk Modulus (GPa) = 31.11595 56.09390 43.60493
# Shear Modulus (GPa) = 34.23864 47.61883 40.92873
#
# Velocity S-wave (km/s) = 3.66679 4.32431 4.00905
# Velocity P-wave (km/s) = 5.49055 6.85278 6.20914
#
# Compressibility (1/GPa) = 0.03213786
#
# Stress axis : x y z
#
# Youngs Moduli (GPa) = 48.97839 142.25715 85.71602
#
# Poissons Ratio (x) = 0.10752 0.01766
# Poissons Ratio (y) = 0.03702 0.21650
# Poissons Ratio (z) = 0.01009 0.35931
#
# Static dielectric constant tensor:
#      x y z
#    x 2.061170 0.043800 0.076590 
#    y 0.043800 2.019440 0.043060 
#    z 0.076590 0.043060 2.004620 
# 
# From -- ./inp_files/349264.got.cif
#   From: 2010.05.17/outbox.cif.g08.bks.cpg/sg2_175_cif.got.tgz:349264.got - 2010.06.03 11:33:40.
