data_PCOD9028480
_publ_section_title
;
Structure prediction by ZEFSAII (Michael W. Deem and Ramdas Pophale) SiO2 
 PCOD9028480
Probable space group: P -1
;
_chemical_formula_sum "Si O2"
_cell_formula_units_Z 14
_cell_length_a 17.910721
_cell_length_b 14.427350
_cell_length_c 9.712858
_cell_angle_alpha 45.875586
_cell_angle_beta 41.713955
_cell_angle_gamma 21.795492
_cell_volume 620.043252
_symmetry_space_group_name_H-M "P -1"
_symmetry_group_IT_number 2
_symmetry_cell_setting 'triclinic'
loop_
_space_group_symop_operation_xyz
x,y,z
-x,-y,-z
loop_
_atom_site_type_symbol
_atom_site_label
_atom_site_fract_x
_atom_site_fract_y
_atom_site_fract_z
Si Si1 0.723315 0.042985 0.836736
Si Si2 0.415923 0.789084 0.852514
Si Si3 0.352718 0.237369 0.051539
Si Si4 0.528191 0.032725 0.579319
Si Si5 0.757858 0.267005 0.006430
Si Si6 0.829680 0.490282 0.237980
Si Si7 0.599868 0.438312 0.573979
O O1 0.928129 0.770064 0.774201
O O2 0.500851 0.217856 0.891796
O O3 0.759620 0.159902 0.664551
O O4 0.682584 0.047887 0.046468
O O5 0.387612 0.908014 0.637551
O O6 0.288842 0.782832 0.003664
O O7 0.664429 0.498931 0.845094
O O8 0.161185 0.464009 0.978251
O O9 0.500000 0.000000 0.000000
O O10 0.326140 0.193333 0.280783
O O11 0.307448 0.281045 0.710746
O O12 0.500000 0.000000 0.500000
O O13 0.593503 0.389385 0.228056
O O14 0.000000 0.000000 0.000000
O O15 0.710160 0.468571 0.411354
O O16 0.500000 0.500000 0.500000
#
# Coordination Sequence:
#
# PCOD9028480 Si02
#       7
#     2   2   2   2   2   2   2
#     4  11  23  40  68  96 131 174 214 265 334 392
#     4  10  22  42  62  95 131 163 214 270 319 380
#     4  10  23  42  64  89 133 171 220 268 311 376
#     4  11  22  44  68  88 129 176 216 274 316 368
#     4  10  23  41  66  94 129 167 207 266 332 384
#     4  11  24  43  68  95 132 173 217 267 331 391
#     4  11  22  39  66  99 132 163 211 269 328 391
#
# _framework density 22.579070000000002
#
# number of rings (size 3 to 8) (size 9 to 14) (size 15 to 20)
#    0.000    1.429    4.286    0.429    2.000    3.429 
#    0.000    2.143    0.000    0.000    0.000    0.000 
#    0.000    0.000    0.000    0.000    0.000    0.000 
#
# Total GULP energy -78091.614438 kJ/mol
# GULP energy per Si atom -5577.972460 kJ/mol
# Density = 2.252768 g / cm^3
# Si number density = 22.579070 Si / 1000 Ang^3
#
#
#
# Elastic Constant Matrix: (Units=GPa)
#
#
# Indices 1 2 3 4 5 6 
#
# 1 84.4270 9.0686 15.8360 1.8294 11.7588 16.7343
# 2 9.0686 89.5183 11.9136 -8.5270 -1.6194 -2.1722
# 3 15.8360 11.9136 107.7621 -27.5482 7.1876 1.4900
# 4 1.8294 -8.5270 -27.5482 22.6713 7.0523 2.4704
# 5 11.7588 -1.6194 7.1876 7.0523 36.3439 -2.6114
# 6 16.7343 -2.1722 1.4900 2.4704 -2.6114 28.9298
#
#
#
# Elastic Compliance Matrix: (Units=1/GPa)
#
#
# Indices 1 2 3 4 5 6 
#
# 1 0.014879 -0.001717 -0.002032 -0.001862 -0.004767 -0.008902
# 2 -0.001717 0.011798 0.000002 0.004298 0.000358 0.001544
# 3 -0.002032 0.000002 0.015497 0.021298 -0.006687 -0.002045
# 4 -0.001862 0.004298 0.021298 0.078635 -0.019262 -0.008151
# 5 -0.004767 0.000358 -0.006687 -0.019262 0.034701 0.007906
# 6 -0.008902 0.001544 -0.002045 -0.008151 0.007906 0.041347
#
#
# Mechanical properties :
#
#
# Convention : Reuss Voigt Hill
#
# Bulk Modulus (GPa) = 28.83478 39.48265 34.15871
# Shear Modulus (GPa) = 23.15771 33.91494 28.53632
#
# Velocity S-wave (km/s) = 3.20602 3.87984 3.55891
# Velocity P-wave (km/s) = 5.14811 6.13149 5.66119
#
# Compressibility (1/GPa) = 0.03468034
#
# Stress axis : x y z
#
# Youngs Moduli (GPa) = 67.20988 84.76046 64.52843
#
# Poissons Ratio (x) = 0.14549 0.13110
# Poissons Ratio (y) = 0.11537 -0.00010
# Poissons Ratio (z) = 0.13655 -0.00013
#
# Static dielectric constant tensor:
#      x y z
#    x 1.917490 -0.005490 -0.037620 
#    y -0.005490 1.867680 -0.058660 
#    z -0.037620 -0.058660 1.923930 
# 
# From -- ./inp_files/276235.got.cif
#   From: 2010.05.17/outbox.cif.g08.bks.cpg/sg2_139_cif.got.tgz:276235.got - 2010.06.03 11:33:40.
