data_PCOD9028545
_publ_section_title
;
Structure prediction by ZEFSAII (Michael W. Deem and Ramdas Pophale) SiO2 
 PCOD9028545
Probable space group: P -1
;
_chemical_formula_sum "Si O2"
_cell_formula_units_Z 16
_cell_length_a 8.478755
_cell_length_b 16.792561
_cell_length_c 13.221413
_cell_angle_alpha 157.298619
_cell_angle_beta 85.572147
_cell_angle_gamma 92.125329
_cell_volume 721.471823
_symmetry_space_group_name_H-M "P -1"
_symmetry_group_IT_number 2
_symmetry_cell_setting 'triclinic'
loop_
_space_group_symop_operation_xyz
x,y,z
-x,-y,-z
loop_
_atom_site_type_symbol
_atom_site_label
_atom_site_fract_x
_atom_site_fract_y
_atom_site_fract_z
Si Si1 0.349398 0.905824 0.811842
Si Si2 0.919998 0.261790 0.499180
Si Si3 0.147643 0.875894 0.286434
Si Si4 0.599532 0.649044 0.602642
Si Si5 0.578736 0.840074 0.392399
Si Si6 0.927110 0.403377 0.227779
Si Si7 0.099175 0.920596 0.999314
Si Si8 0.719483 0.370916 0.817272
O O1 0.226307 0.851754 0.670338
O O2 0.503700 0.746073 0.623265
O O3 0.270948 0.871580 0.886832
O O4 0.373739 0.147269 0.093668
O O5 0.874650 0.328756 0.691551
O O6 0.943922 0.449500 0.643103
O O7 0.077355 0.106829 0.298107
O O8 0.232985 0.708226 0.165188
O O9 0.276510 0.033016 0.428813
O O10 0.095124 0.750846 0.045380
O O11 0.000000 0.000000 0.500000
O O12 0.500000 0.500000 0.500000
O O13 0.763006 0.533473 0.418902
O O14 0.423195 0.767792 0.372946
O O15 0.500000 0.000000 0.500000
O O16 0.658793 0.612219 0.090237
O O17 0.972016 0.270663 0.169189
O O18 0.000000 0.000000 0.000000
#
# Coordination Sequence:
#
# PCOD9028545 Si02
#       8
#     2   2   2   2   2   2   2   2
#     4  10  23  42  63  92 131 169 210 277 326 388
#     4  11  24  41  66  96 129 175 228 259 331 404
#     4  11  24  42  66 102 140 170 220 285 329 394
#     4  11  23  42  65  95 134 167 217 274 335 394
#     4   9  21  42  66  90 133 172 222 272 329 386
#     4  12  25  40  69  99 129 179 225 269 339 397
#     4  10  22  42  63  92 126 170 216 273 325 386
#     4  10  22  43  67  95 131 182 218 272 332 397
#
# _framework density 22.176886
#
# number of rings (size 3 to 8) (size 9 to 14) (size 15 to 20)
#    0.000    1.500    2.500    1.500    0.000   12.000 
#    0.000    0.000    0.000    0.000    0.000    0.000 
#    0.000    0.000    0.000    0.000    0.000    0.000 
#
# Total GULP energy -89263.924873 kJ/mol
# GULP energy per Si atom -5578.995305 kJ/mol
# Density = 2.212641 g / cm^3
# Si number density = 22.176886 Si / 1000 Ang^3
#
#
#
# Elastic Constant Matrix: (Units=GPa)
#
#
# Indices 1 2 3 4 5 6 
#
# 1 55.2892 13.6896 24.0035 -1.0919 -5.8532 -7.9012
# 2 13.6896 95.8420 44.4443 16.3712 -5.9583 8.3845
# 3 24.0035 44.4443 106.5987 23.2399 0.6059 -1.0176
# 4 -1.0919 16.3712 23.2399 35.2265 8.5592 -1.8942
# 5 -5.8532 -5.9583 0.6059 8.5592 46.6870 3.8515
# 6 -7.9012 8.3845 -1.0176 -1.8942 3.8515 31.4004
#
#
#
# Elastic Compliance Matrix: (Units=1/GPa)
#
#
# Indices 1 2 3 4 5 6 
#
# 1 0.021913 -0.002085 -0.005121 0.005083 0.001115 0.006075
# 2 -0.002085 0.014255 -0.004517 -0.004689 0.002898 -0.005116
# 3 -0.005121 -0.004517 0.014006 -0.007289 -0.000059 -0.000061
# 4 0.005083 -0.004689 -0.007289 0.037576 -0.007205 0.005445
# 5 0.001115 0.002898 -0.000059 -0.007205 0.023566 -0.003820
# 6 0.006075 -0.005116 -0.000061 0.005445 -0.003820 0.035536
#
#
# Mechanical properties :
#
#
# Convention : Reuss Voigt Hill
#
# Bulk Modulus (GPa) = 37.41537 46.88941 42.15239
# Shear Modulus (GPa) = 27.90046 34.36894 31.13470
#
# Velocity S-wave (km/s) = 3.55080 3.94098 3.75096
# Velocity P-wave (km/s) = 5.80680 6.47284 6.14884
#
# Compressibility (1/GPa) = 0.02672699
#
# Stress axis : x y z
#
# Youngs Moduli (GPa) = 45.63514 70.15132 71.39706
#
# Poissons Ratio (x) = 0.14630 0.36564
# Poissons Ratio (y) = 0.09517 0.32248
# Poissons Ratio (z) = 0.23371 0.31686
#
# Static dielectric constant tensor:
#      x y z
#    x 1.886570 0.009930 -0.026160 
#    y 0.009930 1.809800 0.006100 
#    z -0.026160 0.006100 1.857750 
# 
# From -- ./inp_files/507138.got.cif
#   From: 2010.05.17/outbox.cif.g08.bks.cpg/sg2_254_cif.got.tgz:507138.got - 2010.06.03 11:33:40.
