data_PCOD9028572
_publ_section_title
;
Structure prediction by ZEFSAII (Michael W. Deem and Ramdas Pophale) SiO2 
 PCOD9028572
Probable space group: P -1
;
_chemical_formula_sum "Si O2"
_cell_formula_units_Z 16
_cell_length_a 16.723050
_cell_length_b 9.140722
_cell_length_c 11.252220
_cell_angle_alpha 64.903824
_cell_angle_beta 114.054109
_cell_angle_gamma 57.814364
_cell_volume 741.936943
_symmetry_space_group_name_H-M "P -1"
_symmetry_group_IT_number 2
_symmetry_cell_setting 'triclinic'
loop_
_space_group_symop_operation_xyz
x,y,z
-x,-y,-z
loop_
_atom_site_type_symbol
_atom_site_label
_atom_site_fract_x
_atom_site_fract_y
_atom_site_fract_z
Si Si1 0.747741 0.484289 0.580491
Si Si2 0.439495 0.403943 0.754963
Si Si3 0.369039 0.599422 0.033158
Si Si4 0.483673 0.889071 0.875424
Si Si5 0.021458 0.309171 0.499022
Si Si6 0.315994 0.365077 0.242372
Si Si7 0.820149 0.521414 0.105925
Si Si8 0.914776 0.144844 0.579597
O O1 0.603221 0.588231 0.406660
O O2 0.760721 0.479818 0.729107
O O3 0.909538 0.172847 0.710229
O O4 0.677974 0.764580 0.391737
O O5 0.531700 0.127261 0.989290
O O6 0.254171 0.689206 0.603381
O O7 0.531214 0.426232 0.820693
O O8 0.483420 0.333055 0.094535
O O9 0.208997 0.941995 0.758850
O O10 0.324026 0.521474 0.120950
O O11 0.645879 0.741237 0.986027
O O12 0.000000 0.500000 0.500000
O O13 0.935873 0.468238 0.262854
O O14 0.909283 0.335221 0.466331
O O15 0.500000 0.000000 0.500000
O O16 0.222586 0.385971 0.090871
O O17 0.938551 0.177664 0.285785
#
# Coordination Sequence:
#
# PCOD9028572 Si02
#       8
#     2   2   2   2   2   2   2   2
#     4  10  23  38  65  97 127 180 221 264 316 394
#     4  10  23  37  63  99 131 161 217 278 326 376
#     4  11  24  39  67 100 129 172 219 269 330 389
#     4  11  19  38  67  91 132 168 219 260 329 385
#     4  12  25  40  67 104 133 167 218 277 337 388
#     4  11  22  42  69  94 128 183 226 258 318 402
#     4  11  21  42  69  90 132 177 215 262 335 390
#     4  10  22  42  63  95 131 173 209 269 335 374
#
# _framework density 21.565175
#
# number of rings (size 3 to 8) (size 9 to 14) (size 15 to 20)
#    0.750    0.500    6.250    1.875    3.500    1.000 
#    0.000    0.000    0.000    1.500    0.000    0.000 
#    0.000    0.000    0.000    0.000    0.000    0.000 
#
# Total GULP energy -89155.358437 kJ/mol
# GULP energy per Si atom -5572.209902 kJ/mol
# Density = 2.151609 g / cm^3
# Si number density = 21.565175 Si / 1000 Ang^3
#
#
#
# Elastic Constant Matrix: (Units=GPa)
#
#
# Indices 1 2 3 4 5 6 
#
# 1 41.0776 20.0913 14.3694 2.6484 7.5789 1.4414
# 2 20.0913 152.9185 46.8300 17.1191 3.5589 2.1642
# 3 14.3694 46.8300 103.8964 16.1490 6.3446 9.4239
# 4 2.6484 17.1191 16.1490 48.6497 -1.2948 -2.0978
# 5 7.5789 3.5589 6.3446 -1.2948 16.4955 9.2630
# 6 1.4414 2.1642 9.4239 -2.0978 9.2630 35.4459
#
#
#
# Elastic Compliance Matrix: (Units=1/GPa)
#
#
# Indices 1 2 3 4 5 6 
#
# 1 0.028897 -0.002857 -0.002149 -0.000082 -0.013591 0.003117
# 2 -0.002857 0.008005 -0.003006 -0.001641 0.000502 0.000199
# 3 -0.002149 -0.003006 0.012092 -0.003001 -0.001755 -0.002663
# 4 -0.000082 -0.001641 -0.003001 0.022266 0.002399 0.001592
# 5 -0.013591 0.000502 -0.001755 0.002399 0.078508 -0.019386
# 6 0.003117 0.000199 -0.002663 0.001592 -0.019386 0.033941
#
#
# Mechanical properties :
#
#
# Convention : Reuss Voigt Hill
#
# Bulk Modulus (GPa) = 30.33158 51.16374 40.74766
# Shear Modulus (GPa) = 23.72780 34.55835 29.14308
#
# Velocity S-wave (km/s) = 3.32065 4.00748 3.68012
# Velocity P-wave (km/s) = 5.36637 6.72234 6.08226
#
# Compressibility (1/GPa) = 0.03296894
#
# Stress axis : x y z
#
# Youngs Moduli (GPa) = 34.60603 124.92541 82.69654
#
# Poissons Ratio (x) = 0.35694 0.17770
# Poissons Ratio (y) = 0.09888 0.24862
# Poissons Ratio (z) = 0.07436 0.37558
#
# Static dielectric constant tensor:
#      x y z
#    x 1.789480 -0.015110 0.027430 
#    y -0.015110 1.855790 0.052950 
#    z 0.027430 0.052950 1.886730 
# 
# From -- ./inp_files/446805.got.cif
#   From: 2010.05.17/outbox.cif.g08.bks.cpg/sg2_224_cif.got.tgz:446805.got - 2010.06.03 11:33:40.
