data_PCOD9028290
_publ_section_title
;
Structure prediction by ZEFSAII (Michael W. Deem and Ramdas Pophale) SiO2 
 PCOD9028290
Probable space group: P -1
;
_chemical_formula_sum "Si O2"
_cell_formula_units_Z 16
_cell_length_a 11.587722
_cell_length_b 13.942100
_cell_length_c 8.586596
_cell_angle_alpha 113.958061
_cell_angle_beta 74.184701
_cell_angle_gamma 146.355854
_cell_volume 696.447138
_symmetry_space_group_name_H-M "P -1"
_symmetry_group_IT_number 2
_symmetry_cell_setting 'triclinic'
loop_
_space_group_symop_operation_xyz
x,y,z
-x,-y,-z
loop_
_atom_site_type_symbol
_atom_site_label
_atom_site_fract_x
_atom_site_fract_y
_atom_site_fract_z
Si Si1 0.052421 0.684070 0.299341
Si Si2 0.444761 0.601283 0.206582
Si Si3 0.104074 0.025077 0.822584
Si Si4 0.657115 0.652834 0.677019
Si Si5 0.897484 0.491241 0.674533
Si Si6 0.786602 0.127213 0.303253
Si Si7 0.628551 0.389200 0.106267
Si Si8 0.604353 0.122696 0.892852
O O1 0.077089 0.575431 0.243988
O O2 0.137733 0.797099 0.499458
O O3 0.193876 0.800102 0.173264
O O4 0.820548 0.551790 0.257538
O O5 0.364866 0.447907 0.240570
O O6 0.337237 0.630579 0.338232
O O7 0.698844 0.778105 0.207705
O O8 0.355294 0.545137 0.026301
O O9 0.212726 0.994442 0.810915
O O10 0.901806 0.846778 0.675656
O O11 0.000000 0.000000 0.000000
O O12 0.500000 0.500000 0.500000
O O13 0.572503 0.703614 0.801844
O O14 0.000000 0.500000 0.500000
O O15 0.050396 0.700436 0.760305
O O16 0.556424 0.005640 0.276664
O O17 0.630461 0.265412 0.005810
O O18 0.500000 0.000000 0.000000
#
# Coordination Sequence:
#
# PCOD9028290 Si02
#       8
#     2   2   2   2   2   2   2   2
#     4  11  24  44  68 102 144 188 239 297 367 442
#     4  12  25  47  78 103 146 194 245 300 367 430
#     4  12  24  46  75 107 141 189 248 300 357 431
#     4  12  28  50  75 107 148 191 248 303 368 434
#     4  10  22  41  74 106 141 189 235 296 374 429
#     4  11  22  43  69 100 142 186 236 298 366 426
#     4  12  25  46  69 104 140 192 245 294 362 435
#     4  12  25  42  66 108 145 187 242 303 362 434
#
# _framework density 22.973745999999998
#
# number of rings (size 3 to 8) (size 9 to 14) (size 15 to 20)
#    0.000    0.500    5.000    2.625    3.500    1.500 
#    4.500    0.000    0.000    0.000    0.000    0.000 
#    0.000    0.000    0.000    0.000    0.000    0.000 
#
# Total GULP energy -89364.816064 kJ/mol
# GULP energy per Si atom -5585.301004 kJ/mol
# Density = 2.292146 g / cm^3
# Si number density = 22.973746 Si / 1000 Ang^3
#
#
#
# Elastic Constant Matrix: (Units=GPa)
#
#
# Indices 1 2 3 4 5 6 
#
# 1 80.8352 18.8565 17.9840 -2.4749 -8.1784 22.2131
# 2 18.8565 74.2029 9.7741 -2.5263 -7.4420 21.1096
# 3 17.9840 9.7741 90.9128 10.5400 5.1629 4.7494
# 4 -2.4749 -2.5263 10.5400 33.9354 12.8693 3.6259
# 5 -8.1784 -7.4420 5.1629 12.8693 27.0895 -1.0706
# 6 22.2131 21.1096 4.7494 3.6259 -1.0706 47.3819
#
#
#
# Elastic Compliance Matrix: (Units=1/GPa)
#
#
# Indices 1 2 3 4 5 6 
#
# 1 0.015541 -0.001285 -0.002961 0.001071 0.004141 -0.006405
# 2 -0.001285 0.016234 -0.001463 0.000862 0.003685 -0.006466
# 3 -0.002961 -0.001463 0.012203 -0.003499 -0.001918 0.001041
# 4 0.001071 0.000862 -0.003499 0.037436 -0.016707 -0.003778
# 5 0.004141 0.003685 -0.001918 -0.016707 0.047439 -0.001041
# 6 -0.006405 -0.006466 0.001041 -0.003778 -0.001041 0.027150
#
#
# Mechanical properties :
#
#
# Convention : Reuss Voigt Hill
#
# Bulk Modulus (GPa) = 30.71211 37.68669 34.19940
# Shear Modulus (GPa) = 28.04673 34.97044 31.50859
#
# Velocity S-wave (km/s) = 3.49781 3.90576 3.70740
# Velocity P-wave (km/s) = 5.45071 6.06464 5.76585
#
# Compressibility (1/GPa) = 0.03256044
#
# Stress axis : x y z
#
# Youngs Moduli (GPa) = 64.34514 61.59763 81.94933
#
# Poissons Ratio (x) = 0.07918 0.24264
# Poissons Ratio (y) = 0.08272 0.11985
# Poissons Ratio (z) = 0.19052 0.09009
#
# Static dielectric constant tensor:
#      x y z
#    x 1.838610 0.012210 -0.019720 
#    y 0.012210 2.024600 0.022510 
#    z -0.019720 0.022510 1.910680 
# 
# From -- ./inp_files/273728.got.cif
#   From: 2010.05.17/outbox.cif.g08.bks.cpg/sg2_137_cif.got.tgz:273728.got - 2010.06.03 11:33:40.
