data_PCOD9028105
_publ_section_title
;
Structure prediction by ZEFSAII (Michael W. Deem and Ramdas Pophale) SiO2 
 PCOD9028105
Probable space group: P -1
;
_chemical_formula_sum "Si O2"
_cell_formula_units_Z 16
_cell_length_a 22.136512
_cell_length_b 8.469947
_cell_length_c 9.681082
_cell_angle_alpha 49.282263
_cell_angle_beta 48.708955
_cell_angle_gamma 32.209688
_cell_volume 706.648874
_symmetry_space_group_name_H-M "P -1"
_symmetry_group_IT_number 2
_symmetry_cell_setting 'triclinic'
loop_
_space_group_symop_operation_xyz
x,y,z
-x,-y,-z
loop_
_atom_site_type_symbol
_atom_site_label
_atom_site_fract_x
_atom_site_fract_y
_atom_site_fract_z
Si Si1 0.279829 0.934899 0.888411
Si Si2 0.953818 0.093757 0.319885
Si Si3 0.192985 0.399168 0.280761
Si Si4 0.866359 0.828011 0.295202
Si Si5 0.408451 0.271742 0.090782
Si Si6 0.086999 0.165604 0.268797
Si Si7 0.794024 0.428101 0.121706
Si Si8 0.434236 0.024225 0.713139
O O1 0.204182 0.126713 0.756479
O O2 0.363740 0.957719 0.802006
O O3 0.355921 0.587290 0.935938
O O4 0.191487 0.041193 0.085073
O O5 0.881797 0.322090 0.172097
O O6 0.999951 0.188679 0.293485
O O7 0.877597 0.065316 0.533456
O O8 0.070107 0.749510 0.293855
O O9 0.180373 0.196165 0.482091
O O10 0.298343 0.322989 0.241004
O O11 0.217298 0.382998 0.091278
O O12 0.002792 0.505700 0.259703
O O13 0.845156 0.114024 0.167058
O O14 0.473007 0.194570 0.181001
O O15 0.500000 0.000000 0.000000
O O16 0.665850 0.640527 0.259463
O O17 0.500000 0.000000 0.500000
#
# Coordination Sequence:
#
# PCOD9028105 Si02
#       8
#     2   2   2   2   2   2   2   2
#     4  12  24  45  73 104 141 193 242 296 361 426
#     4  10  22  41  72 104 146 184 233 296 362 430
#     4  11  23  44  72 101 145 187 237 294 359 428
#     4  11  24  43  72 108 147 188 235 290 367 435
#     4  12  24  49  72 102 142 190 244 296 356 419
#     4  10  22  41  71 108 143 187 231 295 365 435
#     4  12  25  46  70 106 144 189 240 297 360 426
#     4  12  29  47  72 103 142 192 249 300 352 426
#
# _framework density 22.642078000000001
#
# number of rings (size 3 to 8) (size 9 to 14) (size 15 to 20)
#    0.000    0.750    3.750    2.625    1.750    6.000 
#    0.000    2.500    0.000    0.000    0.000    0.000 
#    0.000    0.000    0.000    0.000    0.000    0.000 
#
# Total GULP energy -89645.810787 kJ/mol
# GULP energy per Si atom -5602.863174 kJ/mol
# Density = 2.259054 g / cm^3
# Si number density = 22.642078 Si / 1000 Ang^3
#
#
#
# Elastic Constant Matrix: (Units=GPa)
#
#
# Indices 1 2 3 4 5 6 
#
# 1 83.8801 8.2052 46.5113 -4.1387 -10.8271 -1.5493
# 2 8.2052 87.9627 43.8620 6.3664 -2.4809 -2.5474
# 3 46.5113 43.8620 175.1760 16.0058 -10.4347 -4.8062
# 4 -4.1387 6.3664 16.0058 30.6337 0.2068 0.2332
# 5 -10.8271 -2.4809 -10.4347 0.2068 17.7451 9.1093
# 6 -1.5493 -2.5474 -4.8062 0.2332 9.1093 27.0869
#
#
#
# Elastic Compliance Matrix: (Units=1/GPa)
#
#
# Indices 1 2 3 4 5 6 
#
# 1 0.015416 0.000502 -0.004172 0.004122 0.008336 -0.002650
# 2 0.000502 0.013054 -0.003308 -0.000921 -0.000182 0.000739
# 3 -0.004172 -0.003308 0.008130 -0.004138 0.001625 0.000382
# 4 0.004122 -0.000921 -0.004138 0.035561 -0.000004 -0.000890
# 5 0.008336 -0.000182 0.001625 -0.000004 0.074919 -0.024447
# 6 -0.002650 0.000739 0.000382 -0.000890 -0.024447 0.045133
#
#
# Mechanical properties :
#
#
# Convention : Reuss Voigt Hill
#
# Bulk Modulus (GPa) = 44.16097 60.46398 52.31247
# Shear Modulus (GPa) = 23.39534 31.65583 27.52559
#
# Velocity S-wave (km/s) = 3.21794 3.74317 3.49045
# Velocity P-wave (km/s) = 5.77521 6.74122 6.27683
#
# Compressibility (1/GPa) = 0.02264443
#
# Stress axis : x y z
#
# Youngs Moduli (GPa) = 64.86667 76.60353 123.00257
#
# Poissons Ratio (x) = -0.03847 0.51314
# Poissons Ratio (y) = -0.03258 0.40694
# Poissons Ratio (z) = 0.27061 0.25344
#
# Static dielectric constant tensor:
#      x y z
#    x 1.860880 0.022820 0.022080 
#    y 0.022820 1.823820 0.004340 
#    z 0.022080 0.004340 1.841800 
# 
# From -- ./inp_files/352027.got.cif
#   From: 2010.05.17/outbox.cif.g08.bks.cpg/sg2_177_cif.got.tgz:352027.got - 2010.06.03 11:33:40.
