data_PCOD9028910
_publ_section_title
;
Structure prediction by ZEFSAII (Michael W. Deem and Ramdas Pophale) SiO2 
 PCOD9028910
Probable space group: P -1
;
_chemical_formula_sum "Si O2"
_cell_formula_units_Z 16
_cell_length_a 5.186658
_cell_length_b 17.752065
_cell_length_c 9.487745
_cell_angle_alpha 100.049074
_cell_angle_beta 82.052716
_cell_angle_gamma 128.281209
_cell_volume 674.703065
_symmetry_space_group_name_H-M "P -1"
_symmetry_group_IT_number 2
_symmetry_cell_setting 'triclinic'
loop_
_space_group_symop_operation_xyz
x,y,z
-x,-y,-z
loop_
_atom_site_type_symbol
_atom_site_label
_atom_site_fract_x
_atom_site_fract_y
_atom_site_fract_z
Si Si1 0.510797 0.904558 0.832382
Si Si2 0.421030 0.505155 0.168570
Si Si3 0.621901 0.105590 0.852043
Si Si4 0.754156 0.455934 0.324550
Si Si5 0.236404 0.280013 0.714425
Si Si6 0.121669 0.980674 0.625289
Si Si7 0.111841 0.809588 0.586119
Si Si8 0.230196 0.657907 0.476707
O O1 0.156168 0.829612 0.759616
O O2 0.794144 0.913210 0.724830
O O3 0.609769 0.011982 0.847668
O O4 0.501848 0.880605 0.988259
O O5 0.483302 0.441363 0.237218
O O6 0.683741 0.617224 0.231729
O O7 0.060929 0.474660 0.220960
O O8 0.500000 0.500000 0.000000
O O9 0.981315 0.199113 0.814772
O O10 0.379165 0.075437 0.728584
O O11 0.633441 0.370392 0.414590
O O12 0.890391 0.551738 0.438419
O O13 0.599127 0.310395 0.680129
O O14 0.114131 0.238102 0.552507
O O15 0.259172 0.919823 0.571746
O O16 0.000000 0.000000 0.500000
O O17 0.238262 0.745616 0.551681
#
# Coordination Sequence:
#
# PCOD9028910 Si02
#       8
#     2   2   2   2   2   2   2   2
#     4  10  22  42  65  94 133 179 225 277 346 413
#     4  11  24  45  72 104 145 188 234 285 363 430
#     4  10  23  42  64  93 136 177 225 278 346 410
#     4  10  23  44  74 100 139 189 232 293 357 424
#     4  11  23  40  66 100 136 174 231 288 343 413
#     4  11  22  40  68  97 133 181 226 284 347 414
#     4  11  22  40  66  98 132 171 232 284 335 418
#     4  10  23  41  69  98 133 173 236 290 350 412
#
# _framework density 23.714134000000001
#
# number of rings (size 3 to 8) (size 9 to 14) (size 15 to 20)
#    0.000    1.500    1.250    3.000    1.750    5.500 
#    0.000    1.875    0.000    0.000    0.000    0.000 
#    0.000    0.000    0.000    0.000    0.000    0.000 
#
# Total GULP energy -89160.183292 kJ/mol
# GULP energy per Si atom -5572.511456 kJ/mol
# Density = 2.366016 g / cm^3
# Si number density = 23.714134 Si / 1000 Ang^3
#
#
#
# Elastic Constant Matrix: (Units=GPa)
#
#
# Indices 1 2 3 4 5 6 
#
# 1 63.3800 29.2287 21.5265 -6.4677 0.9599 -19.7472
# 2 29.2287 84.1077 44.8967 -22.1548 -20.1014 -15.0740
# 3 21.5265 44.8967 119.4988 -18.3728 -1.3872 -2.8744
# 4 -6.4677 -22.1548 -18.3728 28.6370 4.4175 -5.6216
# 5 0.9599 -20.1014 -1.3872 4.4175 28.1659 -7.7923
# 6 -19.7472 -15.0740 -2.8744 -5.6216 -7.7923 32.3612
#
#
#
# Elastic Compliance Matrix: (Units=1/GPa)
#
#
# Indices 1 2 3 4 5 6 
#
# 1 0.022288 -0.004080 -0.001706 0.003267 -0.000981 0.011880
# 2 -0.004080 0.032756 -0.007712 0.019728 0.026070 0.021788
# 3 -0.001706 -0.007712 0.011543 0.001070 -0.006419 -0.004968
# 4 0.003267 0.019728 0.001070 0.054388 0.012025 0.023621
# 5 -0.000981 0.026070 -0.006419 0.012025 0.059520 0.027396
# 6 0.011880 0.021788 -0.004968 0.023621 0.027396 0.058558
#
#
# Mechanical properties :
#
#
# Convention : Reuss Voigt Hill
#
# Bulk Modulus (GPa) = 25.25723 50.92114 38.08919
# Shear Modulus (GPa) = 17.90538 29.25511 23.58024
#
# Velocity S-wave (km/s) = 2.75080 3.51616 3.15676
# Velocity P-wave (km/s) = 4.55665 6.16474 5.42066
#
# Compressibility (1/GPa) = 0.03959262
#
# Stress axis : x y z
#
# Youngs Moduli (GPa) = 44.86672 30.52881 86.62961
#
# Poissons Ratio (x) = 0.12456 0.14775
# Poissons Ratio (y) = 0.18306 0.66808
# Poissons Ratio (z) = 0.07652 0.23544
#
# Static dielectric constant tensor:
#      x y z
#    x 2.142460 0.158710 -0.033570 
#    y 0.158710 1.963350 -0.022100 
#    z -0.033570 -0.022100 1.930040 
# 
# From -- ./inp_files/139135.got.cif
#   From: 2010.05.17/outbox.cif.g08.bks.cpg/sg2_70_cif.got.tgz:139135.got - 2010.06.03 11:33:40.
