data_PCOD9028306
_publ_section_title
;
Structure prediction by ZEFSAII (Michael W. Deem and Ramdas Pophale) SiO2 
 PCOD9028306
Probable space group: P -1
;
_chemical_formula_sum "Si O2"
_cell_formula_units_Z 14
_cell_length_a 12.086763
_cell_length_b 9.172144
_cell_length_c 9.860995
_cell_angle_alpha 47.065559
_cell_angle_beta 44.013282
_cell_angle_gamma 46.961145
_cell_volume 514.711549
_symmetry_space_group_name_H-M "P -1"
_symmetry_group_IT_number 2
_symmetry_cell_setting 'triclinic'
loop_
_space_group_symop_operation_xyz
x,y,z
-x,-y,-z
loop_
_atom_site_type_symbol
_atom_site_label
_atom_site_fract_x
_atom_site_fract_y
_atom_site_fract_z
Si Si1 0.219215 0.174769 0.417814
Si Si2 0.678848 0.330521 0.383647
Si Si3 0.974407 0.611081 0.281933
Si Si4 0.607755 0.723100 0.055810
Si Si5 0.778792 0.226797 0.629622
Si Si6 0.692712 0.341115 0.907666
Si Si7 0.189277 0.118702 0.001619
O O1 0.044514 0.347699 0.389999
O O2 0.173349 0.263293 0.555918
O O3 0.280347 0.917065 0.531676
O O4 0.351955 0.208951 0.170868
O O5 0.500000 0.500000 0.500000
O O6 0.681124 0.464632 0.164479
O O7 0.806078 0.312465 0.408236
O O8 0.141085 0.653748 0.164788
O O9 0.923190 0.708609 0.116393
O O10 0.402875 0.814793 0.204308
O O11 0.703762 0.783662 0.058971
O O12 0.718686 0.397758 0.692515
O O13 0.894015 0.004833 0.741541
O O14 0.707947 0.093240 0.046292
O O15 0.500000 0.500000 0.000000
#
# Coordination Sequence:
#
# PCOD9028306 Si02
#       7
#     2   2   2   2   2   2   2
#     4  11  25  47  72 104 153 196 241 304 365 436
#     4  10  23  41  75 112 143 191 252 309 359 422
#     4  11  26  46  68 107 155 194 241 296 374 448
#     4  11  22  45  77 105 143 190 248 302 364 426
#     4   9  21  41  72 108 143 182 245 312 349 422
#     4  10  22  41  75 104 144 196 243 303 366 432
#     4  10  23  42  74 108 144 195 240 303 372 428
#
# _framework density 27.199698999999999
#
# number of rings (size 3 to 8) (size 9 to 14) (size 15 to 20)
#    0.857    0.857    1.429    1.714    2.000    7.429 
#    0.000    6.429    0.000    0.000    0.000    0.000 
#    0.000    0.000    0.000    0.000    0.000    0.000 
#
# Total GULP energy -77995.258856 kJ/mol
# GULP energy per Si atom -5571.089918 kJ/mol
# Density = 2.713779 g / cm^3
# Si number density = 27.199699 Si / 1000 Ang^3
#
#
#
# Elastic Constant Matrix: (Units=GPa)
#
#
# Indices 1 2 3 4 5 6 
#
# 1 149.1516 45.4171 38.4618 -9.1792 5.5965 -7.8782
# 2 45.4171 220.4389 72.6631 -26.8249 -12.0492 -4.1904
# 3 38.4618 72.6631 97.2472 -34.6969 21.5266 -14.3796
# 4 -9.1792 -26.8249 -34.6969 76.1197 -15.0280 2.7289
# 5 5.5965 -12.0492 21.5266 -15.0280 44.8840 -17.4930
# 6 -7.8782 -4.1904 -14.3796 2.7289 -17.4930 35.0555
#
#
#
# Elastic Compliance Matrix: (Units=1/GPa)
#
#
# Indices 1 2 3 4 5 6 
#
# 1 0.007593 -0.000763 -0.002549 -0.000506 0.000172 0.000695
# 2 -0.000763 0.006961 -0.005651 0.000799 0.005303 0.000926
# 3 -0.002549 -0.005651 0.019357 0.004874 -0.007934 0.002353
# 4 -0.000506 0.000799 0.004874 0.016378 0.004592 0.002997
# 5 0.000172 0.005303 -0.007934 0.004592 0.034610 0.014331
# 6 0.000695 0.000926 0.002353 0.002997 0.014331 0.036677
#
#
# Mechanical properties :
#
#
# Convention : Reuss Voigt Hill
#
# Bulk Modulus (GPa) = 62.55999 86.65798 74.60898
# Shear Modulus (GPa) = 34.52291 51.89821 43.21056
#
# Velocity S-wave (km/s) = 3.56650 4.37285 3.99010
# Velocity P-wave (km/s) = 6.32535 7.57792 6.97979
#
# Compressibility (1/GPa) = 0.01598466
#
# Stress axis : x y z
#
# Youngs Moduli (GPa) = 131.69382 143.65361 51.66103
#
# Poissons Ratio (x) = 0.10965 0.13167
# Poissons Ratio (y) = 0.10052 0.29196
# Poissons Ratio (z) = 0.33566 0.81184
#
# Static dielectric constant tensor:
#      x y z
#    x 2.286460 0.011080 -0.174450 
#    y 0.011080 2.204730 0.010180 
#    z -0.174450 0.010180 2.429680 
# 
# From -- ./inp_files/448518.got.cif
#   From: 2010.05.17/outbox.cif.g08.bks.cpg/sg2_225_cif.got.tgz:448518.got - 2010.06.03 11:33:40.
