data_PCOD9028556
_publ_section_title
;
Structure prediction by ZEFSAII (Michael W. Deem and Ramdas Pophale) SiO2 
 PCOD9028556
Probable space group: P -1
;
_chemical_formula_sum "Si O2"
_cell_formula_units_Z 16
_cell_length_a 8.502242
_cell_length_b 8.947460
_cell_length_c 15.745413
_cell_angle_alpha 51.666665
_cell_angle_beta 62.892522
_cell_angle_gamma 82.751113
_cell_volume 815.108850
_symmetry_space_group_name_H-M "P -1"
_symmetry_group_IT_number 2
_symmetry_cell_setting 'triclinic'
loop_
_space_group_symop_operation_xyz
x,y,z
-x,-y,-z
loop_
_atom_site_type_symbol
_atom_site_label
_atom_site_fract_x
_atom_site_fract_y
_atom_site_fract_z
Si Si1 0.612503 0.333085 0.265843
Si Si2 0.981395 0.221567 0.409940
Si Si3 0.002762 0.766299 0.796321
Si Si4 0.595994 0.046568 0.621677
Si Si5 0.171163 0.526412 0.386979
Si Si6 0.269587 0.978759 0.212058
Si Si7 0.622816 0.605206 0.011450
Si Si8 0.472291 0.371592 0.466967
O O1 0.798087 0.264218 0.219740
O O2 0.584003 0.497460 0.148538
O O3 0.610616 0.390546 0.345099
O O4 0.444661 0.149820 0.353918
O O5 0.008964 0.264550 0.290090
O O6 0.776611 0.204625 0.496910
O O7 0.112055 0.390972 0.368654
O O8 0.000000 0.000000 0.500000
O O9 0.931327 0.969145 0.753319
O O10 0.835271 0.615238 0.934219
O O11 0.631315 0.003167 0.726203
O O12 0.441994 0.154889 0.590158
O O13 0.247201 0.755920 0.268062
O O14 0.309732 0.433909 0.437806
O O15 0.000000 0.500000 0.500000
O O16 0.381641 0.164638 0.066563
O O17 0.500000 0.500000 0.000000
O O18 0.500000 0.500000 0.500000
#
# Coordination Sequence:
#
# PCOD9028556 Si02
#       8
#     2   2   2   2   2   2   2   2
#     4  12  24  41  70  97 132 176 218 279 332 380
#     4  12  21  38  63  98 130 169 223 268 324 404
#     4  10  23  39  67  93 132 166 226 275 319 387
#     4  12  22  39  61 101 131 165 218 271 335 386
#     4  12  24  40  64  91 137 179 212 268 341 393
#     4  10  22  42  63  93 131 172 219 269 331 388
#     4  10  22  43  69  96 128 172 233 276 316 387
#     4  12  26  39  61  97 137 166 213 270 339 399
#
# _framework density 19.629279
#
# number of rings (size 3 to 8) (size 9 to 14) (size 15 to 20)
#    0.750    0.000    6.250    1.500    5.250    0.000 
#    0.000    0.625    2.750    0.750    0.000    0.000 
#    0.000    0.000    0.000    0.000    0.000    0.000 
#
# Total GULP energy -89078.614656 kJ/mol
# GULP energy per Si atom -5567.413416 kJ/mol
# Density = 1.958460 g / cm^3
# Si number density = 19.629279 Si / 1000 Ang^3
#
#
#
# Elastic Constant Matrix: (Units=GPa)
#
#
# Indices 1 2 3 4 5 6 
#
# 1 90.9890 29.5193 26.7334 -16.8872 13.0475 -7.7627
# 2 29.5193 104.0067 45.4435 -26.2022 15.7804 13.1339
# 3 26.7334 45.4435 94.2437 -13.5409 31.5013 6.2511
# 4 -16.8872 -26.2022 -13.5409 25.8669 -3.5423 3.3720
# 5 13.0475 15.7804 31.5013 -3.5423 36.7239 0.0922
# 6 -7.7627 13.1339 6.2511 3.3720 0.0922 37.1845
#
#
#
# Elastic Compliance Matrix: (Units=1/GPa)
#
#
# Indices 1 2 3 4 5 6 
#
# 1 0.013692 -0.001869 -0.001736 0.005421 -0.002057 0.003324
# 2 -0.001869 0.016766 -0.004711 0.014028 -0.001129 -0.006789
# 3 -0.001736 -0.004711 0.018005 0.002039 -0.012601 -0.001879
# 4 0.005421 0.014028 0.002039 0.058147 -0.004070 -0.009428
# 5 -0.002057 -0.001129 -0.012601 -0.004070 0.038857 0.002361
# 6 0.003324 -0.006789 -0.001879 -0.009428 0.002361 0.031150
#
#
# Mechanical properties :
#
#
# Convention : Reuss Voigt Hill
#
# Bulk Modulus (GPa) = 31.41768 54.73686 43.07727
# Shear Modulus (GPa) = 24.52666 32.45794 28.49230
#
# Velocity S-wave (km/s) = 3.53865 4.07079 3.81402
# Velocity P-wave (km/s) = 5.72157 7.07397 6.43340
#
# Compressibility (1/GPa) = 0.03182921
#
# Stress axis : x y z
#
# Youngs Moduli (GPa) = 73.03724 59.64334 55.54132
#
# Poissons Ratio (x) = 0.11148 0.09645
# Poissons Ratio (y) = 0.13652 0.26166
# Poissons Ratio (z) = 0.12683 0.28099
#
# Static dielectric constant tensor:
#      x y z
#    x 1.783430 -0.073250 -0.032280 
#    y -0.073250 1.734750 0.003860 
#    z -0.032280 0.003860 1.708840 
# 
# From -- ./inp_files/490586.got.cif
#   From: 2010.05.17/outbox.cif.g08.bks.cpg/sg2_246_cif.got.tgz:490586.got - 2010.06.03 11:33:40.
