data_PCOD9028927
_publ_section_title
;
Structure prediction by ZEFSAII (Michael W. Deem and Ramdas Pophale) SiO2 
 PCOD9028927
Probable space group: P -1
;
_chemical_formula_sum "Si O2"
_cell_formula_units_Z 16
_cell_length_a 13.265920
_cell_length_b 5.603406
_cell_length_c 10.754176
_cell_angle_alpha 123.078558
_cell_angle_beta 74.795711
_cell_angle_gamma 99.772602
_cell_volume 646.043153
_symmetry_space_group_name_H-M "P -1"
_symmetry_group_IT_number 2
_symmetry_cell_setting 'triclinic'
loop_
_space_group_symop_operation_xyz
x,y,z
-x,-y,-z
loop_
_atom_site_type_symbol
_atom_site_label
_atom_site_fract_x
_atom_site_fract_y
_atom_site_fract_z
Si Si1 0.559244 0.367549 0.791342
Si Si2 0.021388 0.088318 0.657769
Si Si3 0.224759 0.364710 0.563557
Si Si4 0.088135 0.380377 0.105804
Si Si5 0.116110 0.880000 0.792204
Si Si6 0.750041 0.745805 0.763069
Si Si7 0.594523 0.231774 0.009382
Si Si8 0.450886 0.198052 0.467935
O O1 0.656934 0.499379 0.720746
O O2 0.596917 0.420562 0.935783
O O3 0.545138 0.028445 0.709514
O O4 0.453690 0.513639 0.818951
O O5 0.131881 0.251803 0.648113
O O6 0.049261 0.849984 0.678448
O O7 0.932331 0.284100 0.799373
O O8 0.000000 0.000000 0.500000
O O9 0.210879 0.261731 0.395009
O O10 0.330551 0.244311 0.543322
O O11 0.218282 0.704643 0.682361
O O12 0.161324 0.329278 0.187148
O O13 0.134074 0.202632 0.926010
O O14 0.968307 0.257475 0.123463
O O15 0.695986 0.037211 0.911801
O O16 0.500000 0.000000 0.000000
O O17 0.500000 0.500000 0.500000
O O18 0.500000 0.000000 0.500000
#
# Coordination Sequence:
#
# PCOD9028927 Si02
#       8
#     2   2   2   2   2   2   2   2
#     4  10  22  42  65  95 132 179 235 296 349 422
#     4  11  23  40  71 101 134 178 230 288 357 428
#     4  11  25  43  67 100 136 182 230 297 348 430
#     4  10  23  41  64 100 131 187 225 288 360 427
#     4  10  23  44  64  92 149 176 227 291 354 436
#     4  11  21  39  72 101 139 180 246 294 356 432
#     4   9  20  39  64  92 130 174 221 297 344 408
#     4  12  28  46  72 102 142 194 238 297 367 434
#
# _framework density 24.766148999999999
#
# number of rings (size 3 to 8) (size 9 to 14) (size 15 to 20)
#    0.000    1.500    1.250    2.625    7.000    4.000 
#    4.500    0.000    0.000    0.000    0.000    0.000 
#    0.000    0.000    0.000    0.000    0.000    0.000 
#
# Total GULP energy -89151.155832 kJ/mol
# GULP energy per Si atom -5571.947240 kJ/mol
# Density = 2.470978 g / cm^3
# Si number density = 24.766149 Si / 1000 Ang^3
#
#
#
# Elastic Constant Matrix: (Units=GPa)
#
#
# Indices 1 2 3 4 5 6 
#
# 1 84.1330 26.3165 46.5157 17.0484 -18.9573 -30.9540
# 2 26.3165 72.0862 31.6299 20.0288 -17.7709 -13.0041
# 3 46.5157 31.6299 107.7311 22.0001 -18.2955 -11.5665
# 4 17.0484 20.0288 22.0001 55.4133 -14.3856 -6.7791
# 5 -18.9573 -17.7709 -18.2955 -14.3856 39.2321 6.4294
# 6 -30.9540 -13.0041 -11.5665 -6.7791 6.4294 44.8916
#
#
#
# Elastic Compliance Matrix: (Units=1/GPa)
#
#
# Indices 1 2 3 4 5 6 
#
# 1 0.021626 -0.001474 -0.006698 -0.000857 0.004378 0.012003
# 2 -0.001474 0.018217 -0.002987 -0.003497 0.004484 0.002321
# 3 -0.006698 -0.002987 0.013443 -0.002169 0.001299 -0.002534
# 4 -0.000857 -0.003497 -0.002169 0.021759 0.004900 0.000421
# 5 0.004378 0.004484 0.001299 0.004900 0.031903 0.000823
# 6 0.012003 0.002321 -0.002534 0.000421 0.000823 0.030517
#
#
# Mechanical properties :
#
#
# Convention : Reuss Voigt Hill
#
# Bulk Modulus (GPa) = 32.29130 52.54160 42.41645
# Shear Modulus (GPa) = 29.39349 38.53994 33.96671
#
# Velocity S-wave (km/s) = 3.44879 3.94909 3.70739
# Velocity P-wave (km/s) = 5.37826 6.48498 5.95737
#
# Compressibility (1/GPa) = 0.03096809
#
# Stress axis : x y z
#
# Youngs Moduli (GPa) = 46.24042 54.89459 74.38769
#
# Poissons Ratio (x) = 0.08089 0.49824
# Poissons Ratio (y) = 0.06814 0.22223
# Poissons Ratio (z) = 0.30971 0.16399
#
# Static dielectric constant tensor:
#      x y z
#    x 2.026610 -0.003510 0.046830 
#    y -0.003510 2.187870 0.020320 
#    z 0.046830 0.020320 2.367880 
# 
# From -- ./inp_files/411231.got.cif
#   From: 2010.05.17/outbox.cif.g08.bks.cpg/sg2_206_cif.got.tgz:411231.got - 2010.06.03 11:33:40.
