data_PCOD9028175
_publ_section_title
;
Structure prediction by ZEFSAII (Michael W. Deem and Ramdas Pophale) SiO2 
 PCOD9028175
Probable space group: P -1
;
_chemical_formula_sum "Si O2"
_cell_formula_units_Z 16
_cell_length_a 19.467088
_cell_length_b 26.396376
_cell_length_c 8.683391
_cell_angle_alpha 151.009402
_cell_angle_beta 135.258615
_cell_angle_gamma 24.145355
_cell_volume 792.960578
_symmetry_space_group_name_H-M "P -1"
_symmetry_group_IT_number 2
_symmetry_cell_setting 'triclinic'
loop_
_space_group_symop_operation_xyz
x,y,z
-x,-y,-z
loop_
_atom_site_type_symbol
_atom_site_label
_atom_site_fract_x
_atom_site_fract_y
_atom_site_fract_z
Si Si1 0.634771 0.475825 0.670482
Si Si2 0.130557 0.128839 0.599183
Si Si3 0.040929 0.904696 0.647171
Si Si4 0.685772 0.789124 0.321769
Si Si5 0.969084 0.379795 0.499685
Si Si6 0.975304 0.178787 0.186064
Si Si7 0.470588 0.189190 0.574278
Si Si8 0.126980 0.484597 0.636762
O O1 0.500000 0.500000 0.500000
O O2 0.760624 0.331888 0.637766
O O3 0.777669 0.354248 0.429995
O O4 0.538009 0.676562 0.065991
O O5 0.108050 0.052496 0.477932
O O6 0.123289 0.090296 0.312229
O O7 0.309375 0.033954 0.670622
O O8 0.946201 0.367898 0.958300
O O9 0.000000 0.000000 0.000000
O O10 0.029951 0.008812 0.787378
O O11 0.620488 0.785546 0.358644
O O12 0.829484 0.750278 0.493790
O O13 0.500000 0.000000 0.500000
O O14 0.811453 0.595979 0.905214
O O15 0.965760 0.267834 0.269084
O O16 0.921675 0.424396 0.363508
O O17 0.346538 0.269340 0.443942
O O18 0.000000 0.500000 0.500000
#
# Coordination Sequence:
#
# PCOD9028175 Si02
#       8
#     2   2   2   2   2   2   2   2
#     4  10  17  31  61  95 115 148 199 249 301 350
#     4  10  21  38  62  90 120 153 207 248 294 363
#     4   8  16  32  58  88 118 147 194 249 298 350
#     4  11  24  39  63  89 115 158 206 257 306 340
#     4  11  24  41  59  85 128 157 200 255 298 362
#     4  10  18  38  61  91 120 151 200 259 304 338
#     4  12  21  39  64  88 121 158 202 252 295 362
#     4  12  25  41  59  85 126 171 202 238 306 363
#
# _framework density 20.177546
#
# number of rings (size 3 to 8) (size 9 to 14) (size 15 to 20)
#    0.000    1.750    5.000    3.000    3.500    1.500 
#    0.000    0.625    0.000    1.500    0.000    0.000 
#    0.000    0.000    0.000    0.000    0.000    0.000 
#
# Total GULP energy -89276.140977 kJ/mol
# GULP energy per Si atom -5579.758811 kJ/mol
# Density = 2.013162 g / cm^3
# Si number density = 20.177546 Si / 1000 Ang^3
#
#
#
# Elastic Constant Matrix: (Units=GPa)
#
#
# Indices 1 2 3 4 5 6 
#
# 1 135.7802 61.7402 24.5549 -0.0264 35.2038 5.0972
# 2 61.7402 124.5732 0.0850 10.3731 3.7913 -10.5704
# 3 24.5549 0.0850 28.5926 5.1327 18.3538 2.1698
# 4 -0.0264 10.3731 5.1327 24.4959 -1.6175 5.5783
# 5 35.2038 3.7913 18.3538 -1.6175 27.3145 3.9510
# 6 5.0972 -10.5704 2.1698 5.5783 3.9510 41.6998
#
#
#
# Elastic Compliance Matrix: (Units=1/GPa)
#
#
# Indices 1 2 3 4 5 6 
#
# 1 0.016028 -0.007974 -0.003580 0.003672 -0.016534 -0.002719
# 2 -0.007974 0.012863 0.005344 -0.007368 0.003802 0.004583
# 3 -0.003580 0.005344 0.070827 -0.021334 -0.045748 0.005296
# 4 0.003672 -0.007368 -0.021334 0.051583 0.015059 -0.009534
# 5 -0.016534 0.003802 -0.045748 0.015059 0.089770 -0.005155
# 6 -0.002719 0.004583 0.005296 -0.009534 -0.005155 0.026963
#
#
# Mechanical properties :
#
#
# Convention : Reuss Voigt Hill
#
# Bulk Modulus (GPa) = 11.45523 51.30067 31.37795
# Shear Modulus (GPa) = 16.15233 32.20643 24.17938
#
# Velocity S-wave (km/s) = 2.83240 3.99952 3.46545
# Velocity P-wave (km/s) = 4.04798 6.84164 5.62113
#
# Compressibility (1/GPa) = 0.08729635
#
# Stress axis : x y z
#
# Youngs Moduli (GPa) = 62.39122 77.74455 14.11895
#
# Poissons Ratio (x) = 0.61997 0.05055
# Poissons Ratio (y) = 0.49754 -0.07546
# Poissons Ratio (z) = 0.22338 -0.41549
#
# Static dielectric constant tensor:
#      x y z
#    x 1.723730 -0.006680 0.020810 
#    y -0.006680 1.745250 0.010920 
#    z 0.020810 0.010920 1.760450 
# 
# From -- ./inp_files/350213.got.cif
#   From: 2010.05.17/outbox.cif.g08.bks.cpg/sg2_176_cif.got.tgz:350213.got - 2010.06.03 11:33:40.
