data_PCOD9028793
_publ_section_title
;
Structure prediction by ZEFSAII (Michael W. Deem and Ramdas Pophale) SiO2 
 PCOD9028793
Probable space group: P -1
;
_chemical_formula_sum "Si O2"
_cell_formula_units_Z 12
_cell_length_a 11.133734
_cell_length_b 6.976060
_cell_length_c 10.476762
_cell_angle_alpha 83.018328
_cell_angle_beta 120.772715
_cell_angle_gamma 59.531000
_cell_volume 516.741098
_symmetry_space_group_name_H-M "P -1"
_symmetry_group_IT_number 2
_symmetry_cell_setting 'triclinic'
loop_
_space_group_symop_operation_xyz
x,y,z
-x,-y,-z
loop_
_atom_site_type_symbol
_atom_site_label
_atom_site_fract_x
_atom_site_fract_y
_atom_site_fract_z
Si Si1 0.923389 0.611338 0.088022
Si Si2 0.270860 0.077971 0.728122
Si Si3 0.491671 0.702339 0.398241
Si Si4 0.805533 0.932018 0.597093
Si Si5 0.447116 0.860588 0.095498
Si Si6 0.908258 0.284974 0.648024
O O1 0.995703 0.754463 0.162046
O O2 0.700901 0.836016 0.964218
O O3 0.019106 0.368770 0.254324
O O4 0.000000 0.500000 0.000000
O O5 0.292850 0.005195 0.598478
O O6 0.352830 0.216302 0.787768
O O7 0.052800 0.240018 0.628388
O O8 0.381434 0.859114 0.919030
O O9 0.500000 0.500000 0.500000
O O10 0.341535 0.963456 0.374772
O O11 0.706084 0.573913 0.520899
O O12 0.438859 0.720888 0.219983
O O13 0.876531 0.088300 0.626135
#
# Coordination Sequence:
#
# PCOD9028793 Si02
#       6
#     2   2   2   2   2   2
#     4  11  23  40  67  97 129 171 214 273 326 380
#     4  10  23  42  68  94 135 176 212 273 326 393
#     4  10  22  42  66  96 133 170 217 274 321 382
#     4  11  23  43  69  98 130 173 222 267 331 387
#     4  10  22  42  65 101 132 168 226 267 325 392
#     4  10  24  43  65  97 134 171 218 266 327 393
#
# _framework density 23.222460999999999
#
# number of rings (size 3 to 8) (size 9 to 14) (size 15 to 20)
#    0.000    1.667    1.667    1.500    2.333    9.333 
#    3.000    4.167    0.000    0.000    0.000    0.000 
#    0.000    0.000    0.000    0.000    0.000    0.000 
#
# Total GULP energy -66952.470010 kJ/mol
# GULP energy per Si atom -5579.372501 kJ/mol
# Density = 2.316961 g / cm^3
# Si number density = 23.222461 Si / 1000 Ang^3
#
#
#
# Elastic Constant Matrix: (Units=GPa)
#
#
# Indices 1 2 3 4 5 6 
#
# 1 103.5204 29.7918 57.2980 -4.1355 3.0991 -14.2833
# 2 29.7918 44.3109 23.6957 1.8045 3.8468 6.9244
# 3 57.2980 23.6957 131.5098 23.6016 -30.0759 -2.2833
# 4 -4.1355 1.8045 23.6016 51.0615 -10.6721 5.8732
# 5 3.0991 3.8468 -30.0759 -10.6721 45.6091 -4.3241
# 6 -14.2833 6.9244 -2.2833 5.8732 -4.3241 32.1014
#
#
#
# Elastic Compliance Matrix: (Units=1/GPa)
#
#
# Indices 1 2 3 4 5 6 
#
# 1 0.017775 -0.009057 -0.007457 0.003476 -0.003771 0.008188
# 2 -0.009057 0.032889 -0.003458 -0.000076 -0.005605 -0.012111
# 3 -0.007457 -0.003458 0.014556 -0.005364 0.009207 0.000685
# 4 0.003476 -0.000076 -0.005364 0.022953 0.001334 -0.002838
# 5 -0.003771 -0.005605 0.009207 0.001334 0.029408 0.003903
# 6 0.008188 -0.012111 0.000685 -0.002838 0.003903 0.038501
#
#
# Mechanical properties :
#
#
# Convention : Reuss Voigt Hill
#
# Bulk Modulus (GPa) = 39.56367 55.65692 47.61030
# Shear Modulus (GPa) = 24.45546 36.99143 30.72345
#
# Velocity S-wave (km/s) = 3.24866 3.99547 3.64126
# Velocity P-wave (km/s) = 5.58082 6.73081 6.18261
#
# Compressibility (1/GPa) = 0.02527571
#
# Stress axis : x y z
#
# Youngs Moduli (GPa) = 56.25753 30.40529 68.69854
#
# Poissons Ratio (x) = 0.27538 0.51228
# Poissons Ratio (y) = 0.50953 0.23759
# Poissons Ratio (z) = 0.41951 0.10516
#
# Static dielectric constant tensor:
#      x y z
#    x 1.924460 -0.008510 -0.010460 
#    y -0.008510 1.924110 -0.030270 
#    z -0.010460 -0.030270 1.923690 
# 
# From -- ./inp_files/238574.got.cif
#   From: 2010.05.17/outbox.cif.g08.bks.cpg/sg2_120_cif.got.tgz:238574.got - 2010.06.03 11:33:40.
