data_PCOD9028019
_publ_section_title
;
Structure prediction by ZEFSAII (Michael W. Deem and Ramdas Pophale) SiO2 
 PCOD9028019
Probable space group: P -1
;
_chemical_formula_sum "Si O2"
_cell_formula_units_Z 14
_cell_length_a 12.039744
_cell_length_b 8.274507
_cell_length_c 8.661107
_cell_angle_alpha 54.349132
_cell_angle_beta 80.856918
_cell_angle_gamma 108.715333
_cell_volume 593.204431
_symmetry_space_group_name_H-M "P -1"
_symmetry_group_IT_number 2
_symmetry_cell_setting 'triclinic'
loop_
_space_group_symop_operation_xyz
x,y,z
-x,-y,-z
loop_
_atom_site_type_symbol
_atom_site_label
_atom_site_fract_x
_atom_site_fract_y
_atom_site_fract_z
Si Si1 0.199657 0.596241 0.097891
Si Si2 0.058683 0.702720 0.504122
Si Si3 0.505950 0.700254 0.501457
Si Si4 0.575075 0.482420 0.850834
Si Si5 0.882696 0.891278 0.963628
Si Si6 0.358860 0.059131 0.941694
Si Si7 0.762885 0.358346 0.274949
O O1 0.291140 0.488177 0.139515
O O2 0.053273 0.403614 0.280705
O O3 0.218653 0.715295 0.859722
O O4 0.261777 0.783090 0.121535
O O5 0.186145 0.732538 0.546484
O O6 0.000000 0.500000 0.500000
O O7 0.083034 0.935487 0.285142
O O8 0.500000 0.500000 0.500000
O O9 0.596605 0.688563 0.618572
O O10 0.566223 0.908742 0.253478
O O11 0.379572 0.682404 0.621694
O O12 0.474289 0.229678 0.937113
O O13 0.500000 0.500000 0.000000
O O14 0.746887 0.857983 0.080928
O O15 0.854966 0.636312 0.082881
O O16 0.000000 0.000000 0.000000
#
# Coordination Sequence:
#
# PCOD9028019 Si02
#       7
#     2   2   2   2   2   2   2
#     4  12  26  46  66 104 146 181 234 299 343 423
#     4  12  27  44  74 103 137 193 236 289 353 411
#     4  10  22  41  70  97 136 181 228 282 351 413
#     4  11  22  44  70 102 138 177 237 288 351 416
#     4  12  24  44  74 102 136 188 239 285 349 417
#     4  11  24  42  68 102 138 187 228 286 357 416
#     4  12  25  50  68 104 149 178 239 296 345 425
#
# _framework density 23.600635
#
# number of rings (size 3 to 8) (size 9 to 14) (size 15 to 20)
#    0.000    0.571    7.143    0.857    6.000    2.286 
#    5.143    0.000    0.000    0.000    0.000    0.000 
#    0.000    0.000    0.000    0.000    0.000    0.000 
#
# Total GULP energy -78160.830822 kJ/mol
# GULP energy per Si atom -5582.916487 kJ/mol
# Density = 2.354692 g / cm^3
# Si number density = 23.600635 Si / 1000 Ang^3
#
#
#
# Elastic Constant Matrix: (Units=GPa)
#
#
# Indices 1 2 3 4 5 6 
#
# 1 92.0670 -12.2749 11.9158 9.1984 15.7063 9.9616
# 2 -12.2749 64.0488 18.5732 2.1529 0.3363 10.0787
# 3 11.9158 18.5732 119.7499 13.2845 6.2736 3.5998
# 4 9.1984 2.1529 13.2845 40.1376 0.5220 -0.1598
# 5 15.7063 0.3363 6.2736 0.5220 51.1096 4.7545
# 6 9.9616 10.0787 3.5998 -0.1598 4.7545 26.8023
#
#
#
# Elastic Compliance Matrix: (Units=1/GPa)
#
#
# Indices 1 2 3 4 5 6 
#
# 1 0.012969 0.003823 -0.001239 -0.002746 -0.003317 -0.005519
# 2 0.003823 0.018468 -0.002892 -0.000939 -0.000192 -0.007949
# 3 -0.001239 -0.002892 0.009238 -0.002607 -0.000747 0.000424
# 4 -0.002746 -0.000939 -0.002607 0.026454 0.000737 0.001751
# 5 -0.003317 -0.000192 -0.000747 0.000737 0.020884 -0.002295
# 6 -0.005519 -0.007949 0.000424 0.001751 -0.002295 0.042711
#
#
# Mechanical properties :
#
#
# Convention : Reuss Voigt Hill
#
# Bulk Modulus (GPa) = 24.96270 34.69931 29.83100
# Shear Modulus (GPa) = 34.55594 40.78668 37.67131
#
# Velocity S-wave (km/s) = 3.83063 4.16168 3.99958
# Velocity P-wave (km/s) = 5.49227 6.15039 5.83063
#
# Compressibility (1/GPa) = 0.04005977
#
# Stress axis : x y z
#
# Youngs Moduli (GPa) = 77.10586 54.14867 108.24702
#
# Poissons Ratio (x) = -0.20702 0.13413
# Poissons Ratio (y) = -0.29479 0.31301
# Poissons Ratio (z) = 0.09555 0.15658
#
# Static dielectric constant tensor:
#      x y z
#    x 1.965450 0.019900 0.060180 
#    y 0.019900 2.099400 0.026430 
#    z 0.060180 0.026430 2.027140 
# 
# From -- ./inp_files/237131.got.cif
#   From: 2010.05.17/outbox.cif.g08.bks.cpg/sg2_119_cif.got.tgz:237131.got - 2010.06.03 11:33:40.
