data_PCOD9028741
_publ_section_title
;
Structure prediction by ZEFSAII (Michael W. Deem and Ramdas Pophale) SiO2 
 PCOD9028741
Probable space group: P -1
;
_chemical_formula_sum "Si O2"
_cell_formula_units_Z 16
_cell_length_a 16.727013
_cell_length_b 25.266076
_cell_length_c 13.912156
_cell_angle_alpha 157.801438
_cell_angle_beta 23.231601
_cell_angle_gamma 159.991798
_cell_volume 703.545722
_symmetry_space_group_name_H-M "P -1"
_symmetry_group_IT_number 2
_symmetry_cell_setting 'triclinic'
loop_
_space_group_symop_operation_xyz
x,y,z
-x,-y,-z
loop_
_atom_site_type_symbol
_atom_site_label
_atom_site_fract_x
_atom_site_fract_y
_atom_site_fract_z
Si Si1 0.128293 0.671194 0.317323
Si Si2 0.647093 0.963428 0.598759
Si Si3 0.665923 0.282123 0.117830
Si Si4 0.346573 0.243998 0.585271
Si Si5 0.547138 0.681185 0.777799
Si Si6 0.132089 0.439857 0.388823
Si Si7 0.058635 0.723360 0.877167
Si Si8 0.081432 0.940665 0.719877
O O1 0.891503 0.486140 0.225591
O O2 0.045649 0.682226 0.533721
O O3 0.170384 0.828437 0.474545
O O4 0.365794 0.666391 0.037201
O O5 0.716068 0.891155 0.488526
O O6 0.349901 0.871956 0.784293
O O7 0.711132 0.921661 0.354589
O O8 0.770957 0.167845 0.810707
O O9 0.473177 0.221770 0.317262
O O10 0.526306 0.260380 0.136817
O O11 0.575620 0.437651 0.696640
O O12 0.098319 0.229215 0.809688
O O13 0.500000 0.500000 0.500000
O O14 0.830751 0.818461 0.728353
O O15 0.058317 0.572049 0.673537
O O16 0.080702 0.342145 0.181807
O O17 0.000000 0.000000 0.000000
#
# Coordination Sequence:
#
# PCOD9028741 Si02
#       8
#     2   2   2   2   2   2   2   2
#     4  11  24  45  70  98 135 176 230 286 331 403
#     4  11  25  44  63  97 140 173 217 283 335 396
#     4  11  23  46  68  98 136 172 230 283 331 400
#     4  10  23  41  67  98 129 175 222 276 334 398
#     4  12  25  44  72  99 131 186 225 277 342 399
#     4   9  22  40  66  95 132 170 223 276 330 396
#     4  10  22  42  64  97 131 179 217 274 336 402
#     4  12  29  46  68 103 139 179 229 279 340 406
#
# _framework density 22.741945999999999
#
# number of rings (size 3 to 8) (size 9 to 14) (size 15 to 20)
#    0.000    1.250    2.500    1.875    7.000    1.000 
#    4.500    0.000    0.000    0.000    0.000    0.000 
#    0.000    0.000    0.000    0.000    0.000    0.000 
#
# Total GULP energy -89567.060901 kJ/mol
# GULP energy per Si atom -5597.941306 kJ/mol
# Density = 2.269018 g / cm^3
# Si number density = 22.741946 Si / 1000 Ang^3
#
#
#
# Elastic Constant Matrix: (Units=GPa)
#
#
# Indices 1 2 3 4 5 6 
#
# 1 37.9507 12.1887 -5.4985 -11.7318 5.7152 -12.9348
# 2 12.1887 32.4636 17.3473 -12.8585 -5.0149 -11.4305
# 3 -5.4985 17.3473 105.8096 -23.7968 0.5064 -5.3094
# 4 -11.7318 -12.8585 -23.7968 36.2432 -1.2640 -0.3800
# 5 5.7152 -5.0149 0.5064 -1.2640 25.6001 -5.9529
# 6 -12.9348 -11.4305 -5.3094 -0.3800 -5.9529 38.7227
#
#
#
# Elastic Compliance Matrix: (Units=1/GPa)
#
#
# Indices 1 2 3 4 5 6 
#
# 1 0.039958 -0.011458 0.007558 0.013643 -0.008350 0.009851
# 2 -0.011458 0.049192 -0.005712 0.010672 0.015725 0.012432
# 3 0.007558 -0.005712 0.012898 0.008841 -0.002072 0.002375
# 4 0.013643 0.010672 0.008841 0.041814 0.003219 0.009825
# 5 -0.008350 0.015725 -0.002072 0.003219 0.046232 0.008707
# 6 0.009851 0.012432 0.002375 0.009825 0.008707 0.034546
#
#
# Mechanical properties :
#
#
# Convention : Reuss Voigt Hill
#
# Bulk Modulus (GPa) = 12.07397 24.92210 18.49804
# Shear Modulus (GPa) = 18.41822 30.25896 24.33859
#
# Velocity S-wave (km/s) = 2.84892 3.65161 3.27495
# Velocity P-wave (km/s) = 4.01777 5.36297 4.73835
#
# Compressibility (1/GPa) = 0.08282282
#
# Stress axis : x y z
#
# Youngs Moduli (GPa) = 25.02636 20.32869 77.53402
#
# Poissons Ratio (x) = 0.23293 -0.58598
# Poissons Ratio (y) = 0.28676 0.44284
# Poissons Ratio (z) = -0.18914 0.11611
#
# Static dielectric constant tensor:
#      x y z
#    x 1.815240 -0.005160 0.021930 
#    y -0.005160 1.859810 0.015120 
#    z 0.021930 0.015120 1.837220 
# 
# From -- ./inp_files/519990.got.cif
#   From: 2010.05.17/outbox.cif.g08.bks.cpg/sg2_260_cif.got.tgz:519990.got - 2010.06.03 11:33:40.
