data_PCOD9028855
_publ_section_title
;
Structure prediction by ZEFSAII (Michael W. Deem and Ramdas Pophale) SiO2 
 PCOD9028855
Probable space group: P -1
;
_chemical_formula_sum "Si O2"
_cell_formula_units_Z 14
_cell_length_a 4.914043
_cell_length_b 11.650739
_cell_length_c 15.375832
_cell_angle_alpha 141.495329
_cell_angle_beta 101.337993
_cell_angle_gamma 81.975366
_cell_volume 537.214232
_symmetry_space_group_name_H-M "P -1"
_symmetry_group_IT_number 2
_symmetry_cell_setting 'triclinic'
loop_
_space_group_symop_operation_xyz
x,y,z
-x,-y,-z
loop_
_atom_site_type_symbol
_atom_site_label
_atom_site_fract_x
_atom_site_fract_y
_atom_site_fract_z
Si Si1 0.511082 0.243004 0.678424
Si Si2 0.211551 0.239748 0.339557
Si Si3 0.908226 0.224601 0.552000
Si Si4 0.281629 0.433901 0.018904
Si Si5 0.367025 0.053606 0.740873
Si Si6 0.536540 0.471944 0.348858
Si Si7 0.224839 0.879065 0.891465
O O1 0.738978 0.140134 0.574586
O O2 0.468098 0.152891 0.716643
O O3 0.219930 0.264969 0.624331
O O4 0.647390 0.445481 0.822227
O O5 0.234038 0.396006 0.509244
O O6 0.378156 0.338230 0.328762
O O7 0.921337 0.162179 0.236422
O O8 0.392207 0.069476 0.280355
O O9 0.707241 0.392095 0.614650
O O10 0.882366 0.080975 0.386237
O O11 0.285284 0.215094 0.896515
O O12 0.500000 0.500000 0.000000
O O13 0.000000 0.500000 0.000000
O O14 0.684677 0.332564 0.208795
O O15 0.500000 0.000000 0.000000
O O16 0.000000 0.000000 0.000000
#
# Coordination Sequence:
#
# PCOD9028855 Si02
#       7
#     2   2   2   2   2   2   2
#     4  11  23  44  67 102 138 179 225 284 343 404
#     4  10  23  48  73 105 139 190 228 295 341 429
#     4  11  25  42  72 101 137 180 225 290 335 403
#     4  10  22  42  65  91 133 178 220 272 332 404
#     4  10  23  45  70 103 135 181 231 279 343 410
#     4  10  24  47  72 103 144 185 238 277 358 415
#     4  12  25  46  70 102 140 181 234 292 347 411
#
# _framework density 26.060368
#
# number of rings (size 3 to 8) (size 9 to 14) (size 15 to 20)
#    0.000    1.429    1.429    3.000    2.000    4.571 
#   15.429    0.000    0.000    0.000    0.000    0.000 
#    0.000    0.000    0.000    0.000    0.000    0.000 
#
# Total GULP energy -78405.037370 kJ/mol
# GULP energy per Si atom -5600.359812 kJ/mol
# Density = 2.600105 g / cm^3
# Si number density = 26.060368 Si / 1000 Ang^3
#
#
#
# Elastic Constant Matrix: (Units=GPa)
#
#
# Indices 1 2 3 4 5 6 
#
# 1 149.8585 29.0344 55.0853 -6.7964 22.5455 -42.2562
# 2 29.0344 140.9598 60.8913 9.0640 24.4699 -30.1518
# 3 55.0853 60.8913 239.7044 13.6848 21.1783 -36.1989
# 4 -6.7964 9.0640 13.6848 48.9826 -17.1011 1.5693
# 5 22.5455 24.4699 21.1783 -17.1011 49.2629 -14.6204
# 6 -42.2562 -30.1518 -36.1989 1.5693 -14.6204 49.0924
#
#
#
# Elastic Compliance Matrix: (Units=1/GPa)
#
#
# Indices 1 2 3 4 5 6 
#
# 1 0.009203 0.000242 -0.001052 0.000748 -0.001604 0.006793
# 2 0.000242 0.009321 -0.001324 -0.002847 -0.004016 0.003851
# 3 -0.001052 -0.001324 0.005241 -0.001845 -0.001207 0.001845
# 4 0.000748 -0.002847 -0.001845 0.025267 0.010602 -0.000115
# 5 -0.001604 -0.004016 -0.001207 0.010602 0.028215 0.003326
# 6 0.006793 0.003851 0.001845 -0.000115 0.003326 0.030937
#
#
# Mechanical properties :
#
#
# Convention : Reuss Voigt Hill
#
# Bulk Modulus (GPa) = 51.29023 91.17161 71.23092
# Shear Modulus (GPa) = 42.03450 55.16837 48.60144
#
# Velocity S-wave (km/s) = 4.02053 4.60602 4.32320
# Velocity P-wave (km/s) = 6.42471 7.95914 7.23273
#
# Compressibility (1/GPa) = 0.01949689
#
# Stress axis : x y z
#
# Youngs Moduli (GPa) = 108.65469 107.29037 190.82130
#
# Poissons Ratio (x) = -0.02597 0.20066
# Poissons Ratio (y) = -0.02630 0.25271
# Poissons Ratio (z) = 0.11426 0.14209
#
# Static dielectric constant tensor:
#      x y z
#    x 2.049120 0.109110 0.033640 
#    y 0.109110 2.099430 0.052580 
#    z 0.033640 0.052580 2.114050 
# 
# From -- ./inp_files/583473.got.cif
#   From: 2010.05.17/outbox.cif.g08.bks.cpg/sg2_292_cif.got.tgz:583473.got - 2010.06.03 11:33:40.
