data_PCOD9028895
_publ_section_title
;
Structure prediction by ZEFSAII (Michael W. Deem and Ramdas Pophale) SiO2 
 PCOD9028895
Probable space group: P -1
;
_chemical_formula_sum "Si O2"
_cell_formula_units_Z 14
_cell_length_a 11.678674
_cell_length_b 17.152975
_cell_length_c 9.228165
_cell_angle_alpha 138.132791
_cell_angle_beta 141.419420
_cell_angle_gamma 33.986015
_cell_volume 619.235314
_symmetry_space_group_name_H-M "P -1"
_symmetry_group_IT_number 2
_symmetry_cell_setting 'triclinic'
loop_
_space_group_symop_operation_xyz
x,y,z
-x,-y,-z
loop_
_atom_site_type_symbol
_atom_site_label
_atom_site_fract_x
_atom_site_fract_y
_atom_site_fract_z
Si Si1 0.997253 0.619166 0.844817
Si Si2 0.194795 0.731804 0.999717
Si Si3 0.480371 0.196437 0.521401
Si Si4 0.031912 0.010036 0.375786
Si Si5 0.700962 0.302149 0.277025
Si Si6 0.035099 0.625964 0.216087
Si Si7 0.288308 0.297272 0.768322
O O1 0.148708 0.630024 0.893626
O O2 0.087818 0.452597 0.714909
O O3 0.737380 0.727257 0.688955
O O4 0.024199 0.667819 0.096913
O O5 0.192149 0.729960 0.822270
O O6 0.433777 0.701321 0.238768
O O7 0.014862 0.894107 0.109964
O O8 0.413164 0.187035 0.605979
O O9 0.706802 0.050300 0.481557
O O10 0.853118 0.165629 0.345101
O O11 0.000000 0.000000 0.500000
O O12 0.733845 0.417367 0.539281
O O13 0.462020 0.326394 0.051076
O O14 0.826583 0.738615 0.272446
O O15 0.000000 0.500000 0.000000
#
# Coordination Sequence:
#
# PCOD9028895 Si02
#       7
#     2   2   2   2   2   2   2
#     4  11  21  39  61  94 129 162 210 255 315 368
#     4   9  22  39  65  95 121 172 206 255 311 371
#     4   9  22  39  61  93 125 165 209 253 310 371
#     4  10  22  42  65  94 125 164 211 262 312 368
#     4  11  22  43  64  90 129 166 213 256 313 373
#     4  10  24  39  60  94 126 167 209 255 313 367
#     4  10  23  39  65  93 126 170 203 261 312 374
#
# _framework density 22.608530999999999
#
# number of rings (size 3 to 8) (size 9 to 14) (size 15 to 20)
#    0.857    1.143    0.000    2.571    2.000    8.000 
#    2.571    2.857    0.000    0.000    0.000    0.000 
#    0.000    0.000    0.000    0.000    0.000    0.000 
#
# Total GULP energy -78147.019589 kJ/mol
# GULP energy per Si atom -5581.929971 kJ/mol
# Density = 2.255707 g / cm^3
# Si number density = 22.608531 Si / 1000 Ang^3
#
#
#
# Elastic Constant Matrix: (Units=GPa)
#
#
# Indices 1 2 3 4 5 6 
#
# 1 143.5924 22.8037 25.8040 -12.8294 -23.8564 -1.1824
# 2 22.8037 45.1260 -0.7672 -6.9256 4.0599 3.0682
# 3 25.8040 -0.7672 118.4585 -17.3523 -10.0505 0.4951
# 4 -12.8294 -6.9256 -17.3523 28.9226 -2.0395 1.4174
# 5 -23.8564 4.0599 -10.0505 -2.0395 29.0482 -1.9807
# 6 -1.1824 3.0682 0.4951 1.4174 -1.9807 34.6693
#
#
#
# Elastic Compliance Matrix: (Units=1/GPa)
#
#
# Indices 1 2 3 4 5 6 
#
# 1 0.009702 -0.005320 -0.000979 0.002995 0.008664 0.001188
# 2 -0.005320 0.026437 0.001352 0.004407 -0.007501 -0.003149
# 3 -0.000979 0.001352 0.009776 0.005969 0.002783 -0.000378
# 4 0.002995 0.004407 0.005969 0.041093 0.006680 -0.001672
# 5 0.008664 -0.007501 0.002783 0.006680 0.044238 0.003174
# 6 0.001188 -0.003149 -0.000378 -0.001672 0.003174 0.029418
#
#
# Mechanical properties :
#
#
# Convention : Reuss Voigt Hill
#
# Bulk Modulus (GPa) = 27.76115 44.76200 36.26158
# Shear Modulus (GPa) = 27.38768 35.81710 31.60239
#
# Velocity S-wave (km/s) = 3.48427 3.98456 3.74278
# Velocity P-wave (km/s) = 5.33785 6.40395 5.89505
#
# Compressibility (1/GPa) = 0.03602156
#
# Stress axis : x y z
#
# Youngs Moduli (GPa) = 103.07472 37.82597 102.29246
#
# Poissons Ratio (x) = 0.20123 0.10014
# Poissons Ratio (y) = 0.54834 -0.13834
# Poissons Ratio (z) = 0.10091 -0.05115
#
# Static dielectric constant tensor:
#      x y z
#    x 1.870440 -0.032960 0.003380 
#    y -0.032960 1.861370 0.069000 
#    z 0.003380 0.069000 1.889210 
# 
# From -- ./inp_files/277032.got.cif
#   From: 2010.05.17/outbox.cif.g08.bks.cpg/sg2_139_cif.got.tgz:277032.got - 2010.06.03 11:33:40.
