data_PCOD9028238
_publ_section_title
;
Structure prediction by ZEFSAII (Michael W. Deem and Ramdas Pophale) SiO2 
 PCOD9028238
Probable space group: P -1
;
_chemical_formula_sum "Si O2"
_cell_formula_units_Z 12
_cell_length_a 10.031844
_cell_length_b 8.592329
_cell_length_c 11.292718
_cell_angle_alpha 140.582977
_cell_angle_beta 51.724982
_cell_angle_gamma 118.517510
_cell_volume 485.211268
_symmetry_space_group_name_H-M "P -1"
_symmetry_group_IT_number 2
_symmetry_cell_setting 'triclinic'
loop_
_space_group_symop_operation_xyz
x,y,z
-x,-y,-z
loop_
_atom_site_type_symbol
_atom_site_label
_atom_site_fract_x
_atom_site_fract_y
_atom_site_fract_z
Si Si1 0.880880 0.971801 0.665800
Si Si2 0.210088 0.450566 0.674715
Si Si3 0.622370 0.456173 0.795940
Si Si4 0.591273 0.259272 0.102079
Si Si5 0.211130 0.050857 0.645373
Si Si6 0.892580 0.762774 0.955733
O O1 0.773027 0.729739 0.552517
O O2 0.760036 0.199428 0.895053
O O3 0.000000 0.000000 0.500000
O O4 0.016768 0.952476 0.684160
O O5 0.220528 0.276306 0.681841
O O6 0.346845 0.656362 0.752771
O O7 0.028167 0.577993 0.832115
O O8 0.673296 0.173599 0.589061
O O9 0.500000 0.500000 0.000000
O O10 0.526535 0.548509 0.786708
O O11 0.789442 0.620207 0.827799
O O12 0.500000 0.000000 0.000000
O O13 0.237411 0.144906 0.817936
O O14 0.000000 0.000000 0.000000
#
# Coordination Sequence:
#
# PCOD9028238 Si02
#       6
#     2   2   2   2   2   2
#     4  10  22  41  73 101 126 183 237 271 337 423
#     4  11  23  44  75  97 132 188 237 273 340 433
#     4  12  27  45  69 107 145 174 234 303 345 406
#     4  12  27  45  68 103 147 179 224 296 357 399
#     4  11  24  43  77 100 132 185 239 280 341 418
#     4  12  26  43  70 104 140 185 233 284 349 418
#
# _framework density 24.731493
#
# number of rings (size 3 to 8) (size 9 to 14) (size 15 to 20)
#    0.000    0.667    3.333    4.500    4.667    6.667 
#    0.000    0.000    0.000    0.000    0.000    0.000 
#    0.000    0.000    0.000    0.000    0.000    0.000 
#
# Total GULP energy -67219.203498 kJ/mol
# GULP energy per Si atom -5601.600291 kJ/mol
# Density = 2.467520 g / cm^3
# Si number density = 24.731493 Si / 1000 Ang^3
#
#
#
# Elastic Constant Matrix: (Units=GPa)
#
#
# Indices 1 2 3 4 5 6 
#
# 1 145.2368 12.8503 45.9611 18.8967 -1.2653 20.7204
# 2 12.8503 67.3488 15.7123 12.4584 -19.1751 4.9866
# 3 45.9611 15.7123 148.2461 23.6531 -15.8978 -4.6182
# 4 18.8967 12.4584 23.6531 36.6716 2.6568 10.4152
# 5 -1.2653 -19.1751 -15.8978 2.6568 56.5800 19.7787
# 6 20.7204 4.9866 -4.6182 10.4152 19.7787 31.6516
#
#
#
# Elastic Compliance Matrix: (Units=1/GPa)
#
#
# Indices 1 2 3 4 5 6 
#
# 1 0.008872 0.000251 -0.002600 -0.001091 0.002118 -0.007192
# 2 0.000251 0.018932 -0.000583 -0.004763 0.009038 -0.007312
# 3 -0.002600 -0.000583 0.008701 -0.005342 0.000965 0.004218
# 4 -0.001091 -0.004763 -0.005342 0.035933 -0.001194 -0.010393
# 5 0.002118 0.009038 0.000965 -0.001194 0.028031 -0.019793
# 6 -0.007192 -0.007312 0.004218 -0.010393 -0.019793 0.053857
#
#
# Mechanical properties :
#
#
# Convention : Reuss Voigt Hill
#
# Bulk Modulus (GPa) = 32.63631 56.65324 44.64477
# Shear Modulus (GPa) = 29.34210 44.06786 36.70498
#
# Velocity S-wave (km/s) = 3.44819 4.22578 3.85663
# Velocity P-wave (km/s) = 5.39243 6.83862 6.15812
#
# Compressibility (1/GPa) = 0.03064072
#
# Stress axis : x y z
#
# Youngs Moduli (GPa) = 112.70981 52.82115 114.93312
#
# Poissons Ratio (x) = -0.01326 0.29884
# Poissons Ratio (y) = -0.02830 0.06701
# Poissons Ratio (z) = 0.29306 0.03080
#
# Static dielectric constant tensor:
#      x y z
#    x 1.969610 0.097380 0.028100 
#    y 0.097380 2.058870 0.008370 
#    z 0.028100 0.008370 1.945320 
# 
# From -- ./inp_files/151123.got.cif
#   From: 2010.05.17/outbox.cif.g08.bks.cpg/sg2_76_cif.got.tgz:151123.got - 2010.06.03 11:33:40.
