data_PCOD9028392
_publ_section_title
;
Structure prediction by ZEFSAII (Michael W. Deem and Ramdas Pophale) SiO2 
 PCOD9028392
Probable space group: P -1
;
_chemical_formula_sum "Si O2"
_cell_formula_units_Z 16
_cell_length_a 17.305684
_cell_length_b 22.595189
_cell_length_c 13.755257
_cell_angle_alpha 149.039587
_cell_angle_beta 22.479607
_cell_angle_gamma 157.545764
_cell_volume 785.256996
_symmetry_space_group_name_H-M "P -1"
_symmetry_group_IT_number 2
_symmetry_cell_setting 'triclinic'
loop_
_space_group_symop_operation_xyz
x,y,z
-x,-y,-z
loop_
_atom_site_type_symbol
_atom_site_label
_atom_site_fract_x
_atom_site_fract_y
_atom_site_fract_z
Si Si1 0.386683 0.626228 0.249552
Si Si2 0.195286 0.844606 0.270967
Si Si3 0.426838 0.727483 0.723715
Si Si4 0.636533 0.848463 0.443731
Si Si5 0.918911 0.319005 0.452803
Si Si6 0.023312 0.115684 0.061699
Si Si7 0.393815 0.329563 0.372778
Si Si8 0.103039 0.611502 0.205226
O O1 0.408945 0.710594 0.441490
O O2 0.294352 0.676062 0.342389
O O3 0.910478 0.912943 0.160889
O O4 0.696816 0.712012 0.989302
O O5 0.123247 0.730913 0.281939
O O6 0.914159 0.784935 0.468471
O O7 0.365692 0.015728 0.354888
O O8 0.359287 0.830635 0.982865
O O9 0.597246 0.787744 0.511850
O O10 0.575016 0.719421 0.627989
O O11 0.135027 0.557739 0.801817
O O12 0.181492 0.444834 0.255306
O O13 0.829644 0.151414 0.325690
O O14 0.962881 0.378767 0.595090
O O15 0.000000 0.000000 0.000000
O O16 0.500000 0.500000 0.500000
O O17 0.608695 0.344614 0.075698
#
# Coordination Sequence:
#
# PCOD9028392 Si02
#       8
#     2   2   2   2   2   2   2   2
#     4   9  23  41  61  91 123 158 217 245 301 370
#     4  11  22  41  62  86 129 159 198 252 308 358
#     4  11  21  41  62  90 123 158 205 251 297 366
#     4  10  23  43  58  93 125 163 196 251 313 354
#     4  11  21  42  66  89 122 166 205 256 302 363
#     4  10  22  42  61  88 128 159 201 259 302 360
#     4  11  21  39  62  93 120 156 208 253 292 366
#     4  11  21  37  66  91 117 161 204 247 306 354
#
# _framework density 20.375495000000001
#
# number of rings (size 3 to 8) (size 9 to 14) (size 15 to 20)
#    0.750    0.750    3.750    2.250    0.000    3.000 
#   11.250    0.000    0.000    0.000    0.000    0.000 
#    0.000    0.000    0.000    0.000    0.000    0.000 
#
# Total GULP energy -89221.646815 kJ/mol
# GULP energy per Si atom -5576.352926 kJ/mol
# Density = 2.032912 g / cm^3
# Si number density = 20.375495 Si / 1000 Ang^3
#
#
#
# Elastic Constant Matrix: (Units=GPa)
#
#
# Indices 1 2 3 4 5 6 
#
# 1 95.7026 18.2941 49.4996 11.2523 3.4602 -16.0804
# 2 18.2941 58.0237 13.9207 21.3007 -3.8673 -15.6010
# 3 49.4996 13.9207 58.7762 5.3508 -9.8647 -11.6220
# 4 11.2523 21.3007 5.3508 28.1742 -2.0094 -3.4461
# 5 3.4602 -3.8673 -9.8647 -2.0094 33.9547 2.5271
# 6 -16.0804 -15.6010 -11.6220 -3.4461 2.5271 23.8007
#
#
#
# Elastic Compliance Matrix: (Units=1/GPa)
#
#
# Indices 1 2 3 4 5 6 
#
# 1 0.021639 0.000700 -0.017996 -0.005558 -0.008156 0.006352
# 2 0.000700 0.029078 -0.002600 -0.019878 0.000165 0.015368
# 3 -0.017996 -0.002600 0.034906 0.003661 0.011712 0.002468
# 4 -0.005558 -0.019878 0.003661 0.051295 0.002989 -0.007888
# 5 -0.008156 0.000165 0.011712 0.002989 0.034094 -0.002870
# 6 0.006352 0.015368 0.002468 -0.007888 -0.002870 0.056748
#
#
# Mechanical properties :
#
#
# Convention : Reuss Voigt Hill
#
# Bulk Modulus (GPa) = 21.82008 41.77015 31.79512
# Shear Modulus (GPa) = 17.67847 25.90512 21.79179
#
# Velocity S-wave (km/s) = 2.94876 3.56952 3.27388
# Velocity P-wave (km/s) = 4.72502 6.12644 5.47079
#
# Compressibility (1/GPa) = 0.04582934
#
# Stress axis : x y z
#
# Youngs Moduli (GPa) = 46.21274 34.39054 28.64846
#
# Poissons Ratio (x) = -0.02407 0.51557
# Poissons Ratio (y) = -0.03234 0.07449
# Poissons Ratio (z) = 0.83166 0.08943
#
# Static dielectric constant tensor:
#      x y z
#    x 1.695940 -0.008350 -0.001340 
#    y -0.008350 1.741330 -0.028660 
#    z -0.001340 -0.028660 1.743130 
# 
# From -- ./inp_files/539293.got.cif
#   From: 2010.05.17/outbox.cif.g08.bks.cpg/sg2_270_cif.got.tgz:539293.got - 2010.06.03 11:33:40.
