data_PCOD9028197
_publ_section_title
;
Structure prediction by ZEFSAII (Michael W. Deem and Ramdas Pophale) SiO2 
 PCOD9028197
Probable space group: P -1
;
_chemical_formula_sum "Si O2"
_cell_formula_units_Z 12
_cell_length_a 9.096859
_cell_length_b 5.220683
_cell_length_c 13.215840
_cell_angle_alpha 105.953796
_cell_angle_beta 121.583636
_cell_angle_gamma 93.638606
_cell_volume 497.324438
_symmetry_space_group_name_H-M "P -1"
_symmetry_group_IT_number 2
_symmetry_cell_setting 'triclinic'
loop_
_space_group_symop_operation_xyz
x,y,z
-x,-y,-z
loop_
_atom_site_type_symbol
_atom_site_label
_atom_site_fract_x
_atom_site_fract_y
_atom_site_fract_z
Si Si1 0.133911 0.882409 0.607403
Si Si2 0.528869 0.286714 0.767960
Si Si3 0.346327 0.116944 0.370684
Si Si4 0.138306 0.451649 0.959320
Si Si5 0.661396 0.505597 0.430741
Si Si6 0.028525 0.824580 0.798198
O O1 0.170474 0.603982 0.544827
O O2 0.074981 0.843787 0.698500
O O3 0.336221 0.085863 0.703611
O O4 0.000000 0.000000 0.500000
O O5 0.467604 0.530435 0.715964
O O6 0.639711 0.159069 0.709941
O O7 0.663124 0.390005 0.918277
O O8 0.546381 0.301346 0.448396
O O9 0.309053 0.185670 0.481195
O O10 0.184383 0.213095 0.270692
O O11 0.087680 0.582916 0.851532
O O12 0.118013 0.126285 0.908176
O O13 0.000000 0.500000 0.000000
#
# Coordination Sequence:
#
# PCOD9028197 Si02
#       6
#     2   2   2   2   2   2
#     4  11  28  47  71 107 149 194 241 305 371 440
#     4  11  24  44  72 102 147 189 245 300 367 432
#     4  10  22  41  72 106 138 187 246 304 363 424
#     4  12  27  48  78 108 148 193 249 305 362 433
#     4  10  23  43  73 101 145 187 247 305 371 427
#     4  12  28  46  77 110 148 193 250 297 369 439
#
# _framework density 24.129118999999999
#
# number of rings (size 3 to 8) (size 9 to 14) (size 15 to 20)
#    0.000    1.000    1.667    3.000    9.333    4.000 
#    0.000    0.000    0.000    0.000    0.000    0.000 
#    0.000    0.000    0.000    0.000    0.000    0.000 
#
# Total GULP energy -67044.627068 kJ/mol
# GULP energy per Si atom -5587.052256 kJ/mol
# Density = 2.407420 g / cm^3
# Si number density = 24.129119 Si / 1000 Ang^3
#
#
#
# Elastic Constant Matrix: (Units=GPa)
#
#
# Indices 1 2 3 4 5 6 
#
# 1 160.3090 24.1018 39.6687 -3.4461 10.4855 0.2424
# 2 24.1018 58.3254 2.1626 -8.0440 -1.2547 -12.9953
# 3 39.6687 2.1626 97.2342 -6.1592 24.7722 0.7955
# 4 -3.4461 -8.0440 -6.1592 46.2247 -4.0664 6.1425
# 5 10.4855 -1.2547 24.7722 -4.0664 50.9079 -4.5836
# 6 0.2424 -12.9953 0.7955 6.1425 -4.5836 37.4359
#
#
#
# Elastic Compliance Matrix: (Units=1/GPa)
#
#
# Indices 1 2 3 4 5 6 
#
# 1 0.007464 -0.003271 -0.002896 -0.000279 -0.000331 -0.001117
# 2 -0.003271 0.020408 0.000547 0.002620 0.001739 0.006877
# 3 -0.002896 0.000547 0.012993 0.001238 -0.005701 -0.000968
# 4 -0.000279 0.002620 0.001238 0.022689 0.001089 -0.002705
# 5 -0.000331 0.001739 -0.005701 0.001089 0.022917 0.003354
# 6 -0.001117 0.006877 -0.000968 -0.002705 0.003354 0.029982
#
#
# Mechanical properties :
#
#
# Convention : Reuss Voigt Hill
#
# Bulk Modulus (GPa) = 33.75733 49.74832 41.75282
# Shear Modulus (GPa) = 36.34592 43.57607 39.96100
#
# Velocity S-wave (km/s) = 3.88533 4.25426 4.07397
# Velocity P-wave (km/s) = 5.84366 6.69283 6.28261
#
# Compressibility (1/GPa) = 0.02962320
#
# Stress axis : x y z
#
# Youngs Moduli (GPa) = 133.97838 49.00126 76.96715
#
# Poissons Ratio (x) = 0.16031 0.22293
# Poissons Ratio (y) = 0.43831 -0.04214
# Poissons Ratio (z) = 0.38806 -0.02683
#
# Static dielectric constant tensor:
#      x y z
#    x 1.947420 0.050830 -0.002940 
#    y 0.050830 2.012430 0.044390 
#    z -0.002940 0.044390 1.935150 
# 
# From -- ./inp_files/21933.got.cif
#   From: 2010.05.17/outbox.cif.g08.bks.cpg/sg2_11_cif.got.tgz:21933.got - 2010.06.03 11:33:40.
