data_PCOD9028406
_publ_section_title
;
Structure prediction by ZEFSAII (Michael W. Deem and Ramdas Pophale) SiO2 
 PCOD9028406
Probable space group: P -1
;
_chemical_formula_sum "Si O2"
_cell_formula_units_Z 16
_cell_length_a 7.604670
_cell_length_b 12.118251
_cell_length_c 9.144608
_cell_angle_alpha 61.706444
_cell_angle_beta 112.572814
_cell_angle_gamma 92.061674
_cell_volume 674.065831
_symmetry_space_group_name_H-M "P -1"
_symmetry_group_IT_number 2
_symmetry_cell_setting 'triclinic'
loop_
_space_group_symop_operation_xyz
x,y,z
-x,-y,-z
loop_
_atom_site_type_symbol
_atom_site_label
_atom_site_fract_x
_atom_site_fract_y
_atom_site_fract_z
Si Si1 0.641125 0.698821 0.221926
Si Si2 0.814765 0.692668 0.580003
Si Si3 0.028048 0.783908 0.847385
Si Si4 0.442952 0.042213 0.116511
Si Si5 0.868003 0.058018 0.747434
Si Si6 0.780415 0.082881 0.387072
Si Si7 0.047507 0.674003 0.397254
Si Si8 0.268739 0.584081 0.251849
O O1 0.673403 0.752604 0.364182
O O2 0.857882 0.620709 0.313998
O O3 0.465830 0.624097 0.232998
O O4 0.613273 0.805246 0.020848
O O5 0.853468 0.764263 0.695716
O O6 0.017633 0.665302 0.567987
O O7 0.745102 0.562365 0.679631
O O8 0.986459 0.918387 0.834610
O O9 0.201391 0.797583 0.783139
O O10 0.096615 0.671215 0.051985
O O11 0.274436 0.969267 0.156204
O O12 0.617296 0.018728 0.301999
O O13 0.500000 0.000000 0.000000
O O14 0.745931 0.104413 0.532896
O O15 0.018737 0.827159 0.260882
O O16 0.000000 0.000000 0.500000
O O17 0.228543 0.616594 0.391041
#
# Coordination Sequence:
#
# PCOD9028406 Si02
#       8
#     2   2   2   2   2   2   2   2
#     4  10  24  40  66  99 131 165 228 276 328 385
#     4  10  24  45  68  93 136 179 221 277 334 390
#     4  11  23  42  69  96 134 178 221 269 336 399
#     4  12  25  39  66 100 133 175 225 270 331 406
#     4  11  24  43  68  96 141 176 212 273 344 399
#     4  10  22  42  61  91 135 175 211 267 327 399
#     4  10  24  42  66 102 131 176 223 275 336 399
#     4  12  22  45  72  96 129 180 229 279 332 384
#
# _framework density 23.736554000000002
#
# number of rings (size 3 to 8) (size 9 to 14) (size 15 to 20)
#    0.750    0.500    2.500    3.000    7.000    1.000 
#    2.250    0.000    0.000    2.250    0.000    0.000 
#    0.000    0.000    0.000    0.000    0.000    0.000 
#
# Total GULP energy -89276.505191 kJ/mol
# GULP energy per Si atom -5579.781574 kJ/mol
# Density = 2.368253 g / cm^3
# Si number density = 23.736554 Si / 1000 Ang^3
#
#
#
# Elastic Constant Matrix: (Units=GPa)
#
#
# Indices 1 2 3 4 5 6 
#
# 1 95.9798 29.0237 23.8948 -3.0686 -26.2713 29.9493
# 2 29.0237 94.6987 13.1619 -2.8040 -1.5301 27.5176
# 3 23.8948 13.1619 106.2351 0.2412 -5.0624 10.0197
# 4 -3.0686 -2.8040 0.2412 34.8953 8.1480 -4.3031
# 5 -26.2713 -1.5301 -5.0624 8.1480 48.4356 -4.1639
# 6 29.9493 27.5176 10.0197 -4.3031 -4.1639 34.1487
#
#
#
# Elastic Compliance Matrix: (Units=1/GPa)
#
#
# Indices 1 2 3 4 5 6 
#
# 1 0.017706 -0.001237 -0.002179 -0.002146 0.008570 -0.013118
# 2 -0.001237 0.013939 -0.000550 0.000039 -0.001165 -0.010124
# 3 -0.002179 -0.000550 0.010026 -0.000351 -0.000148 -0.000650
# 4 -0.002146 0.000039 -0.000351 0.030475 -0.005890 0.005076
# 5 0.008570 -0.001165 -0.000148 -0.005890 0.025879 -0.004121
# 6 -0.013118 -0.010124 -0.000650 0.005076 -0.004121 0.049274
#
#
# Mechanical properties :
#
#
# Convention : Reuss Voigt Hill
#
# Bulk Modulus (GPa) = 29.63767 47.67492 38.65629
# Shear Modulus (GPa) = 30.03424 38.88482 34.45953
#
# Velocity S-wave (km/s) = 3.56099 4.05184 3.81432
# Velocity P-wave (km/s) = 5.42408 6.48217 5.97659
#
# Compressibility (1/GPa) = 0.03374085
#
# Stress axis : x y z
#
# Youngs Moduli (GPa) = 56.47890 71.73936 99.73766
#
# Poissons Ratio (x) = 0.08874 0.21730
# Poissons Ratio (y) = 0.06987 0.05481
# Poissons Ratio (z) = 0.12305 0.03942
#
# Static dielectric constant tensor:
#      x y z
#    x 1.934580 -0.041950 0.025990 
#    y -0.041950 1.932030 -0.041770 
#    z 0.025990 -0.041770 1.982760 
# 
# From -- ./inp_files/195851.got.cif
#   From: 2010.05.17/outbox.cif.g08.bks.cpg/sg2_98_cif.got.tgz:195851.got - 2010.06.03 11:33:40.
