data_PCOD9028146
_publ_section_title
;
Structure prediction by ZEFSAII (Michael W. Deem and Ramdas Pophale) SiO2 
 PCOD9028146
Probable space group: P -1
;
_chemical_formula_sum "Si O2"
_cell_formula_units_Z 14
_cell_length_a 7.715941
_cell_length_b 11.907695
_cell_length_c 15.381829
_cell_angle_alpha 155.464625
_cell_angle_beta 83.736236
_cell_angle_gamma 92.467397
_cell_volume 577.930302
_symmetry_space_group_name_H-M "P -1"
_symmetry_group_IT_number 2
_symmetry_cell_setting 'triclinic'
loop_
_space_group_symop_operation_xyz
x,y,z
-x,-y,-z
loop_
_atom_site_type_symbol
_atom_site_label
_atom_site_fract_x
_atom_site_fract_y
_atom_site_fract_z
Si Si1 0.709940 0.900684 0.663842
Si Si2 0.320091 0.059611 0.502745
Si Si3 0.458813 0.878650 0.010876
Si Si4 0.082523 0.062272 0.129367
Si Si5 0.070313 0.649667 0.499929
Si Si6 0.218808 0.554785 0.243104
Si Si7 0.075266 0.577780 0.957391
O O1 0.566723 0.922606 0.763127
O O2 0.640285 0.894127 0.566960
O O3 0.862190 0.649402 0.492976
O O4 0.818723 0.164654 0.848488
O O5 0.205124 0.318943 0.733316
O O6 0.500000 0.000000 0.500000
O O7 0.237647 0.784080 0.331742
O O8 0.252069 0.839878 0.982483
O O9 0.603959 0.634711 0.866569
O O10 0.500000 0.000000 0.000000
O O11 0.941696 0.152358 0.277015
O O12 0.156895 0.350454 0.311493
O O13 0.000000 0.000000 0.000000
O O14 0.146146 0.711153 0.445501
O O15 0.076569 0.390214 0.087523
O O16 0.000000 0.500000 0.000000
#
# Coordination Sequence:
#
# PCOD9028146 Si02
#       7
#     2   2   2   2   2   2   2
#     4  11  25  46  72 103 142 185 237 287 360 423
#     4  12  27  46  69 105 145 182 230 294 360 427
#     4  11  25  43  68 101 140 184 234 291 342 416
#     4  10  23  45  70  94 137 190 237 282 348 410
#     4  10  22  41  71  97 134 177 234 291 334 422
#     4  12  24  45  72 104 144 178 240 293 355 422
#     4  12  25  45  76 104 139 186 236 293 356 424
#
# _framework density 24.224371999999999
#
# number of rings (size 3 to 8) (size 9 to 14) (size 15 to 20)
#    0.000    0.857    4.286    2.143    6.000    2.286 
#    2.571    0.714    0.000    0.000    0.000    0.000 
#    0.000    0.000    0.000    0.000    0.000    0.000 
#
# Total GULP energy -78121.499138 kJ/mol
# GULP energy per Si atom -5580.107081 kJ/mol
# Density = 2.416924 g / cm^3
# Si number density = 24.224372 Si / 1000 Ang^3
#
#
#
# Elastic Constant Matrix: (Units=GPa)
#
#
# Indices 1 2 3 4 5 6 
#
# 1 86.0083 24.6296 58.1965 -8.4020 -15.4903 -36.9739
# 2 24.6296 151.4431 57.9097 -46.4396 -18.1144 -28.0342
# 3 58.1965 57.9097 121.4128 -18.6993 -18.8651 -20.8544
# 4 -8.4020 -46.4396 -18.6993 69.9223 1.8865 2.0930
# 5 -15.4903 -18.1144 -18.8651 1.8865 47.1331 2.4191
# 6 -36.9739 -28.0342 -20.8544 2.0930 2.4191 54.3086
#
#
#
# Elastic Compliance Matrix: (Units=1/GPa)
#
#
# Indices 1 2 3 4 5 6 
#
# 1 0.024690 0.003776 -0.010055 0.002222 0.004703 0.014603
# 2 0.003776 0.011255 -0.004635 0.006419 0.003136 0.006214
# 3 -0.010055 -0.004635 0.014767 -0.000257 0.001020 -0.003603
# 4 0.002222 0.006419 -0.000257 0.018588 0.002149 0.003915
# 5 0.004703 0.003136 0.001020 0.002149 0.024081 0.004057
# 6 0.014603 0.006214 -0.003603 0.003915 0.004057 0.029847
#
#
# Mechanical properties :
#
#
# Convention : Reuss Voigt Hill
#
# Bulk Modulus (GPa) = 34.62025 71.14843 52.88434
# Shear Modulus (GPa) = 32.32392 48.81467 40.56930
#
# Velocity S-wave (km/s) = 3.65685 4.49386 4.09679
# Velocity P-wave (km/s) = 5.67032 7.50738 6.65257
#
# Compressibility (1/GPa) = 0.02888483
#
# Stress axis : x y z
#
# Youngs Moduli (GPa) = 40.50142 88.84875 67.72006
#
# Poissons Ratio (x) = -0.33553 0.68091
# Poissons Ratio (y) = -0.15295 0.31390
# Poissons Ratio (z) = 0.40724 0.41184
#
# Static dielectric constant tensor:
#      x y z
#    x 2.088140 0.237570 0.155460 
#    y 0.237570 2.329370 0.220730 
#    z 0.155460 0.220730 2.062500 
# 
# From -- ./inp_files/501130.got.cif
#   From: 2010.05.17/outbox.cif.g08.bks.cpg/sg2_251_cif.got.tgz:501130.got - 2010.06.03 11:33:40.
