data_PCOD9028419
_publ_section_title
;
Structure prediction by ZEFSAII (Michael W. Deem and Ramdas Pophale) SiO2 
 PCOD9028419
Probable space group: P -1
;
_chemical_formula_sum "Si O2"
_cell_formula_units_Z 14
_cell_length_a 21.607143
_cell_length_b 8.801051
_cell_length_c 6.523762
_cell_angle_alpha 58.056196
_cell_angle_beta 57.476904
_cell_angle_gamma 36.552590
_cell_volume 611.198131
_symmetry_space_group_name_H-M "P -1"
_symmetry_group_IT_number 2
_symmetry_cell_setting 'triclinic'
loop_
_space_group_symop_operation_xyz
x,y,z
-x,-y,-z
loop_
_atom_site_type_symbol
_atom_site_label
_atom_site_fract_x
_atom_site_fract_y
_atom_site_fract_z
Si Si1 0.452263 0.380266 0.657977
Si Si2 0.210457 0.367700 0.193415
Si Si3 0.604775 0.794179 0.759186
Si Si4 0.723083 0.335327 0.576137
Si Si5 0.086115 0.822107 0.799098
Si Si6 0.066162 0.570459 0.678221
Si Si7 0.829517 0.849295 0.897009
O O1 0.500000 0.500000 0.500000
O O2 0.347733 0.583053 0.554252
O O3 0.522688 0.096644 0.626554
O O4 0.436548 0.304441 0.961029
O O5 0.316328 0.240267 0.204789
O O6 0.114226 0.551368 0.394812
O O7 0.209100 0.181052 0.218162
O O8 0.183383 0.547436 0.929548
O O9 0.672567 0.595868 0.592053
O O10 0.848627 0.128140 0.440364
O O11 0.741034 0.158807 0.852434
O O12 0.042835 0.773394 0.731008
O O13 0.000000 0.000000 0.000000
O O14 0.956620 0.659296 0.778720
O O15 0.160283 0.287861 0.818231
#
# Coordination Sequence:
#
# PCOD9028419 Si02
#       7
#     2   2   2   2   2   2   2
#     4  11  26  49  72 105 137 177 233 298 359 424
#     4  11  21  43  64  93 134 183 224 285 346 405
#     4  11  25  45  74 102 141 179 233 291 358 423
#     4  12  24  44  68 103 135 182 230 286 353 415
#     4  11  24  38  66  99 139 181 231 278 335 412
#     4  10  22  42  61  95 138 186 236 282 339 407
#     4  10  24  37  64  98 136 181 234 282 342 410
#
# _framework density 22.905826999999999
#
# number of rings (size 3 to 8) (size 9 to 14) (size 15 to 20)
#    0.000    1.143    2.857    2.571    2.000    6.286 
#    0.000    0.000    0.000    0.000    0.000    0.000 
#    0.000    0.000    0.000    0.000    0.000    0.000 
#
# Total GULP energy -78052.364856 kJ/mol
# GULP energy per Si atom -5575.168918 kJ/mol
# Density = 2.285369 g / cm^3
# Si number density = 22.905827 Si / 1000 Ang^3
#
#
#
# Elastic Constant Matrix: (Units=GPa)
#
#
# Indices 1 2 3 4 5 6 
#
# 1 104.4409 5.9813 14.8208 0.3625 -16.9820 2.8037
# 2 5.9813 100.3837 26.7671 -10.1961 -5.1734 14.7785
# 3 14.8208 26.7671 80.5508 -9.0137 -4.1235 5.3923
# 4 0.3625 -10.1961 -9.0137 41.7353 -1.9802 3.7173
# 5 -16.9820 -5.1734 -4.1235 -1.9802 23.2472 1.2777
# 6 2.8037 14.7785 5.3923 3.7173 1.2777 20.7960
#
#
#
# Elastic Compliance Matrix: (Units=1/GPa)
#
#
# Indices 1 2 3 4 5 6 
#
# 1 0.011147 0.000506 -0.001647 0.000231 0.008092 -0.001974
# 2 0.000506 0.012613 -0.003129 0.003367 0.003405 -0.009031
# 3 -0.001647 -0.003129 0.014203 0.002517 0.000930 -0.001744
# 4 0.000231 0.003367 0.002517 0.026230 0.004039 -0.008014
# 5 0.008092 0.003405 0.000930 0.004039 0.050610 -0.007583
# 6 -0.001974 -0.009031 -0.001744 -0.008014 -0.007583 0.057121
#
#
# Mechanical properties :
#
#
# Convention : Reuss Voigt Hill
#
# Bulk Modulus (GPa) = 33.98558 42.27933 38.13245
# Shear Modulus (GPa) = 26.27805 33.00944 29.64374
#
# Velocity S-wave (km/s) = 3.39074 3.80029 3.60134
# Velocity P-wave (km/s) = 5.49534 6.14445 5.82894
#
# Compressibility (1/GPa) = 0.02942425
#
# Stress axis : x y z
#
# Youngs Moduli (GPa) = 89.70672 79.28339 70.40623
#
# Poissons Ratio (x) = -0.04012 0.11596
# Poissons Ratio (y) = -0.04539 0.22028
# Poissons Ratio (z) = 0.14775 0.24806
#
# Static dielectric constant tensor:
#      x y z
#    x 1.910840 0.055160 -0.130310 
#    y 0.055160 1.891960 -0.053380 
#    z -0.130310 -0.053380 1.953510 
# 
# From -- ./inp_files/110695.got.cif
#   From: 2010.05.17/outbox.cif.g08.bks.cpg/sg2_56_cif.got.tgz:110695.got - 2010.06.03 11:33:40.
