data_PCOD9028054
_publ_section_title
;
Structure prediction by ZEFSAII (Michael W. Deem and Ramdas Pophale) SiO2 
 PCOD9028054
Probable space group: P -1
;
_chemical_formula_sum "Si O2"
_cell_formula_units_Z 16
_cell_length_a 13.834888
_cell_length_b 14.084639
_cell_length_c 14.299471
_cell_angle_alpha 33.336307
_cell_angle_beta 145.691596
_cell_angle_gamma 119.977508
_cell_volume 680.694283
_symmetry_space_group_name_H-M "P -1"
_symmetry_group_IT_number 2
_symmetry_cell_setting 'triclinic'
loop_
_space_group_symop_operation_xyz
x,y,z
-x,-y,-z
loop_
_atom_site_type_symbol
_atom_site_label
_atom_site_fract_x
_atom_site_fract_y
_atom_site_fract_z
Si Si1 0.724670 0.775567 0.834572
Si Si2 0.278871 0.613227 0.790712
Si Si3 0.456596 0.039176 0.655479
Si Si4 0.088315 0.782621 0.191154
Si Si5 0.506269 0.319546 0.942906
Si Si6 0.056018 0.267211 0.271980
Si Si7 0.774431 0.099578 0.151568
Si Si8 0.815859 0.033335 0.029365
O O1 0.712715 0.827074 0.673090
O O2 0.500000 0.000000 0.500000
O O3 0.718603 0.577813 0.008188
O O4 0.911939 0.742152 0.074313
O O5 0.045994 0.790074 0.410945
O O6 0.500000 0.500000 0.000000
O O7 0.296015 0.736882 0.788521
O O8 0.300972 0.111935 0.559082
O O9 0.585936 0.780704 0.984728
O O10 0.632981 0.077470 0.776003
O O11 0.316868 0.577254 0.580272
O O12 0.123485 0.817589 0.083141
O O13 0.000000 0.000000 0.000000
O O14 0.588452 0.244932 0.962741
O O15 0.902118 0.206724 0.159895
O O16 0.091181 0.155569 0.495203
O O17 0.000000 0.500000 0.000000
O O18 0.715588 0.094372 0.002294
#
# Coordination Sequence:
#
# PCOD9028054 Si02
#       8
#     2   2   2   2   2   2   2   2
#     4  12  25  44  69 100 135 178 233 285 354 422
#     4  12  25  43  73 101 137 185 230 294 354 417
#     4  11  25  44  68 103 138 186 232 288 352 420
#     4  12  26  46  72 104 138 182 234 292 354 424
#     4  11  24  46  70 100 143 181 234 294 356 420
#     4  10  22  41  70  99 138 186 239 285 354 424
#     4  10  24  45  67 103 146 186 235 303 354 421
#     4  12  25  45  67 103 145 182 238 289 351 423
#
# _framework density 23.505413000000001
#
# number of rings (size 3 to 8) (size 9 to 14) (size 15 to 20)
#    0.000    0.750    0.000    9.000    5.250    2.500 
#    4.500    3.750    0.000    0.000    0.000    0.000 
#    0.000    0.000    0.000    0.000    0.000    0.000 
#
# Total GULP energy -89186.567702 kJ/mol
# GULP energy per Si atom -5574.160481 kJ/mol
# Density = 2.345191 g / cm^3
# Si number density = 23.505413 Si / 1000 Ang^3
#
#
#
# Elastic Constant Matrix: (Units=GPa)
#
#
# Indices 1 2 3 4 5 6 
#
# 1 94.3972 27.2882 9.7179 -0.4270 -6.7260 2.9765
# 2 27.2882 81.9844 17.0252 -4.4519 -11.0674 16.7576
# 3 9.7179 17.0252 77.8348 -7.2477 -14.4591 8.4659
# 4 -0.4270 -4.4519 -7.2477 43.2343 13.2562 -10.0068
# 5 -6.7260 -11.0674 -14.4591 13.2562 36.3998 -2.1221
# 6 2.9765 16.7576 8.4659 -10.0068 -2.1221 36.6995
#
#
#
# Elastic Compliance Matrix: (Units=1/GPa)
#
#
# Indices 1 2 3 4 5 6 
#
# 1 0.011817 -0.003883 -0.000581 -0.000485 0.001000 0.000874
# 2 -0.003883 0.015575 -0.001691 -0.001289 0.003434 -0.006560
# 3 -0.000581 -0.001691 0.014460 0.000237 0.004910 -0.002168
# 4 -0.000485 -0.001289 0.000237 0.027886 -0.010100 0.007593
# 5 0.001000 0.003434 0.004910 -0.010100 0.034123 -0.003563
# 6 0.000874 -0.006560 -0.002168 0.007593 -0.003563 0.032537
#
#
# Mechanical properties :
#
#
# Convention : Reuss Voigt Hill
#
# Bulk Modulus (GPa) = 33.84746 40.25323 37.05035
# Shear Modulus (GPa) = 31.53479 36.61239 34.07359
#
# Velocity S-wave (km/s) = 3.66676 3.95095 3.81150
# Velocity P-wave (km/s) = 5.68840 6.16243 5.93015
#
# Compressibility (1/GPa) = 0.02954431
#
# Stress axis : x y z
#
# Youngs Moduli (GPa) = 84.62226 64.20427 69.15623
#
# Poissons Ratio (x) = 0.24929 0.04015
# Poissons Ratio (y) = 0.32857 0.11693
# Poissons Ratio (z) = 0.04913 0.10855
#
# Static dielectric constant tensor:
#      x y z
#    x 1.877680 0.118740 -0.061440 
#    y 0.118740 2.065460 -0.231840 
#    z -0.061440 -0.231840 2.031760 
# 
# From -- ./inp_files/534165.got.cif
#   From: 2010.05.17/outbox.cif.g08.bks.cpg/sg2_268_cif.got.tgz:534165.got - 2010.06.03 11:33:40.
