data_PCOD9028458
_publ_section_title
;
Structure prediction by ZEFSAII (Michael W. Deem and Ramdas Pophale) SiO2 
 PCOD9028458
Probable space group: P -1
;
_chemical_formula_sum "Si O2"
_cell_formula_units_Z 12
_cell_length_a 10.875342
_cell_length_b 9.478783
_cell_length_c 14.119135
_cell_angle_alpha 60.070793
_cell_angle_beta 149.032650
_cell_angle_gamma 100.577196
_cell_volume 543.019097
_symmetry_space_group_name_H-M "P -1"
_symmetry_group_IT_number 2
_symmetry_cell_setting 'triclinic'
loop_
_space_group_symop_operation_xyz
x,y,z
-x,-y,-z
loop_
_atom_site_type_symbol
_atom_site_label
_atom_site_fract_x
_atom_site_fract_y
_atom_site_fract_z
Si Si1 0.283693 0.184423 0.015568
Si Si2 0.784540 0.231562 0.778072
Si Si3 0.305430 0.459720 0.245565
Si Si4 0.705754 0.565837 0.232071
Si Si5 0.672186 0.069599 0.028863
Si Si6 0.321761 0.769287 0.612094
O O1 0.300580 0.321960 0.903271
O O2 0.966741 0.289704 0.813446
O O3 0.361462 0.986612 0.080527
O O4 0.504517 0.148503 0.254835
O O5 0.485060 0.310471 0.501105
O O6 0.741224 0.340147 0.812404
O O7 0.000000 0.000000 0.000000
O O8 0.509866 0.358204 0.325142
O O9 0.000000 0.500000 0.000000
O O10 0.696732 0.375680 0.278874
O O11 0.000000 0.500000 0.500000
O O12 0.458378 0.715842 0.090437
O O13 0.004938 0.935942 0.317273
O O14 0.500000 0.000000 0.000000
#
# Coordination Sequence:
#
# PCOD9028458 Si02
#       6
#     2   2   2   2   2   2
#     4  11  23  44  65  98 133 171 222 272 329 399
#     4  11  25  46  70  95 135 183 224 280 338 395
#     4  11  24  46  70 100 135 174 233 282 324 401
#     4  11  22  43  70  95 132 177 215 269 339 394
#     4  10  22  42  62  92 137 169 216 268 325 392
#     4  12  23  43  68  98 137 171 218 277 333 395
#
# _framework density 22.098671
#
# number of rings (size 3 to 8) (size 9 to 14) (size 15 to 20)
#    0.000    1.000    6.667    0.500    2.333    3.333 
#    6.000    0.000    0.000    0.000    0.000    0.000 
#    0.000    0.000    0.000    0.000    0.000    0.000 
#
# Total GULP energy -67052.200288 kJ/mol
# GULP energy per Si atom -5587.683357 kJ/mol
# Density = 2.204837 g / cm^3
# Si number density = 22.098671 Si / 1000 Ang^3
#
#
#
# Elastic Constant Matrix: (Units=GPa)
#
#
# Indices 1 2 3 4 5 6 
#
# 1 75.4361 21.7189 32.5690 2.2777 16.2980 -24.3936
# 2 21.7189 103.9740 83.9608 7.8339 -10.2224 -15.9780
# 3 32.5690 83.9608 175.3890 9.3541 21.2410 -10.2899
# 4 2.2777 7.8339 9.3541 48.0856 -3.4265 0.4478
# 5 16.2980 -10.2224 21.2410 -3.4265 32.6257 -4.3891
# 6 -24.3936 -15.9780 -10.2899 0.4478 -4.3891 30.2934
#
#
#
# Elastic Compliance Matrix: (Units=1/GPa)
#
#
# Indices 1 2 3 4 5 6 
#
# 1 0.020708 -0.002335 -0.000778 -0.001208 -0.008824 0.013919
# 2 -0.002335 0.022980 -0.012167 -0.000104 0.017439 0.008635
# 3 -0.000778 -0.012167 0.013014 -0.001372 -0.012637 -0.004434
# 4 -0.001208 -0.000104 -0.001372 0.021401 0.003537 -0.001297
# 5 -0.008824 0.017439 -0.012637 0.003537 0.049789 0.004961
# 6 0.013919 0.008635 -0.004434 -0.001297 0.004961 0.048005
#
#
# Mechanical properties :
#
#
# Convention : Reuss Voigt Hill
#
# Bulk Modulus (GPa) = 38.25243 70.14406 54.19825
# Shear Modulus (GPa) = 23.23723 36.63763 29.93743
#
# Velocity S-wave (km/s) = 3.24624 4.07616 3.68464
# Velocity P-wave (km/s) = 5.60340 7.34600 6.53306
#
# Compressibility (1/GPa) = 0.02614213
#
# Stress axis : x y z
#
# Youngs Moduli (GPa) = 48.29004 43.51595 76.84031
#
# Poissons Ratio (x) = 0.10162 0.05977
# Poissons Ratio (y) = 0.11277 0.93491
# Poissons Ratio (z) = 0.03756 0.52946
#
# Static dielectric constant tensor:
#      x y z
#    x 1.871230 0.036300 -0.035550 
#    y 0.036300 1.878940 -0.017420 
#    z -0.035550 -0.017420 1.771390 
# 
# From -- ./inp_files/270685.got.cif
#   From: 2010.05.17/outbox.cif.g08.bks.cpg/sg2_136_cif.got.tgz:270685.got - 2010.06.03 11:33:40.
