data_PCOD9028606
_publ_section_title
;
Structure prediction by ZEFSAII (Michael W. Deem and Ramdas Pophale) SiO2 
 PCOD9028606
Probable space group: P -1
;
_chemical_formula_sum "Si O2"
_cell_formula_units_Z 16
_cell_length_a 8.989455
_cell_length_b 9.651302
_cell_length_c 18.112411
_cell_angle_alpha 24.533307
_cell_angle_beta 89.479499
_cell_angle_gamma 91.673197
_cell_volume 649.805074
_symmetry_space_group_name_H-M "P -1"
_symmetry_group_IT_number 2
_symmetry_cell_setting 'triclinic'
loop_
_space_group_symop_operation_xyz
x,y,z
-x,-y,-z
loop_
_atom_site_type_symbol
_atom_site_label
_atom_site_fract_x
_atom_site_fract_y
_atom_site_fract_z
Si Si1 0.869150 0.355236 0.964901
Si Si2 0.681834 0.584220 0.628113
Si Si3 0.632462 0.365226 0.459434
Si Si4 0.841584 0.980846 0.551688
Si Si5 0.510776 0.377552 0.144515
Si Si6 0.810654 0.674078 0.967595
Si Si7 0.826883 0.444182 0.551726
Si Si8 0.645013 0.160531 0.962048
O O1 0.823535 0.451114 0.001603
O O2 0.770588 0.054542 0.069170
O O3 0.859015 0.688990 0.753734
O O4 0.038194 0.283995 0.007898
O O5 0.509786 0.491711 0.648749
O O6 0.790245 0.631313 0.535741
O O7 0.732761 0.300582 0.820559
O O8 0.710312 0.892271 0.534520
O O9 0.773923 0.280128 0.450762
O O10 0.708136 0.546975 0.441960
O O11 0.549902 0.005578 0.660505
O O12 0.000000 0.000000 0.500000
O O13 0.423168 0.581330 0.105400
O O14 0.500000 0.500000 0.000000
O O15 0.683098 0.479696 0.110686
O O16 0.784650 0.049007 0.759872
O O17 0.000000 0.500000 0.500000
O O18 0.500000 0.000000 0.000000
#
# Coordination Sequence:
#
# PCOD9028606 Si02
#       8
#     2   2   2   2   2   2   2   2
#     4  10  22  42  64 100 123 173 221 270 329 393
#     4  11  26  41  64  97 133 171 220 271 332 388
#     4  12  24  44  67  97 132 175 230 266 325 403
#     4  11  22  42  65  95 133 166 213 270 326 394
#     4  12  21  42  68  94 127 172 223 273 317 390
#     4  11  23  40  70  94 131 168 227 270 326 394
#     4  12  25  45  63  98 136 176 218 275 335 395
#     4  11  23  42  65  94 137 168 214 275 336 391
#
# _framework density 24.622769000000002
#
# number of rings (size 3 to 8) (size 9 to 14) (size 15 to 20)
#    0.000    0.750    6.250    2.250    1.750    2.000 
#    0.000    5.625    0.000    0.000    0.000    0.000 
#    0.000    0.000    0.000    0.000    0.000    0.000 
#
# Total GULP energy -89307.476308 kJ/mol
# GULP energy per Si atom -5581.717269 kJ/mol
# Density = 2.456673 g / cm^3
# Si number density = 24.622769 Si / 1000 Ang^3
#
#
#
# Elastic Constant Matrix: (Units=GPa)
#
#
# Indices 1 2 3 4 5 6 
#
# 1 137.5118 20.0667 30.2185 26.7305 -7.4986 22.8833
# 2 20.0667 102.2490 25.3185 30.7150 6.8446 25.2491
# 3 30.2185 25.3185 77.8758 17.1000 1.8382 -2.1689
# 4 26.7305 30.7150 17.1000 32.2632 -0.1076 -1.2335
# 5 -7.4986 6.8446 1.8382 -0.1076 42.1786 12.7438
# 6 22.8833 25.2491 -2.1689 -1.2335 12.7438 53.2253
#
#
#
# Elastic Compliance Matrix: (Units=1/GPa)
#
#
# Indices 1 2 3 4 5 6 
#
# 1 0.011208 0.003744 -0.003388 -0.011345 0.003899 -0.007930
# 2 0.003744 0.018350 -0.003562 -0.019108 0.001173 -0.011184
# 3 -0.003388 -0.003562 0.015939 -0.002094 -0.002001 0.004227
# 4 -0.011345 -0.019108 -0.002094 0.060299 -0.003536 0.016101
# 5 0.003899 0.001173 -0.002001 -0.003536 0.026965 -0.008853
# 6 -0.007930 -0.011184 0.004227 0.016101 -0.008853 0.030168
#
#
# Mechanical properties :
#
#
# Convention : Reuss Voigt Hill
#
# Bulk Modulus (GPa) = 25.58570 52.09379 38.83974
# Shear Modulus (GPa) = 27.41706 41.66894 34.54300
#
# Velocity S-wave (km/s) = 3.34051 4.11821 3.74958
# Velocity P-wave (km/s) = 5.02915 6.61933 5.87826
#
# Compressibility (1/GPa) = 0.03908434
#
# Stress axis : x y z
#
# Youngs Moduli (GPa) = 89.22405 54.49520 62.74045
#
# Poissons Ratio (x) = -0.20405 0.21257
# Poissons Ratio (y) = -0.33409 0.22351
# Poissons Ratio (z) = 0.30230 0.19414
#
# Static dielectric constant tensor:
#      x y z
#    x 1.735860 0.138000 -0.142080 
#    y 0.138000 1.914860 -0.018510 
#    z -0.142080 -0.018510 2.007170 
# 
# From -- ./inp_files/494276.got.cif
#   From: 2010.05.17/outbox.cif.g08.bks.cpg/sg2_248_cif.got.tgz:494276.got - 2010.06.03 11:33:40.
