data_PCOD9028469
_publ_section_title
;
Structure prediction by ZEFSAII (Michael W. Deem and Ramdas Pophale) SiO2 
 PCOD9028469
Probable space group: P -1
;
_chemical_formula_sum "Si O2"
_cell_formula_units_Z 16
_cell_length_a 13.763083
_cell_length_b 20.207279
_cell_length_c 11.746891
_cell_angle_alpha 28.936030
_cell_angle_beta 42.180323
_cell_angle_gamma 24.566266
_cell_volume 632.201584
_symmetry_space_group_name_H-M "P -1"
_symmetry_group_IT_number 2
_symmetry_cell_setting 'triclinic'
loop_
_space_group_symop_operation_xyz
x,y,z
-x,-y,-z
loop_
_atom_site_type_symbol
_atom_site_label
_atom_site_fract_x
_atom_site_fract_y
_atom_site_fract_z
Si Si1 0.485305 0.852607 0.772354
Si Si2 0.118321 0.884710 0.196358
Si Si3 0.738298 0.995832 0.720749
Si Si4 0.313324 0.467650 0.751616
Si Si5 0.479195 0.758593 0.675049
Si Si6 0.813386 0.769939 0.363021
Si Si7 0.734640 0.673740 0.217307
Si Si8 0.930450 0.238076 0.014303
O O1 0.415223 0.819348 0.772172
O O2 0.500000 0.000000 0.500000
O O3 0.303287 0.015440 0.790202
O O4 0.720556 0.599982 0.003660
O O5 0.125445 0.726962 0.484855
O O6 0.414796 0.678729 0.241462
O O7 0.980879 0.088475 0.098289
O O8 0.000000 0.000000 0.000000
O O9 0.726201 0.079841 0.484743
O O10 0.485200 0.205637 0.691969
O O11 0.753094 0.820953 0.959593
O O12 0.948187 0.889983 0.779279
O O13 0.311733 0.365452 0.801775
O O14 0.627056 0.788439 0.479587
O O15 0.662461 0.497010 0.880931
O O16 0.918194 0.745550 0.190797
O O17 0.024297 0.557756 0.580993
#
# Coordination Sequence:
#
# PCOD9028469 Si02
#       8
#     2   2   2   2   2   2   2   2
#     4  10  22  42  62  93 141 174 208 261 323 400
#     4  11  25  42  69  97 123 167 228 280 310 368
#     4  11  21  33  59  94 132 158 202 263 337 379
#     4  11  23  42  65  95 131 170 219 266 324 371
#     4  11  23  37  57  92 135 169 202 258 326 388
#     4  11  19  36  62  91 130 173 209 259 319 382
#     4  11  19  34  62  96 126 164 203 273 322 382
#     4  12  21  40  63  95 123 164 220 268 324 376
#
# _framework density 25.308384
#
# number of rings (size 3 to 8) (size 9 to 14) (size 15 to 20)
#    0.000    1.000    5.000    4.125    0.000    0.000 
#    2.250    2.500    0.000    1.500    0.000    0.000 
#    0.000    0.000    0.000    0.000    0.000    0.000 
#
# Total GULP energy -89569.599522 kJ/mol
# GULP energy per Si atom -5598.099970 kJ/mol
# Density = 2.525078 g / cm^3
# Si number density = 25.308384 Si / 1000 Ang^3
#
#
#
# Elastic Constant Matrix: (Units=GPa)
#
#
# Indices 1 2 3 4 5 6 
#
# 1 170.6219 42.9694 79.6585 -5.4911 34.9236 30.1419
# 2 42.9694 75.1189 51.5961 4.0932 2.1714 27.9501
# 3 79.6585 51.5961 173.9660 -15.7944 51.0800 19.1057
# 4 -5.4911 4.0932 -15.7944 29.8813 3.0252 -7.3255
# 5 34.9236 2.1714 51.0800 3.0252 54.1916 4.3963
# 6 30.1419 27.9501 19.1057 -7.3255 4.3963 41.7674
#
#
#
# Elastic Compliance Matrix: (Units=1/GPa)
#
#
# Indices 1 2 3 4 5 6 
#
# 1 0.008630 -0.002379 -0.001796 0.000497 -0.003529 -0.003355
# 2 -0.002379 0.028690 -0.010720 -0.015392 0.012695 -0.016614
# 3 -0.001796 -0.010720 0.013831 0.011037 -0.012504 0.005395
# 4 0.000497 -0.015392 0.011037 0.046460 -0.013877 0.014501
# 5 -0.003529 0.012695 -0.012504 -0.013877 0.033279 -0.006166
# 6 -0.003355 -0.016614 0.005395 0.014501 -0.006166 0.038206
#
#
# Mechanical properties :
#
#
# Convention : Reuss Voigt Hill
#
# Bulk Modulus (GPa) = 46.81726 85.35055 66.08390
# Shear Modulus (GPa) = 24.27128 41.53358 32.90243
#
# Velocity S-wave (km/s) = 3.10017 4.05544 3.60955
# Velocity P-wave (km/s) = 5.59943 7.46500 6.59848
#
# Compressibility (1/GPa) = 0.02135964
#
# Stress axis : x y z
#
# Youngs Moduli (GPa) = 115.87936 34.85591 72.30144
#
# Poissons Ratio (x) = 0.08293 0.12987
# Poissons Ratio (y) = 0.27571 0.77506
# Poissons Ratio (z) = 0.20814 0.37365
#
# Static dielectric constant tensor:
#      x y z
#    x 1.995960 -0.078780 -0.041010 
#    y -0.078780 2.079360 0.070330 
#    z -0.041010 0.070330 2.099230 
# 
# From -- ./inp_files/457429.got.cif
#   From: 2010.05.17/outbox.cif.g08.bks.cpg/sg2_229_cif.got.tgz:457429.got - 2010.06.03 11:33:40.
