data_PCOD9028020
_publ_section_title
;
Structure prediction by ZEFSAII (Michael W. Deem and Ramdas Pophale) SiO2 
 PCOD9028020
Probable space group: P -1
;
_chemical_formula_sum "Si O2"
_cell_formula_units_Z 16
_cell_length_a 12.266557
_cell_length_b 5.500453
_cell_length_c 18.305565
_cell_angle_alpha 120.376457
_cell_angle_beta 43.957701
_cell_angle_gamma 94.556478
_cell_volume 650.779985
_symmetry_space_group_name_H-M "P -1"
_symmetry_group_IT_number 2
_symmetry_cell_setting 'triclinic'
loop_
_space_group_symop_operation_xyz
x,y,z
-x,-y,-z
loop_
_atom_site_type_symbol
_atom_site_label
_atom_site_fract_x
_atom_site_fract_y
_atom_site_fract_z
Si Si1 0.053750 0.622291 0.420120
Si Si2 0.559082 0.720567 0.766298
Si Si3 0.674615 0.993417 0.950099
Si Si4 0.667870 0.377390 0.344567
Si Si5 0.706528 0.797909 0.134520
Si Si6 0.879737 0.362706 0.853648
Si Si7 0.146987 0.363875 0.625612
Si Si8 0.503925 0.759557 0.352465
O O1 0.265537 0.397635 0.287842
O O2 0.000000 0.500000 0.500000
O O3 0.961579 0.567307 0.385911
O O4 0.000000 0.000000 0.500000
O O5 0.596173 0.446552 0.648114
O O6 0.469983 0.040757 0.808925
O O7 0.406060 0.776711 0.906177
O O8 0.782077 0.644373 0.882595
O O9 0.783147 0.141117 0.875551
O O10 0.500000 0.000000 0.000000
O O11 0.500000 0.500000 0.500000
O O12 0.841046 0.337730 0.298462
O O13 0.600494 0.681057 0.370209
O O14 0.715981 0.088238 0.218983
O O15 0.661225 0.644617 0.201089
O O16 0.858684 0.551624 0.969380
O O17 0.074406 0.207859 0.698648
O O18 0.350253 0.115733 0.469957
#
# Coordination Sequence:
#
# PCOD9028020 Si02
#       8
#     2   2   2   2   2   2   2   2
#     4  12  27  43  67 104 146 184 225 294 368 413
#     4  10  22  41  70  97 136 185 239 279 348 434
#     4  11  23  44  70  98 140 193 241 283 344 436
#     4  11  25  41  74 105 135 190 247 302 353 426
#     4  10  22  45  73  99 142 189 250 282 359 432
#     4  11  26  45  70 105 146 187 233 301 363 419
#     4  12  26  45  69 109 147 181 243 304 363 423
#     4  11  21  44  71  98 133 188 240 290 352 430
#
# _framework density 24.585882000000002
#
# number of rings (size 3 to 8) (size 9 to 14) (size 15 to 20)
#    0.000    1.000    3.750    2.250    1.750    3.500 
#    0.000    0.625    0.000    0.000    0.000    0.000 
#    0.000    0.000    0.000    0.000    0.000    0.000 
#
# Total GULP energy -89227.075577 kJ/mol
# GULP energy per Si atom -5576.692224 kJ/mol
# Density = 2.452992 g / cm^3
# Si number density = 24.585882 Si / 1000 Ang^3
#
#
#
# Elastic Constant Matrix: (Units=GPa)
#
#
# Indices 1 2 3 4 5 6 
#
# 1 157.7293 49.4600 17.7007 -4.2290 21.0182 -2.3956
# 2 49.4600 128.1333 32.4024 -25.3739 15.9199 3.8335
# 3 17.7007 32.4024 85.6842 -19.5975 22.7362 -1.8964
# 4 -4.2290 -25.3739 -19.5975 47.0033 1.0395 11.8757
# 5 21.0182 15.9199 22.7362 1.0395 31.6228 -4.1309
# 6 -2.3956 3.8335 -1.8964 11.8757 -4.1309 35.7373
#
#
#
# Elastic Compliance Matrix: (Units=1/GPa)
#
#
# Indices 1 2 3 4 5 6 
#
# 1 0.007660 -0.002719 0.000316 -0.000718 -0.003845 0.000616
# 2 -0.002719 0.010960 -0.001341 0.006169 -0.003456 -0.003879
# 3 0.000316 -0.001341 0.017028 0.007391 -0.012389 -0.002819
# 4 -0.000718 0.006169 0.007391 0.030830 -0.010494 -0.011776
# 5 -0.003845 -0.003456 -0.012389 -0.010494 0.046253 0.008289
# 6 0.000616 -0.003879 -0.002819 -0.011776 0.008289 0.033161
#
#
# Mechanical properties :
#
#
# Convention : Reuss Voigt Hill
#
# Bulk Modulus (GPa) = 35.51262 63.40812 49.46037
# Shear Modulus (GPa) = 30.71880 41.00493 35.86187
#
# Velocity S-wave (km/s) = 3.53859 4.08833 3.82335
# Velocity P-wave (km/s) = 5.58311 6.93775 6.29697
#
# Compressibility (1/GPa) = 0.02815900
#
# Stress axis : x y z
#
# Youngs Moduli (GPa) = 130.55242 91.23889 58.72723
#
# Poissons Ratio (x) = 0.24811 -0.01854
# Poissons Ratio (y) = 0.35502 0.07874
# Poissons Ratio (z) = -0.04122 0.12233
#
# Static dielectric constant tensor:
#      x y z
#    x 1.917570 -0.016250 0.043240 
#    y -0.016250 2.031680 0.006740 
#    z 0.043240 0.006740 2.075820 
# 
# From -- ./inp_files/564525.got.cif
#   From: 2010.05.17/outbox.cif.g08.bks.cpg/sg2_283_cif.got.tgz:564525.got - 2010.06.03 11:33:40.
