data_PCOD9028944
_publ_section_title
;
Structure prediction by ZEFSAII (Michael W. Deem and Ramdas Pophale) SiO2 
 PCOD9028944
Probable space group: P -1
;
_chemical_formula_sum "Si O2"
_cell_formula_units_Z 16
_cell_length_a 17.965373
_cell_length_b 9.225740
_cell_length_c 12.206450
_cell_angle_alpha 53.111010
_cell_angle_beta 149.196308
_cell_angle_gamma 118.288519
_cell_volume 824.331234
_symmetry_space_group_name_H-M "P -1"
_symmetry_group_IT_number 2
_symmetry_cell_setting 'triclinic'
loop_
_space_group_symop_operation_xyz
x,y,z
-x,-y,-z
loop_
_atom_site_type_symbol
_atom_site_label
_atom_site_fract_x
_atom_site_fract_y
_atom_site_fract_z
Si Si1 0.435017 0.821172 0.032621
Si Si2 0.884924 0.861562 0.949761
Si Si3 0.239849 0.485236 0.126929
Si Si4 0.405845 0.878596 0.513543
Si Si5 0.563902 0.459362 0.449599
Si Si6 0.116755 0.835158 0.683851
Si Si7 0.388211 0.676270 0.798530
Si Si8 0.937142 0.322234 0.548488
O O1 0.544608 0.673607 0.300176
O O2 0.285638 0.876422 0.883906
O O3 0.402518 0.726810 0.920193
O O4 0.500000 0.000000 0.000000
O O5 0.843732 0.697195 0.892690
O O6 0.743153 0.996068 0.729027
O O7 0.942325 0.768068 0.176465
O O8 0.000000 0.000000 0.000000
O O9 0.395759 0.431863 0.284940
O O10 0.307509 0.563714 0.287327
O O11 0.133329 0.643306 0.859543
O O12 0.399731 0.682932 0.536748
O O13 0.434064 0.826330 0.701201
O O14 0.500000 0.000000 0.500000
O O15 0.085204 0.797163 0.533650
O O16 0.000000 0.000000 0.500000
O O17 0.215284 0.646813 0.589426
O O18 0.500000 0.500000 0.000000
O O19 0.000000 0.500000 0.500000
#
# Coordination Sequence:
#
# PCOD9028944 Si02
#       8
#     2   2   2   2   2   2   2   2
#     4  10  23  41  65  92 130 169 213 275 331 381
#     4  12  25  44  65  97 137 175 219 275 340 396
#     4  10  22  42  66  92 133 171 220 274 329 390
#     4  12  25  41  69  99 131 175 227 274 328 400
#     4  10  22  42  65  96 128 172 222 273 326 392
#     4  10  23  42  63  94 127 172 221 263 327 400
#     4  11  24  43  67  97 131 169 227 276 322 396
#     4  11  24  43  68  92 133 177 217 274 334 389
#
# _framework density 19.409673999999999
#
# number of rings (size 3 to 8) (size 9 to 14) (size 15 to 20)
#    0.000    1.250    5.000    0.000    5.250    2.000 
#    2.250    0.625    0.000    0.000    0.000    0.000 
#    0.000    0.000    0.000    0.000    0.000    0.000 
#
# Total GULP energy -89100.974975 kJ/mol
# GULP energy per Si atom -5568.810936 kJ/mol
# Density = 1.936550 g / cm^3
# Si number density = 19.409674 Si / 1000 Ang^3
#
#
#
# Elastic Constant Matrix: (Units=GPa)
#
#
# Indices 1 2 3 4 5 6 
#
# 1 70.7532 14.5506 22.2154 -16.6180 10.6476 6.2191
# 2 14.5506 73.8016 12.1986 -16.5369 19.3354 14.2359
# 3 22.2154 12.1986 108.8641 -24.2813 -0.5778 -5.1561
# 4 -16.6180 -16.5369 -24.2813 27.0147 -6.8929 -6.3811
# 5 10.6476 19.3354 -0.5778 -6.8929 36.2269 -7.1478
# 6 6.2191 14.2359 -5.1561 -6.3811 -7.1478 42.7705
#
#
#
# Elastic Compliance Matrix: (Units=1/GPa)
#
#
# Indices 1 2 3 4 5 6 
#
# 1 0.017312 0.000149 -0.002089 0.007177 -0.004323 -0.002471
# 2 0.000149 0.019379 -0.001178 0.006421 -0.010651 -0.007436
# 3 -0.002089 -0.001178 0.012572 0.011571 0.004573 0.004702
# 4 0.007177 0.006421 0.011571 0.059703 0.007666 0.008402
# 5 -0.004323 -0.010651 0.004573 0.007666 0.038519 0.012306
# 6 -0.002471 -0.007436 0.004702 0.008402 0.012306 0.030092
#
#
# Mechanical properties :
#
#
# Convention : Reuss Voigt Hill
#
# Bulk Modulus (GPa) = 23.24113 39.03867 31.13990
# Shear Modulus (GPa) = 25.23277 34.83269 30.03273
#
# Velocity S-wave (km/s) = 3.60948 4.24087 3.93785
# Velocity P-wave (km/s) = 5.41951 6.64354 6.06250
#
# Compressibility (1/GPa) = 0.04302717
#
# Stress axis : x y z
#
# Youngs Moduli (GPa) = 57.76278 51.60264 79.54282
#
# Poissons Ratio (x) = -0.00771 0.16615
# Poissons Ratio (y) = -0.00863 0.09374
# Poissons Ratio (z) = 0.12065 0.06081
#
# Static dielectric constant tensor:
#      x y z
#    x 1.548370 -0.078010 0.072350 
#    y -0.078010 1.597960 0.065880 
#    z 0.072350 0.065880 1.585900 
# 
# From -- ./inp_files/243967.got.cif
#   From: 2010.05.17/outbox.cif.g08.bks.cpg/sg2_122_cif.got.tgz:243967.got - 2010.06.03 11:33:40.
