data_PCOD9028087
_publ_section_title
;
Structure prediction by ZEFSAII (Michael W. Deem and Ramdas Pophale) SiO2 
 PCOD9028087
Probable space group: P -1
;
_chemical_formula_sum "Si O2"
_cell_formula_units_Z 16
_cell_length_a 21.115389
_cell_length_b 8.200698
_cell_length_c 6.355578
_cell_angle_alpha 74.698142
_cell_angle_beta 49.735703
_cell_angle_gamma 49.805927
_cell_volume 618.925862
_symmetry_space_group_name_H-M "P -1"
_symmetry_group_IT_number 2
_symmetry_cell_setting 'triclinic'
loop_
_space_group_symop_operation_xyz
x,y,z
-x,-y,-z
loop_
_atom_site_type_symbol
_atom_site_label
_atom_site_fract_x
_atom_site_fract_y
_atom_site_fract_z
Si Si1 0.552033 0.266543 0.355617
Si Si2 0.142764 0.673821 0.584378
Si Si3 0.267093 0.947121 0.664851
Si Si4 0.238949 0.244933 0.273489
Si Si5 0.505438 0.124274 0.144217
Si Si6 0.338834 0.638492 0.248367
Si Si7 0.945735 0.808581 0.725520
Si Si8 0.924136 0.463753 0.843761
O O1 0.500000 0.500000 0.500000
O O2 0.480335 0.212510 0.420214
O O3 0.639590 0.077673 0.397798
O O4 0.619275 0.270695 0.024152
O O5 0.212322 0.457089 0.364916
O O6 0.217479 0.737797 0.422473
O O7 0.025538 0.827448 0.674481
O O8 0.125809 0.602820 0.866303
O O9 0.212065 0.136582 0.541210
O O10 0.327998 0.723413 0.478400
O O11 0.175881 0.999495 0.001397
O O12 0.168999 0.340947 0.178888
O O13 0.365797 0.059417 0.033285
O O14 0.428809 0.374242 0.130731
O O15 0.500000 0.000000 0.000000
O O16 0.967624 0.580285 0.813724
O O17 0.985352 0.748639 0.419671
#
# Coordination Sequence:
#
# PCOD9028087 Si02
#       8
#     2   2   2   2   2   2   2   2
#     4  12  26  49  77 104 146 192 236 294 369 435
#     4  11  24  44  66 105 144 182 241 302 352 421
#     4  12  25  44  74 104 141 194 239 287 366 431
#     4  11  23  42  71 104 139 180 242 296 358 428
#     4  12  24  48  74 107 142 182 238 304 354 429
#     4  12  27  47  71 102 150 190 236 295 364 436
#     4  10  23  39  70 104 138 185 243 296 358 422
#     4  10  22  41  71 103 140 183 239 303 358 415
#
# _framework density 25.851237999999999
#
# number of rings (size 3 to 8) (size 9 to 14) (size 15 to 20)
#    0.000    0.750    5.000    2.250    3.500    2.500 
#    0.000    4.375    0.000    0.000    0.000    0.000 
#    0.000    0.000    0.000    0.000    0.000    0.000 
#
# Total GULP energy -89306.408412 kJ/mol
# GULP energy per Si atom -5581.650526 kJ/mol
# Density = 2.579240 g / cm^3
# Si number density = 25.851238 Si / 1000 Ang^3
#
#
#
# Elastic Constant Matrix: (Units=GPa)
#
#
# Indices 1 2 3 4 5 6 
#
# 1 149.8157 41.6055 33.1445 -3.1975 26.8118 3.1147
# 2 41.6055 97.2842 22.4607 4.5664 18.4032 -6.3709
# 3 33.1445 22.4607 87.7602 17.7277 13.1234 0.4433
# 4 -3.1975 4.5664 17.7277 36.0389 5.5472 7.6466
# 5 26.8118 18.4032 13.1234 5.5472 37.9094 7.4587
# 6 3.1147 -6.3709 0.4433 7.6466 7.4587 43.4085
#
#
#
# Elastic Compliance Matrix: (Units=1/GPa)
#
#
# Indices 1 2 3 4 5 6 
#
# 1 0.008852 -0.002534 -0.002692 0.003281 -0.004422 -0.000798
# 2 -0.002534 0.012767 -0.001456 -0.001098 -0.004333 0.003008
# 3 -0.002692 -0.001456 0.014477 -0.007220 -0.001616 0.001381
# 4 0.003281 -0.001098 -0.007220 0.033406 -0.003058 -0.005682
# 5 -0.004422 -0.004333 -0.001616 -0.003058 0.033709 -0.005556
# 6 -0.000798 0.003008 0.001381 -0.005682 -0.005556 0.025477
#
#
# Mechanical properties :
#
#
# Convention : Reuss Voigt Hill
#
# Bulk Modulus (GPa) = 43.99036 58.80904 51.39970
# Shear Modulus (GPa) = 33.41559 39.31465 36.36512
#
# Velocity S-wave (km/s) = 3.59919 3.90398 3.75468
# Velocity P-wave (km/s) = 5.85883 6.56657 6.22277
#
# Compressibility (1/GPa) = 0.02273225
#
# Stress axis : x y z
#
# Youngs Moduli (GPa) = 112.96731 78.32552 69.07397
#
# Poissons Ratio (x) = 0.19848 0.18595
# Poissons Ratio (y) = 0.28626 0.10058
# Poissons Ratio (z) = 0.30412 0.11405
#
# Static dielectric constant tensor:
#      x y z
#    x 2.146220 0.013970 0.015200 
#    y 0.013970 2.036810 0.007990 
#    z 0.015200 0.007990 2.066060 
# 
# From -- ./inp_files/116904.got.cif
#   From: 2010.05.17/outbox.cif.g08.bks.cpg/sg2_59_cif.got.tgz:116904.got - 2010.06.03 11:33:40.
