data_PCOD9028810
_publ_section_title
;
Structure prediction by ZEFSAII (Michael W. Deem and Ramdas Pophale) SiO2 
 PCOD9028810
Probable space group: P -1
;
_chemical_formula_sum "Si O2"
_cell_formula_units_Z 16
_cell_length_a 14.390268
_cell_length_b 9.674256
_cell_length_c 5.280147
_cell_angle_alpha 91.232541
_cell_angle_beta 101.311514
_cell_angle_gamma 106.564320
_cell_volume 688.536410
_symmetry_space_group_name_H-M "P -1"
_symmetry_group_IT_number 2
_symmetry_cell_setting 'triclinic'
loop_
_space_group_symop_operation_xyz
x,y,z
-x,-y,-z
loop_
_atom_site_type_symbol
_atom_site_label
_atom_site_fract_x
_atom_site_fract_y
_atom_site_fract_z
Si Si1 0.382595 0.617291 0.452616
Si Si2 0.189527 0.398310 0.558924
Si Si3 0.750931 0.864757 0.552990
Si Si4 0.404407 0.124975 0.884659
Si Si5 0.037834 0.936036 0.262085
Si Si6 0.403177 0.360999 0.191023
Si Si7 0.413567 0.909817 0.266796
Si Si8 0.935504 0.608250 0.028658
O O1 0.294820 0.516033 0.567110
O O2 0.390733 0.517450 0.213183
O O3 0.492972 0.647787 0.632170
O O4 0.357628 0.762951 0.370366
O O5 0.204698 0.240035 0.603153
O O6 0.141178 0.445532 0.782679
O O7 0.122131 0.380672 0.265354
O O8 0.671365 0.930931 0.382536
O O9 0.689779 0.749296 0.720287
O O10 0.843806 0.996327 0.682852
O O11 0.518809 0.139154 0.909231
O O12 0.401700 0.289039 0.917841
O O13 0.367266 0.016985 0.095486
O O14 0.000836 0.763659 0.184233
O O15 0.000000 0.000000 0.500000
O O16 0.000000 0.000000 0.000000
O O17 0.500000 0.000000 0.500000
O O18 0.000000 0.500000 0.000000
#
# Coordination Sequence:
#
# PCOD9028810 Si02
#       8
#     2   2   2   2   2   2   2   2
#     4  10  22  43  67 104 147 192 238 298 366 444
#     4  11  26  46  80 108 151 195 251 314 376 454
#     4  11  23  43  73 111 141 184 260 304 370 440
#     4  11  23  39  72  96 144 199 236 313 352 438
#     4  12  25  47  80 110 142 194 250 317 388 439
#     4  10  22  42  65 104 144 184 244 296 354 436
#     4  11  22  45  60  97 152 194 240 294 363 427
#     4  12  26  54  75 112 153 193 249 325 391 454
#
# _framework density 23.237697000000001
#
# number of rings (size 3 to 8) (size 9 to 14) (size 15 to 20)
#    0.000    1.000    5.000    0.375    5.250    1.500 
#    4.500    0.000    0.000    0.000    0.000    0.000 
#    0.000    0.000    0.000    0.000    0.000    0.000 
#
# Total GULP energy -89348.548943 kJ/mol
# GULP energy per Si atom -5584.284309 kJ/mol
# Density = 2.318481 g / cm^3
# Si number density = 23.237697 Si / 1000 Ang^3
#
#
#
# Elastic Constant Matrix: (Units=GPa)
#
#
# Indices 1 2 3 4 5 6 
#
# 1 104.0231 36.6683 24.7852 8.4015 -4.8945 10.1021
# 2 36.6683 126.5870 14.4150 3.7960 -10.6691 6.1322
# 3 24.7852 14.4150 95.4434 -0.0773 -1.5246 0.0513
# 4 8.4015 3.7960 -0.0773 29.9887 -5.9599 -3.1638
# 5 -4.8945 -10.6691 -1.5246 -5.9599 40.4785 6.0627
# 6 10.1021 6.1322 0.0513 -3.1638 6.0627 48.7095
#
#
#
# Elastic Compliance Matrix: (Units=1/GPa)
#
#
# Indices 1 2 3 4 5 6 
#
# 1 0.011741 -0.002859 -0.002611 -0.003088 0.000462 -0.002330
# 2 -0.002859 0.009013 -0.000584 -0.000003 0.002128 -0.000806
# 3 -0.002611 -0.000584 0.011244 0.000902 -0.000013 0.000663
# 4 -0.003088 -0.000003 0.000902 0.035361 0.004510 0.002375
# 5 0.000462 0.002128 -0.000013 0.004510 0.026489 -0.003368
# 6 -0.002330 -0.000806 0.000663 0.002375 -0.003368 0.021687
#
#
# Mechanical properties :
#
#
# Convention : Reuss Voigt Hill
#
# Bulk Modulus (GPa) = 50.27990 53.08783 51.68387
# Shear Modulus (GPa) = 37.23750 40.51435 38.87592
#
# Velocity S-wave (km/s) = 4.00742 4.18002 4.09463
# Velocity P-wave (km/s) = 6.56481 6.79647 6.68164
#
# Compressibility (1/GPa) = 0.01988866
#
# Stress axis : x y z
#
# Youngs Moduli (GPa) = 85.17415 110.95115 88.93746
#
# Poissons Ratio (x) = 0.31723 0.23221
# Poissons Ratio (y) = 0.24353 0.05197
# Poissons Ratio (z) = 0.22238 0.06483
#
# Static dielectric constant tensor:
#      x y z
#    x 1.958860 -0.015980 -0.066640 
#    y -0.015980 1.937700 0.015100 
#    z -0.066640 0.015100 1.979360 
# 
# From -- ./inp_files/90517.got.cif
#   From: 2010.05.17/outbox.cif.g08.bks.cpg/sg2_46_cif.got.tgz:90517.got - 2010.06.03 11:33:40.
