data_PCOD9028591
_publ_section_title
;
Structure prediction by ZEFSAII (Michael W. Deem and Ramdas Pophale) SiO2 
 PCOD9028591
Probable space group: P -1
;
_chemical_formula_sum "Si O2"
_cell_formula_units_Z 16
_cell_length_a 8.738771
_cell_length_b 5.501206
_cell_length_c 18.891635
_cell_angle_alpha 88.069917
_cell_angle_beta 54.319990
_cell_angle_gamma 84.485044
_cell_volume 734.016877
_symmetry_space_group_name_H-M "P -1"
_symmetry_group_IT_number 2
_symmetry_cell_setting 'triclinic'
loop_
_space_group_symop_operation_xyz
x,y,z
-x,-y,-z
loop_
_atom_site_type_symbol
_atom_site_label
_atom_site_fract_x
_atom_site_fract_y
_atom_site_fract_z
Si Si1 0.333476 0.695182 0.765586
Si Si2 0.968616 0.544326 0.629621
Si Si3 0.364836 0.655558 0.226235
Si Si4 0.323094 0.732632 0.609497
Si Si5 0.021773 0.243037 0.038873
Si Si6 0.729652 0.847787 0.479842
Si Si7 0.550951 0.743082 0.026879
Si Si8 0.310118 0.032608 0.359957
O O1 0.461674 0.499378 0.779692
O O2 0.289156 0.631766 0.697724
O O3 0.475274 0.902747 0.711868
O O4 0.143142 0.762085 0.858715
O O5 0.817421 0.494944 0.732075
O O6 0.839936 0.731109 0.613465
O O7 0.155022 0.642388 0.609875
O O8 0.068073 0.303661 0.567715
O O9 0.440208 0.746031 0.131518
O O10 0.287479 0.850883 0.303815
O O11 0.549991 0.687636 0.537239
O O12 0.292754 0.019531 0.591361
O O13 0.227173 0.252300 0.017491
O O14 0.000000 0.500000 0.000000
O O15 0.000000 0.000000 0.000000
O O16 0.707903 0.030616 0.551806
O O17 0.500000 0.500000 0.000000
O O18 0.500000 0.000000 0.000000
#
# Coordination Sequence:
#
# PCOD9028591 Si02
#       8
#     2   2   2   2   2   2   2   2
#     4  10  24  43  70  97 132 184 232 293 355 429
#     4  11  23  38  66  94 139 176 232 286 360 422
#     4  11  25  45  68  98 137 181 234 291 366 439
#     4  10  23  40  64  96 137 175 234 289 345 426
#     4  12  25  48  79 111 146 196 251 305 371 460
#     4  10  22  42  63  97 132 184 235 285 353 416
#     4  12  29  49  79 112 155 194 246 318 385 445
#     4  10  23  42  67  95 137 182 232 291 350 438
#
# _framework density 21.797861999999999
#
# number of rings (size 3 to 8) (size 9 to 14) (size 15 to 20)
#    0.000    1.250    1.250    3.000    5.250    9.000 
#    0.000    0.000    0.000    0.000    0.000    0.000 
#    0.000    0.000    0.000    0.000    0.000    0.000 
#
# Total GULP energy -89200.879543 kJ/mol
# GULP energy per Si atom -5575.054971 kJ/mol
# Density = 2.174825 g / cm^3
# Si number density = 21.797862 Si / 1000 Ang^3
#
#
#
# Elastic Constant Matrix: (Units=GPa)
#
#
# Indices 1 2 3 4 5 6 
#
# 1 132.3796 49.4541 82.0007 -3.6405 -23.1953 -3.0452
# 2 49.4541 81.4614 51.2005 -3.2475 -1.5760 -2.0050
# 3 82.0007 51.2005 166.1387 -15.4063 -16.0602 -8.5580
# 4 -3.6405 -3.2475 -15.4063 22.8309 -9.8550 0.7060
# 5 -23.1953 -1.5760 -16.0602 -9.8550 41.9757 0.9812
# 6 -3.0452 -2.0050 -8.5580 0.7060 0.9812 33.4609
#
#
#
# Elastic Compliance Matrix: (Units=1/GPa)
#
#
# Indices 1 2 3 4 5 6 
#
# 1 0.013139 -0.005145 -0.004288 0.000922 0.005652 -0.000394
# 2 -0.005145 0.017385 -0.003444 -0.002426 -0.004075 -0.000137
# 3 -0.004288 -0.003444 0.010226 0.006970 0.003009 0.001784
# 4 0.000922 -0.002426 0.006970 0.055231 0.016050 0.000085
# 5 0.005652 -0.004075 0.003009 0.016050 0.031719 -0.000229
# 6 -0.000394 -0.000137 0.001784 0.000085 -0.000229 0.030303
#
#
# Mechanical properties :
#
#
# Convention : Reuss Voigt Hill
#
# Bulk Modulus (GPa) = 66.68540 82.81003 74.74772
# Shear Modulus (GPa) = 26.48943 32.80848 29.64896
#
# Velocity S-wave (km/s) = 3.48980 3.88380 3.69206
# Velocity P-wave (km/s) = 6.84816 7.62787 7.24850
#
# Compressibility (1/GPa) = 0.01499579
#
# Stress axis : x y z
#
# Youngs Moduli (GPa) = 76.11101 57.52057 97.79144
#
# Poissons Ratio (x) = 0.29594 0.41930
# Poissons Ratio (y) = 0.39159 0.33682
# Poissons Ratio (z) = 0.32634 0.19811
#
# Static dielectric constant tensor:
#      x y z
#    x 1.862890 0.054760 0.035120 
#    y 0.054760 2.041500 0.034240 
#    z 0.035120 0.034240 1.756440 
# 
# From -- ./inp_files/553513.got.cif
#   From: 2010.05.17/outbox.cif.g08.bks.cpg/sg2_277_cif.got.tgz:553513.got - 2010.06.03 11:33:40.
