data_PCOD9028571
_publ_section_title
;
Structure prediction by ZEFSAII (Michael W. Deem and Ramdas Pophale) SiO2 
 PCOD9028571
Probable space group: P -1
;
_chemical_formula_sum "Si O2"
_cell_formula_units_Z 16
_cell_length_a 17.839370
_cell_length_b 5.135931
_cell_length_c 24.163629
_cell_angle_alpha 79.356693
_cell_angle_beta 160.797524
_cell_angle_gamma 91.992570
_cell_volume 645.416707
_symmetry_space_group_name_H-M "P -1"
_symmetry_group_IT_number 2
_symmetry_cell_setting 'triclinic'
loop_
_space_group_symop_operation_xyz
x,y,z
-x,-y,-z
loop_
_atom_site_type_symbol
_atom_site_label
_atom_site_fract_x
_atom_site_fract_y
_atom_site_fract_z
Si Si1 0.966206 0.020835 0.909119
Si Si2 0.240918 0.835560 0.871512
Si Si3 0.339831 0.994467 0.821005
Si Si4 0.442138 0.064519 0.214890
Si Si5 0.435803 0.656916 0.799316
Si Si6 0.856826 0.521472 0.490485
Si Si7 0.644999 0.709049 0.652006
Si Si8 0.317066 0.792331 0.523929
O O1 0.797368 0.359450 0.756871
O O2 0.848992 0.801513 0.818631
O O3 0.247098 0.924343 0.084641
O O4 0.000000 0.000000 0.000000
O O5 0.274683 0.812534 0.829865
O O6 0.371248 0.053676 0.969363
O O7 0.405420 0.565643 0.034143
O O8 0.951593 0.931305 0.680877
O O9 0.149872 0.329833 0.691634
O O10 0.283430 0.931650 0.722404
O O11 0.363612 0.309919 0.103872
O O12 0.481603 0.153645 0.299955
O O13 0.726786 0.863769 0.399387
O O14 0.278591 0.543215 0.654394
O O15 0.769614 0.408351 0.489850
O O16 0.443792 0.697328 0.556850
O O17 0.500000 0.000000 0.500000
#
# Coordination Sequence:
#
# PCOD9028571 Si02
#       8
#     2   2   2   2   2   2   2   2
#     4  12  26  49  81 107 151 197 252 298 374 452
#     4  10  23  40  65  93 137 178 225 285 350 434
#     4  10  22  42  63  95 130 185 227 282 354 418
#     4  11  25  42  69  99 131 183 232 292 350 427
#     4  11  23  38  64  96 132 177 227 292 348 416
#     4  10  23  42  65  95 133 176 239 285 346 428
#     4  12  28  48  77 116 150 193 242 317 375 447
#     4  10  24  44  67  97 134 180 230 289 360 427
#
# _framework density 24.790188000000001
#
# number of rings (size 3 to 8) (size 9 to 14) (size 15 to 20)
#    0.000    1.250    1.250    3.000    5.250    9.000 
#    0.000    0.000    0.000    0.000    0.000    0.000 
#    0.000    0.000    0.000    0.000    0.000    0.000 
#
# Total GULP energy -89359.268949 kJ/mol
# GULP energy per Si atom -5584.954309 kJ/mol
# Density = 2.473376 g / cm^3
# Si number density = 24.790188 Si / 1000 Ang^3
#
#
#
# Elastic Constant Matrix: (Units=GPa)
#
#
# Indices 1 2 3 4 5 6 
#
# 1 98.1431 7.4187 41.6136 -5.6889 -4.8103 2.7730
# 2 7.4187 56.2071 1.6760 -2.6274 5.0468 1.6114
# 3 41.6136 1.6760 70.2827 1.5825 14.4000 12.5115
# 4 -5.6889 -2.6274 1.5825 40.2861 2.6004 2.1007
# 5 -4.8103 5.0468 14.4000 2.6004 34.3718 2.2625
# 6 2.7730 1.6114 12.5115 2.1007 2.2625 27.7003
#
#
#
# Elastic Compliance Matrix: (Units=1/GPa)
#
#
# Indices 1 2 3 4 5 6 
#
# 1 0.015383 -0.002305 -0.010991 0.001868 0.006766 0.002864
# 2 -0.002305 0.018478 0.001952 0.001129 -0.003840 -0.001498
# 3 -0.010991 0.001952 0.024695 -0.001177 -0.011480 -0.009141
# 4 0.001868 0.001129 -0.001177 0.025366 -0.001229 -0.001544
# 5 0.006766 -0.003840 -0.011480 -0.001229 0.035380 0.001935
# 6 0.002864 -0.001498 -0.009141 -0.001544 0.001935 0.039989
#
#
# Mechanical properties :
#
#
# Convention : Reuss Voigt Hill
#
# Bulk Modulus (GPa) = 27.88009 36.22771 32.05390
# Shear Modulus (GPa) = 25.78195 32.06662 28.92428
#
# Velocity S-wave (km/s) = 3.22841 3.60046 3.41950
# Velocity P-wave (km/s) = 5.01674 5.65065 5.34310
#
# Compressibility (1/GPa) = 0.03586789
#
# Stress axis : x y z
#
# Youngs Moduli (GPa) = 65.00777 54.11871 40.49355
#
# Poissons Ratio (x) = 0.12474 0.44507
# Poissons Ratio (y) = 0.14984 -0.07905
# Poissons Ratio (z) = 0.71452 -0.10565
#
# Static dielectric constant tensor:
#      x y z
#    x 1.938400 0.000260 -0.012010 
#    y 0.000260 2.133640 -0.126850 
#    z -0.012010 -0.126850 2.025770 
# 
# From -- ./inp_files/358269.got.cif
#   From: 2010.05.17/outbox.cif.g08.bks.cpg/sg2_180_cif.got.tgz:358269.got - 2010.06.03 11:33:40.
