data_PCOD9028010
_publ_section_title
;
Structure prediction by ZEFSAII (Michael W. Deem and Ramdas Pophale) SiO2 
 PCOD9028010
Probable space group: P -1
;
_chemical_formula_sum "Si O2"
_cell_formula_units_Z 12
_cell_length_a 9.712465
_cell_length_b 13.373988
_cell_length_c 8.429240
_cell_angle_alpha 95.527180
_cell_angle_beta 74.472883
_cell_angle_gamma 39.175910
_cell_volume 577.440819
_symmetry_space_group_name_H-M "P -1"
_symmetry_group_IT_number 2
_symmetry_cell_setting 'triclinic'
loop_
_space_group_symop_operation_xyz
x,y,z
-x,-y,-z
loop_
_atom_site_type_symbol
_atom_site_label
_atom_site_fract_x
_atom_site_fract_y
_atom_site_fract_z
Si Si1 0.291440 0.820294 0.936584
Si Si2 0.932300 0.484432 0.352063
Si Si3 0.177754 0.782890 0.276942
Si Si4 0.654141 0.478317 0.571184
Si Si5 0.540970 0.862681 0.028954
Si Si6 0.398089 0.851573 0.398437
O O1 0.473170 0.674052 0.719365
O O2 0.372465 0.880803 0.986117
O O3 0.293194 0.735799 0.061943
O O4 0.000000 0.000000 0.000000
O O5 0.889531 0.393034 0.396223
O O6 0.664185 0.681907 0.388018
O O7 0.000000 0.500000 0.500000
O O8 0.166327 0.347350 0.132791
O O9 0.256235 0.638153 0.324715
O O10 0.301538 0.802821 0.342680
O O11 0.862871 0.967177 0.397124
O O12 0.500000 0.500000 0.500000
O O13 0.460364 0.891722 0.241138
O O14 0.500000 0.000000 0.000000
#
# Coordination Sequence:
#
# PCOD9028010 Si02
#       6
#     2   2   2   2   2   2
#     4  11  25  43  67 100 134 170 225 277 322 390
#     4  12  24  44  66  97 140 172 217 275 333 388
#     4  10  22  41  70  97 130 170 228 272 323 387
#     4  12  24  43  71  99 131 176 222 271 329 398
#     4  11  25  44  67  96 136 177 219 270 333 394
#     4  10  22  43  68  98 130 176 220 274 326 391
#
# _framework density 20.781351999999998
#
# number of rings (size 3 to 8) (size 9 to 14) (size 15 to 20)
#    0.000    1.000    3.333    3.000    7.000    0.000 
#    3.000    1.667    0.000    0.000    0.000    0.000 
#    0.000    0.000    0.000    0.000    0.000    0.000 
#
# Total GULP energy -67029.607592 kJ/mol
# GULP energy per Si atom -5585.800633 kJ/mol
# Density = 2.073405 g / cm^3
# Si number density = 20.781352 Si / 1000 Ang^3
#
#
#
# Elastic Constant Matrix: (Units=GPa)
#
#
# Indices 1 2 3 4 5 6 
#
# 1 99.0068 48.7798 32.2502 -13.5315 -24.8523 -12.2140
# 2 48.7798 120.5625 20.6319 -4.4508 -12.8516 -9.4744
# 3 32.2502 20.6319 97.2689 -1.4028 -17.3474 -4.8056
# 4 -13.5315 -4.4508 -1.4028 31.7921 -0.2706 -14.6494
# 5 -24.8523 -12.8516 -17.3474 -0.2706 32.5056 -3.0472
# 6 -12.2140 -9.4744 -4.8056 -14.6494 -3.0472 38.5717
#
#
#
# Elastic Compliance Matrix: (Units=1/GPa)
#
#
# Indices 1 2 3 4 5 6 
#
# 1 0.019440 -0.004816 -0.002465 0.012379 0.012719 0.010372
# 2 -0.004816 0.010424 -0.000529 -0.000189 0.000242 0.000917
# 3 -0.002465 -0.000529 0.012039 -0.000148 0.004413 0.000882
# 4 0.012379 -0.000189 -0.000148 0.047271 0.011836 0.022743
# 5 0.012719 0.000242 0.004413 0.011836 0.044221 0.012626
# 6 0.010372 0.000917 0.000882 0.022743 0.012626 0.039180
#
#
# Mechanical properties :
#
#
# Convention : Reuss Voigt Hill
#
# Bulk Modulus (GPa) = 38.04537 57.79576 47.92057
# Shear Modulus (GPa) = 25.38659 34.91897 30.15278
#
# Velocity S-wave (km/s) = 3.49894 4.10360 3.81327
# Velocity P-wave (km/s) = 5.88818 7.09397 6.51901
#
# Compressibility (1/GPa) = 0.02628441
#
# Stress axis : x y z
#
# Youngs Moduli (GPa) = 51.44064 95.93024 83.06669
#
# Poissons Ratio (x) = 0.46198 0.20473
# Poissons Ratio (y) = 0.24773 0.04392
# Poissons Ratio (z) = 0.12678 0.05072
#
# Static dielectric constant tensor:
#      x y z
#    x 1.772400 -0.017080 -0.060160 
#    y -0.017080 1.722760 0.075080 
#    z -0.060160 0.075080 1.623340 
# 
# From -- ./inp_files/147858.got.cif
#   From: 2010.05.17/outbox.cif.g08.bks.cpg/sg2_74_cif.got.tgz:147858.got - 2010.06.03 11:33:40.
