data_PCOD9028209
_publ_section_title
;
Structure prediction by ZEFSAII (Michael W. Deem and Ramdas Pophale) SiO2 
 PCOD9028209
Probable space group: P -1
;
_chemical_formula_sum "Si O2"
_cell_formula_units_Z 16
_cell_length_a 22.938901
_cell_length_b 11.864029
_cell_length_c 8.267395
_cell_angle_alpha 118.283831
_cell_angle_beta 121.289414
_cell_angle_gamma 22.942361
_cell_volume 749.414620
_symmetry_space_group_name_H-M "P -1"
_symmetry_group_IT_number 2
_symmetry_cell_setting 'triclinic'
loop_
_space_group_symop_operation_xyz
x,y,z
-x,-y,-z
loop_
_atom_site_type_symbol
_atom_site_label
_atom_site_fract_x
_atom_site_fract_y
_atom_site_fract_z
Si Si1 0.488064 0.993518 0.793086
Si Si2 0.437804 0.780539 0.539358
Si Si3 0.608418 0.208605 0.883009
Si Si4 0.752327 0.133185 0.627222
Si Si5 0.778452 0.480549 0.448384
Si Si6 0.903022 0.875722 0.009408
Si Si7 0.125709 0.931330 0.555451
Si Si8 0.743320 0.728023 0.838868
O O1 0.357955 0.296231 0.723020
O O2 0.438987 0.929562 0.658644
O O3 0.653007 0.761502 0.808278
O O4 0.500000 0.000000 0.000000
O O5 0.460022 0.710721 0.335010
O O6 0.584671 0.480003 0.643565
O O7 0.287200 0.952361 0.491134
O O8 0.781458 0.968506 0.937085
O O9 0.636305 0.032763 0.904283
O O10 0.500000 0.500000 0.000000
O O11 0.851471 0.003878 0.840808
O O12 0.815845 0.074505 0.506391
O O13 0.761493 0.645590 0.626085
O O14 0.951280 0.187272 0.429860
O O15 0.774797 0.365044 0.484481
O O16 0.882485 0.999468 0.224758
O O17 0.083946 0.538985 0.032634
#
# Coordination Sequence:
#
# PCOD9028209 Si02
#       8
#     2   2   2   2   2   2   2   2
#     4  12  27  40  68  97 141 179 227 279 339 417
#     4  10  23  44  63 102 132 177 226 281 341 402
#     4  11  23  41  74  99 135 179 232 284 339 414
#     4  10  22  41  72  91 139 172 225 285 335 400
#     4  10  23  44  65  98 136 181 225 281 336 413
#     4  10  24  42  68 104 133 179 228 281 340 412
#     4  10  22  42  70  98 135 179 230 277 345 404
#     4  11  24  44  67  96 138 181 223 284 347 395
#
# _framework density 21.349996000000001
#
# number of rings (size 3 to 8) (size 9 to 14) (size 15 to 20)
#    0.000    1.500    1.250    2.250    7.000    3.000 
#    0.000    3.125    0.000    0.000    0.000    0.000 
#    0.000    0.000    0.000    0.000    0.000    0.000 
#
# Total GULP energy -89265.808740 kJ/mol
# GULP energy per Si atom -5579.113046 kJ/mol
# Density = 2.130140 g / cm^3
# Si number density = 21.349996 Si / 1000 Ang^3
#
#
#
# Elastic Constant Matrix: (Units=GPa)
#
#
# Indices 1 2 3 4 5 6 
#
# 1 142.8892 53.4702 49.6380 4.2322 6.9150 -5.1664
# 2 53.4702 107.4693 68.4889 -15.7028 -1.6129 4.3344
# 3 49.6380 68.4889 127.0266 -13.0753 -2.3143 5.2680
# 4 4.2322 -15.7028 -13.0753 37.5299 3.3465 13.5522
# 5 6.9150 -1.6129 -2.3143 3.3465 22.6674 0.2347
# 6 -5.1664 4.3344 5.2680 13.5522 0.2347 25.2954
#
#
#
# Elastic Compliance Matrix: (Units=1/GPa)
#
#
# Indices 1 2 3 4 5 6 
#
# 1 0.010160 -0.004754 -0.002366 -0.006121 -0.002845 0.006688
# 2 -0.004754 0.017094 -0.006245 0.007899 0.000933 -0.006840
# 3 -0.002366 -0.006245 0.012693 0.003376 0.001115 -0.003876
# 4 -0.006121 0.007899 0.003376 0.041254 -0.003054 -0.025381
# 5 -0.002845 0.000933 0.001115 -0.003054 0.045613 0.000240
# 6 0.006688 -0.006840 -0.003876 -0.025381 0.000240 0.056474
#
#
# Mechanical properties :
#
#
# Convention : Reuss Voigt Hill
#
# Bulk Modulus (GPa) = 75.66329 80.06436 77.86383
# Shear Modulus (GPa) = 23.31818 30.81775 27.06796
#
# Velocity S-wave (km/s) = 3.30841 3.80340 3.56451
# Velocity P-wave (km/s) = 7.07888 7.54123 7.31371
#
# Compressibility (1/GPa) = 0.01321645
#
# Stress axis : x y z
#
# Youngs Moduli (GPa) = 98.42362 58.49891 78.78402
#
# Poissons Ratio (x) = 0.27809 0.18644
# Poissons Ratio (y) = 0.46788 0.49203
# Poissons Ratio (z) = 0.23291 0.36535
#
# Static dielectric constant tensor:
#      x y z
#    x 1.767100 0.050710 0.049160 
#    y 0.050710 1.725950 -0.037990 
#    z 0.049160 -0.037990 1.718120 
# 
# From -- ./inp_files/353842.got.cif
#   From: 2010.05.17/outbox.cif.g08.bks.cpg/sg2_177_cif.got.tgz:353842.got - 2010.06.03 11:33:40.
