data_PCOD9028999
_publ_section_title
;
Structure prediction by ZEFSAII (Michael W. Deem and Ramdas Pophale) SiO2 
 PCOD9028999
Probable space group: P -1
;
_chemical_formula_sum "Si O2"
_cell_formula_units_Z 14
_cell_length_a 14.512926
_cell_length_b 9.419656
_cell_length_c 11.889758
_cell_angle_alpha 122.097324
_cell_angle_beta 28.895621
_cell_angle_gamma 133.111844
_cell_volume 562.944789
_symmetry_space_group_name_H-M "P -1"
_symmetry_group_IT_number 2
_symmetry_cell_setting 'triclinic'
loop_
_space_group_symop_operation_xyz
x,y,z
-x,-y,-z
loop_
_atom_site_type_symbol
_atom_site_label
_atom_site_fract_x
_atom_site_fract_y
_atom_site_fract_z
Si Si1 0.703000 0.000362 0.846240
Si Si2 0.367100 0.782458 0.497769
Si Si3 0.999984 0.860479 0.212478
Si Si4 0.549795 0.502887 0.580117
Si Si5 0.997987 0.225965 0.421491
Si Si6 0.621802 0.325145 0.800848
Si Si7 0.051008 0.221882 0.022241
O O1 0.913202 0.113472 0.584807
O O2 0.808365 0.119857 0.901119
O O3 0.500000 0.000000 0.000000
O O4 0.574437 0.776503 0.938788
O O5 0.360102 0.634996 0.535927
O O6 0.465675 0.756750 0.265747
O O7 0.500000 0.000000 0.500000
O O8 0.121340 0.738969 0.714653
O O9 0.754510 0.723911 0.475800
O O10 0.992453 0.770483 0.061699
O O11 0.022449 0.069776 0.257151
O O12 0.500000 0.500000 0.500000
O O13 0.304281 0.395425 0.853107
O O14 0.797726 0.257584 0.613336
O O15 0.226546 0.438832 0.265260
O O16 0.000000 0.000000 0.000000
#
# Coordination Sequence:
#
# PCOD9028999 Si02
#       7
#     2   2   2   2   2   2   2
#     4  10  22  42  65  99 135 182 239 289 356 428
#     4  12  23  42  74 103 149 189 236 306 365 437
#     4  11  23  44  67  99 147 180 236 301 363 432
#     4  10  25  44  66 105 147 187 240 297 364 438
#     4  10  22  44  68  96 143 183 238 306 352 432
#     4  10  23  43  68 102 136 186 244 290 366 433
#     4  11  23  44  70 109 142 188 243 291 367 441
#
# _framework density 24.869222000000001
#
# number of rings (size 3 to 8) (size 9 to 14) (size 15 to 20)
#    0.000    1.429    1.429    3.000    2.000    2.857 
#   18.000    0.000    0.000    0.000    0.000    0.000 
#    0.000    0.000    0.000    0.000    0.000    0.000 
#
# Total GULP energy -78277.988555 kJ/mol
# GULP energy per Si atom -5591.284897 kJ/mol
# Density = 2.481262 g / cm^3
# Si number density = 24.869222 Si / 1000 Ang^3
#
#
#
# Elastic Constant Matrix: (Units=GPa)
#
#
# Indices 1 2 3 4 5 6 
#
# 1 131.2433 49.6814 23.8562 -12.2907 -2.4795 -14.8053
# 2 49.6814 151.4459 48.3462 -33.0068 4.1265 -9.1116
# 3 23.8562 48.3462 129.3212 -38.4193 -0.0182 -6.8805
# 4 -12.2907 -33.0068 -38.4193 47.9223 -0.8125 -7.5562
# 5 -2.4795 4.1265 -0.0182 -0.8125 52.7637 -1.3471
# 6 -14.8053 -9.1116 -6.8805 -7.5562 -1.3471 47.0016
#
#
#
# Elastic Compliance Matrix: (Units=1/GPa)
#
#
# Indices 1 2 3 4 5 6 
#
# 1 0.009005 -0.002570 -0.000389 0.000618 0.000695 0.002401
# 2 -0.002570 0.009020 -0.001453 0.004604 -0.000719 0.001446
# 3 -0.000389 -0.001453 0.010856 0.007998 0.000286 0.002479
# 4 0.000618 0.004604 0.007998 0.031778 0.000349 0.007377
# 5 0.000695 -0.000719 0.000286 0.000349 0.019065 0.000724
# 6 0.002401 0.001446 0.002479 0.007377 0.000724 0.023882
#
#
# Mechanical properties :
#
#
# Convention : Reuss Voigt Hill
#
# Bulk Modulus (GPa) = 49.85953 72.86423 61.36188
# Shear Modulus (GPa) = 41.97627 48.87928 45.42778
#
# Velocity S-wave (km/s) = 4.11284 4.43815 4.27859
# Velocity P-wave (km/s) = 6.53040 7.45825 7.00969
#
# Compressibility (1/GPa) = 0.02005635
#
# Stress axis : x y z
#
# Youngs Moduli (GPa) = 111.05359 110.86521 92.11670
#
# Poissons Ratio (x) = 0.28488 0.03584
# Poissons Ratio (y) = 0.28536 0.13388
# Poissons Ratio (z) = 0.04321 0.16113
#
# Static dielectric constant tensor:
#      x y z
#    x 1.988940 -0.001410 -0.013820 
#    y -0.001410 1.905540 -0.038760 
#    z -0.013820 -0.038760 2.010170 
# 
# From -- ./inp_files/447977.got.cif
#   From: 2010.05.17/outbox.cif.g08.bks.cpg/sg2_224_cif.got.tgz:447977.got - 2010.06.03 11:33:40.
