data_PCOD9028829
_publ_section_title
;
Structure prediction by ZEFSAII (Michael W. Deem and Ramdas Pophale) SiO2 
 PCOD9028829
Probable space group: P -1
;
_chemical_formula_sum "Si O2"
_cell_formula_units_Z 14
_cell_length_a 15.744747
_cell_length_b 6.927412
_cell_length_c 15.444123
_cell_angle_alpha 85.745956
_cell_angle_beta 26.563169
_cell_angle_gamma 72.711066
_cell_volume 642.730526
_symmetry_space_group_name_H-M "P -1"
_symmetry_group_IT_number 2
_symmetry_cell_setting 'triclinic'
loop_
_space_group_symop_operation_xyz
x,y,z
-x,-y,-z
loop_
_atom_site_type_symbol
_atom_site_label
_atom_site_fract_x
_atom_site_fract_y
_atom_site_fract_z
Si Si1 0.634022 0.601018 0.829541
Si Si2 0.026728 0.947404 0.125082
Si Si3 0.289580 0.116865 0.481707
Si Si4 0.162546 0.675102 0.851664
Si Si5 0.995500 0.564183 0.635230
Si Si6 0.316065 0.010331 0.987235
Si Si7 0.424243 0.245445 0.524984
O O1 0.795721 0.616615 0.750851
O O2 0.801873 0.449869 0.603959
O O3 0.456860 0.841681 0.941812
O O4 0.500000 0.500000 0.000000
O O5 0.806311 0.019372 0.378134
O O6 0.065039 0.743364 0.034350
O O7 0.996755 0.141971 0.080322
O O8 0.220743 0.892533 0.016295
O O9 0.344103 0.247710 0.500884
O O10 0.100216 0.313857 0.588402
O O11 0.507877 0.963458 0.231589
O O12 0.244480 0.430294 0.747876
O O13 0.373632 0.709699 0.662079
O O14 0.888521 0.757595 0.798557
O O15 0.500000 0.000000 0.500000
#
# Coordination Sequence:
#
# PCOD9028829 Si02
#       7
#     2   2   2   2   2   2   2
#     4  10  22  42  65  90 123 157 202 254 312 379
#     4  11  22  41  59  92 124 166 216 261 318 373
#     4  11  23  39  61  90 125 163 209 257 317 374
#     4  10  23  39  62  87 129 166 218 273 307 376
#     4  10  23  41  62  93 122 160 203 254 314 379
#     4  11  23  40  63  91 127 157 208 258 309 386
#     4  11  21  41  61  89 125 172 214 264 322 369
#
# _framework density 21.782067999999999
#
# number of rings (size 3 to 8) (size 9 to 14) (size 15 to 20)
#    0.000    1.429    2.857    2.143    0.000    3.429 
#    0.000    0.000    0.000    0.000    0.000    0.000 
#    0.000    0.000    0.000    0.000    0.000    0.000 
#
# Total GULP energy -78288.831839 kJ/mol
# GULP energy per Si atom -5592.059417 kJ/mol
# Density = 2.173249 g / cm^3
# Si number density = 21.782068 Si / 1000 Ang^3
#
#
#
# Elastic Constant Matrix: (Units=GPa)
#
#
# Indices 1 2 3 4 5 6 
#
# 1 85.6697 10.4405 0.5749 8.3868 -5.4756 -9.0494
# 2 10.4405 49.8462 32.6657 11.4035 14.7494 10.4722
# 3 0.5749 32.6657 122.2361 -2.5063 27.7863 5.4728
# 4 8.3868 11.4035 -2.5063 39.0938 2.1296 4.3779
# 5 -5.4756 14.7494 27.7863 2.1296 41.8131 4.8820
# 6 -9.0494 10.4722 5.4728 4.3779 4.8820 19.6216
#
#
#
# Elastic Compliance Matrix: (Units=1/GPa)
#
#
# Indices 1 2 3 4 5 6 
#
# 1 0.013630 -0.005039 0.000270 -0.002563 0.002480 0.008855
# 2 -0.005039 0.031677 -0.006715 -0.006670 -0.005334 -0.014542
# 3 0.000270 -0.006715 0.011182 0.002762 -0.005319 0.001296
# 4 -0.002563 -0.006670 0.002762 0.028812 -0.000744 -0.004636
# 5 0.002480 -0.005334 -0.005319 -0.000744 0.029905 -0.001800
# 6 0.008855 -0.014542 0.001296 -0.004636 -0.001800 0.063930
#
#
# Mechanical properties :
#
#
# Convention : Reuss Voigt Hill
#
# Bulk Modulus (GPa) = 29.83273 38.34602 34.08937
# Shear Modulus (GPa) = 23.44363 34.37710 28.91036
#
# Velocity S-wave (km/s) = 3.28423 3.97700 3.64710
# Velocity P-wave (km/s) = 5.30163 6.22345 5.78095
#
# Compressibility (1/GPa) = 0.03352023
#
# Stress axis : x y z
#
# Youngs Moduli (GPa) = 73.36784 31.56848 89.43242
#
# Poissons Ratio (x) = 0.15909 -0.02413
# Poissons Ratio (y) = 0.36973 0.60051
# Poissons Ratio (z) = -0.01980 0.21197
#
# Static dielectric constant tensor:
#      x y z
#    x 1.801600 -0.002890 0.011450 
#    y -0.002890 1.775370 -0.003700 
#    z 0.011450 -0.003700 1.851860 
# 
# From -- ./inp_files/525660.got.cif
#   From: 2010.05.17/outbox.cif.g08.bks.cpg/sg2_263_cif.got.tgz:525660.got - 2010.06.03 11:33:40.
