data_PCOD9028191
_publ_section_title
;
Structure prediction by ZEFSAII (Michael W. Deem and Ramdas Pophale) SiO2 
 PCOD9028191
Probable space group: P -1
;
_chemical_formula_sum "Si O2"
_cell_formula_units_Z 14
_cell_length_a 7.260046
_cell_length_b 16.436777
_cell_length_c 11.994561
_cell_angle_alpha 39.202324
_cell_angle_beta 80.257873
_cell_angle_gamma 110.022289
_cell_volume 579.375355
_symmetry_space_group_name_H-M "P -1"
_symmetry_group_IT_number 2
_symmetry_cell_setting 'triclinic'
loop_
_space_group_symop_operation_xyz
x,y,z
-x,-y,-z
loop_
_atom_site_type_symbol
_atom_site_label
_atom_site_fract_x
_atom_site_fract_y
_atom_site_fract_z
Si Si1 0.592908 0.870639 0.410133
Si Si2 0.150189 0.345873 0.454492
Si Si3 0.360720 0.477961 0.923102
Si Si4 0.203916 0.630050 0.236321
Si Si5 0.163596 0.051773 0.219064
Si Si6 0.756028 0.090629 0.962374
Si Si7 0.729718 0.087854 0.475262
O O1 0.429732 0.661623 0.696155
O O2 0.913339 0.026240 0.266455
O O3 0.663776 0.914424 0.224119
O O4 0.379356 0.874310 0.456849
O O5 0.480994 0.508836 0.210166
O O6 0.089063 0.467966 0.328748
O O7 0.992059 0.158965 0.590761
O O8 0.042977 0.243775 0.695810
O O9 0.500000 0.500000 0.000000
O O10 0.030805 0.281319 0.186179
O O11 0.000000 0.500000 0.500000
O O12 0.541757 0.771426 0.066373
O O13 0.204372 0.784977 0.072708
O O14 0.261858 0.053320 0.328958
O O15 0.500000 0.000000 0.000000
O O16 0.500000 0.000000 0.500000
#
# Coordination Sequence:
#
# PCOD9028191 Si02
#       7
#     2   2   2   2   2   2   2
#     4  11  25  45  77 104 144 200 243 304 378 439
#     4  10  22  42  76 102 144 195 240 303 368 436
#     4  11  24  48  73 105 145 197 255 301 368 453
#     4  10  22  41  72 104 142 192 237 303 363 437
#     4  11  23  48  70 104 150 188 246 305 372 439
#     4  11  21  45  73 109 149 186 243 307 374 436
#     4  12  26  47  68 109 146 191 250 312 372 443
#
# _framework density 24.163954
#
# number of rings (size 3 to 8) (size 9 to 14) (size 15 to 20)
#    0.000    1.143    5.714    0.429    2.000    4.000 
#    7.714    2.857    0.000    0.000    0.000    0.000 
#    0.000    0.000    0.000    0.000    0.000    0.000 
#
# Total GULP energy -78085.214019 kJ/mol
# GULP energy per Si atom -5577.515287 kJ/mol
# Density = 2.410896 g / cm^3
# Si number density = 24.163954 Si / 1000 Ang^3
#
#
#
# Elastic Constant Matrix: (Units=GPa)
#
#
# Indices 1 2 3 4 5 6 
#
# 1 141.9079 22.2368 71.7795 23.0619 -28.9623 6.2546
# 2 22.2368 53.1218 22.4158 3.3522 -9.6730 -8.3251
# 3 71.7795 22.4158 196.2604 39.4198 -35.0555 1.1618
# 4 23.0619 3.3522 39.4198 38.1061 -5.5815 -4.0347
# 5 -28.9623 -9.6730 -35.0555 -5.5815 58.9900 9.9895
# 6 6.2546 -8.3251 1.1618 -4.0347 9.9895 39.5272
#
#
#
# Elastic Compliance Matrix: (Units=1/GPa)
#
#
# Indices 1 2 3 4 5 6 
#
# 1 0.009939 -0.003021 -0.001924 -0.003610 0.003475 -0.003399
# 2 -0.003021 0.021584 -0.001820 0.002413 0.000315 0.005244
# 3 -0.001924 -0.001820 0.007896 -0.006573 0.003127 -0.001772
# 4 -0.003610 0.002413 -0.006573 0.035183 -0.002902 0.005597
# 5 0.003475 0.000315 0.003127 -0.002902 0.021355 -0.006269
# 6 -0.003399 0.005244 -0.001772 0.005597 -0.006269 0.029149
#
#
# Mechanical properties :
#
#
# Convention : Reuss Voigt Hill
#
# Bulk Modulus (GPa) = 38.62540 69.35048 53.98794
# Shear Modulus (GPa) = 33.95214 45.64853 39.80033
#
# Velocity S-wave (km/s) = 3.75250 4.35111 4.06284
# Velocity P-wave (km/s) = 5.89868 7.34882 6.66332
#
# Compressibility (1/GPa) = 0.02588970
#
# Stress axis : x y z
#
# Youngs Moduli (GPa) = 100.61208 46.33062 126.64132
#
# Poissons Ratio (x) = 0.13995 0.24369
# Poissons Ratio (y) = 0.30392 0.23048
# Poissons Ratio (z) = 0.19360 0.08432
#
# Static dielectric constant tensor:
#      x y z
#    x 1.913320 -0.025140 0.022180 
#    y -0.025140 2.159660 -0.060010 
#    z 0.022180 -0.060010 1.932650 
# 
# From -- ./inp_files/429608.got.cif
#   From: 2010.05.17/outbox.cif.g08.bks.cpg/sg2_215_cif.got.tgz:429608.got - 2010.06.03 11:33:40.
