data_PCOD9028568
_publ_section_title
;
Structure prediction by ZEFSAII (Michael W. Deem and Ramdas Pophale) SiO2 
 PCOD9028568
Probable space group: P -1
;
_chemical_formula_sum "Si O2"
_cell_formula_units_Z 16
_cell_length_a 9.502253
_cell_length_b 12.144045
_cell_length_c 14.063444
_cell_angle_alpha 33.545654
_cell_angle_beta 112.959687
_cell_angle_gamma 90.070435
_cell_volume 636.859070
_symmetry_space_group_name_H-M "P -1"
_symmetry_group_IT_number 2
_symmetry_cell_setting 'triclinic'
loop_
_space_group_symop_operation_xyz
x,y,z
-x,-y,-z
loop_
_atom_site_type_symbol
_atom_site_label
_atom_site_fract_x
_atom_site_fract_y
_atom_site_fract_z
Si Si1 0.218715 0.440223 0.376898
Si Si2 0.890779 0.349465 0.992893
Si Si3 0.236490 0.088250 0.403356
Si Si4 0.104971 0.227187 0.806178
Si Si5 0.975804 0.261131 0.375275
Si Si6 0.140607 0.659955 0.504480
Si Si7 0.375373 0.743742 0.362862
Si Si8 0.373744 0.449319 0.061795
O O1 0.141430 0.659361 0.119225
O O2 0.453649 0.242859 0.570348
O O3 0.120122 0.576056 0.353195
O O4 0.113890 0.320482 0.411592
O O5 0.812050 0.641229 0.780394
O O6 0.748119 0.351863 0.026001
O O7 0.116105 0.157251 0.224725
O O8 0.121349 0.056354 0.478238
O O9 0.462552 0.839308 0.648717
O O10 0.195511 0.376306 0.723614
O O11 0.067589 0.176685 0.726833
O O12 0.219867 0.990436 0.079126
O O13 0.886286 0.251613 0.456695
O O14 0.792045 0.494343 0.095399
O O15 0.285428 0.688683 0.464904
O O16 0.500000 0.500000 0.500000
O O17 0.500000 0.500000 0.000000
#
# Coordination Sequence:
#
# PCOD9028568 Si02
#       8
#     2   2   2   2   2   2   2   2
#     4  10  22  42  63  95 125 163 216 262 317 379
#     4   9  20  37  64  88 117 164 209 254 315 369
#     4   9  19  41  63  86 122 164 205 257 310 379
#     4  10  23  46  65  93 136 168 208 272 319 376
#     4   9  22  42  61  91 128 163 212 261 315 381
#     4  10  22  44  68  94 129 171 213 264 325 373
#     4  12  25  42  66  98 129 169 221 262 314 388
#     4  11  23  38  59  93 130 160 207 261 315 381
#
# _framework density 25.123297000000001
#
# number of rings (size 3 to 8) (size 9 to 14) (size 15 to 20)
#    0.000    2.000    1.250    1.500    1.750    7.500 
#    4.500    0.000    0.000    0.000    0.000    0.000 
#    0.000    0.000    0.000    0.000    0.000    0.000 
#
# Total GULP energy -89377.584856 kJ/mol
# GULP energy per Si atom -5586.099053 kJ/mol
# Density = 2.506612 g / cm^3
# Si number density = 25.123297 Si / 1000 Ang^3
#
#
#
# Elastic Constant Matrix: (Units=GPa)
#
#
# Indices 1 2 3 4 5 6 
#
# 1 158.4274 3.6595 55.1778 2.2900 -10.5769 -21.5326
# 2 3.6595 31.9718 28.3827 13.3471 4.4284 -35.5769
# 3 55.1778 28.3827 142.5302 13.4539 11.2313 -16.1908
# 4 2.2900 13.3471 13.4539 39.8493 2.7624 -16.7424
# 5 -10.5769 4.4284 11.2313 2.7624 50.8805 11.9466
# 6 -21.5326 -35.5769 -16.1908 -16.7424 11.9466 34.7433
#
#
#
# Elastic Compliance Matrix: (Units=1/GPa)
#
#
# Indices 1 2 3 4 5 6 
#
# 1 0.006139 -0.010665 -0.001707 -0.000739 0.004963 -0.009974
# 2 -0.010665 -0.063062 0.007026 -0.017503 0.022406 -0.084050
# 3 -0.001707 0.007026 0.008041 0.000474 -0.005593 0.012035
# 4 -0.000739 -0.017503 0.000474 0.028900 0.000751 -0.004492
# 5 0.004963 0.022406 -0.005593 0.000751 0.015607 0.018408
# 6 -0.009974 -0.084050 0.012035 -0.004492 0.018408 -0.066352
#
#
# Mechanical properties :
#
#
# Convention : Reuss Voigt Hill
#
# Bulk Modulus (GPa) = -16.78549 56.37440 19.79446
# Shear Modulus (GPa) = -62.58560 41.47524 -10.55518
#
# Velocity S-wave (km/s) = -4.99655 4.06750 -2.05194
# Velocity P-wave (km/s) = 6.32321 6.67437 1.51065
#
# Compressibility (1/GPa) = -0.05957526
#
# Stress axis : x y z
#
# Youngs Moduli (GPa) = 162.88125 -15.85737 124.36175
#
# Poissons Ratio (x) = -0.16912 0.21233
# Poissons Ratio (y) = 1.73713 -0.87371
# Poissons Ratio (z) = 0.27810 0.11141
#
# Static dielectric constant tensor:
#      x y z
#    x 2.117690 0.054620 -0.092440 
#    y 0.054620 2.078900 0.004920 
#    z -0.092440 0.004920 2.016920 
# 
# From -- ./inp_files/52894.got.cif
#   From: 2010.05.17/outbox.cif.g08.bks.cpg/sg2_27_cif.got.tgz:52894.got - 2010.06.03 11:33:40.
