data_PCOD9028493
_publ_section_title
;
Structure prediction by ZEFSAII (Michael W. Deem and Ramdas Pophale) SiO2 
 PCOD9028493
Probable space group: P -1
;
_chemical_formula_sum "Si O2"
_cell_formula_units_Z 16
_cell_length_a 18.922892
_cell_length_b 15.030896
_cell_length_c 10.745667
_cell_angle_alpha 150.177228
_cell_angle_beta 147.041590
_cell_angle_gamma 27.977512
_cell_volume 677.372118
_symmetry_space_group_name_H-M "P -1"
_symmetry_group_IT_number 2
_symmetry_cell_setting 'triclinic'
loop_
_space_group_symop_operation_xyz
x,y,z
-x,-y,-z
loop_
_atom_site_type_symbol
_atom_site_label
_atom_site_fract_x
_atom_site_fract_y
_atom_site_fract_z
Si Si1 0.637796 0.867004 0.411724
Si Si2 0.821725 0.668443 0.894332
Si Si3 0.249667 0.702585 0.040396
Si Si4 0.630201 0.677775 0.416718
Si Si5 0.043669 0.132924 0.815076
Si Si6 0.485043 0.400778 0.205782
Si Si7 0.303807 0.473839 0.272405
Si Si8 0.922124 0.848739 0.818050
O O1 0.655328 0.818011 0.525212
O O2 0.819294 0.759193 0.514565
O O3 0.537365 0.122594 0.535686
O O4 0.545878 0.763971 0.106414
O O5 0.769578 0.571622 0.593117
O O6 0.704008 0.701286 0.870880
O O7 0.000000 0.500000 0.000000
O O8 0.828700 0.853026 0.059653
O O9 0.359574 0.512751 0.873780
O O10 0.104310 0.692495 0.858453
O O11 0.356756 0.639106 0.244138
O O12 0.161274 0.931455 0.119860
O O13 0.872074 0.368612 0.851652
O O14 0.000000 0.000000 0.500000
O O15 0.089440 0.086757 0.973440
O O16 0.435397 0.383141 0.250118
O O17 0.648661 0.380015 0.406279
#
# Coordination Sequence:
#
# PCOD9028493 Si02
#       8
#     2   2   2   2   2   2   2   2
#     4  10  23  41  69  95 130 170 219 280 332 392
#     4  10  23  41  63  97 127 174 222 266 325 401
#     4  10  24  41  66  96 133 173 220 276 333 399
#     4  10  22  42  62  97 126 167 219 274 330 391
#     4  11  24  41  67  96 135 174 218 277 324 400
#     4  10  22  45  67  97 130 177 218 280 335 392
#     4  10  23  43  67  94 134 174 222 267 338 403
#     4  11  23  43  65 101 131 175 222 272 335 397
#
# _framework density 23.620694
#
# number of rings (size 3 to 8) (size 9 to 14) (size 15 to 20)
#    0.000    1.750    2.500    0.000    7.000    5.500 
#    2.250    0.625    0.000    0.000    0.000    0.000 
#    0.000    0.000    0.000    0.000    0.000    0.000 
#
# Total GULP energy -89097.264057 kJ/mol
# GULP energy per Si atom -5568.579004 kJ/mol
# Density = 2.356693 g / cm^3
# Si number density = 23.620694 Si / 1000 Ang^3
#
#
#
# Elastic Constant Matrix: (Units=GPa)
#
#
# Indices 1 2 3 4 5 6 
#
# 1 104.2947 23.5593 50.0525 -6.5377 29.0718 16.6619
# 2 23.5593 81.1336 17.6555 -16.4518 10.8066 13.1439
# 3 50.0525 17.6555 87.2770 -11.6635 18.1892 6.1895
# 4 -6.5377 -16.4518 -11.6635 40.1894 -2.6642 3.8206
# 5 29.0718 10.8066 18.1892 -2.6642 38.0827 -5.0566
# 6 16.6619 13.1439 6.1895 3.8206 -5.0566 27.3963
#
#
#
# Elastic Compliance Matrix: (Units=1/GPa)
#
#
# Indices 1 2 3 4 5 6 
#
# 1 0.018306 0.000026 -0.006941 0.001309 -0.012169 -0.012006
# 2 0.000026 0.016079 -0.000605 0.006978 -0.005067 -0.009501
# 3 -0.006941 -0.000605 0.016452 0.003260 -0.002168 -0.000060
# 4 0.001309 0.006978 0.003260 0.029570 -0.003755 -0.009697
# 5 -0.012169 -0.005067 -0.002168 -0.003755 0.040184 0.018262
# 6 -0.012006 -0.009501 -0.000060 -0.009697 0.018262 0.053098
#
#
# Mechanical properties :
#
#
# Convention : Reuss Voigt Hill
#
# Bulk Modulus (GPa) = 27.93567 50.58222 39.25895
# Shear Modulus (GPa) = 24.91767 33.22955 29.07361
#
# Velocity S-wave (km/s) = 3.25146 3.75480 3.51216
# Velocity P-wave (km/s) = 5.09396 6.34499 5.75358
#
# Compressibility (1/GPa) = 0.03579653
#
# Stress axis : x y z
#
# Youngs Moduli (GPa) = 54.62825 62.19474 60.78144
#
# Poissons Ratio (x) = -0.00163 0.42188
# Poissons Ratio (y) = -0.00143 0.03679
# Poissons Ratio (z) = 0.37917 0.03765
#
# Static dielectric constant tensor:
#      x y z
#    x 2.039890 -0.046570 0.006050 
#    y -0.046570 2.035280 -0.081740 
#    z 0.006050 -0.081740 2.067410 
# 
# From -- ./inp_files/472030.got.cif
#   From: 2010.05.17/outbox.cif.g08.bks.cpg/sg2_237_cif.got.tgz:472030.got - 2010.06.03 11:33:40.
