data_PCOD9028385
_publ_section_title
;
Structure prediction by ZEFSAII (Michael W. Deem and Ramdas Pophale) SiO2 
 PCOD9028385
Probable space group: P -1
;
_chemical_formula_sum "Si O2"
_cell_formula_units_Z 14
_cell_length_a 19.802283
_cell_length_b 6.051992
_cell_length_c 6.750525
_cell_angle_alpha 101.641962
_cell_angle_beta 123.376026
_cell_angle_gamma 98.969559
_cell_volume 625.455514
_symmetry_space_group_name_H-M "P -1"
_symmetry_group_IT_number 2
_symmetry_cell_setting 'triclinic'
loop_
_space_group_symop_operation_xyz
x,y,z
-x,-y,-z
loop_
_atom_site_type_symbol
_atom_site_label
_atom_site_fract_x
_atom_site_fract_y
_atom_site_fract_z
Si Si1 0.325587 0.794993 0.016187
Si Si2 0.072477 0.881162 0.648514
Si Si3 0.200968 0.410554 0.490816
Si Si4 0.684311 0.403121 0.652747
Si Si5 0.980984 0.598975 0.782102
Si Si6 0.738370 0.820245 0.135081
Si Si7 0.457897 0.710868 0.926450
O O1 0.326369 0.820452 0.259174
O O2 0.235753 0.616341 0.751601
O O3 0.399915 0.712025 0.026802
O O4 0.327751 0.038234 0.961048
O O5 0.049787 0.635868 0.446487
O O6 0.058856 0.798820 0.840152
O O7 0.167228 0.044641 0.776359
O O8 0.000000 0.000000 0.500000
O O9 0.236715 0.522501 0.358558
O O10 0.099727 0.308815 0.311670
O O11 0.244772 0.227641 0.617423
O O12 0.603922 0.376405 0.379356
O O13 0.700802 0.599145 0.886922
O O14 0.000000 0.500000 0.000000
O O15 0.500000 0.500000 0.000000
O O16 0.500000 0.000000 0.000000
#
# Coordination Sequence:
#
# PCOD9028385 Si02
#       7
#     2   2   2   2   2   2   2
#     4  10  24  45  70  99 135 181 224 281 346 418
#     4  11  24  42  59  91 134 178 231 293 339 391
#     4  10  22  42  60  96 135 176 231 289 339 410
#     4  10  26  42  72 101 135 179 232 267 356 422
#     4  11  25  38  61  90 134 179 238 285 352 403
#     4  11  23  42  69  94 137 182 233 286 342 415
#     4  11  28  50  77 108 149 179 226 293 357 430
#
# _framework density 22.383685
#
# number of rings (size 3 to 8) (size 9 to 14) (size 15 to 20)
#    0.000    1.429    2.857    0.000   12.000    4.000 
#    0.000    0.000    0.000    0.000    0.000    0.000 
#    0.000    0.000    0.000    0.000    0.000    0.000 
#
# Total GULP energy -78051.636958 kJ/mol
# GULP energy per Si atom -5575.116926 kJ/mol
# Density = 2.233274 g / cm^3
# Si number density = 22.383685 Si / 1000 Ang^3
#
#
#
# Elastic Constant Matrix: (Units=GPa)
#
#
# Indices 1 2 3 4 5 6 
#
# 1 96.8541 34.8059 38.1325 -19.6134 -5.6835 1.9702
# 2 34.8059 71.1028 15.3792 -21.9246 -2.7723 3.0187
# 3 38.1325 15.3792 77.8776 -27.3510 -29.7686 12.6692
# 4 -19.6134 -21.9246 -27.3510 45.4313 15.5718 2.9727
# 5 -5.6835 -2.7723 -29.7686 15.5718 23.8495 -9.1989
# 6 1.9702 3.0187 12.6692 2.9727 -9.1989 43.8285
#
#
#
# Elastic Compliance Matrix: (Units=1/GPa)
#
#
# Indices 1 2 3 4 5 6 
#
# 1 0.016094 -0.005550 -0.010320 0.001704 -0.010695 0.000281
# 2 -0.005550 0.019521 0.000459 0.009528 -0.005902 -0.003113
# 3 -0.010320 0.000459 0.033020 0.003484 0.035828 -0.001829
# 4 0.001704 0.009528 0.003484 0.037619 -0.022148 -0.008940
# 5 -0.010695 -0.005902 0.035828 -0.022148 0.103154 0.013683
# 6 0.000281 -0.003113 -0.001829 -0.008940 0.013683 0.027025
#
#
# Mechanical properties :
#
#
# Convention : Reuss Voigt Hill
#
# Bulk Modulus (GPa) = 26.44534 46.94107 36.69321
# Shear Modulus (GPa) = 17.86619 33.12298 25.49458
#
# Velocity S-wave (km/s) = 2.82827 3.85097 3.37854
# Velocity P-wave (km/s) = 4.74402 6.38670 5.62564
#
# Compressibility (1/GPa) = 0.03781384
#
# Stress axis : x y z
#
# Youngs Moduli (GPa) = 62.13519 51.22567 30.28501
#
# Poissons Ratio (x) = 0.28428 0.31253
# Poissons Ratio (y) = 0.34482 -0.01389
# Poissons Ratio (z) = 0.64122 -0.02350
#
# Static dielectric constant tensor:
#      x y z
#    x 1.784630 0.072110 -0.012930 
#    y 0.072110 1.997290 -0.049480 
#    z -0.012930 -0.049480 1.801750 
# 
# From -- ./inp_files/7417.got.cif
#   From: 2010.05.17/outbox.cif.g08.bks.cpg/sg2_4_cif.got.tgz:7417.got - 2010.06.03 11:33:40.
