data_PCOD9028555
_publ_section_title
;
Structure prediction by ZEFSAII (Michael W. Deem and Ramdas Pophale) SiO2 
 PCOD9028555
Probable space group: P -1
;
_chemical_formula_sum "Si O2"
_cell_formula_units_Z 16
_cell_length_a 19.220097
_cell_length_b 12.283019
_cell_length_c 9.606338
_cell_angle_alpha 125.106927
_cell_angle_beta 26.225400
_cell_angle_gamma 133.880556
_cell_volume 714.551623
_symmetry_space_group_name_H-M "P -1"
_symmetry_group_IT_number 2
_symmetry_cell_setting 'triclinic'
loop_
_space_group_symop_operation_xyz
x,y,z
-x,-y,-z
loop_
_atom_site_type_symbol
_atom_site_label
_atom_site_fract_x
_atom_site_fract_y
_atom_site_fract_z
Si Si1 0.956617 0.805673 0.278062
Si Si2 0.048875 0.605025 0.623771
Si Si3 0.451191 0.136856 0.686556
Si Si4 0.834566 0.362898 0.278376
Si Si5 0.136619 0.954264 0.329266
Si Si6 0.552265 0.721254 0.488154
Si Si7 0.332568 0.855460 0.127204
Si Si8 0.705808 0.614522 0.364371
O O1 0.769476 0.681489 0.453460
O O2 0.997492 0.819275 0.379484
O O3 0.960450 0.964838 0.358540
O O4 0.109070 0.770750 0.917357
O O5 0.152516 0.576863 0.543976
O O6 0.184903 0.772645 0.449151
O O7 0.000000 0.500000 0.500000
O O8 0.866687 0.589608 0.000278
O O9 0.637611 0.288079 0.508557
O O10 0.395553 0.167816 0.657025
O O11 0.500000 0.000000 0.500000
O O12 0.289593 0.081980 0.047299
O O13 0.000000 0.500000 0.000000
O O14 0.240094 0.899709 0.204002
O O15 0.686344 0.729399 0.376289
O O16 0.471271 0.549937 0.446419
O O17 0.402358 0.746197 0.856753
O O18 0.500000 0.000000 0.000000
#
# Coordination Sequence:
#
# PCOD9028555 Si02
#       8
#     2   2   2   2   2   2   2   2
#     4  10  22  42  63  93 130 172 216 269 332 383
#     4  11  24  42  67  99 127 169 227 268 320 396
#     4  12  22  42  66  97 129 173 222 266 331 398
#     4  11  24  44  70  94 132 176 218 271 332 392
#     4  11  24  40  64  95 135 171 219 274 328 399
#     4  11  23  42  66  94 133 176 216 276 334 389
#     4  12  24  41  65  96 132 172 216 273 332 389
#     4  10  23  44  65  94 134 171 222 276 334 390
#
# _framework density 22.391663999999999
#
# number of rings (size 3 to 8) (size 9 to 14) (size 15 to 20)
#    0.000    1.000    3.750    3.000    1.750    2.000 
#    0.000    3.750    0.000    0.000    0.000    0.000 
#    0.000    0.000    0.000    0.000    0.000    0.000 
#
# Total GULP energy -89339.461914 kJ/mol
# GULP energy per Si atom -5583.716370 kJ/mol
# Density = 2.234070 g / cm^3
# Si number density = 22.391664 Si / 1000 Ang^3
#
#
#
# Elastic Constant Matrix: (Units=GPa)
#
#
# Indices 1 2 3 4 5 6 
#
# 1 159.0194 51.4248 7.1734 -4.9101 -12.2374 14.2268
# 2 51.4248 78.8456 12.3402 -5.6969 1.3070 19.0686
# 3 7.1734 12.3402 38.8234 -8.6758 0.1492 7.7936
# 4 -4.9101 -5.6969 -8.6758 44.7247 -3.6894 2.2511
# 5 -12.2374 1.3070 0.1492 -3.6894 35.5792 -1.7623
# 6 14.2268 19.0686 7.7936 2.2511 -1.7623 35.7140
#
#
#
# Elastic Compliance Matrix: (Units=1/GPa)
#
#
# Indices 1 2 3 4 5 6 
#
# 1 0.008306 -0.005390 0.000374 0.000573 0.003093 -0.000396
# 2 -0.005390 0.018600 -0.003145 0.001309 -0.002751 -0.007316
# 3 0.000374 -0.003145 0.028954 0.005551 0.000445 -0.005116
# 4 0.000573 0.001309 0.005551 0.024045 0.002444 -0.003533
# 5 0.003093 -0.002751 0.000445 0.002444 0.029594 0.001446
# 6 -0.000396 -0.007316 -0.005116 -0.003533 0.001446 0.033475
#
#
# Mechanical properties :
#
#
# Convention : Reuss Voigt Hill
#
# Bulk Modulus (GPa) = 25.29124 46.50726 35.89925
# Shear Modulus (GPa) = 28.98983 36.92023 32.95503
#
# Velocity S-wave (km/s) = 3.60206 4.06499 3.84051
# Velocity P-wave (km/s) = 5.34969 6.54578 5.97773
#
# Compressibility (1/GPa) = 0.03953938
#
# Stress axis : x y z
#
# Youngs Moduli (GPa) = 120.39738 53.76315 34.53757
#
# Poissons Ratio (x) = 0.28978 -0.01292
# Poissons Ratio (y) = 0.64893 0.10860
# Poissons Ratio (z) = -0.04505 0.16906
#
# Static dielectric constant tensor:
#      x y z
#    x 1.764750 -0.012730 0.037770 
#    y -0.012730 1.862530 0.017260 
#    z 0.037770 0.017260 1.802680 
# 
# From -- ./inp_files/333578.got.cif
#   From: 2010.05.17/outbox.cif.g08.bks.cpg/sg2_167_cif.got.tgz:333578.got - 2010.06.03 11:33:40.
