data_PCOD9028831
_publ_section_title
;
Structure prediction by ZEFSAII (Michael W. Deem and Ramdas Pophale) SiO2 
 PCOD9028831
Probable space group: P -1
;
_chemical_formula_sum "Si O2"
_cell_formula_units_Z 12
_cell_length_a 10.691667
_cell_length_b 9.053652
_cell_length_c 15.562975
_cell_angle_alpha 91.750948
_cell_angle_beta 134.883118
_cell_angle_gamma 124.338233
_cell_volume 599.944976
_symmetry_space_group_name_H-M "P -1"
_symmetry_group_IT_number 2
_symmetry_cell_setting 'triclinic'
loop_
_space_group_symop_operation_xyz
x,y,z
-x,-y,-z
loop_
_atom_site_type_symbol
_atom_site_label
_atom_site_fract_x
_atom_site_fract_y
_atom_site_fract_z
Si Si1 0.401405 0.852517 0.227895
Si Si2 0.962615 0.115791 0.423070
Si Si3 0.445301 0.587400 0.544371
Si Si4 0.235521 0.702607 0.334566
Si Si5 0.361802 0.610774 0.049059
Si Si6 0.044477 0.908798 0.092154
O O1 0.768248 0.102123 0.383604
O O2 0.255271 0.914625 0.162979
O O3 0.353156 0.745338 0.295834
O O4 0.271349 0.659295 0.084845
O O5 0.274483 0.398065 0.540046
O O6 0.000000 0.000000 0.500000
O O7 0.729868 0.901367 0.228259
O O8 0.500000 0.500000 0.500000
O O9 0.234895 0.566727 0.396760
O O10 0.765784 0.885875 0.734730
O O11 0.885545 0.525777 0.148358
O O12 0.500000 0.000000 0.500000
O O13 0.277625 0.389130 0.037079
O O14 0.000000 0.000000 0.000000
#
# Coordination Sequence:
#
# PCOD9028831 Si02
#       6
#     2   2   2   2   2   2
#     4   9  21  40  69  84 123 172 206 247 316 369
#     4  10  22  42  65  90 125 165 214 257 309 373
#     4  12  26  37  63  94 124 165 208 264 318 358
#     4  11  19  39  62  93 126 157 205 260 310 372
#     4   9  21  40  66  85 121 171 207 246 316 367
#     4  11  21  38  62  96 120 162 215 250 302 388
#
# _framework density 20.001835
#
# number of rings (size 3 to 8) (size 9 to 14) (size 15 to 20)
#    1.000    0.667    3.333    4.000    4.667    1.333 
#    0.000    0.833    0.000    0.000    0.000    0.000 
#    0.000    0.000    0.000    0.000    0.000    0.000 
#
# Total GULP energy -66836.046098 kJ/mol
# GULP energy per Si atom -5569.670508 kJ/mol
# Density = 1.995631 g / cm^3
# Si number density = 20.001835 Si / 1000 Ang^3
#
#
#
# Elastic Constant Matrix: (Units=GPa)
#
#
# Indices 1 2 3 4 5 6 
#
# 1 33.8471 5.1079 -4.8400 8.8433 -7.1354 -4.6085
# 2 5.1079 88.2846 -3.5474 -12.9730 -7.6606 -15.8676
# 3 -4.8400 -3.5474 84.9423 1.6913 -21.7998 -14.1113
# 4 8.8433 -12.9730 1.6913 41.8138 -2.7473 1.7049
# 5 -7.1354 -7.6606 -21.7998 -2.7473 22.9074 4.1743
# 6 -4.6085 -15.8676 -14.1113 1.7049 4.1743 27.5761
#
#
#
# Elastic Compliance Matrix: (Units=1/GPa)
#
#
# Indices 1 2 3 4 5 6 
#
# 1 0.037281 0.000003 0.007945 -0.007437 0.016785 0.008217
# 2 0.000003 0.014371 0.003890 0.004427 0.007425 0.008863
# 3 0.007945 0.003890 0.019312 -0.000351 0.020215 0.010410
# 4 -0.007437 0.004427 -0.000351 0.027059 0.002237 -0.000887
# 5 0.016785 0.007425 0.020215 0.002237 0.069643 0.006741
# 6 0.008217 0.008863 0.010410 -0.000887 0.006741 0.047098
#
#
# Mechanical properties :
#
#
# Convention : Reuss Voigt Hill
#
# Bulk Modulus (GPa) = 10.56639 22.27944 16.42291
# Shear Modulus (GPa) = 22.45831 32.48302 27.47067
#
# Velocity S-wave (km/s) = 3.35447 4.03426 3.70997
# Velocity P-wave (km/s) = 4.50528 5.73265 5.15562
#
# Compressibility (1/GPa) = 0.09463973
#
# Stress axis : x y z
#
# Youngs Moduli (GPa) = 26.82348 69.58522 51.78023
#
# Poissons Ratio (x) = -0.00019 -0.41141
# Poissons Ratio (y) = -0.00007 -0.20142
# Poissons Ratio (z) = -0.21312 -0.27068
#
# Static dielectric constant tensor:
#      x y z
#    x 1.719150 0.016770 0.041680 
#    y 0.016770 1.666800 -0.001550 
#    z 0.041680 -0.001550 1.780060 
# 
# From -- ./inp_files/170331.got.cif
#   From: 2010.05.17/outbox.cif.g08.bks.cpg/sg2_86_cif.got.tgz:170331.got - 2010.06.03 11:33:40.
