data_PCOD9028190
_publ_section_title
;
Structure prediction by ZEFSAII (Michael W. Deem and Ramdas Pophale) SiO2 
 PCOD9028190
Probable space group: P -1
;
_chemical_formula_sum "Si O2"
_cell_formula_units_Z 16
_cell_length_a 9.595936
_cell_length_b 18.806487
_cell_length_c 9.703400
_cell_angle_alpha 52.247799
_cell_angle_beta 122.866311
_cell_angle_gamma 150.344530
_cell_volume 684.804934
_symmetry_space_group_name_H-M "P -1"
_symmetry_group_IT_number 2
_symmetry_cell_setting 'triclinic'
loop_
_space_group_symop_operation_xyz
x,y,z
-x,-y,-z
loop_
_atom_site_type_symbol
_atom_site_label
_atom_site_fract_x
_atom_site_fract_y
_atom_site_fract_z
Si Si1 0.883348 0.750107 0.654062
Si Si2 0.333370 0.742473 0.475072
Si Si3 0.742637 0.811108 0.762104
Si Si4 0.475716 0.991253 0.332022
Si Si5 0.957872 0.079552 0.942947
Si Si6 0.830132 0.398644 0.732665
Si Si7 0.605324 0.648053 0.345380
Si Si8 0.691130 0.512850 0.997096
O O1 0.768982 0.765344 0.692001
O O2 0.810283 0.754991 0.460047
O O3 0.747210 0.592105 0.794503
O O4 0.209597 0.882072 0.700274
O O5 0.615356 0.847332 0.592633
O O6 0.285812 0.826323 0.370099
O O7 0.347975 0.717490 0.354576
O O8 0.073647 0.571743 0.598881
O O9 0.494082 0.657653 0.901118
O O10 0.007438 0.916023 0.879169
O O11 0.338604 0.017858 0.159041
O O12 0.500000 0.000000 0.500000
O O13 0.195292 0.248816 0.801671
O O14 0.000000 0.000000 0.000000
O O15 0.634588 0.378935 0.742948
O O16 0.008877 0.392443 0.896735
O O17 0.500000 0.500000 0.500000
O O18 0.500000 0.500000 0.000000
#
# Coordination Sequence:
#
# PCOD9028190 Si02
#       8
#     2   2   2   2   2   2   2   2
#     4  11  24  43  70  99 136 180 231 285 348 420
#     4  10  22  42  69  98 138 173 232 289 344 415
#     4  10  22  45  67  99 133 178 227 294 344 408
#     4  12  26  44  65  98 140 186 227 284 357 426
#     4  12  28  46  67  96 147 183 229 292 359 418
#     4  10  22  41  72 104 130 183 235 289 347 416
#     4  12  25  46  72 105 138 188 239 290 350 426
#     4   9  21  40  67 102 138 165 228 294 343 399
#
# _framework density 23.364318000000001
#
# number of rings (size 3 to 8) (size 9 to 14) (size 15 to 20)
#    0.000    1.250    2.500    2.250    7.000    2.000 
#    0.000    1.875    0.000    0.000    0.000    0.000 
#    0.000    0.000    0.000    0.000    0.000    0.000 
#
# Total GULP energy -89317.356928 kJ/mol
# GULP energy per Si atom -5582.334808 kJ/mol
# Density = 2.331114 g / cm^3
# Si number density = 23.364318 Si / 1000 Ang^3
#
#
#
# Elastic Constant Matrix: (Units=GPa)
#
#
# Indices 1 2 3 4 5 6 
#
# 1 58.7318 8.8251 31.2476 12.3008 22.6477 2.9458
# 2 8.8251 54.2497 24.8393 12.8618 6.2721 1.8205
# 3 31.2476 24.8393 106.4403 33.4008 23.2609 11.1239
# 4 12.3008 12.8618 33.4008 52.3726 -1.2036 4.6340
# 5 22.6477 6.2721 23.2609 -1.2036 43.8113 6.5852
# 6 2.9458 1.8205 11.1239 4.6340 6.5852 35.6883
#
#
#
# Elastic Compliance Matrix: (Units=1/GPa)
#
#
# Indices 1 2 3 4 5 6 
#
# 1 0.023784 -0.000163 -0.003648 -0.003608 -0.010677 0.001621
# 2 -0.000163 0.020962 -0.003815 -0.002762 -0.001070 0.000690
# 3 -0.003648 -0.003815 0.015276 -0.007880 -0.005562 -0.002216
# 4 -0.003608 -0.002762 -0.007880 0.025980 0.007437 -0.001851
# 5 -0.010677 -0.001070 -0.005562 0.007437 0.032295 -0.004255
# 6 0.001621 0.000690 -0.002216 -0.001851 -0.004255 0.029568
#
#
# Mechanical properties :
#
#
# Convention : Reuss Voigt Hill
#
# Bulk Modulus (GPa) = 22.33675 38.80508 30.57091
# Shear Modulus (GPa) = 28.08355 36.67511 32.37933
#
# Velocity S-wave (km/s) = 3.47073 3.96625 3.72673
# Velocity P-wave (km/s) = 5.06381 6.13348 5.62414
#
# Compressibility (1/GPa) = 0.04476927
#
# Stress axis : x y z
#
# Youngs Moduli (GPa) = 42.04589 47.70487 65.46156
#
# Poissons Ratio (x) = 0.00779 0.23879
# Poissons Ratio (y) = 0.00686 0.24976
# Poissons Ratio (z) = 0.15337 0.18201
#
# Static dielectric constant tensor:
#      x y z
#    x 1.824990 -0.030450 -0.021660 
#    y -0.030450 1.925400 -0.014430 
#    z -0.021660 -0.014430 1.867180 
# 
# From -- ./inp_files/403046.got.cif
#   From: 2010.05.17/outbox.cif.g08.bks.cpg/sg2_202_cif.got.tgz:403046.got - 2010.06.03 11:33:40.
