data_PCOD9028350
_publ_section_title
;
Structure prediction by ZEFSAII (Michael W. Deem and Ramdas Pophale) SiO2 
 PCOD9028350
Probable space group: P -1
;
_chemical_formula_sum "Si O2"
_cell_formula_units_Z 16
_cell_length_a 19.134965
_cell_length_b 5.560076
_cell_length_c 6.693720
_cell_angle_alpha 111.158196
_cell_angle_beta 91.099014
_cell_angle_gamma 90.358951
_cell_volume 663.960347
_symmetry_space_group_name_H-M "P -1"
_symmetry_group_IT_number 2
_symmetry_cell_setting 'triclinic'
loop_
_space_group_symop_operation_xyz
x,y,z
-x,-y,-z
loop_
_atom_site_type_symbol
_atom_site_label
_atom_site_fract_x
_atom_site_fract_y
_atom_site_fract_z
Si Si1 0.334682 0.378201 0.384425
Si Si2 0.889299 0.547628 0.485369
Si Si3 0.993394 0.688188 0.865475
Si Si4 0.445720 0.829502 0.076582
Si Si5 0.747274 0.246424 0.300512
Si Si6 0.538017 0.639053 0.359458
Si Si7 0.215340 0.059132 0.482612
Si Si8 0.701309 0.312077 0.881622
O O1 0.323915 0.660884 0.570183
O O2 0.393881 0.260100 0.492616
O O3 0.262150 0.246802 0.402839
O O4 0.335438 0.454571 0.173281
O O5 0.921712 0.613640 0.722558
O O6 0.822364 0.358262 0.411301
O O7 0.861283 0.824497 0.487788
O O8 0.946395 0.408523 0.310887
O O9 0.000000 0.500000 0.000000
O O10 0.000000 0.000000 0.000000
O O11 0.483489 0.808177 0.285642
O O12 0.363555 0.884755 0.123050
O O13 0.441585 0.563726 0.872150
O O14 0.500000 0.000000 0.000000
O O15 0.755405 0.955839 0.294144
O O16 0.739189 0.335828 0.101511
O O17 0.500000 0.500000 0.500000
O O18 0.238736 0.797432 0.293968
#
# Coordination Sequence:
#
# PCOD9028350 Si02
#       8
#     2   2   2   2   2   2   2   2
#     4  10  22  42  59  92 130 172 229 296 361 431
#     4  10  26  47  74 112 150 189 245 293 357 436
#     4  11  28  48  83 117 158 201 245 300 362 437
#     4  11  26  39  60  91 121 172 237 299 363 447
#     4  10  23  43  67  96 143 179 234 294 349 427
#     4  11  23  41  61  83 126 172 224 298 368 430
#     4  10  25  40  70  98 135 187 230 293 353 439
#     4  11  23  40  62  95 133 177 241 294 370 436
#
# _framework density 24.097822000000001
#
# number of rings (size 3 to 8) (size 9 to 14) (size 15 to 20)
#    0.000    1.500    2.500    0.000    8.750    5.500 
#    0.000    0.000    0.000    0.000    0.000    0.000 
#    0.000    0.000    0.000    0.000    0.000    0.000 
#
# Total GULP energy -89085.097912 kJ/mol
# GULP energy per Si atom -5567.818619 kJ/mol
# Density = 2.404297 g / cm^3
# Si number density = 24.097822 Si / 1000 Ang^3
#
#
#
# Elastic Constant Matrix: (Units=GPa)
#
#
# Indices 1 2 3 4 5 6 
#
# 1 100.9497 27.9279 47.1868 -1.9522 15.2236 -10.2353
# 2 27.9279 98.3973 64.2982 -25.1560 14.7382 -16.0792
# 3 47.1868 64.2982 155.4014 -28.1169 20.7493 -4.8402
# 4 -1.9522 -25.1560 -28.1169 52.6911 -6.2902 -2.3299
# 5 15.2236 14.7382 20.7493 -6.2902 38.0536 -4.9773
# 6 -10.2353 -16.0792 -4.8402 -2.3299 -4.9773 42.4175
#
#
#
# Elastic Compliance Matrix: (Units=1/GPa)
#
#
# Indices 1 2 3 4 5 6 
#
# 1 0.012288 -0.001261 -0.003158 -0.002096 -0.002832 0.001679
# 2 -0.001261 0.016210 -0.005043 0.005061 -0.001485 0.005369
# 3 -0.003158 -0.005043 0.010180 0.002583 -0.002119 -0.001619
# 4 -0.002096 0.005061 0.002583 0.023038 0.001693 0.003172
# 5 -0.002832 -0.001485 -0.002119 0.001693 0.029696 0.002089
# 6 0.001679 0.005369 -0.001619 0.003172 0.002089 0.026250
#
#
# Mechanical properties :
#
#
# Convention : Reuss Voigt Hill
#
# Bulk Modulus (GPa) = 50.62270 70.39712 60.50991
# Shear Modulus (GPa) = 34.92352 40.98813 37.95582
#
# Velocity S-wave (km/s) = 3.81102 4.12868 3.97302
# Velocity P-wave (km/s) = 6.35751 7.21141 6.79788
#
# Compressibility (1/GPa) = 0.01975399
#
# Stress axis : x y z
#
# Youngs Moduli (GPa) = 81.38132 61.69152 98.22956
#
# Poissons Ratio (x) = 0.07781 0.31022
# Poissons Ratio (y) = 0.10264 0.49533
# Poissons Ratio (z) = 0.25701 0.31109
#
# Static dielectric constant tensor:
#      x y z
#    x 1.884630 -0.068130 -0.001660 
#    y -0.068130 2.299710 0.078380 
#    z -0.001660 0.078380 1.996660 
# 
# From -- ./inp_files/114811.got.cif
#   From: 2010.05.17/outbox.cif.g08.bks.cpg/sg2_58_cif.got.tgz:114811.got - 2010.06.03 11:33:40.
