data_PCOD9028374
_publ_section_title
;
Structure prediction by ZEFSAII (Michael W. Deem and Ramdas Pophale) SiO2 
 PCOD9028374
Probable space group: P -1
;
_chemical_formula_sum "Si O2"
_cell_formula_units_Z 14
_cell_length_a 15.879049
_cell_length_b 7.482002
_cell_length_c 8.812680
_cell_angle_alpha 52.297079
_cell_angle_beta 48.106666
_cell_angle_gamma 67.292260
_cell_volume 616.197303
_symmetry_space_group_name_H-M "P -1"
_symmetry_group_IT_number 2
_symmetry_cell_setting 'triclinic'
loop_
_space_group_symop_operation_xyz
x,y,z
-x,-y,-z
loop_
_atom_site_type_symbol
_atom_site_label
_atom_site_fract_x
_atom_site_fract_y
_atom_site_fract_z
Si Si1 0.445957 0.542780 0.382186
Si Si2 0.852180 0.787732 0.885189
Si Si3 0.461341 0.250664 0.119597
Si Si4 0.771127 0.868856 0.382728
Si Si5 0.637695 0.939100 0.235026
Si Si6 0.074422 0.007995 0.598841
Si Si7 0.188899 0.563424 0.650029
O O1 0.500000 0.500000 0.500000
O O2 0.319625 0.632485 0.490596
O O3 0.425051 0.279200 0.495879
O O4 0.518785 0.713076 0.102353
O O5 0.940763 0.962035 0.771857
O O6 0.881995 0.794151 0.669407
O O7 0.864194 0.548055 0.076683
O O8 0.726098 0.855005 0.046901
O O9 0.332857 0.187114 0.348816
O O10 0.547834 0.085623 0.182128
O O11 0.500000 0.500000 0.000000
O O12 0.807572 0.638115 0.373489
O O13 0.717579 0.026084 0.233664
O O14 0.873386 0.966720 0.310778
O O15 0.123977 0.784658 0.576252
#
# Coordination Sequence:
#
# PCOD9028374 Si02
#       7
#     2   2   2   2   2   2   2
#     4  10  23  37  58  91 125 165 205 251 310 368
#     4   9  22  42  63  91 123 160 214 256 311 371
#     4  12  22  39  62  87 130 170 197 258 310 369
#     4  10  24  40  63  98 123 164 217 242 315 382
#     4  10  23  41  59  90 129 161 206 263 304 367
#     4  11  22  42  67  89 123 166 207 262 310 362
#     4  10  22  42  60  91 128 159 205 265 301 369
#
# _framework density 22.719996999999999
#
# number of rings (size 3 to 8) (size 9 to 14) (size 15 to 20)
#    0.000    2.000    2.857    1.714    6.000    2.857 
#    0.000    2.857    0.000    0.000    0.000    0.000 
#    0.000    0.000    0.000    0.000    0.000    0.000 
#
# Total GULP energy -78151.991550 kJ/mol
# GULP energy per Si atom -5582.285111 kJ/mol
# Density = 2.266829 g / cm^3
# Si number density = 22.719997 Si / 1000 Ang^3
#
#
#
# Elastic Constant Matrix: (Units=GPa)
#
#
# Indices 1 2 3 4 5 6 
#
# 1 105.9229 30.3371 2.1910 4.7806 13.3450 4.4454
# 2 30.3371 55.3010 9.2863 -5.7967 -0.6007 -16.5759
# 3 2.1910 9.2863 94.1104 3.2734 18.8356 -12.6195
# 4 4.7806 -5.7967 3.2734 18.4006 -5.2567 5.7112
# 5 13.3450 -0.6007 18.8356 -5.2567 29.4272 -0.3321
# 6 4.4454 -16.5759 -12.6195 5.7112 -0.3321 31.0384
#
#
#
# Elastic Compliance Matrix: (Units=1/GPa)
#
#
# Indices 1 2 3 4 5 6 
#
# 1 0.014384 -0.010933 0.002276 -0.008690 -0.009817 -0.005479
# 2 -0.010933 0.030226 -0.003126 0.011208 0.009741 0.014479
# 3 0.002276 -0.003126 0.014285 -0.009160 -0.011815 0.005372
# 4 -0.008690 0.011208 -0.009160 0.071129 0.022633 -0.009340
# 5 -0.009817 0.009741 -0.011815 0.022633 0.050218 -0.001823
# 6 -0.005479 0.014479 0.005372 -0.009340 -0.001823 0.044618
#
#
# Mechanical properties :
#
#
# Convention : Reuss Voigt Hill
#
# Bulk Modulus (GPa) = 28.30484 37.66255 32.98370
# Shear Modulus (GPa) = 19.21583 30.00791 24.61187
#
# Velocity S-wave (km/s) = 2.91136 3.63818 3.29488
# Velocity P-wave (km/s) = 4.87714 5.85332 5.38739
#
# Compressibility (1/GPa) = 0.03532965
#
# Stress axis : x y z
#
# Youngs Moduli (GPa) = 69.52129 33.08418 70.00395
#
# Poissons Ratio (x) = 0.36171 -0.15936
# Poissons Ratio (y) = 0.76008 0.21883
# Poissons Ratio (z) = -0.15826 0.10342
#
# Static dielectric constant tensor:
#      x y z
#    x 1.910650 0.087030 0.025370 
#    y 0.087030 1.912560 0.036520 
#    z 0.025370 0.036520 1.888580 
# 
# From -- ./inp_files/201766.got.cif
#   From: 2010.05.17/outbox.cif.g08.bks.cpg/sg2_101_cif.got.tgz:201766.got - 2010.06.03 11:33:40.
