data_PCOD9028218
_publ_section_title
;
Structure prediction by ZEFSAII (Michael W. Deem and Ramdas Pophale) SiO2 
 PCOD9028218
Probable space group: P -1
;
_chemical_formula_sum "Si O2"
_cell_formula_units_Z 16
_cell_length_a 8.913583
_cell_length_b 15.142254
_cell_length_c 15.307471
_cell_angle_alpha 26.951996
_cell_angle_beta 129.912817
_cell_angle_gamma 132.590530
_cell_volume 684.839246
_symmetry_space_group_name_H-M "P -1"
_symmetry_group_IT_number 2
_symmetry_cell_setting 'triclinic'
loop_
_space_group_symop_operation_xyz
x,y,z
-x,-y,-z
loop_
_atom_site_type_symbol
_atom_site_label
_atom_site_fract_x
_atom_site_fract_y
_atom_site_fract_z
Si Si1 0.786502 0.800447 0.544224
Si Si2 0.411970 0.521794 0.542843
Si Si3 0.170691 0.384009 0.095073
Si Si4 0.527455 0.806431 0.728570
Si Si5 0.944895 0.395699 0.280591
Si Si6 0.580800 0.159799 0.156067
Si Si7 0.021806 0.562216 0.351224
Si Si8 0.787613 0.817519 0.100923
O O1 0.590588 0.619560 0.592978
O O2 0.858658 0.756666 0.705785
O O3 0.968894 0.783025 0.564428
O O4 0.707215 0.998134 0.340917
O O5 0.500000 0.500000 0.500000
O O6 0.267032 0.669248 0.348293
O O7 0.265445 0.304534 0.718528
O O8 0.316131 0.290155 0.173543
O O9 0.996565 0.417549 0.933745
O O10 0.274002 0.609290 0.977671
O O11 0.298428 0.655123 0.769994
O O12 0.565588 0.874727 0.782562
O O13 0.500000 0.000000 0.500000
O O14 0.002933 0.433164 0.369822
O O15 0.421159 0.136782 0.039228
O O16 0.000000 0.500000 0.500000
O O17 0.834199 0.656607 0.191911
O O18 0.000000 0.000000 0.000000
#
# Coordination Sequence:
#
# PCOD9028218 Si02
#       8
#     2   2   2   2   2   2   2   2
#     4  12  24  44  70 100 142 186 228 287 366 430
#     4  11  23  45  70  99 145 189 231 296 369 422
#     4  11  23  45  71  99 138 181 230 299 352 421
#     4  11  23  41  67  99 136 180 230 288 351 415
#     4  11  24  42  67 101 134 180 241 284 352 430
#     4  11  23  43  70 100 142 180 232 294 357 420
#     4  10  22  41  72  96 133 187 237 294 352 419
#     4  11  23  42  70 106 134 183 245 295 351 425
#
# _framework density 23.363146
#
# number of rings (size 3 to 8) (size 9 to 14) (size 15 to 20)
#    0.000    1.000    3.750    4.125    1.750    4.000 
#    2.250    3.750    0.000    0.000    0.000    0.000 
#    0.000    0.000    0.000    0.000    0.000    0.000 
#
# Total GULP energy -89083.620316 kJ/mol
# GULP energy per Si atom -5567.726270 kJ/mol
# Density = 2.330997 g / cm^3
# Si number density = 23.363146 Si / 1000 Ang^3
#
#
#
# Elastic Constant Matrix: (Units=GPa)
#
#
# Indices 1 2 3 4 5 6 
#
# 1 160.6494 41.8910 62.4712 -0.9389 19.5013 -38.6291
# 2 41.8910 85.1044 51.3587 15.8065 -1.2017 -16.5902
# 3 62.4712 51.3587 153.8909 6.0160 16.0004 -24.4723
# 4 -0.9389 15.8065 6.0160 36.8518 -4.5607 1.9119
# 5 19.5013 -1.2017 16.0004 -4.5607 41.4352 -3.3618
# 6 -38.6291 -16.5902 -24.4723 1.9119 -3.3618 40.6991
#
#
#
# Elastic Compliance Matrix: (Units=1/GPa)
#
#
# Indices 1 2 3 4 5 6 
#
# 1 0.009564 -0.002626 -0.001629 0.000878 -0.003307 0.006713
# 2 -0.002626 0.017463 -0.004405 -0.006608 0.002921 0.002529
# 3 -0.001629 -0.004405 0.009239 -0.000107 -0.002779 0.001989
# 4 0.000878 -0.006608 -0.000107 0.030487 0.002537 -0.003147
# 5 -0.003307 0.002921 -0.002779 0.002537 0.027005 -0.001508
# 6 0.006713 0.002529 0.001989 -0.003147 -0.001508 0.033192
#
#
# Mechanical properties :
#
#
# Convention : Reuss Voigt Hill
#
# Bulk Modulus (GPa) = 52.78302 79.00960 65.89631
# Shear Modulus (GPa) = 33.20390 40.05881 36.63135
#
# Velocity S-wave (km/s) = 3.77398 4.14528 3.96398
# Velocity P-wave (km/s) = 6.45229 7.53675 7.01551
#
# Compressibility (1/GPa) = 0.01894549
#
# Stress axis : x y z
#
# Youngs Moduli (GPa) = 104.56322 57.26517 108.23619
#
# Poissons Ratio (x) = 0.15035 0.17632
# Poissons Ratio (y) = 0.27454 0.47681
# Poissons Ratio (z) = 0.17034 0.25227
#
# Static dielectric constant tensor:
#      x y z
#    x 2.064000 0.117090 -0.156570 
#    y 0.117090 1.832250 -0.015670 
#    z -0.156570 -0.015670 2.133830 
# 
# From -- ./inp_files/505164.got.cif
#   From: 2010.05.17/outbox.cif.g08.bks.cpg/sg2_253_cif.got.tgz:505164.got - 2010.06.03 11:33:40.
