data_PCOD9028113
_publ_section_title
;
Structure prediction by ZEFSAII (Michael W. Deem and Ramdas Pophale) SiO2 
 PCOD9028113
Probable space group: P -1
;
_chemical_formula_sum "Si O2"
_cell_formula_units_Z 13
_cell_length_a 4.966777
_cell_length_b 10.140630
_cell_length_c 13.270390
_cell_angle_alpha 44.094203
_cell_angle_beta 88.433745
_cell_angle_gamma 97.393174
_cell_volume 454.221231
_symmetry_space_group_name_H-M "P -1"
_symmetry_group_IT_number 2
_symmetry_cell_setting 'triclinic'
loop_
_space_group_symop_operation_xyz
x,y,z
-x,-y,-z
loop_
_atom_site_type_symbol
_atom_site_label
_atom_site_fract_x
_atom_site_fract_y
_atom_site_fract_z
Si Si1 0.236048 0.809220 0.423677
Si Si2 0.223973 0.272974 0.780357
Si Si3 0.704467 0.353733 0.078999
Si Si4 0.036147 0.148341 0.323919
Si Si5 0.000000 0.500000 0.500000
Si Si6 0.663528 0.614447 0.640744
Si Si7 0.275360 0.871649 0.997116
O O1 0.466022 0.756985 0.524664
O O2 0.242883 0.718811 0.364488
O O3 0.934236 0.655618 0.540744
O O4 0.179850 0.023315 0.314236
O O5 0.215504 0.414522 0.611425
O O6 0.983219 0.263271 0.870690
O O7 0.500000 0.000000 0.000000
O O8 0.166623 0.058290 0.855338
O O9 0.766909 0.207577 0.248149
O O10 0.500000 0.500000 0.000000
O O11 0.642436 0.228580 0.047506
O O12 0.000000 0.500000 0.000000
O O13 0.225859 0.327676 0.280723
O O14 0.000000 0.000000 0.500000
O O15 0.497798 0.394214 0.766096
#
# Coordination Sequence:
#
# PCOD9028113 Si02
#       7
#     2   2   2   2   1   2   2
#     4  10  22  41  71 114 161 205 256 340 410 487
#     4  10  25  47  79 117 161 217 276 341 419 490
#     4  12  32  54  83 121 167 219 284 341 419 506
#     4  10  24  51  80 115 158 211 272 340 411 486
#     4  10  22  44  72 118 154 200 272 340 406 484
#     4  10  23  42  75 116 155 204 266 335 414 486
#     4  11  28  53  81 112 167 221 277 335 418 504
#
# _framework density 28.620418000000001
#
# number of rings (size 3 to 8) (size 9 to 14) (size 15 to 20)
#    0.000    1.538    0.000    1.385   10.769    9.846 
#   11.077    0.000    0.000    0.000    0.000    0.000 
#    0.000    0.000    0.000    0.000    0.000    0.000 
#
# Total GULP energy -72600.622261 kJ/mol
# GULP energy per Si atom -5584.663251 kJ/mol
# Density = 2.855528 g / cm^3
# Si number density = 28.620418 Si / 1000 Ang^3
#
#
#
# Elastic Constant Matrix: (Units=GPa)
#
#
# Indices 1 2 3 4 5 6 
#
# 1 185.5949 71.2941 60.0215 -6.3986 17.5090 5.1759
# 2 71.2941 215.7050 65.0666 5.3918 29.4214 7.5619
# 3 60.0215 65.0666 147.9592 3.8053 22.4089 -8.9695
# 4 -6.3986 5.3918 3.8053 44.5430 1.8353 15.3683
# 5 17.5090 29.4214 22.4089 1.8353 64.5078 -5.0117
# 6 5.1759 7.5619 -8.9695 15.3683 -5.0117 47.8370
#
#
#
# Elastic Compliance Matrix: (Units=1/GPa)
#
#
# Indices 1 2 3 4 5 6 
#
# 1 0.006837 -0.001520 -0.002161 0.001921 -0.000589 -0.001584
# 2 -0.001520 0.005975 -0.001809 -0.000297 -0.001770 -0.001209
# 3 -0.002161 -0.001809 0.008844 -0.001675 -0.001413 0.002568
# 4 0.001921 -0.000297 -0.001675 0.026053 -0.001243 -0.008975
# 5 -0.000589 -0.001770 -0.001413 -0.001243 0.017172 0.002277
# 6 -0.001584 -0.001209 0.002568 -0.008975 0.002277 0.024870
#
#
# Mechanical properties :
#
#
# Convention : Reuss Voigt Hill
#
# Bulk Modulus (GPa) = 93.66857 104.66927 99.16892
# Shear Modulus (GPa) = 47.94346 54.90270 51.42308
#
# Velocity S-wave (km/s) = 4.09730 4.38460 4.24338
# Velocity P-wave (km/s) = 7.42851 7.89201 7.66377
#
# Compressibility (1/GPa) = 0.01067594
#
# Stress axis : x y z
#
# Youngs Moduli (GPa) = 146.26532 167.36114 113.07688
#
# Poissons Ratio (x) = 0.25437 0.24439
# Poissons Ratio (y) = 0.22231 0.20452
# Poissons Ratio (z) = 0.31611 0.30270
#
# Static dielectric constant tensor:
#      x y z
#    x 2.412610 0.764820 0.252050 
#    y 0.764820 -2.660100 -1.246970 
#    z 0.252050 -1.246970 2.159430 
# 
# From -- ./inp_files/481960.got.cif
#   From: 2010.05.17/outbox.cif.g08.bks.cpg/sg2_241_cif.got.tgz:481960.got - 2010.06.03 11:33:40.
