data_PCOD9028731
_publ_section_title
;
Structure prediction by ZEFSAII (Michael W. Deem and Ramdas Pophale) SiO2 
 PCOD9028731
Probable space group: P -1
;
_chemical_formula_sum "Si O2"
_cell_formula_units_Z 15
_cell_length_a 16.580898
_cell_length_b 16.516363
_cell_length_c 16.527935
_cell_angle_alpha 24.684472
_cell_angle_beta 25.937145
_cell_angle_gamma 26.479500
_cell_volume 747.616921
_symmetry_space_group_name_H-M "P -1"
_symmetry_group_IT_number 2
_symmetry_cell_setting 'triclinic'
loop_
_space_group_symop_operation_xyz
x,y,z
-x,-y,-z
loop_
_atom_site_type_symbol
_atom_site_label
_atom_site_fract_x
_atom_site_fract_y
_atom_site_fract_z
Si Si1 0.512943 0.573137 0.230544
Si Si2 0.839176 0.598297 0.660122
Si Si3 0.763635 0.661038 0.354354
Si Si4 0.569388 0.156039 0.091864
Si Si5 0.019271 0.763340 0.708151
Si Si6 0.500000 0.500000 0.500000
Si Si7 0.029152 0.578086 0.032994
Si Si8 0.080632 0.789525 0.174162
O O1 0.383479 0.454967 0.417992
O O2 0.468632 0.598984 0.342695
O O3 0.456409 0.782012 0.036080
O O4 0.754654 0.428135 0.132797
O O5 0.643284 0.705843 0.796232
O O6 0.818021 0.426741 0.774264
O O7 0.046808 0.464282 0.644159
O O8 0.891437 0.770458 0.407381
O O9 0.867583 0.654822 0.179767
O O10 0.635368 0.905460 0.273041
O O11 0.751609 0.202376 0.923086
O O12 0.257422 0.608152 0.634001
O O13 0.925208 0.665203 0.814197
O O14 0.940679 0.726714 0.899274
O O15 0.000000 0.000000 0.500000
O O16 0.000000 0.000000 0.000000
#
# Coordination Sequence:
#
# PCOD9028731 Si02
#       8
#     2   2   2   2   2   1   2   2
#     4  11  24  44  67  97 139 177 227 279 330 396
#     4  11  25  46  69 100 139 171 224 279 325 412
#     4  12  24  43  66  98 136 174 226 278 327 401
#     4  12  26  42  72 101 131 187 219 270 349 394
#     4  10  22  42  67  91 129 176 223 284 338 388
#     4  10  22  42  64  96 132 172 228 274 318 400
#     4  10  23  43  64  96 131 172 229 279 330 399
#     4  11  24  47  73 101 135 176 219 275 341 400
#
# _framework density 20.063749999999999
#
# number of rings (size 3 to 8) (size 9 to 14) (size 15 to 20)
#    0.000    1.067    5.333    0.400    1.867    4.800 
#    0.000    2.667    0.000    0.000    0.000    0.000 
#    0.000    0.000    0.000    0.000    0.000    0.000 
#
# Total GULP energy -83522.156136 kJ/mol
# GULP energy per Si atom -5568.143742 kJ/mol
# Density = 2.001808 g / cm^3
# Si number density = 20.063750 Si / 1000 Ang^3
#
#
#
# Elastic Constant Matrix: (Units=GPa)
#
#
# Indices 1 2 3 4 5 6 
#
# 1 73.0330 13.6251 14.6047 -3.2979 13.5001 -12.6388
# 2 13.6251 34.2122 21.5802 -1.8045 4.6509 -8.2347
# 3 14.6047 21.5802 83.4426 -13.0774 16.2357 -1.0841
# 4 -3.2979 -1.8045 -13.0774 22.8614 -6.6211 2.1149
# 5 13.5001 4.6509 16.2357 -6.6211 32.4546 7.2274
# 6 -12.6388 -8.2347 -1.0841 2.1149 7.2274 21.2229
#
#
#
# Elastic Compliance Matrix: (Units=1/GPa)
#
#
# Indices 1 2 3 4 5 6 
#
# 1 0.018531 -0.002197 -0.000798 -0.002313 -0.010579 0.013976
# 2 -0.002197 0.040529 -0.009854 -0.005598 -0.004684 0.016067
# 3 -0.000798 -0.009854 0.016699 0.007617 -0.004457 -0.002687
# 4 -0.002313 -0.005598 0.007617 0.051689 0.011199 -0.012125
# 5 -0.010579 -0.004684 -0.004457 0.011199 0.045994 -0.025124
# 6 0.013976 0.016067 -0.002687 -0.012125 -0.025124 0.071303
#
#
# Mechanical properties :
#
#
# Convention : Reuss Voigt Hill
#
# Bulk Modulus (GPa) = 19.97575 32.25642 26.11608
# Shear Modulus (GPa) = 17.41374 24.69964 21.05669
#
# Velocity S-wave (km/s) = 2.94925 3.51245 3.24310
# Velocity P-wave (km/s) = 4.64491 5.70628 5.20273
#
# Compressibility (1/GPa) = 0.05006070
#
# Stress axis : x y z
#
# Youngs Moduli (GPa) = 53.96229 24.67374 59.88528
#
# Poissons Ratio (x) = 0.05420 0.04779
# Poissons Ratio (y) = 0.11855 0.59013
# Poissons Ratio (z) = 0.04306 0.24314
#
# Static dielectric constant tensor:
#      x y z
#    x 1.730860 -0.001240 0.024600 
#    y -0.001240 1.667120 -0.023430 
#    z 0.024600 -0.023430 1.707050 
# 
# From -- ./inp_files/525739.got.cif
#   From: 2010.05.17/outbox.cif.g08.bks.cpg/sg2_263_cif.got.tgz:525739.got - 2010.06.03 11:33:40.
