data_PCOD9028355
_publ_section_title
;
Structure prediction by ZEFSAII (Michael W. Deem and Ramdas Pophale) SiO2 
 PCOD9028355
Probable space group: P -1
;
_chemical_formula_sum "Si O2"
_cell_formula_units_Z 16
_cell_length_a 6.824809
_cell_length_b 10.619693
_cell_length_c 15.728878
_cell_angle_alpha 49.927395
_cell_angle_beta 59.638805
_cell_angle_gamma 80.701342
_cell_volume 729.183201
_symmetry_space_group_name_H-M "P -1"
_symmetry_group_IT_number 2
_symmetry_cell_setting 'triclinic'
loop_
_space_group_symop_operation_xyz
x,y,z
-x,-y,-z
loop_
_atom_site_type_symbol
_atom_site_label
_atom_site_fract_x
_atom_site_fract_y
_atom_site_fract_z
Si Si1 0.548747 0.856896 0.946310
Si Si2 0.290182 0.456083 0.359107
Si Si3 0.260854 0.437899 0.882088
Si Si4 0.673867 0.674089 0.413216
Si Si5 0.741956 0.305177 0.076313
Si Si6 0.832062 0.193404 0.810682
Si Si7 0.346465 0.992664 0.658551
Si Si8 0.199115 0.104962 0.468800
O O1 0.465283 0.771557 0.910886
O O2 0.722056 0.044084 0.832362
O O3 0.666514 0.729980 0.028581
O O4 0.310379 0.864333 0.046014
O O5 0.569490 0.489588 0.265152
O O6 0.220067 0.383282 0.498885
O O7 0.222811 0.629229 0.280397
O O8 0.184176 0.299138 0.388971
O O9 0.307510 0.566800 0.896441
O O10 0.986300 0.399867 0.937540
O O11 0.500000 0.500000 0.500000
O O12 0.553304 0.824619 0.399307
O O13 0.887125 0.762085 0.266710
O O14 0.790461 0.144294 0.185780
O O15 0.191434 0.028638 0.598590
O O16 0.552761 0.914860 0.612126
O O17 0.000000 0.000000 0.500000
#
# Coordination Sequence:
#
# PCOD9028355 Si02
#       8
#     2   2   2   2   2   2   2   2
#     4  10  23  43  67  90 129 170 214 265 317 372
#     4  10  22  43  62  92 129 160 215 264 311 386
#     4  10  22  42  60 100 125 159 216 265 317 386
#     4  11  25  39  64  94 129 170 206 265 317 377
#     4  11  22  39  70  91 128 168 204 272 322 374
#     4  10  23  44  62  94 127 169 222 258 306 392
#     4  10  23  42  60  99 124 155 223 253 312 391
#     4  10  22  42  67  90 126 169 201 267 324 371
#
# _framework density 21.942359
#
# number of rings (size 3 to 8) (size 9 to 14) (size 15 to 20)
#    0.000    1.750    1.250    1.500    5.250    3.000 
#    9.000    2.500    0.000    0.000    0.000    0.000 
#    0.000    0.000    0.000    0.000    0.000    0.000 
#
# Total GULP energy -89339.881640 kJ/mol
# GULP energy per Si atom -5583.742603 kJ/mol
# Density = 2.189242 g / cm^3
# Si number density = 21.942359 Si / 1000 Ang^3
#
#
#
# Elastic Constant Matrix: (Units=GPa)
#
#
# Indices 1 2 3 4 5 6 
#
# 1 40.1760 26.6652 5.9083 -8.8914 -12.5645 11.8166
# 2 26.6652 133.6329 13.7761 -39.5976 -7.3296 10.8466
# 3 5.9083 13.7761 65.0172 -12.7136 -16.5799 -1.6408
# 4 -8.8914 -39.5976 -12.7136 39.7706 -4.5989 -6.8577
# 5 -12.5645 -7.3296 -16.5799 -4.5989 19.1134 -10.0943
# 6 11.8166 10.8466 -1.6408 -6.8577 -10.0943 29.0772
#
#
#
# Elastic Compliance Matrix: (Units=1/GPa)
#
#
# Indices 1 2 3 4 5 6 
#
# 1 0.039475 -0.003029 0.008920 0.013091 0.036363 0.001302
# 2 -0.003029 0.012488 0.003827 0.015186 0.012205 0.004607
# 3 0.008920 0.003827 0.033289 0.026474 0.054122 0.021858
# 4 0.013091 0.015186 0.026474 0.064682 0.068574 0.029570
# 5 0.036363 0.012205 0.054122 0.068574 0.176691 0.061235
# 6 0.001302 0.004607 0.021858 0.029570 0.061235 0.061609
#
#
# Mechanical properties :
#
#
# Convention : Reuss Voigt Hill
#
# Bulk Modulus (GPa) = 9.55202 36.83613 23.19408
# Shear Modulus (GPa) = 12.38564 30.42401 21.40482
#
# Velocity S-wave (km/s) = 2.37842 3.72767 3.12669
# Velocity P-wave (km/s) = 3.45039 5.94571 4.86090
#
# Compressibility (1/GPa) = 0.10468989
#
# Stress axis : x y z
#
# Youngs Moduli (GPa) = 25.33243 80.07433 30.04014
#
# Poissons Ratio (x) = 0.24251 -0.26796
# Poissons Ratio (y) = 0.07672 -0.11497
# Poissons Ratio (z) = -0.22597 -0.30647
#
# Static dielectric constant tensor:
#      x y z
#    x 1.783300 -0.004810 -0.038910 
#    y -0.004810 1.831490 0.035320 
#    z -0.038910 0.035320 1.837640 
# 
# From -- ./inp_files/482607.got.cif
#   From: 2010.05.17/outbox.cif.g08.bks.cpg/sg2_242_cif.got.tgz:482607.got - 2010.06.03 11:33:40.
