data_PCOD9028307
_publ_section_title
;
Structure prediction by ZEFSAII (Michael W. Deem and Ramdas Pophale) SiO2 
 PCOD9028307
Probable space group: P -1
;
_chemical_formula_sum "Si O2"
_cell_formula_units_Z 14
_cell_length_a 9.102062
_cell_length_b 18.224264
_cell_length_c 8.039537
_cell_angle_alpha 34.324995
_cell_angle_beta 52.669002
_cell_angle_gamma 48.141240
_cell_volume 555.194781
_symmetry_space_group_name_H-M "P -1"
_symmetry_group_IT_number 2
_symmetry_cell_setting 'triclinic'
loop_
_space_group_symop_operation_xyz
x,y,z
-x,-y,-z
loop_
_atom_site_type_symbol
_atom_site_label
_atom_site_fract_x
_atom_site_fract_y
_atom_site_fract_z
Si Si1 0.903442 0.162524 0.302299
Si Si2 0.187193 0.355197 0.318897
Si Si3 0.502467 0.573699 0.188291
Si Si4 0.504742 0.841110 0.265247
Si Si5 0.881339 0.419674 0.640009
Si Si6 0.915482 0.841256 0.473804
Si Si7 0.324099 0.839404 0.033947
O O1 0.020147 0.195332 0.313888
O O2 0.680794 0.183828 0.471551
O O3 0.930067 0.258914 0.957714
O O4 0.000000 0.000000 0.500000
O O5 0.305304 0.265124 0.566050
O O6 0.956129 0.427682 0.388380
O O7 0.189573 0.251834 0.363682
O O8 0.298354 0.454088 0.997003
O O9 0.500000 0.500000 0.500000
O O10 0.414593 0.735139 0.012602
O O11 0.352850 0.524441 0.275481
O O12 0.470210 0.821890 0.126850
O O13 0.500000 0.000000 0.000000
O O14 0.000000 0.500000 0.500000
O O15 0.122178 0.822194 0.272422
O O16 0.761884 0.000691 0.267126
#
# Coordination Sequence:
#
# PCOD9028307 Si02
#       7
#     2   2   2   2   2   2   2
#     4  11  24  44  74 105 149 191 244 299 367 434
#     4  12  26  46  75 103 143 187 246 294 366 436
#     4  12  29  49  72 104 142 194 247 298 361 443
#     4  11  22  40  70 112 144 186 238 300 363 433
#     4  12  29  51  72 105 150 193 241 304 372 438
#     4  10  22  41  75 106 138 192 235 297 365 426
#     4  10  22  44  69 104 150 181 239 301 359 428
#
# _framework density 25.216373999999998
#
# number of rings (size 3 to 8) (size 9 to 14) (size 15 to 20)
#    0.000    0.857    4.286    1.714    6.000    5.143 
#    0.000    0.000    0.000    0.000    0.000    0.000 
#    0.000    0.000    0.000    0.000    0.000    0.000 
#
# Total GULP energy -78334.242033 kJ/mol
# GULP energy per Si atom -5595.303002 kJ/mol
# Density = 2.515898 g / cm^3
# Si number density = 25.216374 Si / 1000 Ang^3
#
#
#
# Elastic Constant Matrix: (Units=GPa)
#
#
# Indices 1 2 3 4 5 6 
#
# 1 151.0885 11.7092 36.9226 7.0610 -23.0174 8.2577
# 2 11.7092 47.2842 11.2070 6.6452 -14.6577 6.2635
# 3 36.9226 11.2070 118.9340 20.3348 -31.5021 -13.2448
# 4 7.0610 6.6452 20.3348 34.4975 1.5051 -9.5402
# 5 -23.0174 -14.6577 -31.5021 1.5051 41.7179 -0.5329
# 6 8.2577 6.2635 -13.2448 -9.5402 -0.5329 31.7684
#
#
#
# Elastic Compliance Matrix: (Units=1/GPa)
#
#
# Indices 1 2 3 4 5 6 
#
# 1 0.007735 0.000071 -0.001677 -0.001614 0.003044 -0.003157
# 2 0.000071 0.026077 0.000704 -0.007836 0.009926 -0.007053
# 3 -0.001677 0.000704 0.012928 -0.006768 0.009377 0.003812
# 4 -0.001614 -0.007836 -0.006768 0.038137 -0.009997 0.010428
# 5 0.003044 0.009926 0.009377 -0.009997 0.036563 -0.001228
# 6 -0.003157 -0.007053 0.003812 0.010428 -0.001228 0.038389
#
#
# Mechanical properties :
#
#
# Convention : Reuss Voigt Hill
#
# Bulk Modulus (GPa) = 22.25472 48.55380 35.40426
# Shear Modulus (GPa) = 28.31089 38.76129 33.53609
#
# Velocity S-wave (km/s) = 3.35433 3.92490 3.65078
# Velocity P-wave (km/s) = 4.88331 6.31161 5.64284
#
# Compressibility (1/GPa) = 0.04493429
#
# Stress axis : x y z
#
# Youngs Moduli (GPa) = 129.28662 38.34845 77.35386
#
# Poissons Ratio (x) = -0.00271 0.12975
# Poissons Ratio (y) = -0.00915 -0.05447
# Poissons Ratio (z) = 0.21686 -0.02701
#
# Static dielectric constant tensor:
#      x y z
#    x 2.034230 -0.054580 0.047840 
#    y -0.054580 2.083010 0.040190 
#    z 0.047840 0.040190 1.966590 
# 
# From -- ./inp_files/207963.got.cif
#   From: 2010.05.17/outbox.cif.g08.bks.cpg/sg2_104_cif.got.tgz:207963.got - 2010.06.03 11:33:40.
