data_PCOD9028258
_publ_section_title
;
Structure prediction by ZEFSAII (Michael W. Deem and Ramdas Pophale) SiO2 
 PCOD9028258
Probable space group: P -1
;
_chemical_formula_sum "Si O2"
_cell_formula_units_Z 16
_cell_length_a 11.334436
_cell_length_b 9.141068
_cell_length_c 21.127810
_cell_angle_alpha 63.196259
_cell_angle_beta 23.010519
_cell_angle_gamma 62.309003
_cell_volume 755.981081
_symmetry_space_group_name_H-M "P -1"
_symmetry_group_IT_number 2
_symmetry_cell_setting 'triclinic'
loop_
_space_group_symop_operation_xyz
x,y,z
-x,-y,-z
loop_
_atom_site_type_symbol
_atom_site_label
_atom_site_fract_x
_atom_site_fract_y
_atom_site_fract_z
Si Si1 0.336029 0.538281 0.343601
Si Si2 0.125748 0.110483 0.600037
Si Si3 0.356630 0.627146 0.180466
Si Si4 0.194634 0.880144 0.378540
Si Si5 0.735949 0.210099 0.257701
Si Si6 0.169365 0.988868 0.987104
Si Si7 0.864326 0.788205 0.827374
Si Si8 0.554463 0.655127 0.898738
O O1 0.465139 0.616016 0.201463
O O2 0.290928 0.687428 0.387244
O O3 0.547351 0.369400 0.287054
O O4 0.000000 0.500000 0.500000
O O5 0.488071 0.093002 0.424096
O O6 0.988259 0.281891 0.667790
O O7 0.013824 0.120846 0.580723
O O8 0.947179 0.972137 0.745432
O O9 0.376668 0.440672 0.182105
O O10 0.555390 0.743260 0.020484
O O11 0.505707 0.949776 0.195742
O O12 0.000000 0.000000 0.500000
O O13 0.885960 0.283589 0.230708
O O14 0.973146 0.103774 0.113787
O O15 0.272157 0.801290 0.999479
O O16 0.000000 0.000000 0.000000
O O17 0.829480 0.726667 0.784832
O O18 0.500000 0.500000 0.000000
#
# Coordination Sequence:
#
# PCOD9028258 Si02
#       8
#     2   2   2   2   2   2   2   2
#     4  11  23  43  70  99 134 180 227 285 347 402
#     4  11  22  43  67  99 128 186 219 278 336 411
#     4  10  22  41  73  91 130 180 232 272 342 408
#     4  11  24  42  73  99 133 180 227 272 347 411
#     4  12  25  41  70 103 139 172 234 285 342 407
#     4  12  26  43  70 104 139 178 231 293 338 404
#     4  11  24  42  67  98 134 179 231 274 338 413
#     4  10  24  43  69  98 136 181 227 279 349 406
#
# _framework density 21.164549999999998
#
# number of rings (size 3 to 8) (size 9 to 14) (size 15 to 20)
#    0.000    1.000    3.750    3.750    5.250    4.000 
#    0.000    0.625    0.000    0.000    0.000    0.000 
#    0.000    0.000    0.000    0.000    0.000    0.000 
#
# Total GULP energy -89209.648363 kJ/mol
# GULP energy per Si atom -5575.603023 kJ/mol
# Density = 2.111638 g / cm^3
# Si number density = 21.164550 Si / 1000 Ang^3
#
#
#
# Elastic Constant Matrix: (Units=GPa)
#
#
# Indices 1 2 3 4 5 6 
#
# 1 89.8945 35.8398 30.3561 15.2642 -13.4004 4.9326
# 2 35.8398 160.7380 51.9202 24.8549 12.6172 3.6427
# 3 30.3561 51.9202 122.1930 11.2492 -1.7212 13.2970
# 4 15.2642 24.8549 11.2492 33.5135 -0.9278 4.5835
# 5 -13.4004 12.6172 -1.7212 -0.9278 29.6582 -6.7570
# 6 4.9326 3.6427 13.2970 4.5835 -6.7570 27.9270
#
#
#
# Elastic Compliance Matrix: (Units=1/GPa)
#
#
# Indices 1 2 3 4 5 6 
#
# 1 0.014663 -0.002577 -0.002216 -0.003991 0.007772 0.001337
# 2 -0.002577 0.008802 -0.002764 -0.004587 -0.005185 0.000121
# 3 -0.002216 -0.002764 0.010354 0.000160 -0.000188 -0.004250
# 4 -0.003991 -0.004587 0.000160 0.035635 0.000232 -0.004565
# 5 0.007772 -0.005185 -0.000188 0.000232 0.041576 0.009414
# 6 0.001337 0.000121 -0.004250 -0.004565 0.009414 0.040606
#
#
# Mechanical properties :
#
#
# Convention : Reuss Voigt Hill
#
# Bulk Modulus (GPa) = 53.46216 67.67306 60.56761
# Shear Modulus (GPa) = 28.90415 35.20038 32.05226
#
# Velocity S-wave (km/s) = 3.69953 4.08263 3.89579
# Velocity P-wave (km/s) = 6.60029 7.36668 6.99399
#
# Compressibility (1/GPa) = 0.01870482
#
# Stress axis : x y z
#
# Youngs Moduli (GPa) = 68.19952 113.60911 96.58252
#
# Poissons Ratio (x) = 0.29274 0.21407
# Poissons Ratio (y) = 0.17573 0.26694
# Poissons Ratio (z) = 0.15116 0.31400
#
# Static dielectric constant tensor:
#      x y z
#    x 1.850220 -0.014510 0.055630 
#    y -0.014510 1.821770 -0.018420 
#    z 0.055630 -0.018420 1.769040 
# 
# From -- ./inp_files/610000.got.cif
#   From: 2010.05.17/outbox.cif.g08.bks.cpg/sg2_305_cif.got.tgz:610000.got - 2010.06.03 11:33:40.
