data_PCOD9028483
_publ_section_title
;
Structure prediction by ZEFSAII (Michael W. Deem and Ramdas Pophale) SiO2 
 PCOD9028483
Probable space group: P -1
;
_chemical_formula_sum "Si O2"
_cell_formula_units_Z 16
_cell_length_a 8.709328
_cell_length_b 5.855711
_cell_length_c 16.067157
_cell_angle_alpha 120.047405
_cell_angle_beta 75.114570
_cell_angle_gamma 90.994977
_cell_volume 679.401257
_symmetry_space_group_name_H-M "P -1"
_symmetry_group_IT_number 2
_symmetry_cell_setting 'triclinic'
loop_
_space_group_symop_operation_xyz
x,y,z
-x,-y,-z
loop_
_atom_site_type_symbol
_atom_site_label
_atom_site_fract_x
_atom_site_fract_y
_atom_site_fract_z
Si Si1 0.909003 0.986904 0.598132
Si Si2 0.237309 0.245544 0.806751
Si Si3 0.577588 0.286241 0.696151
Si Si4 0.312142 0.219807 0.142195
Si Si5 0.870522 0.235395 0.355423
Si Si6 0.577590 0.766659 0.054129
Si Si7 0.969285 0.499171 0.251315
Si Si8 0.570535 0.275710 0.515509
O O1 0.718971 0.040532 0.625624
O O2 0.956893 0.231308 0.691532
O O3 0.000000 0.000000 0.500000
O O4 0.969865 0.749912 0.609571
O O5 0.407451 0.206370 0.728698
O O6 0.289763 0.271333 0.898942
O O7 0.125248 0.484205 0.819301
O O8 0.149240 0.992768 0.751480
O O9 0.621220 0.504274 0.795129
O O10 0.573255 0.417945 0.630061
O O11 0.121928 0.270797 0.194375
O O12 0.426659 0.993073 0.134483
O O13 0.341047 0.158093 0.029418
O O14 0.744938 0.196789 0.437425
O O15 0.848771 0.486296 0.343385
O O16 0.500000 0.500000 0.000000
O O17 0.500000 0.500000 0.500000
O O18 0.500000 0.000000 0.500000
#
# Coordination Sequence:
#
# PCOD9028483 Si02
#       8
#     2   2   2   2   2   2   2   2
#     4  10  22  42  62  95 136 181 235 280 342 405
#     4  11  24  41  70  97 134 175 231 282 356 411
#     4  11  22  43  68 100 135 183 236 290 344 426
#     4  10  25  45  67 102 133 173 233 285 363 420
#     4  11  24  42  64  97 144 181 228 285 345 421
#     4  11  24  44  74 100 130 171 227 298 353 434
#     4  10  25  44  64  98 140 181 223 287 347 426
#     4  12  26  42  67 104 143 192 241 295 351 425
#
# _framework density 23.550146000000002
#
# number of rings (size 3 to 8) (size 9 to 14) (size 15 to 20)
#    0.000    1.250    3.750    0.750    7.000    2.000 
#    2.250    1.250    0.000    0.000    0.000    0.000 
#    0.000    0.000    0.000    0.000    0.000    0.000 
#
# Total GULP energy -89295.814342 kJ/mol
# GULP energy per Si atom -5580.988396 kJ/mol
# Density = 2.349654 g / cm^3
# Si number density = 23.550146 Si / 1000 Ang^3
#
#
#
# Elastic Constant Matrix: (Units=GPa)
#
#
# Indices 1 2 3 4 5 6 
#
# 1 116.4843 38.1891 30.8703 -7.1769 7.7365 -21.0051
# 2 38.1891 76.4552 17.6382 -14.0790 9.3379 -17.6578
# 3 30.8703 17.6382 89.9642 -18.3888 17.0210 -18.8009
# 4 -7.1769 -14.0790 -18.3888 39.8319 -9.6709 6.1957
# 5 7.7365 9.3379 17.0210 -9.6709 36.8549 -12.1462
# 6 -21.0051 -17.6578 -18.8009 6.1957 -12.1462 41.1708
#
#
#
# Elastic Compliance Matrix: (Units=1/GPa)
#
#
# Indices 1 2 3 4 5 6 
#
# 1 0.011217 -0.004606 -0.002709 -0.001133 0.000720 0.002893
# 2 -0.004606 0.017243 0.000160 0.004464 -0.000929 0.004172
# 3 -0.002709 0.000160 0.014419 0.004781 -0.003740 0.003448
# 4 -0.001133 0.004464 0.004781 0.029796 0.004873 0.000474
# 5 0.000720 -0.000929 -0.003740 0.004873 0.032576 0.007138
# 6 0.002893 0.004172 0.003448 0.000474 0.007138 0.031164
#
#
# Mechanical properties :
#
#
# Convention : Reuss Voigt Hill
#
# Bulk Modulus (GPa) = 35.00339 50.69986 42.85163
# Shear Modulus (GPa) = 31.20165 36.65193 33.92679
#
# Velocity S-wave (km/s) = 3.64387 3.94932 3.79967
# Velocity P-wave (km/s) = 5.70958 6.50933 6.12253
#
# Compressibility (1/GPa) = 0.02856866
#
# Stress axis : x y z
#
# Youngs Moduli (GPa) = 89.15019 57.99598 69.35201
#
# Poissons Ratio (x) = 0.26714 0.18788
# Poissons Ratio (y) = 0.41065 -0.01112
# Poissons Ratio (z) = 0.24152 -0.00930
#
# Static dielectric constant tensor:
#      x y z
#    x 1.979400 -0.075640 -0.046180 
#    y -0.075640 2.004360 0.024340 
#    z -0.046180 0.024340 1.929320 
# 
# From -- ./inp_files/38784.got.cif
#   From: 2010.05.17/outbox.cif.g08.bks.cpg/sg2_20_cif.got.tgz:38784.got - 2010.06.03 11:33:40.
