data_PCOD9028440
_publ_section_title
;
Structure prediction by ZEFSAII (Michael W. Deem and Ramdas Pophale) SiO2 
 PCOD9028440
Probable space group: P -1
;
_chemical_formula_sum "Si O2"
_cell_formula_units_Z 16
_cell_length_a 10.244249
_cell_length_b 17.201262
_cell_length_c 9.127026
_cell_angle_alpha 134.341915
_cell_angle_beta 78.020452
_cell_angle_gamma 69.369455
_cell_volume 791.229722
_symmetry_space_group_name_H-M "P -1"
_symmetry_group_IT_number 2
_symmetry_cell_setting 'triclinic'
loop_
_space_group_symop_operation_xyz
x,y,z
-x,-y,-z
loop_
_atom_site_type_symbol
_atom_site_label
_atom_site_fract_x
_atom_site_fract_y
_atom_site_fract_z
Si Si1 0.613537 0.793311 0.312452
Si Si2 0.628456 0.160920 0.004939
Si Si3 0.022353 0.534805 0.203587
Si Si4 0.416213 0.952989 0.859072
Si Si5 0.788546 0.531258 0.483351
Si Si6 0.837148 0.265253 0.110427
Si Si7 0.237328 0.052582 0.572462
Si Si8 0.980259 0.729562 0.684750
O O1 0.567848 0.827111 0.539533
O O2 0.412222 0.900993 0.422606
O O3 0.717605 0.845241 0.311970
O O4 0.758510 0.614968 0.007077
O O5 0.640955 0.109341 0.099502
O O6 0.404265 0.298043 0.198585
O O7 0.718390 0.227571 0.058733
O O8 0.739525 0.014147 0.680187
O O9 0.882989 0.544546 0.349885
O O10 0.988485 0.679201 0.451183
O O11 0.000000 0.500000 0.000000
O O12 0.500000 0.000000 0.000000
O O13 0.234308 0.109547 0.026769
O O14 0.944528 0.412213 0.415226
O O15 0.737961 0.437361 0.319339
O O16 0.035659 0.148713 0.821541
O O17 0.889937 0.249757 0.251145
#
# Coordination Sequence:
#
# PCOD9028440 Si02
#       8
#     2   2   2   2   2   2   2   2
#     4  11  21  39  60  92 126 154 201 261 316 363
#     4  12  24  39  69  90 125 166 212 258 303 365
#     4  12  23  36  65  94 123 157 203 263 315 355
#     4  12  23  40  63  96 125 159 206 263 317 361
#     4  10  22  42  62  90 124 166 209 249 304 376
#     4  10  23  43  63  89 125 169 214 244 305 376
#     4  11  22  39  64  92 120 160 208 258 306 366
#     4  10  23  41  61  88 128 163 205 246 312 379
#
# _framework density 20.221685999999998
#
# number of rings (size 3 to 8) (size 9 to 14) (size 15 to 20)
#    0.750    0.250    3.750    4.125    1.750    0.500 
#    0.000    0.000    0.000    1.500    0.000    0.000 
#    0.000    0.000    0.000    0.000    0.000    0.000 
#
# Total GULP energy -89276.048344 kJ/mol
# GULP energy per Si atom -5579.753022 kJ/mol
# Density = 2.017566 g / cm^3
# Si number density = 20.221686 Si / 1000 Ang^3
#
#
#
# Elastic Constant Matrix: (Units=GPa)
#
#
# Indices 1 2 3 4 5 6 
#
# 1 28.8073 10.0747 5.9016 -6.8119 -6.9317 1.8444
# 2 10.0747 53.7063 15.4463 -6.4393 -12.7678 -4.8188
# 3 5.9016 15.4463 112.6825 -1.0063 -11.2985 1.6752
# 4 -6.8119 -6.4393 -1.0063 35.7519 -3.3048 -0.8127
# 5 -6.9317 -12.7678 -11.2985 -3.3048 21.3352 -2.0167
# 6 1.8444 -4.8188 1.6752 -0.8127 -2.0167 24.5630
#
#
#
# Elastic Compliance Matrix: (Units=1/GPa)
#
#
# Indices 1 2 3 4 5 6 
#
# 1 0.041125 -0.004096 -0.000302 0.008117 0.011758 -0.002637
# 2 -0.004096 0.024330 -0.001804 0.004961 0.013656 0.006489
# 3 -0.000302 -0.001804 0.009535 0.000226 0.003845 -0.000658
# 4 0.008117 0.004961 0.000226 0.031468 0.010815 0.002277
# 5 0.011758 0.013656 0.003845 0.010815 0.063245 0.007084
# 6 -0.002637 0.006489 -0.000658 0.002277 0.007084 0.042884
#
#
# Mechanical properties :
#
#
# Convention : Reuss Voigt Hill
#
# Bulk Modulus (GPa) = 15.97746 28.67126 22.32436
# Shear Modulus (GPa) = 20.33734 27.24824 23.79279
#
# Velocity S-wave (km/s) = 3.17475 3.67478 3.43388
# Velocity P-wave (km/s) = 4.62136 5.67579 5.17550
#
# Compressibility (1/GPa) = 0.06258816
#
# Stress axis : x y z
#
# Youngs Moduli (GPa) = 24.31597 41.10084 104.87840
#
# Poissons Ratio (x) = 0.16834 0.03165
# Poissons Ratio (y) = 0.09960 0.18915
# Poissons Ratio (z) = 0.00734 0.07413
#
# Static dielectric constant tensor:
#      x y z
#    x 1.723960 -0.046730 0.036550 
#    y -0.046730 1.772670 -0.004050 
#    z 0.036550 -0.004050 1.721930 
# 
# From -- ./inp_files/279832.got.cif
#   From: 2010.05.17/outbox.cif.g08.bks.cpg/sg2_140_cif.got.tgz:279832.got - 2010.06.03 11:33:40.
