data_PCOD9028001
_publ_section_title
;
Structure prediction by ZEFSAII (Michael W. Deem and Ramdas Pophale) SiO2 
 PCOD9028001
Probable space group: P -1
;
_chemical_formula_sum "Si O2"
_cell_formula_units_Z 16
_cell_length_a 7.951340
_cell_length_b 12.443369
_cell_length_c 8.793559
_cell_angle_alpha 132.632466
_cell_angle_beta 89.285094
_cell_angle_gamma 101.221280
_cell_volume 619.226294
_symmetry_space_group_name_H-M "P -1"
_symmetry_group_IT_number 2
_symmetry_cell_setting 'triclinic'
loop_
_space_group_symop_operation_xyz
x,y,z
-x,-y,-z
loop_
_atom_site_type_symbol
_atom_site_label
_atom_site_fract_x
_atom_site_fract_y
_atom_site_fract_z
Si Si1 0.950577 0.201315 0.960212
Si Si2 0.246038 0.350059 0.905881
Si Si3 0.579463 0.336313 0.694520
Si Si4 0.103108 0.460812 0.708042
Si Si5 0.686336 0.725981 0.607073
Si Si6 0.934025 0.172814 0.293283
Si Si7 0.400751 0.083320 0.958380
Si Si8 0.634215 0.124237 0.712314
O O1 0.914791 0.370140 0.122762
O O2 0.944715 0.162548 0.100432
O O3 0.801788 0.093657 0.758701
O O4 0.126805 0.220359 0.882573
O O5 0.411353 0.318308 0.789960
O O6 0.138857 0.404184 0.821771
O O7 0.322881 0.490390 0.150121
O O8 0.484473 0.266951 0.477027
O O9 0.696704 0.254876 0.713353
O O10 0.267430 0.434224 0.580044
O O11 0.940758 0.342655 0.514320
O O12 0.874403 0.833341 0.657083
O O13 0.656787 0.782633 0.827033
O O14 0.766522 0.045462 0.218877
O O15 0.527584 0.153042 0.888031
O O16 0.500000 0.000000 0.000000
O O17 0.500000 0.000000 0.500000
#
# Coordination Sequence:
#
# PCOD9028001 Si02
#       8
#     2   2   2   2   2   2   2   2
#     4  12  23  43  66 101 132 174 220 270 329 394
#     4  10  22  41  70  95 134 174 212 276 329 386
#     4  10  22  45  65 100 131 167 224 269 329 387
#     4   9  21  41  65  97 130 171 216 270 323 392
#     4   9  23  44  68  94 133 177 216 269 329 393
#     4  10  24  43  66  94 135 170 225 258 333 388
#     4  12  24  46  68  95 134 178 218 275 326 385
#     4  12  28  42  67  98 133 168 227 271 327 394
#
# _framework density 25.838698000000001
#
# number of rings (size 3 to 8) (size 9 to 14) (size 15 to 20)
#    0.750    0.750    2.500    1.875    3.500    1.000 
#    2.250    2.500    0.000    0.000    0.000    0.000 
#    0.000    0.000    0.000    0.000    0.000    0.000 
#
# Total GULP energy -89478.011794 kJ/mol
# GULP energy per Si atom -5592.375737 kJ/mol
# Density = 2.577989 g / cm^3
# Si number density = 25.838698 Si / 1000 Ang^3
#
#
#
# Elastic Constant Matrix: (Units=GPa)
#
#
# Indices 1 2 3 4 5 6 
#
# 1 65.4316 17.2720 26.5805 -0.7304 17.1491 12.3444
# 2 17.2720 50.8245 4.6606 0.3929 8.9194 -4.4279
# 3 26.5805 4.6606 121.4207 1.5945 25.2139 1.1864
# 4 -0.7304 0.3929 1.5945 20.1450 5.1090 0.1035
# 5 17.1491 8.9194 25.2139 5.1090 60.5614 -0.8012
# 6 12.3444 -4.4279 1.1864 0.1035 -0.8012 49.1474
#
#
#
# Elastic Compliance Matrix: (Units=1/GPa)
#
#
# Indices 1 2 3 4 5 6 
#
# 1 0.020457 -0.006508 -0.003441 0.002097 -0.003654 -0.005705
# 2 -0.006508 0.022430 0.000898 -0.000317 -0.001760 0.003606
# 3 -0.003441 0.000898 0.009601 -0.000110 -0.003137 0.000663
# 4 0.002097 -0.000317 -0.000110 0.050955 -0.004810 -0.000738
# 5 -0.003654 -0.001760 -0.003137 -0.004810 0.019533 0.001163
# 6 -0.005705 0.003606 0.000663 -0.000738 0.001163 0.022109
#
#
# Mechanical properties :
#
#
# Convention : Reuss Voigt Hill
#
# Bulk Modulus (GPa) = 29.08249 37.18921 33.13585
# Shear Modulus (GPa) = 28.62867 38.58166 33.60516
#
# Velocity S-wave (km/s) = 3.33224 3.86835 3.61026
# Velocity P-wave (km/s) = 5.10734 5.86313 5.49824
#
# Compressibility (1/GPa) = 0.03438496
#
# Stress axis : x y z
#
# Youngs Moduli (GPa) = 48.88410 44.58228 104.15450
#
# Poissons Ratio (x) = 0.29016 0.35844
# Poissons Ratio (y) = 0.31815 -0.09355
# Poissons Ratio (z) = 0.16823 -0.04004
#
# Static dielectric constant tensor:
#      x y z
#    x 2.146690 -0.065490 -0.023790 
#    y -0.065490 2.016690 0.065850 
#    z -0.023790 0.065850 2.028070 
# 
# From -- ./inp_files/204274.got.cif
#   From: 2010.05.17/outbox.cif.g08.bks.cpg/sg2_103_cif.got.tgz:204274.got - 2010.06.03 11:33:40.
