data_PCOD9028131
_publ_section_title
;
Structure prediction by ZEFSAII (Michael W. Deem and Ramdas Pophale) SiO2 
 PCOD9028131
Probable space group: P -1
;
_chemical_formula_sum "Si O2"
_cell_formula_units_Z 16
_cell_length_a 8.943086
_cell_length_b 9.077659
_cell_length_c 20.636850
_cell_angle_alpha 119.836143
_cell_angle_beta 142.808032
_cell_angle_gamma 49.563674
_cell_volume 770.144336
_symmetry_space_group_name_H-M "P -1"
_symmetry_group_IT_number 2
_symmetry_cell_setting 'triclinic'
loop_
_space_group_symop_operation_xyz
x,y,z
-x,-y,-z
loop_
_atom_site_type_symbol
_atom_site_label
_atom_site_fract_x
_atom_site_fract_y
_atom_site_fract_z
Si Si1 0.816889 0.392218 0.410794
Si Si2 0.499403 0.370260 0.411946
Si Si3 0.185396 0.147951 0.261509
Si Si4 0.801598 0.977445 0.618916
Si Si5 0.444435 0.545934 0.913534
Si Si6 0.799187 0.346775 0.732774
Si Si7 0.831725 0.698363 0.026271
Si Si8 0.882819 0.123252 0.921049
O O1 0.767229 0.327721 0.450547
O O2 0.506463 0.551209 0.315337
O O3 0.000000 0.500000 0.500000
O O4 0.959832 0.206810 0.374900
O O5 0.500000 0.500000 0.500000
O O6 0.442819 0.194801 0.370658
O O7 0.244693 0.492808 0.300079
O O8 0.888143 0.341475 0.189911
O O9 0.161087 0.055500 0.299312
O O10 0.224277 0.997452 0.185862
O O11 0.823594 0.170461 0.659548
O O12 0.500000 0.000000 0.500000
O O13 0.630597 0.337505 0.897852
O O14 0.500000 0.500000 0.000000
O O15 0.552629 0.690295 0.951688
O O16 0.024479 0.302230 0.855761
O O17 0.872974 0.850862 0.028030
O O18 0.000000 0.500000 0.000000
O O19 0.000000 0.000000 0.000000
#
# Coordination Sequence:
#
# PCOD9028131 Si02
#       8
#     2   2   2   2   2   2   2   2
#     4  10  22  41  71  95 131 179 223 278 347 397
#     4  10  23  46  68  95 140 179 221 287 350 409
#     4  12  25  45  67 102 139 182 223 287 351 403
#     4  12  23  43  71  99 134 173 236 284 333 418
#     4  11  24  45  70 100 142 183 229 281 348 411
#     4  10  22  42  66  96 137 172 232 272 341 405
#     4  10  23  43  69  99 138 187 226 278 346 413
#     4  11  24  45  67 100 142 178 228 292 337 414
#
# _framework density 20.775327000000001
#
# number of rings (size 3 to 8) (size 9 to 14) (size 15 to 20)
#    0.750    0.500    3.750    2.250    5.250    0.500 
#    6.750    1.250    0.000    0.000    0.000    0.000 
#    0.000    0.000    0.000    0.000    0.000    0.000 
#
# Total GULP energy -89208.208004 kJ/mol
# GULP energy per Si atom -5575.513000 kJ/mol
# Density = 2.072804 g / cm^3
# Si number density = 20.775327 Si / 1000 Ang^3
#
#
#
# Elastic Constant Matrix: (Units=GPa)
#
#
# Indices 1 2 3 4 5 6 
#
# 1 88.4010 11.1874 25.7159 19.6916 6.3305 4.3815
# 2 11.1874 80.5582 13.0175 19.5002 9.6038 -22.0725
# 3 25.7159 13.0175 79.0928 14.8718 1.8479 -12.2393
# 4 19.6916 19.5002 14.8718 37.5436 6.6246 -10.7896
# 5 6.3305 9.6038 1.8479 6.6246 45.3096 8.3422
# 6 4.3815 -22.0725 -12.2393 -10.7896 8.3422 39.3536
#
#
#
# Elastic Compliance Matrix: (Units=1/GPa)
#
#
# Indices 1 2 3 4 5 6 
#
# 1 0.014455 -0.001240 -0.004051 -0.007021 0.000464 -0.005588
# 2 -0.001240 0.016748 0.000047 -0.004647 -0.004394 0.009204
# 3 -0.004051 0.000047 0.015147 -0.002472 -0.000552 0.004628
# 4 -0.007021 -0.004647 -0.002472 0.037058 -0.004937 0.008613
# 5 0.000464 -0.004394 -0.000552 -0.004937 0.025417 -0.009429
# 6 -0.005588 0.009204 0.004628 0.008613 -0.009429 0.036994
#
#
# Mechanical properties :
#
#
# Convention : Reuss Voigt Hill
#
# Bulk Modulus (GPa) = 27.88395 38.65486 33.26940
# Shear Modulus (GPa) = 29.71569 37.65011 33.68290
#
# Velocity S-wave (km/s) = 3.78608 4.26167 4.03090
# Velocity P-wave (km/s) = 5.70643 6.54693 6.14108
#
# Compressibility (1/GPa) = 0.03586293
#
# Stress axis : x y z
#
# Youngs Moduli (GPa) = 69.17957 59.70695 66.02121
#
# Poissons Ratio (x) = 0.07401 0.26747
# Poissons Ratio (y) = 0.08576 -0.00312
# Poissons Ratio (z) = 0.28027 -0.00282
#
# Static dielectric constant tensor:
#      x y z
#    x 1.746820 -0.000460 0.021200 
#    y -0.000460 1.700590 -0.041010 
#    z 0.021200 -0.041010 1.733370 
# 
# From -- ./inp_files/588078.got.cif
#   From: 2010.05.17/outbox.cif.g08.bks.cpg/sg2_295_cif.got.tgz:588078.got - 2010.06.03 11:33:40.
