data_PCOD9028411
_publ_section_title
;
Structure prediction by ZEFSAII (Michael W. Deem and Ramdas Pophale) SiO2 
 PCOD9028411
Probable space group: P -1
;
_chemical_formula_sum "Si O2"
_cell_formula_units_Z 14
_cell_length_a 14.123130
_cell_length_b 13.637002
_cell_length_c 11.036202
_cell_angle_alpha 66.680692
_cell_angle_beta 43.952334
_cell_angle_gamma 31.081162
_cell_volume 599.965087
_symmetry_space_group_name_H-M "P -1"
_symmetry_group_IT_number 2
_symmetry_cell_setting 'triclinic'
loop_
_space_group_symop_operation_xyz
x,y,z
-x,-y,-z
loop_
_atom_site_type_symbol
_atom_site_label
_atom_site_fract_x
_atom_site_fract_y
_atom_site_fract_z
Si Si1 0.669586 0.990857 0.808568
Si Si2 0.377197 0.236315 0.516459
Si Si3 0.964350 0.339865 0.794700
Si Si4 0.624207 0.406725 0.226293
Si Si5 0.929193 0.220327 0.258137
Si Si6 0.729763 0.499015 0.660687
Si Si7 0.735167 0.597712 0.207371
O O1 0.760739 0.989741 0.848077
O O2 0.970871 0.738211 0.581681
O O3 0.508141 0.187795 0.770452
O O4 0.500000 0.000000 0.000000
O O5 0.061116 0.389551 0.727510
O O6 0.374147 0.307877 0.364046
O O7 0.382713 0.308056 0.592810
O O8 0.694155 0.950845 0.375127
O O9 0.825970 0.425337 0.746896
O O10 0.744240 0.428861 0.041374
O O11 0.879658 0.188224 0.196647
O O12 0.329095 0.630595 0.477132
O O13 0.529722 0.395042 0.210084
O O14 0.863854 0.387613 0.191272
O O15 0.000000 0.500000 0.000000
#
# Coordination Sequence:
#
# PCOD9028411 Si02
#       7
#     2   2   2   2   2   2   2
#     4  11  21  35  64  94 122 161 202 258 312 362
#     4  11  23  40  62  95 122 163 210 264 305 364
#     4  11  24  40  64  90 127 163 214 255 312 367
#     4  10  22  42  65  88 127 173 198 259 310 369
#     4  10  22  42  61  92 130 157 211 256 308 374
#     4  11  22  43  61  91 128 162 212 255 306 374
#     4  12  20  38  65  92 125 160 201 255 318 361
#
# _framework density 23.334690999999999
#
# number of rings (size 3 to 8) (size 9 to 14) (size 15 to 20)
#    0.000    1.143    5.714    1.714    0.000    0.571 
#    0.000   10.714    0.000    0.000    0.000    0.000 
#    0.000    0.000    0.000    0.000    0.000    0.000 
#
# Total GULP energy -78203.992315 kJ/mol
# GULP energy per Si atom -5585.999451 kJ/mol
# Density = 2.328158 g / cm^3
# Si number density = 23.334691 Si / 1000 Ang^3
#
#
#
# Elastic Constant Matrix: (Units=GPa)
#
#
# Indices 1 2 3 4 5 6 
#
# 1 152.0151 52.2205 37.3233 -15.2664 -9.1175 -56.9476
# 2 52.2205 128.5432 41.4249 -16.2336 -8.1972 -33.2844
# 3 37.3233 41.4249 97.1751 -28.5135 -23.7540 -6.7901
# 4 -15.2664 -16.2336 -28.5135 30.8412 -1.3815 9.8453
# 5 -9.1175 -8.1972 -23.7540 -1.3815 42.4712 -6.5335
# 6 -56.9476 -33.2844 -6.7901 9.8453 -6.5335 60.9480
#
#
#
# Elastic Compliance Matrix: (Units=1/GPa)
#
#
# Indices 1 2 3 4 5 6 
#
# 1 0.011563 -0.001040 -0.002968 -0.000745 0.002176 0.010259
# 2 -0.001040 0.010569 -0.003565 0.000372 0.000512 0.004398
# 3 -0.002968 -0.003565 0.020017 0.016932 0.009779 -0.004176
# 4 -0.000745 0.000372 0.016932 0.050154 0.010149 -0.005620
# 5 0.002176 0.000512 0.009779 0.010149 0.030688 0.005052
# 6 0.010259 0.004398 -0.004176 -0.005620 0.005052 0.029379
#
#
# Mechanical properties :
#
#
# Convention : Reuss Voigt Hill
#
# Bulk Modulus (GPa) = 37.03095 71.07453 54.05274
# Shear Modulus (GPa) = 28.32607 43.30309 35.81458
#
# Velocity S-wave (km/s) = 3.48789 4.31250 3.92193
# Velocity P-wave (km/s) = 5.66784 7.43786 6.61235
#
# Compressibility (1/GPa) = 0.02700444
#
# Stress axis : x y z
#
# Youngs Moduli (GPa) = 86.48148 94.61594 49.95788
#
# Poissons Ratio (x) = 0.09840 0.14826
# Poissons Ratio (y) = 0.08994 0.17808
# Poissons Ratio (z) = 0.25666 0.33727
#
# Static dielectric constant tensor:
#      x y z
#    x 1.947660 0.013590 -0.024780 
#    y 0.013590 1.886020 0.019170 
#    z -0.024780 0.019170 1.916170 
# 
# From -- ./inp_files/455612.got.cif
#   From: 2010.05.17/outbox.cif.g08.bks.cpg/sg2_228_cif.got.tgz:455612.got - 2010.06.03 11:33:40.
