data_PCOD9028717
_publ_section_title
;
Structure prediction by ZEFSAII (Michael W. Deem and Ramdas Pophale) SiO2 
 PCOD9028717
Probable space group: P -1
;
_chemical_formula_sum "Si O2"
_cell_formula_units_Z 16
_cell_length_a 9.152296
_cell_length_b 11.668017
_cell_length_c 15.476008
_cell_angle_alpha 37.109201
_cell_angle_beta 118.127001
_cell_angle_gamma 136.865145
_cell_volume 656.814401
_symmetry_space_group_name_H-M "P -1"
_symmetry_group_IT_number 2
_symmetry_cell_setting 'triclinic'
loop_
_space_group_symop_operation_xyz
x,y,z
-x,-y,-z
loop_
_atom_site_type_symbol
_atom_site_label
_atom_site_fract_x
_atom_site_fract_y
_atom_site_fract_z
Si Si1 0.971643 0.612401 0.330890
Si Si2 0.938841 0.024028 0.262192
Si Si3 0.424259 0.157801 0.864764
Si Si4 0.869560 0.091656 0.383311
Si Si5 0.184975 0.461360 0.382148
Si Si6 0.552991 0.079195 0.567150
Si Si7 0.705276 0.836304 0.833754
Si Si8 0.745764 0.732493 0.090810
O O1 0.804989 0.340613 0.494103
O O2 0.790633 0.559720 0.244346
O O3 0.166118 0.640529 0.322851
O O4 0.075863 0.871588 0.251872
O O5 0.803936 0.999317 0.157858
O O6 0.848535 0.750804 0.439278
O O7 0.193555 0.191921 0.204135
O O8 0.908128 0.143461 0.261907
O O9 0.600850 0.384449 0.711217
O O10 0.392363 0.248822 0.890116
O O11 0.500000 0.000000 0.000000
O O12 0.980916 0.322397 0.341378
O O13 0.613045 0.894567 0.454339
O O14 0.000000 0.000000 0.500000
O O15 0.532091 0.865317 0.741476
O O16 0.500000 0.000000 0.500000
O O17 0.653607 0.679673 0.999852
O O18 0.000000 0.000000 0.000000
#
# Coordination Sequence:
#
# PCOD9028717 Si02
#       8
#     2   2   2   2   2   2   2   2
#     4  11  22  40  69  99 126 168 217 272 317 383
#     4  11  23  42  66  99 130 170 212 275 322 381
#     4  12  25  41  68  96 134 174 214 268 330 382
#     4  10  24  42  63  94 136 170 208 271 323 388
#     4  11  24  43  65 100 129 168 220 267 330 380
#     4  12  23  42  68  95 131 174 219 263 327 380
#     4  11  23  42  68  97 130 167 222 268 323 380
#     4  10  22  42  64  95 133 169 211 268 323 386
#
# _framework density 24.359999999999999
#
# number of rings (size 3 to 8) (size 9 to 14) (size 15 to 20)
#    0.000    1.000    5.000    3.000    7.000    0.000 
#    0.000    1.250    0.000    0.000    0.000    0.000 
#    0.000    0.000    0.000    0.000    0.000    0.000 
#
# Total GULP energy -89448.262669 kJ/mol
# GULP energy per Si atom -5590.516417 kJ/mol
# Density = 2.430456 g / cm^3
# Si number density = 24.360000 Si / 1000 Ang^3
#
#
#
# Elastic Constant Matrix: (Units=GPa)
#
#
# Indices 1 2 3 4 5 6 
#
# 1 155.7963 2.4309 36.3070 11.9134 -17.7638 -4.1735
# 2 2.4309 50.0203 -12.4314 14.8477 -0.9069 -12.9272
# 3 36.3070 -12.4314 100.4077 22.5392 3.8146 -6.6868
# 4 11.9134 14.8477 22.5392 48.7616 7.7805 -8.9181
# 5 -17.7638 -0.9069 3.8146 7.7805 46.9104 7.8316
# 6 -4.1735 -12.9272 -6.6868 -8.9181 7.8316 38.9001
#
#
#
# Elastic Compliance Matrix: (Units=1/GPa)
#
#
# Indices 1 2 3 4 5 6 
#
# 1 0.007521 -0.000951 -0.002812 -0.000947 0.003363 -0.000887
# 2 -0.000951 0.026270 0.006175 -0.009217 -0.000094 0.007595
# 3 -0.002812 0.006175 0.013482 -0.006686 -0.001403 0.002818
# 4 -0.000947 -0.009217 -0.006686 0.028038 -0.005170 0.003155
# 5 0.003363 -0.000094 -0.001403 -0.005170 0.024570 -0.006043
# 6 -0.000887 0.007595 0.002818 0.003155 -0.006043 0.030560
#
#
# Mechanical properties :
#
#
# Convention : Reuss Voigt Hill
#
# Bulk Modulus (GPa) = 19.19513 39.87083 29.53298
# Shear Modulus (GPa) = 34.96935 45.57564 40.27249
#
# Velocity S-wave (km/s) = 3.79294 4.33011 4.07039
# Velocity P-wave (km/s) = 5.20372 6.43449 5.85155
#
# Compressibility (1/GPa) = 0.05209654
#
# Stress axis : x y z
#
# Youngs Moduli (GPa) = 132.96414 38.06674 74.17132
#
# Poissons Ratio (x) = 0.03621 0.20853
# Poissons Ratio (y) = 0.12649 -0.45799
# Poissons Ratio (z) = 0.37383 -0.23505
#
# Static dielectric constant tensor:
#      x y z
#    x 1.920480 0.027950 -0.016410 
#    y 0.027950 2.033220 -0.057250 
#    z -0.016410 -0.057250 1.901870 
# 
# From -- ./inp_files/205598.got.cif
#   From: 2010.05.17/outbox.cif.g08.bks.cpg/sg2_103_cif.got.tgz:205598.got - 2010.06.03 11:33:40.
