data_PCOD9028143
_publ_section_title
;
Structure prediction by ZEFSAII (Michael W. Deem and Ramdas Pophale) SiO2 
 PCOD9028143
Probable space group: P -1
;
_chemical_formula_sum "Si O2"
_cell_formula_units_Z 14
_cell_length_a 10.222563
_cell_length_b 11.442217
_cell_length_c 12.345462
_cell_angle_alpha 134.404754
_cell_angle_beta 137.917577
_cell_angle_gamma 77.227970
_cell_volume 540.880888
_symmetry_space_group_name_H-M "P -1"
_symmetry_group_IT_number 2
_symmetry_cell_setting 'triclinic'
loop_
_space_group_symop_operation_xyz
x,y,z
-x,-y,-z
loop_
_atom_site_type_symbol
_atom_site_label
_atom_site_fract_x
_atom_site_fract_y
_atom_site_fract_z
Si Si1 0.758085 0.201808 0.105883
Si Si2 0.070011 0.236743 0.522104
Si Si3 0.924593 0.789716 0.871234
Si Si4 0.588082 0.417658 0.866849
Si Si5 0.527458 0.275477 0.364953
Si Si6 0.371410 0.225584 0.988458
Si Si7 0.050158 0.630512 0.007645
O O1 0.468041 0.253848 0.187707
O O2 0.567995 0.952887 0.807566
O O3 0.973501 0.194204 0.933882
O O4 0.960691 0.284939 0.188996
O O5 0.299841 0.269400 0.623944
O O6 0.223680 0.433614 0.824382
O O7 0.905654 0.244408 0.336278
O O8 0.883162 0.014612 0.325173
O O9 0.632333 0.674726 0.633669
O O10 0.000000 0.000000 0.000000
O O11 0.648778 0.593781 0.932984
O O12 0.676206 0.287005 0.800441
O O13 0.000000 0.500000 0.000000
O O14 0.816259 0.444254 0.672699
O O15 0.578390 0.261919 0.055669
#
# Coordination Sequence:
#
# PCOD9028143 Si02
#       7
#     2   2   2   2   2   2   2
#     4  10  22  41  71  97 131 181 236 285 335 408
#     4  10  23  41  64  99 146 175 228 283 350 409
#     4  10  24  45  70 101 132 180 239 285 336 414
#     4  11  25  40  64 105 140 180 226 284 355 413
#     4  10  22  44  69  95 134 183 236 282 341 414
#     4  11  22  43  71  98 138 187 233 282 343 418
#     4  12  26  44  69 100 143 181 229 288 356 415
#
# _framework density 25.883700999999999
#
# number of rings (size 3 to 8) (size 9 to 14) (size 15 to 20)
#    0.000    1.429    0.000    5.143    8.000    0.571 
#    2.571    2.857    0.000    0.000    0.000    0.000 
#    0.000    0.000    0.000    0.000    0.000    0.000 
#
# Total GULP energy -78267.886302 kJ/mol
# GULP energy per Si atom -5590.563307 kJ/mol
# Density = 2.582479 g / cm^3
# Si number density = 25.883701 Si / 1000 Ang^3
#
#
#
# Elastic Constant Matrix: (Units=GPa)
#
#
# Indices 1 2 3 4 5 6 
#
# 1 64.5472 36.4650 19.2268 13.2147 24.6317 1.8616
# 2 36.4650 146.1841 29.3572 0.9343 15.6344 10.8135
# 3 19.2268 29.3572 112.7214 17.0182 23.0516 5.2979
# 4 13.2147 0.9343 17.0182 24.5515 -2.3452 5.6213
# 5 24.6317 15.6344 23.0516 -2.3452 39.4742 -7.9585
# 6 1.8616 10.8135 5.2979 5.6213 -7.9585 48.7119
#
#
#
# Elastic Compliance Matrix: (Units=1/GPa)
#
#
# Indices 1 2 3 4 5 6 
#
# 1 0.029006 -0.005660 0.003438 -0.019358 -0.019245 -0.001136
# 2 -0.005660 0.008656 -0.002191 0.004774 0.001303 -0.001805
# 3 0.003438 -0.002191 0.012533 -0.011069 -0.009513 -0.001285
# 4 -0.019358 0.004774 -0.011069 0.061200 0.019691 -0.002961
# 5 -0.019245 0.001303 -0.009513 0.019691 0.044869 0.006539
# 6 -0.001136 -0.001805 -0.001285 -0.002961 0.006539 0.022523
#
#
# Mechanical properties :
#
#
# Convention : Reuss Voigt Hill
#
# Bulk Modulus (GPa) = 24.17296 54.83896 39.50596
# Shear Modulus (GPa) = 24.82601 38.44111 31.63356
#
# Velocity S-wave (km/s) = 3.10035 3.85794 3.49971
# Velocity P-wave (km/s) = 4.70910 6.40918 5.62375
#
# Compressibility (1/GPa) = 0.04136854
#
# Stress axis : x y z
#
# Youngs Moduli (GPa) = 34.47600 115.52325 79.79230
#
# Poissons Ratio (x) = 0.65384 -0.27433
# Poissons Ratio (y) = 0.19513 0.17485
# Poissons Ratio (z) = -0.11853 0.25314
#
# Static dielectric constant tensor:
#      x y z
#    x 2.101020 0.004730 -0.026500 
#    y 0.004730 2.311720 0.123430 
#    z -0.026500 0.123430 1.996410 
# 
# From -- ./inp_files/505621.got.cif
#   From: 2010.05.17/outbox.cif.g08.bks.cpg/sg2_253_cif.got.tgz:505621.got - 2010.06.03 11:33:40.
