data_PCOD9028896
_publ_section_title
;
Structure prediction by ZEFSAII (Michael W. Deem and Ramdas Pophale) SiO2 
 PCOD9028896
Probable space group: P -1
;
_chemical_formula_sum "Si O2"
_cell_formula_units_Z 16
_cell_length_a 8.328754
_cell_length_b 9.416233
_cell_length_c 11.707908
_cell_angle_alpha 129.425376
_cell_angle_beta 79.620596
_cell_angle_gamma 120.622037
_cell_volume 595.999008
_symmetry_space_group_name_H-M "P -1"
_symmetry_group_IT_number 2
_symmetry_cell_setting 'triclinic'
loop_
_space_group_symop_operation_xyz
x,y,z
-x,-y,-z
loop_
_atom_site_type_symbol
_atom_site_label
_atom_site_fract_x
_atom_site_fract_y
_atom_site_fract_z
Si Si1 0.776652 0.189683 0.802552
Si Si2 0.196343 0.576214 0.660077
Si Si3 0.729167 0.763382 0.587761
Si Si4 0.011386 0.106527 0.879738
Si Si5 0.738449 0.988081 0.068194
Si Si6 0.352368 0.600402 0.895336
Si Si7 0.380201 0.218553 0.633436
Si Si8 0.236155 0.748051 0.432821
O O1 0.780940 0.237305 0.694451
O O2 0.979780 0.247022 0.861866
O O3 0.657013 0.930487 0.710049
O O4 0.697425 0.314838 0.943672
O O5 0.320277 0.483545 0.537893
O O6 0.214589 0.553185 0.782159
O O7 0.971570 0.424200 0.583599
O O8 0.261899 0.823517 0.765609
O O9 0.757006 0.815853 0.474779
O O10 0.905819 0.874906 0.710817
O O11 0.207267 0.146979 0.923734
O O12 0.896168 0.097352 0.003595
O O13 0.548250 0.814652 0.941048
O O14 0.385420 0.403471 0.801694
O O15 0.591415 0.295395 0.596863
O O16 0.307982 0.991529 0.586263
#
# Coordination Sequence:
#
# PCOD9028896 Si02
#       8
#     2   2   2   2   2   2   2   2
#     4   9  20  42  61  92 125 162 211 257 311 361
#     4  11  22  39  68  93 126 172 202 257 320 371
#     4   8  19  41  58  92 124 158 214 245 317 357
#     4   9  21  42  63  89 125 168 209 260 308 362
#     4  11  23  41  66  91 130 163 212 257 311 382
#     4  11  23  40  64  96 125 167 210 256 318 368
#     4   9  21  41  65  89 125 164 208 259 310 369
#     4  10  22  42  65  94 127 163 211 256 315 374
#
# _framework density 26.845680000000002
#
# number of rings (size 3 to 8) (size 9 to 14) (size 15 to 20)
#    0.750    1.500    1.250    0.375    3.500    6.000 
#    6.750    6.875    0.000    0.000    0.000    0.000 
#    0.000    0.000    0.000    0.000    0.000    0.000 
#
# Total GULP energy -89358.929430 kJ/mol
# GULP energy per Si atom -5584.933089 kJ/mol
# Density = 2.678458 g / cm^3
# Si number density = 26.845680 Si / 1000 Ang^3
#
#
#
# Elastic Constant Matrix: (Units=GPa)
#
#
# Indices 1 2 3 4 5 6 
#
# 1 19.2533 -34.6499 -34.3509 -202.9937 109.9800 344.4022
# 2 -34.6499 13.0564 -55.2084 -212.9414 119.4332 317.7590
# 3 -34.3509 -55.2084 41.6718 -235.1274 110.8350 420.9683
# 4 -202.9937 -212.9414 -235.1274 -486.9602 311.4114 858.5623
# 5 109.9800 119.4332 110.8350 311.4114 -144.3402 -524.5640
# 6 344.4022 317.7590 420.9683 858.5623 -524.5640-1341.9456
#
#
#
# Elastic Compliance Matrix: (Units=1/GPa)
#
#
# Indices 1 2 3 4 5 6 
#
# 1 0.015585 -0.006449 -0.004082 -0.002649 0.001152 -0.000953
# 2 -0.006449 0.016886 -0.003283 0.005419 -0.002034 0.005575
# 3 -0.004082 -0.003283 0.010932 -0.002790 0.006646 -0.002778
# 4 -0.002649 0.005419 -0.002790 0.021221 0.005341 0.011217
# 5 0.001152 -0.002034 0.006646 0.005341 0.024788 -0.004374
# 6 -0.000953 0.005575 -0.002778 0.011217 -0.004374 0.008345
#
#
# Mechanical properties :
#
#
# Convention : Reuss Voigt Hill
#
# Bulk Modulus (GPa) = 63.39194 -19.38187 22.00503
# Shear Modulus (GPa) = 38.27175 -381.43650 -171.58238
#
# Velocity S-wave (km/s) = 3.77983 -11.93287 -8.00332
# Velocity P-wave (km/s) = 6.53561 14.03899 8.78575
#
# Compressibility (1/GPa) = 0.01577488
#
# Stress axis : x y z
#
# Youngs Moduli (GPa) = 64.16393 59.22067 91.47286
#
# Poissons Ratio (x) = 0.38193 0.37339
# Poissons Ratio (y) = 0.41381 0.30030
# Poissons Ratio (z) = 0.26192 0.19442
#
# Static dielectric constant tensor:
#      x y z
#    x 2.140010 0.086530 0.013960 
#    y 0.086530 2.136650 0.046190 
#    z 0.013960 0.046190 2.033690 
# 
# From -- ./inp_files/500982.got.cif
#   From: 2010.05.17/outbox.cif.g08.bks.cpg/sg2_251_cif.got.tgz:500982.got - 2010.06.03 11:33:40.
