data_PCOD9028153
_publ_section_title
;
Structure prediction by ZEFSAII (Michael W. Deem and Ramdas Pophale) SiO2 
 PCOD9028153
Probable space group: P -1
;
_chemical_formula_sum "Si O2"
_cell_formula_units_Z 12
_cell_length_a 14.309015
_cell_length_b 11.275998
_cell_length_c 9.562703
_cell_angle_alpha 55.486197
_cell_angle_beta 154.990626
_cell_angle_gamma 127.059159
_cell_volume 519.583658
_symmetry_space_group_name_H-M "P -1"
_symmetry_group_IT_number 2
_symmetry_cell_setting 'triclinic'
loop_
_space_group_symop_operation_xyz
x,y,z
-x,-y,-z
loop_
_atom_site_type_symbol
_atom_site_label
_atom_site_fract_x
_atom_site_fract_y
_atom_site_fract_z
Si Si1 0.679618 0.398058 0.824863
Si Si2 0.023403 0.135451 0.046465
Si Si3 0.421430 0.839609 0.396665
Si Si4 0.397873 0.142134 0.784367
Si Si5 0.470631 0.167927 0.165253
Si Si6 0.049495 0.592297 0.362852
O O1 0.500000 0.500000 0.500000
O O2 0.648557 0.294273 0.715908
O O3 0.594371 0.287300 0.912742
O O4 0.941058 0.483948 0.158621
O O5 0.803046 0.148548 0.828888
O O6 0.082113 0.279875 0.929807
O O7 0.205943 0.133266 0.414604
O O8 0.000000 0.000000 0.000000
O O9 0.592747 0.818618 0.767416
O O10 0.507127 0.999027 0.329711
O O11 0.321083 0.160086 0.828080
O O12 0.500000 0.000000 0.000000
O O13 0.687935 0.310168 0.346082
O O14 0.000000 0.500000 0.500000
#
# Coordination Sequence:
#
# PCOD9028153 Si02
#       6
#     2   2   2   2   2   2
#     4  12  25  44  72 103 143 185 226 289 356 415
#     4  11  26  44  75 104 136 189 238 286 349 413
#     4  10  24  46  70 101 139 182 240 291 338 413
#     4  12  22  43  71 105 138 184 235 286 345 417
#     4  10  22  41  71  98 138 182 232 286 343 404
#     4  11  23  42  71 102 143 185 229 283 357 413
#
# _framework density 23.095416
#
# number of rings (size 3 to 8) (size 9 to 14) (size 15 to 20)
#    0.000    1.000    5.000    2.000    2.333    3.333 
#    0.000    2.500    0.000    0.000    0.000    0.000 
#    0.000    0.000    0.000    0.000    0.000    0.000 
#
# Total GULP energy -66891.285943 kJ/mol
# GULP energy per Si atom -5574.273829 kJ/mol
# Density = 2.304285 g / cm^3
# Si number density = 23.095416 Si / 1000 Ang^3
#
#
#
# Elastic Constant Matrix: (Units=GPa)
#
#
# Indices 1 2 3 4 5 6 
#
# 1 152.7442 54.8153 35.0743 -3.1661 -20.6366 -32.0672
# 2 54.8153 137.1323 27.7287 -17.5164 -10.4667 -22.2475
# 3 35.0743 27.7287 71.3768 -3.6295 -19.0199 -3.3452
# 4 -3.1661 -17.5164 -3.6295 39.0462 3.1149 -13.1039
# 5 -20.6366 -10.4667 -19.0199 3.1149 54.4457 3.9984
# 6 -32.0672 -22.2475 -3.3452 -13.1039 3.9984 60.9819
#
#
#
# Elastic Compliance Matrix: (Units=1/GPa)
#
#
# Indices 1 2 3 4 5 6 
#
# 1 0.009050 -0.002196 -0.002940 0.000625 0.001665 0.003822
# 2 -0.002196 0.009857 -0.002412 0.005203 -0.000331 0.003448
# 3 -0.002940 -0.002412 0.017524 -0.000715 0.004727 -0.001928
# 4 0.000625 0.005203 -0.000715 0.031050 -0.001447 0.008955
# 5 0.001665 -0.000331 0.004727 -0.001447 0.020716 -0.000655
# 6 0.003822 0.003448 -0.001928 0.008955 -0.000655 0.021527
#
#
# Mechanical properties :
#
#
# Convention : Reuss Voigt Hill
#
# Bulk Modulus (GPa) = 46.86952 66.27664 56.57308
# Shear Modulus (GPa) = 37.89824 47.13710 42.51767
#
# Velocity S-wave (km/s) = 4.05525 4.52261 4.29529
# Velocity P-wave (km/s) = 6.50113 7.48540 7.01056
#
# Compressibility (1/GPa) = 0.02133583
#
# Stress axis : x y z
#
# Youngs Moduli (GPa) = 110.49348 101.45412 57.06337
#
# Poissons Ratio (x) = 0.22283 0.16774
# Poissons Ratio (y) = 0.24268 0.13763
# Poissons Ratio (z) = 0.32480 0.24470
#
# Static dielectric constant tensor:
#      x y z
#    x 1.880770 0.018950 -0.007880 
#    y 0.018950 1.941360 0.049430 
#    z -0.007880 0.049430 1.915670 
# 
# From -- ./inp_files/425193.got.cif
#   From: 2010.05.17/outbox.cif.g08.bks.cpg/sg2_213_cif.got.tgz:425193.got - 2010.06.03 11:33:40.
