data_PCOD9028009
_publ_section_title
;
Structure prediction by ZEFSAII (Michael W. Deem and Ramdas Pophale) SiO2 
 PCOD9028009
Probable space group: P -1
;
_chemical_formula_sum "Si O2"
_cell_formula_units_Z 12
_cell_length_a 11.414920
_cell_length_b 9.147404
_cell_length_c 13.250592
_cell_angle_alpha 46.343065
_cell_angle_beta 32.658941
_cell_angle_gamma 38.788507
_cell_volume 465.339995
_symmetry_space_group_name_H-M "P -1"
_symmetry_group_IT_number 2
_symmetry_cell_setting 'triclinic'
loop_
_space_group_symop_operation_xyz
x,y,z
-x,-y,-z
loop_
_atom_site_type_symbol
_atom_site_label
_atom_site_fract_x
_atom_site_fract_y
_atom_site_fract_z
Si Si1 0.921575 0.654511 0.841717
Si Si2 0.594881 0.211999 0.139340
Si Si3 0.757263 0.458633 0.609717
Si Si4 0.078425 0.240480 0.763292
Si Si5 0.405119 0.414438 0.734222
Si Si6 0.242737 0.064669 0.366980
O O1 0.861913 0.854605 0.708701
O O2 0.000000 0.420483 0.829517
O O3 0.149718 0.600349 0.776537
O O4 0.687402 0.701164 0.058346
O O5 0.417142 0.457308 0.206596
O O6 0.427074 0.167839 0.204021
O O7 0.687403 0.005259 0.254250
O O8 0.850282 0.196860 0.926255
O O9 0.861912 0.633921 0.429386
O O10 0.572927 0.497043 0.631096
O O11 0.000001 0.199899 0.550101
O O12 0.582858 0.212358 0.623738
#
# Coordination Sequence:
#
# PCOD9028009 Si02
#       6
#     2   2   2   2   2   2
#     4  10  22  41  70  97 126 181 213 266 333 372
#     4  11  22  45  66  96 138 165 223 271 315 397
#     4  11  24  41  68  98 131 174 215 268 330 383
#     4  10  22  41  70  97 126 181 213 266 333 372
#     4  11  22  45  66  96 138 165 223 271 315 397
#     4  11  24  41  68  98 131 174 215 268 330 383
#
# _framework density 25.787597000000002
#
# number of rings (size 3 to 8) (size 9 to 14) (size 15 to 20)
#    0.000    1.333    3.333    2.000    0.000    5.333 
#    6.000    0.000    0.000    0.000    0.000    0.000 
#    0.000    0.000    0.000    0.000    0.000    0.000 
#
# Total GULP energy -67306.302657 kJ/mol
# GULP energy per Si atom -5608.858555 kJ/mol
# Density = 2.572890 g / cm^3
# Si number density = 25.787597 Si / 1000 Ang^3
#
#
#
# Elastic Constant Matrix: (Units=GPa)
#
#
# Indices 1 2 3 4 5 6 
#
# 1 93.6205 0.7665 4.9114 2.8519 -28.1657 5.3953
# 2 0.7665 65.9370 11.5197 14.8197 -2.9086 -7.0338
# 3 4.9114 11.5197 87.8109 13.0445 -13.4631 -0.6587
# 4 2.8519 14.8197 13.0445 35.3026 1.6256 -7.1631
# 5 -28.1657 -2.9086 -13.4631 1.6256 44.0261 -5.0776
# 6 5.3953 -7.0338 -0.6587 -7.1631 -5.0776 36.0090
#
#
#
# Elastic Compliance Matrix: (Units=1/GPa)
#
#
# Indices 1 2 3 4 5 6 
#
# 1 0.013423 0.000466 0.000866 -0.002231 0.008838 -0.001102
# 2 0.000466 0.017099 -0.001049 -0.006457 0.001599 0.002192
# 3 0.000866 -0.001049 0.012865 -0.004672 0.004547 -0.000387
# 4 -0.002231 -0.006457 -0.004672 0.034187 -0.003941 0.005232
# 5 0.008838 0.001599 0.004547 -0.003941 0.030305 0.002560
# 6 -0.001102 0.002192 -0.000387 0.005232 0.002560 0.029759
#
#
# Mechanical properties :
#
#
# Convention : Reuss Voigt Hill
#
# Bulk Modulus (GPa) = 22.75035 31.30708 27.02872
# Shear Modulus (GPa) = 32.95511 38.41227 35.68369
#
# Velocity S-wave (km/s) = 3.57871 3.86367 3.72392
# Velocity P-wave (km/s) = 5.09093 5.66310 5.38462
#
# Compressibility (1/GPa) = 0.04395536
#
# Stress axis : x y z
#
# Youngs Moduli (GPa) = 74.50159 58.48163 77.72771
#
# Poissons Ratio (x) = -0.02727 -0.06733
# Poissons Ratio (y) = -0.03474 0.08150
# Poissons Ratio (z) = -0.06454 0.06132
#
# Static dielectric constant tensor:
#      x y z
#    x 2.019090 -0.003110 0.016790 
#    y -0.003110 1.999000 -0.035910 
#    z 0.016790 -0.035910 2.001030 
# 
# From -- ./inp_files/164184.got.cif
#   From: 2010.05.17/outbox.cif.g08.bks.cpg/sg2_83_cif.got.tgz:164184.got - 2010.06.03 11:33:40.
