data_PCOD9028940
_publ_section_title
;
Structure prediction by ZEFSAII (Michael W. Deem and Ramdas Pophale) SiO2 
 PCOD9028940
Probable space group: P -1
;
_chemical_formula_sum "Si O2"
_cell_formula_units_Z 16
_cell_length_a 17.165984
_cell_length_b 14.144728
_cell_length_c 10.548392
_cell_angle_alpha 143.073335
_cell_angle_beta 55.476078
_cell_angle_gamma 149.614384
_cell_volume 711.903293
_symmetry_space_group_name_H-M "P -1"
_symmetry_group_IT_number 2
_symmetry_cell_setting 'triclinic'
loop_
_space_group_symop_operation_xyz
x,y,z
-x,-y,-z
loop_
_atom_site_type_symbol
_atom_site_label
_atom_site_fract_x
_atom_site_fract_y
_atom_site_fract_z
Si Si1 0.889003 0.689780 0.253500
Si Si2 0.440323 0.472982 0.342444
Si Si3 0.379884 0.569852 0.978974
Si Si4 0.878094 0.147185 0.964925
Si Si5 0.005274 0.192738 0.156730
Si Si6 0.386259 0.723692 0.734381
Si Si7 0.677705 0.671918 0.981789
Si Si8 0.276885 0.776153 0.666401
O O1 0.741448 0.509103 0.091021
O O2 0.792986 0.533696 0.306389
O O3 0.000000 0.000000 0.500000
O O4 0.009785 0.719168 0.119854
O O5 0.582061 0.546689 0.247297
O O6 0.479857 0.685840 0.606382
O O7 0.350660 0.408790 0.225572
O O8 0.301050 0.186151 0.242126
O O9 0.297032 0.424592 0.036858
O O10 0.562410 0.902809 0.187884
O O11 0.970068 0.175685 0.023367
O O12 0.833782 0.256122 0.180319
O O13 0.155366 0.513308 0.403569
O O14 0.832868 0.006841 0.191312
O O15 0.000000 0.000000 0.000000
O O16 0.358531 0.757128 0.658986
O O17 0.500000 0.000000 0.000000
O O18 0.500000 0.500000 0.000000
#
# Coordination Sequence:
#
# PCOD9028940 Si02
#       8
#     2   2   2   2   2   2   2   2
#     4  12  25  42  66  91 126 167 222 265 304 380
#     4   9  20  42  68  88 125 168 203 261 320 379
#     4  10  22  42  66  96 123 165 214 258 321 378
#     4  10  22  42  65  96 124 165 214 257 319 373
#     4  11  22  41  69  96 129 166 203 259 327 380
#     4  12  25  44  60  91 129 168 220 259 317 370
#     4   9  19  38  64  96 122 151 206 253 312 381
#     4  11  24  43  66  91 133 168 206 265 318 381
#
# _framework density 22.474962999999999
#
# number of rings (size 3 to 8) (size 9 to 14) (size 15 to 20)
#    0.000    1.500    2.500    3.375    1.750    2.000 
#    6.750    1.875    0.000    0.000    0.000    0.000 
#    0.000    0.000    0.000    0.000    0.000    0.000 
#
# Total GULP energy -89324.979326 kJ/mol
# GULP energy per Si atom -5582.811208 kJ/mol
# Density = 2.242381 g / cm^3
# Si number density = 22.474963 Si / 1000 Ang^3
#
#
#
# Elastic Constant Matrix: (Units=GPa)
#
#
# Indices 1 2 3 4 5 6 
#
# 1 49.5561 -14.0605 -6.2438 -0.6796 -6.7827 2.3624
# 2 -14.0605 98.5461 26.8644 7.5206 -9.5301 -5.4021
# 3 -6.2438 26.8644 122.2745 6.7146 -15.0430 14.5170
# 4 -0.6796 7.5206 6.7146 27.9112 12.8738 -6.5065
# 5 -6.7827 -9.5301 -15.0430 12.8738 32.2485 -3.3510
# 6 2.3624 -5.4021 14.5170 -6.5065 -3.3510 30.8746
#
#
#
# Elastic Compliance Matrix: (Units=1/GPa)
#
#
# Indices 1 2 3 4 5 6 
#
# 1 0.022762 0.003869 0.001965 -0.005548 0.008834 -0.002199
# 2 0.003869 0.012246 -0.001778 -0.004925 0.005806 0.002275
# 3 0.001965 -0.001778 0.010594 -0.006591 0.006828 -0.006091
# 4 -0.005548 -0.004925 -0.006591 0.053047 -0.025725 0.011049
# 5 0.008834 0.005806 0.006828 -0.025725 0.047714 -0.003113
# 6 -0.002199 0.002275 -0.006091 0.011049 -0.003113 0.037810
#
#
# Mechanical properties :
#
#
# Convention : Reuss Voigt Hill
#
# Bulk Modulus (GPa) = 18.61693 31.49966 25.05829
# Shear Modulus (GPa) = 25.77750 35.79463 30.78606
#
# Velocity S-wave (km/s) = 3.39033 3.99512 3.70509
# Velocity P-wave (km/s) = 4.86078 5.94367 5.42929
#
# Compressibility (1/GPa) = 0.05371456
#
# Stress axis : x y z
#
# Youngs Moduli (GPa) = 43.93222 81.65607 94.38914
#
# Poissons Ratio (x) = -0.31595 -0.18545
# Poissons Ratio (y) = -0.16999 0.16786
# Poissons Ratio (z) = -0.08632 0.14522
#
# Static dielectric constant tensor:
#      x y z
#    x 1.878370 0.119560 -0.025290 
#    y 0.119560 1.811550 0.062620 
#    z -0.025290 0.062620 1.813060 
# 
# From -- ./inp_files/188370.got.cif
#   From: 2010.05.17/outbox.cif.g08.bks.cpg/sg2_95_cif.got.tgz:188370.got - 2010.06.03 11:33:40.
