data_PCOD9028681
_publ_section_title
;
Structure prediction by ZEFSAII (Michael W. Deem and Ramdas Pophale) SiO2 
 PCOD9028681
Probable space group: P -1
;
_chemical_formula_sum "Si O2"
_cell_formula_units_Z 14
_cell_length_a 7.932312
_cell_length_b 30.382067
_cell_length_c 5.416067
_cell_angle_alpha 52.551360
_cell_angle_beta 68.418637
_cell_angle_gamma 33.420042
_cell_volume 540.831910
_symmetry_space_group_name_H-M "P -1"
_symmetry_group_IT_number 2
_symmetry_cell_setting 'triclinic'
loop_
_space_group_symop_operation_xyz
x,y,z
-x,-y,-z
loop_
_atom_site_type_symbol
_atom_site_label
_atom_site_fract_x
_atom_site_fract_y
_atom_site_fract_z
Si Si1 0.336981 0.210895 0.092747
Si Si2 0.876610 0.473843 0.356283
Si Si3 0.451118 0.331285 0.249869
Si Si4 0.844174 0.014959 0.278285
Si Si5 0.728577 0.406917 0.447277
Si Si6 0.009287 0.758166 0.436295
Si Si7 0.207069 0.816768 0.836973
O O1 0.591761 0.196458 0.032233
O O2 0.308619 0.186371 0.453496
O O3 0.479650 0.129995 0.101357
O O4 0.996885 0.321208 0.803301
O O5 0.794376 0.455816 0.221648
O O6 0.642001 0.505962 0.571547
O O7 0.260662 0.374386 0.467254
O O8 0.760508 0.566356 0.106473
O O9 0.797241 0.268505 0.338908
O O10 0.535814 0.260960 0.256859
O O11 0.918644 0.930776 0.521249
O O12 0.000000 0.000000 0.500000
O O13 0.000000 0.000000 0.000000
O O14 0.810458 0.341895 0.419046
O O15 0.057967 0.797975 0.091685
#
# Coordination Sequence:
#
# PCOD9028681 Si02
#       7
#     2   2   2   2   2   2   2
#     4  11  25  46  73 101 141 185 235 299 358 429
#     4  10  22  42  64  92 144 184 236 288 354 424
#     4  11  23  44  62 103 137 184 237 291 353 427
#     4  10  26  47  77 111 142 191 243 293 371 442
#     4  11  23  44  62 103 137 184 237 291 353 427
#     4  12  24  43  70 102 144 182 238 293 358 424
#     4  11  25  46  73 101 141 185 235 299 358 429
#
# _framework density 25.886047000000001
#
# number of rings (size 3 to 8) (size 9 to 14) (size 15 to 20)
#    0.000    1.143    2.857    1.714   10.000    1.714 
#   10.286    2.857    0.000    0.000    0.000    0.000 
#    0.000    0.000    0.000    0.000    0.000    0.000 
#
# Total GULP energy -78164.335672 kJ/mol
# GULP energy per Si atom -5583.166834 kJ/mol
# Density = 2.582713 g / cm^3
# Si number density = 25.886047 Si / 1000 Ang^3
#
#
#
# Elastic Constant Matrix: (Units=GPa)
#
#
# Indices 1 2 3 4 5 6 
#
# 1 75.5327 16.2142 33.2296 1.9900 -17.9323 3.3132
# 2 16.2142 193.1148 70.7139 -18.7317 -23.4305 21.5793
# 3 33.2296 70.7139 106.5717 -9.2636 -14.1411 3.4753
# 4 1.9900 -18.7317 -9.2636 44.5328 9.6359 -9.4384
# 5 -17.9323 -23.4305 -14.1411 9.6359 34.9710 1.2351
# 6 3.3132 21.5793 3.4753 -9.4384 1.2351 41.1800
#
#
#
# Elastic Compliance Matrix: (Units=1/GPa)
#
#
# Indices 1 2 3 4 5 6 
#
# 1 0.017771 0.001641 -0.005663 -0.003880 0.009096 -0.002974
# 2 0.001641 0.007844 -0.005009 0.000492 0.004072 -0.003829
# 3 -0.005663 -0.005009 0.014423 0.001859 -0.001022 0.002320
# 4 -0.003880 0.000492 0.001859 0.026349 -0.008387 0.006188
# 5 0.009096 0.004072 -0.001022 -0.008387 0.038092 -0.005844
# 6 -0.002974 -0.003829 0.002320 0.006188 -0.005844 0.027927
#
#
# Mechanical properties :
#
#
# Convention : Reuss Voigt Hill
#
# Bulk Modulus (GPa) = 45.50353 68.39274 56.94813
# Shear Modulus (GPa) = 31.68714 41.14086 36.41400
#
# Velocity S-wave (km/s) = 3.50251 3.99094 3.75467
# Velocity P-wave (km/s) = 5.82867 6.90759 6.39094
#
# Compressibility (1/GPa) = 0.02197632
#
# Stress axis : x y z
#
# Youngs Moduli (GPa) = 56.27223 127.48385 69.33343
#
# Poissons Ratio (x) = -0.20924 0.39266
# Poissons Ratio (y) = -0.09236 0.34727
# Poissons Ratio (z) = 0.31869 0.63853
#
# Static dielectric constant tensor:
#      x y z
#    x 2.094670 -0.054190 0.023550 
#    y -0.054190 1.981320 -0.029910 
#    z 0.023550 -0.029910 2.124240 
# 
# From -- ./inp_files/56778.got.cif
#   From: 2010.05.17/outbox.cif.g08.bks.cpg/sg2_29_cif.got.tgz:56778.got - 2010.06.03 11:33:40.
