data_PCOD9028877
_publ_section_title
;
Structure prediction by ZEFSAII (Michael W. Deem and Ramdas Pophale) SiO2 
 PCOD9028877
Probable space group: P -1
;
_chemical_formula_sum "Si O2"
_cell_formula_units_Z 14
_cell_length_a 7.730274
_cell_length_b 9.995081
_cell_length_c 9.102695
_cell_angle_alpha 106.049978
_cell_angle_beta 111.254250
_cell_angle_gamma 55.773313
_cell_volume 539.552449
_symmetry_space_group_name_H-M "P -1"
_symmetry_group_IT_number 2
_symmetry_cell_setting 'triclinic'
loop_
_space_group_symop_operation_xyz
x,y,z
-x,-y,-z
loop_
_atom_site_type_symbol
_atom_site_label
_atom_site_fract_x
_atom_site_fract_y
_atom_site_fract_z
Si Si1 0.043059 0.836417 0.266684
Si Si2 0.227525 0.161951 0.052372
Si Si3 0.112746 0.445798 0.275814
Si Si4 0.249652 0.278509 0.551110
Si Si5 0.617364 0.174117 0.847256
Si Si6 0.461786 0.339214 0.141498
Si Si7 0.883273 0.206643 0.397137
O O1 0.209772 0.800650 0.177259
O O2 0.150756 0.753843 0.428291
O O3 0.856045 0.813678 0.132342
O O4 0.930481 0.027761 0.326126
O O5 0.062003 0.317606 0.144957
O O6 0.436067 0.183114 0.128983
O O7 0.267374 0.996271 0.082065
O O8 0.280249 0.354854 0.435139
O O9 0.240124 0.476137 0.192882
O O10 0.906698 0.582195 0.339189
O O11 0.465082 0.167070 0.672953
O O12 0.105459 0.203239 0.434638
O O13 0.490322 0.318266 0.969990
O O14 0.671843 0.325952 0.274988
#
# Coordination Sequence:
#
# PCOD9028877 Si02
#       7
#     2   2   2   2   2   2   2
#     4  11  24  39  62  99 130 159 210 260 315 368
#     4  10  22  42  65  93 127 163 205 268 302 373
#     4   9  24  44  67  87 129 166 212 250 319 368
#     4  11  24  44  65  92 127 169 207 258 310 376
#     4  12  23  38  68  97 125 163 210 259 316 365
#     4  10  23  39  65  93 127 163 206 257 315 364
#     4  11  24  39  64  96 128 164 208 259 312 371
#
# _framework density 25.947431000000002
#
# number of rings (size 3 to 8) (size 9 to 14) (size 15 to 20)
#    0.857    0.571    1.429    3.429    6.000    2.286 
#    0.000    0.714    0.000    0.000    0.000    0.000 
#    0.000    0.000    0.000    0.000    0.000    0.000 
#
# Total GULP energy -78300.252447 kJ/mol
# GULP energy per Si atom -5592.875175 kJ/mol
# Density = 2.588837 g / cm^3
# Si number density = 25.947431 Si / 1000 Ang^3
#
#
#
# Elastic Constant Matrix: (Units=GPa)
#
#
# Indices 1 2 3 4 5 6 
#
# 1 75.7113 15.2333 31.8275 1.2127 0.2078 -5.7076
# 2 15.2333 39.6284 40.7525 13.9386 2.2500 -0.0725
# 3 31.8275 40.7525 158.3710 6.7490 11.2106 -9.3145
# 4 1.2127 13.9386 6.7490 49.7356 -8.5180 -3.4803
# 5 0.2078 2.2500 11.2106 -8.5180 58.9103 4.0746
# 6 -5.7076 -0.0725 -9.3145 -3.4803 4.0746 23.8813
#
#
#
# Elastic Compliance Matrix: (Units=1/GPa)
#
#
# Indices 1 2 3 4 5 6 
#
# 1 0.015064 -0.004464 -0.001794 0.001416 0.000455 0.003016
# 2 -0.004464 0.040233 -0.009299 -0.010467 -0.000853 -0.005952
# 3 -0.001794 -0.009299 0.009326 0.001388 -0.001464 0.003632
# 4 0.001416 -0.010467 0.001388 0.023642 0.003291 0.003732
# 5 0.000455 -0.000853 -0.001464 0.003291 0.017971 -0.003051
# 6 0.003016 -0.005952 0.003632 0.003732 -0.003051 0.045058
#
#
# Mechanical properties :
#
#
# Convention : Reuss Voigt Hill
#
# Bulk Modulus (GPa) = 29.84393 49.92637 39.88515
# Shear Modulus (GPa) = 25.82948 38.89859 32.36404
#
# Velocity S-wave (km/s) = 3.15850 3.87606 3.53553
# Velocity P-wave (km/s) = 4.98279 6.27016 5.66318
#
# Compressibility (1/GPa) = 0.03350765
#
# Stress axis : x y z
#
# Youngs Moduli (GPa) = 66.38440 24.85532 107.22952
#
# Poissons Ratio (x) = 0.11096 0.19234
# Poissons Ratio (y) = 0.29637 0.99715
# Poissons Ratio (z) = 0.11907 0.23114
#
# Static dielectric constant tensor:
#      x y z
#    x 2.038380 0.037730 -0.031690 
#    y 0.037730 2.108960 0.021200 
#    z -0.031690 0.021200 1.979450 
# 
# From -- ./inp_files/180546.got.cif
#   From: 2010.05.17/outbox.cif.g08.bks.cpg/sg2_91_cif.got.tgz:180546.got - 2010.06.03 11:33:40.
