data_PCOD9028147
_publ_section_title
;
Structure prediction by ZEFSAII (Michael W. Deem and Ramdas Pophale) SiO2 
 PCOD9028147
Probable space group: P -1
;
_chemical_formula_sum "Si O2"
_cell_formula_units_Z 14
_cell_length_a 12.299190
_cell_length_b 9.002232
_cell_length_c 9.315528
_cell_angle_alpha 122.325656
_cell_angle_beta 135.155678
_cell_angle_gamma 55.680456
_cell_volume 584.357715
_symmetry_space_group_name_H-M "P -1"
_symmetry_group_IT_number 2
_symmetry_cell_setting 'triclinic'
loop_
_space_group_symop_operation_xyz
x,y,z
-x,-y,-z
loop_
_atom_site_type_symbol
_atom_site_label
_atom_site_fract_x
_atom_site_fract_y
_atom_site_fract_z
Si Si1 0.680420 0.889974 0.241722
Si Si2 0.438325 0.272845 0.188933
Si Si3 0.852507 0.183061 0.010778
Si Si4 0.490071 0.314087 0.814550
Si Si5 0.002866 0.949942 0.645151
Si Si6 0.083012 0.654320 0.128503
Si Si7 0.366180 0.453036 0.494160
O O1 0.561890 0.816889 0.191076
O O2 0.834890 0.903294 0.478193
O O3 0.591956 0.096696 0.210969
O O4 0.703671 0.756995 0.056029
O O5 0.405766 0.283487 0.333008
O O6 0.490403 0.454679 0.304362
O O7 0.880372 0.202122 0.218227
O O8 0.661085 0.201178 0.840439
O O9 0.867550 0.333561 0.985028
O O10 0.000000 0.000000 0.000000
O O11 0.348559 0.382018 0.597754
O O12 0.500000 0.500000 0.000000
O O13 0.019613 0.138336 0.823508
O O14 0.000000 0.000000 0.500000
O O15 0.227354 0.605316 0.356631
O O16 0.000000 0.500000 0.000000
#
# Coordination Sequence:
#
# PCOD9028147 Si02
#       7
#     2   2   2   2   2   2   2
#     4  11  25  44  71 108 144 194 249 305 369 442
#     4  10  22  41  71  97 142 187 247 300 366 435
#     4  10  26  50  71 105 151 194 248 305 370 452
#     4  12  27  45  76 112 149 191 254 315 368 439
#     4  11  27  47  73 103 150 198 243 299 379 443
#     4  11  26  47  72 101 145 197 246 301 371 444
#     4  11  23  44  72 103 146 186 251 306 373 431
#
# _framework density 23.957927999999999
#
# number of rings (size 3 to 8) (size 9 to 14) (size 15 to 20)
#    0.000    1.143    2.857    1.714   12.000    1.714 
#    0.000    1.429    0.000    0.000    0.000    0.000 
#    0.000    0.000    0.000    0.000    0.000    0.000 
#
# Total GULP energy -78019.404778 kJ/mol
# GULP energy per Si atom -5572.814627 kJ/mol
# Density = 2.390340 g / cm^3
# Si number density = 23.957928 Si / 1000 Ang^3
#
#
#
# Elastic Constant Matrix: (Units=GPa)
#
#
# Indices 1 2 3 4 5 6 
#
# 1 114.0524 42.2622 34.8834 -0.3812 -7.8437 35.3773
# 2 42.2622 91.1389 39.3488 -5.8262 -1.9525 12.9404
# 3 34.8834 39.3488 58.9572 1.5800 -15.7688 31.3204
# 4 -0.3812 -5.8262 1.5800 55.3091 12.4681 -9.8168
# 5 -7.8437 -1.9525 -15.7688 12.4681 49.8154 -7.2220
# 6 35.3773 12.9404 31.3204 -9.8168 -7.2220 41.9826
#
#
#
# Elastic Compliance Matrix: (Units=1/GPa)
#
#
# Indices 1 2 3 4 5 6 
#
# 1 0.014282 -0.006418 0.003409 -0.003454 0.002048 -0.013055
# 2 -0.006418 0.020398 -0.018760 0.006356 -0.005767 0.013610
# 3 0.003409 -0.018760 0.050132 -0.012717 0.013765 -0.035096
# 4 -0.003454 0.006356 -0.012717 0.023494 -0.008092 0.014540
# 5 0.002048 -0.005767 0.013765 -0.008092 0.025432 -0.007735
# 6 -0.013055 0.013610 -0.035096 0.014540 -0.007735 0.058877
#
#
# Mechanical properties :
#
#
# Convention : Reuss Voigt Hill
#
# Bulk Modulus (GPa) = 24.22812 55.23750 39.73281
# Shear Modulus (GPa) = 20.00705 39.26501 29.63603
#
# Velocity S-wave (km/s) = 2.89293 4.05274 3.52092
# Velocity P-wave (km/s) = 4.61448 6.70863 5.75757
#
# Compressibility (1/GPa) = 0.04127435
#
# Stress axis : x y z
#
# Youngs Moduli (GPa) = 70.01646 49.02423 19.94739
#
# Poissons Ratio (x) = 0.31463 -0.06800
# Poissons Ratio (y) = 0.44936 0.37421
# Poissons Ratio (z) = -0.23867 0.91969
#
# Static dielectric constant tensor:
#      x y z
#    x 2.023580 -0.080080 -0.044940 
#    y -0.080080 1.927480 -0.000440 
#    z -0.044940 -0.000440 1.990020 
# 
# From -- ./inp_files/245702.got.cif
#   From: 2010.05.17/outbox.cif.g08.bks.cpg/sg2_123_cif.got.tgz:245702.got - 2010.06.03 11:33:40.
