data_PCOD9028519
_publ_section_title
;
Structure prediction by ZEFSAII (Michael W. Deem and Ramdas Pophale) SiO2 
 PCOD9028519
Probable space group: P -1
;
_chemical_formula_sum "Si O2"
_cell_formula_units_Z 11
_cell_length_a 9.650951
_cell_length_b 6.726056
_cell_length_c 9.746672
_cell_angle_alpha 73.621084
_cell_angle_beta 42.614519
_cell_angle_gamma 62.878354
_cell_volume 379.757897
_symmetry_space_group_name_H-M "P -1"
_symmetry_group_IT_number 2
_symmetry_cell_setting 'triclinic'
loop_
_space_group_symop_operation_xyz
x,y,z
-x,-y,-z
loop_
_atom_site_type_symbol
_atom_site_label
_atom_site_fract_x
_atom_site_fract_y
_atom_site_fract_z
Si Si1 0.063965 0.683414 0.498162
Si Si2 0.500000 0.000000 0.500000
Si Si3 0.462701 0.343158 0.902582
Si Si4 0.002834 0.449286 0.846529
Si Si5 0.361660 0.944211 0.910039
Si Si6 0.880897 0.982969 0.317916
O O1 0.016171 0.643262 0.698483
O O2 0.941802 0.898243 0.446093
O O3 0.000000 0.500000 0.500000
O O4 0.319032 0.637551 0.314219
O O5 0.471177 0.902781 0.692189
O O6 0.636040 0.157538 0.444999
O O7 0.409129 0.151193 0.900154
O O8 0.236198 0.554988 0.012469
O O9 0.515445 0.257489 0.036153
O O10 0.172304 0.209582 0.704992
O O11 0.000000 0.500000 0.000000
O O12 0.096099 0.006045 0.092721
#
# Coordination Sequence:
#
# PCOD9028519 Si02
#       6
#     2   1   2   2   2   2
#     4   9  21  40  61  88 117 156 200 238 296 358
#     4  12  22  38  62  88 124 158 194 248 296 346
#     4  10  22  42  63  86 123 158 195 247 298 352
#     4  11  23  39  62  92 120 153 200 251 295 350
#     4  10  23  40  62  91 119 159 200 240 299 358
#     4  10  23  40  61  89 121 159 201 241 296 358
#
# _framework density 28.965820000000001
#
# number of rings (size 3 to 8) (size 9 to 14) (size 15 to 20)
#    0.000    1.818    0.000    2.727    0.000   13.091 
#    0.000    5.455    0.000    0.000    0.000    0.000 
#    0.000    0.000    0.000    0.000    0.000    0.000 
#
# Total GULP energy -61532.180793 kJ/mol
# GULP energy per Si atom -5593.834618 kJ/mol
# Density = 2.889989 g / cm^3
# Si number density = 28.965820 Si / 1000 Ang^3
#
#
#
# Elastic Constant Matrix: (Units=GPa)
#
#
# Indices 1 2 3 4 5 6 
#
# 1 235.8754 24.4560 135.0331 -11.1339 4.5370 5.8687
# 2 24.4560 89.5261 34.3878 2.1877 12.4817 9.9793
# 3 135.0331 34.3878 271.2641 -21.3965 18.6398 12.5325
# 4 -11.1339 2.1877 -21.3965 30.6718 3.6131 0.6088
# 5 4.5370 12.4817 18.6398 3.6131 96.9717 -1.2549
# 6 5.8687 9.9793 12.5325 0.6088 -1.2549 37.7179
#
#
#
# Elastic Compliance Matrix: (Units=1/GPa)
#
#
# Indices 1 2 3 4 5 6 
#
# 1 0.005965 -0.000584 -0.002920 0.000124 0.000355 0.000206
# 2 -0.000584 0.012320 -0.001188 -0.001710 -0.001303 -0.002790
# 3 -0.002920 -0.001188 0.005654 0.003102 -0.000928 -0.001191
# 4 0.000124 -0.001710 0.003102 0.035160 -0.001708 -0.001222
# 5 0.000355 -0.001303 -0.000928 -0.001708 0.010718 0.000982
# 6 0.000206 -0.002790 -0.001191 -0.001222 0.000982 0.027667
#
#
# Mechanical properties :
#
#
# Convention : Reuss Voigt Hill
#
# Bulk Modulus (GPa) = 68.69505 109.37993 89.03749
# Shear Modulus (GPa) = 44.75539 59.92487 52.34013
#
# Velocity S-wave (km/s) = 3.93505 4.55336 4.25545
# Velocity P-wave (km/s) = 6.66435 8.09245 7.41287
#
# Compressibility (1/GPa) = 0.01455709
#
# Stress axis : x y z
#
# Youngs Moduli (GPa) = 167.63387 81.16906 176.86958
#
# Poissons Ratio (x) = 0.04738 0.51640
# Poissons Ratio (y) = 0.09784 0.21008
# Poissons Ratio (z) = 0.48943 0.09641
#
# Static dielectric constant tensor:
#      x y z
#    x 4.037740 -1.110490 -1.853140 
#    y -1.110490 3.287790 1.230220 
#    z -1.853140 1.230220 4.064730 
# 
# From -- ./inp_files/17760.got.cif
#   From: 2010.05.17/outbox.cif.g08.bks.cpg/sg2_9_cif.got.tgz:17760.got - 2010.06.03 11:33:40.
