data_PCOD9028774
_publ_section_title
;
Structure prediction by ZEFSAII (Michael W. Deem and Ramdas Pophale) SiO2 
 PCOD9028774
Probable space group: P -1
;
_chemical_formula_sum "Si O2"
_cell_formula_units_Z 16
_cell_length_a 13.887107
_cell_length_b 14.515973
_cell_length_c 5.534861
_cell_angle_alpha 66.342634
_cell_angle_beta 113.469833
_cell_angle_gamma 139.684435
_cell_volume 653.147514
_symmetry_space_group_name_H-M "P -1"
_symmetry_group_IT_number 2
_symmetry_cell_setting 'triclinic'
loop_
_space_group_symop_operation_xyz
x,y,z
-x,-y,-z
loop_
_atom_site_type_symbol
_atom_site_label
_atom_site_fract_x
_atom_site_fract_y
_atom_site_fract_z
Si Si1 0.567242 0.799383 0.492995
Si Si2 0.266953 0.793764 0.500200
Si Si3 0.952289 0.241659 0.333881
Si Si4 0.784436 0.442112 0.503253
Si Si5 0.662677 0.662864 0.518127
Si Si6 0.135837 0.352780 0.004731
Si Si7 0.431403 0.085211 0.129124
Si Si8 0.919071 0.856275 0.215775
O O1 0.384422 0.665302 0.451567
O O2 0.639535 0.738928 0.598699
O O3 0.609030 0.876222 0.713075
O O4 0.602120 0.887935 0.191608
O O5 0.177893 0.800204 0.594930
O O6 0.177505 0.647343 0.416692
O O7 0.392841 0.819988 0.753120
O O8 0.351171 0.923342 0.258609
O O9 0.093374 0.411432 0.376831
O O10 0.971392 0.260911 0.045138
O O11 0.967983 0.131948 0.514817
O O12 0.787558 0.498593 0.186896
O O13 0.500000 0.500000 0.500000
O O14 0.762245 0.635565 0.717171
O O15 0.765527 0.779284 0.282728
O O16 0.123916 0.261187 0.885413
O O17 0.000000 0.000000 0.000000
#
# Coordination Sequence:
#
# PCOD9028774 Si02
#       8
#     2   2   2   2   2   2   2   2
#     4  11  25  44  72  97 142 174 231 280 346 402
#     4  10  23  43  70  93 136 175 229 277 343 401
#     4  10  22  42  64  99 128 175 225 276 343 407
#     4  10  23  42  65  96 134 176 220 287 334 407
#     4  11  25  40  70 100 132 185 226 282 348 414
#     4  10  23  43  62 100 138 169 232 280 340 415
#     4  10  26  47  64 106 133 181 225 291 333 412
#     4  10  24  42  65  96 136 174 226 284 343 413
#
# _framework density 24.496763000000001
#
# number of rings (size 3 to 8) (size 9 to 14) (size 15 to 20)
#    0.000    1.750    0.000    2.625   10.500    9.000 
#   11.250    0.000    0.000    0.000    0.000    0.000 
#    0.000    0.000    0.000    0.000    0.000    0.000 
#
# Total GULP energy -89402.197861 kJ/mol
# GULP energy per Si atom -5587.637366 kJ/mol
# Density = 2.444101 g / cm^3
# Si number density = 24.496763 Si / 1000 Ang^3
#
#
#
# Elastic Constant Matrix: (Units=GPa)
#
#
# Indices 1 2 3 4 5 6 
#
# 1 114.9786 2.8516 34.1651 -20.2455 -17.3192 -5.1115
# 2 2.8516 66.1116 19.1686 -29.9297 3.3255 -5.6228
# 3 34.1651 19.1686 108.6678 -29.0512 -5.4438 -3.8807
# 4 -20.2455 -29.9297 -29.0512 39.6600 -0.9140 6.0770
# 5 -17.3192 3.3255 -5.4438 -0.9140 39.2525 -6.7490
# 6 -5.1115 -5.6228 -3.8807 6.0770 -6.7490 29.1508
#
#
#
# Elastic Compliance Matrix: (Units=1/GPa)
#
#
# Indices 1 2 3 4 5 6 
#
# 1 0.011139 0.002804 -0.002048 0.006096 0.004894 0.002084
# 2 0.002804 0.023816 0.000114 0.019325 -0.000136 0.001041
# 3 -0.002048 0.000114 0.011964 0.007852 0.000899 -0.000173
# 4 0.006096 0.019325 0.007852 0.049309 0.002631 -0.003828
# 5 0.004894 -0.000136 0.000899 0.002631 0.029059 0.007131
# 6 0.002084 0.001041 -0.000173 -0.003828 0.007131 0.037296
#
#
# Mechanical properties :
#
#
# Convention : Reuss Voigt Hill
#
# Bulk Modulus (GPa) = 20.55045 44.68096 32.61570
# Shear Modulus (GPa) = 28.23861 37.18417 32.71139
#
# Velocity S-wave (km/s) = 3.39890 3.90028 3.65819
# Velocity P-wave (km/s) = 4.87961 6.20983 5.58447
#
# Compressibility (1/GPa) = 0.04866075
#
# Stress axis : x y z
#
# Youngs Moduli (GPa) = 89.77212 41.98834 83.58460
#
# Poissons Ratio (x) = -0.11774 0.17114
# Poissons Ratio (y) = -0.25173 -0.00954
# Poissons Ratio (z) = 0.18381 -0.00479
#
# Static dielectric constant tensor:
#      x y z
#    x 1.990400 0.113820 0.029730 
#    y 0.113820 2.030610 0.105260 
#    z 0.029730 0.105260 2.188130 
# 
# From -- ./inp_files/97590.got.cif
#   From: 2010.05.17/outbox.cif.g08.bks.cpg/sg2_49_cif.got.tgz:97590.got - 2010.06.03 11:33:40.
