data_PCOD9028607
_publ_section_title
;
Structure prediction by ZEFSAII (Michael W. Deem and Ramdas Pophale) SiO2 
 PCOD9028607
Probable space group: P -1
;
_chemical_formula_sum "Si O2"
_cell_formula_units_Z 15
_cell_length_a 17.412941
_cell_length_b 9.255134
_cell_length_c 11.551703
_cell_angle_alpha 140.029529
_cell_angle_beta 140.961408
_cell_angle_gamma 33.629211
_cell_volume 609.984568
_symmetry_space_group_name_H-M "P -1"
_symmetry_group_IT_number 2
_symmetry_cell_setting 'triclinic'
loop_
_space_group_symop_operation_xyz
x,y,z
-x,-y,-z
loop_
_atom_site_type_symbol
_atom_site_label
_atom_site_fract_x
_atom_site_fract_y
_atom_site_fract_z
Si Si1 0.777582 0.098806 0.791639
Si Si2 0.500000 0.000000 0.000000
Si Si3 0.398016 0.984865 0.277269
Si Si4 0.627153 0.221161 0.100632
Si Si5 0.950708 0.696290 0.172802
Si Si6 0.107763 0.543073 0.819378
Si Si7 0.259221 0.583723 0.466065
Si Si8 0.699825 0.046227 0.426555
O O1 0.721869 0.029274 0.796761
O O2 0.678682 0.138218 0.590358
O O3 0.944590 0.830715 0.786231
O O4 0.780915 0.363640 0.978974
O O5 0.448527 0.891793 0.765502
O O6 0.428922 0.896026 0.943471
O O7 0.323198 0.280484 0.307873
O O8 0.500000 0.000000 0.500000
O O9 0.453974 0.763038 0.103932
O O10 0.635504 0.441706 0.320738
O O11 0.805383 0.993825 0.148550
O O12 0.904066 0.582089 0.152349
O O13 0.091211 0.695926 0.376940
O O14 0.000000 0.500000 0.000000
O O15 0.178182 0.289372 0.655820
O O16 0.248533 0.791417 0.486135
#
# Coordination Sequence:
#
# PCOD9028607 Si02
#       8
#     2   1   2   2   2   2   2   2
#     4  11  25  43  66  99 137 176 220 273 345 402
#     4  10  22  42  64 100 130 172 228 268 326 396
#     4  12  27  47  66  98 139 182 225 277 341 405
#     4  11  24  43  71 100 136 177 222 286 331 398
#     4  12  20  41  72 102 137 165 226 287 335 397
#     4  11  23  43  65 100 135 174 221 276 343 393
#     4  11  24  42  72 104 129 177 232 279 344 394
#     4  11  24  42  70  97 134 178 225 278 327 401
#
# _framework density 24.590786999999999
#
# number of rings (size 3 to 8) (size 9 to 14) (size 15 to 20)
#    0.000    0.800    5.333    2.400    0.000    4.800 
#    0.000    4.000    0.000    0.000    0.000    0.000 
#    0.000    0.000    0.000    0.000    0.000    0.000 
#
# Total GULP energy -83663.562393 kJ/mol
# GULP energy per Si atom -5577.570826 kJ/mol
# Density = 2.453482 g / cm^3
# Si number density = 24.590787 Si / 1000 Ang^3
#
#
#
# Elastic Constant Matrix: (Units=GPa)
#
#
# Indices 1 2 3 4 5 6 
#
# 1 101.5021 7.8484 68.1930 15.5012 4.4861 13.1864
# 2 7.8484 40.8596 25.2571 25.1004 2.2302 7.4772
# 3 68.1930 25.2571 170.1793 13.9781 3.5838 28.3834
# 4 15.5012 25.1004 13.9781 57.0693 6.2300 -2.4185
# 5 4.4861 2.2302 3.5838 6.2300 50.6928 0.7159
# 6 13.1864 7.4772 28.3834 -2.4185 0.7159 20.8852
#
#
#
# Elastic Compliance Matrix: (Units=1/GPa)
#
#
# Indices 1 2 3 4 5 6 
#
# 1 0.014305 0.003975 -0.005329 -0.004435 -0.000467 -0.003710
# 2 0.003975 0.039743 -0.003687 -0.018310 0.000607 -0.013869
# 3 -0.005329 -0.003687 0.010026 0.000233 0.000022 -0.008915
# 4 -0.004435 -0.018310 0.000233 0.027504 -0.002372 0.012305
# 5 -0.000467 0.000607 0.000022 -0.002372 0.020044 -0.000915
# 6 -0.003710 -0.013869 -0.008915 0.012305 -0.000915 0.068760
#
#
# Mechanical properties :
#
#
# Convention : Reuss Voigt Hill
#
# Bulk Modulus (GPa) = 18.52145 57.23758 37.87951
# Shear Modulus (GPa) = 23.98538 39.81231 31.89884
#
# Velocity S-wave (km/s) = 3.12650 4.02804 3.60556
# Velocity P-wave (km/s) = 4.53669 6.70522 5.72457
#
# Compressibility (1/GPa) = 0.05399146
#
# Stress axis : x y z
#
# Youngs Moduli (GPa) = 69.90590 25.16195 99.73981
#
# Poissons Ratio (x) = -0.10003 0.53154
# Poissons Ratio (y) = -0.27790 0.36775
# Poissons Ratio (z) = 0.37255 0.09277
#
# Static dielectric constant tensor:
#      x y z
#    x 1.855120 -0.050810 -0.000420 
#    y -0.050810 2.091650 -0.052690 
#    z -0.000420 -0.052690 1.925770 
# 
# From -- ./inp_files/416669.got.cif
#   From: 2010.05.17/outbox.cif.g08.bks.cpg/sg2_209_cif.got.tgz:416669.got - 2010.06.03 11:33:40.
