data_PCOD9028007
_publ_section_title
;
Structure prediction by ZEFSAII (Michael W. Deem and Ramdas Pophale) SiO2 
 PCOD9028007
Probable space group: P -1
;
_chemical_formula_sum "Si O2"
_cell_formula_units_Z 14
_cell_length_a 9.927307
_cell_length_b 11.442544
_cell_length_c 9.297929
_cell_angle_alpha 53.319820
_cell_angle_beta 133.299822
_cell_angle_gamma 126.924145
_cell_volume 582.482320
_symmetry_space_group_name_H-M "P -1"
_symmetry_group_IT_number 2
_symmetry_cell_setting 'triclinic'
loop_
_space_group_symop_operation_xyz
x,y,z
-x,-y,-z
loop_
_atom_site_type_symbol
_atom_site_label
_atom_site_fract_x
_atom_site_fract_y
_atom_site_fract_z
Si Si1 0.018590 0.724215 0.758282
Si Si2 0.003105 0.741124 0.402500
Si Si3 0.937527 0.066865 0.101676
Si Si4 0.328585 0.792686 0.368699
Si Si5 0.428939 0.399262 0.833949
Si Si6 0.364606 0.252748 0.181405
Si Si7 0.689702 0.416690 0.760507
O O1 0.067348 0.743572 0.612493
O O2 0.045480 0.874384 0.764333
O O3 0.800862 0.599761 0.701913
O O4 0.163094 0.648208 0.996012
O O5 0.796178 0.609106 0.322365
O O6 0.164355 0.731965 0.415242
O O7 0.952978 0.898721 0.230575
O O8 0.132596 0.178351 0.084229
O O9 0.749129 0.088679 0.867717
O O10 0.530981 0.838869 0.572040
O O11 0.335657 0.663400 0.353904
O O12 0.570000 0.569539 0.850006
O O13 0.494156 0.366644 0.748365
O O14 0.440843 0.278104 0.054487
#
# Coordination Sequence:
#
# PCOD9028007 Si02
#       7
#     2   2   2   2   2   2   2
#     4  10  22  41  70  96 132 179 219 276 330 392
#     4  12  25  43  69  97 140 174 222 271 338 390
#     4  11  24  48  65  99 137 179 218 276 326 406
#     4  11  25  43  68 100 134 179 216 276 332 394
#     4  11  24  42  68 105 130 172 225 283 320 403
#     4  11  24  43  72  96 136 172 230 269 337 384
#     4  10  22  42  68 101 136 164 229 276 331 388
#
# _framework density 24.035064999999999
#
# number of rings (size 3 to 8) (size 9 to 14) (size 15 to 20)
#    0.000    1.143    2.857    2.571    2.000    4.000 
#    2.571    1.429    0.000    0.000    0.000    0.000 
#    0.000    0.000    0.000    0.000    0.000    0.000 
#
# Total GULP energy -78370.787532 kJ/mol
# GULP energy per Si atom -5597.913395 kJ/mol
# Density = 2.398036 g / cm^3
# Si number density = 24.035065 Si / 1000 Ang^3
#
#
#
# Elastic Constant Matrix: (Units=GPa)
#
#
# Indices 1 2 3 4 5 6 
#
# 1 103.7091 -0.1939 19.0077 12.6929 -34.6503 -26.5825
# 2 -0.1939 71.1972 19.6623 -9.2147 -7.2428 -16.0248
# 3 19.0077 19.6623 131.3034 20.2688 -16.2747 -14.4948
# 4 12.6929 -9.2147 20.2688 22.1626 -2.9933 -2.6356
# 5 -34.6503 -7.2428 -16.2747 -2.9933 47.7060 8.6929
# 6 -26.5825 -16.0248 -14.4948 -2.6356 8.6929 22.7662
#
#
#
# Elastic Compliance Matrix: (Units=1/GPa)
#
#
# Indices 1 2 3 4 5 6 
#
# 1 0.019521 0.005074 0.001148 -0.006002 0.010913 0.022234
# 2 0.005074 0.020945 -0.003168 0.011349 0.003072 0.018791
# 3 0.001148 -0.003168 0.010257 -0.010601 0.002561 0.003436
# 4 -0.006002 0.011349 -0.010601 0.062904 -0.002775 0.002572
# 5 0.010913 0.003072 0.002561 -0.002775 0.029126 0.005092
# 6 0.022234 0.018791 0.003436 0.002572 0.005092 0.083654
#
#
# Mechanical properties :
#
#
# Convention : Reuss Voigt Hill
#
# Bulk Modulus (GPa) = 17.59597 42.57357 30.08477
# Shear Modulus (GPa) = 20.89932 36.37586 28.63759
#
# Velocity S-wave (km/s) = 2.95199 3.89453 3.45554
# Velocity P-wave (km/s) = 4.35383 6.16236 5.33528
#
# Compressibility (1/GPa) = 0.05683119
#
# Stress axis : x y z
#
# Youngs Moduli (GPa) = 51.22685 47.74414 97.49187
#
# Poissons Ratio (x) = -0.24224 -0.11191
# Poissons Ratio (y) = -0.25991 0.30882
# Poissons Ratio (z) = -0.05880 0.15124
#
# Static dielectric constant tensor:
#      x y z
#    x 1.890540 -0.019250 -0.019340 
#    y -0.019250 1.916820 0.005220 
#    z -0.019340 0.005220 1.949990 
# 
# From -- ./inp_files/158549.got.cif
#   From: 2010.05.17/outbox.cif.g08.bks.cpg/sg2_80_cif.got.tgz:158549.got - 2010.06.03 11:33:40.
