data_PCOD9028659
_publ_section_title
;
Structure prediction by ZEFSAII (Michael W. Deem and Ramdas Pophale) SiO2 
 PCOD9028659
Probable space group: P -1
;
_chemical_formula_sum "Si O2"
_cell_formula_units_Z 16
_cell_length_a 6.003575
_cell_length_b 8.387376
_cell_length_c 19.130382
_cell_angle_alpha 91.498029
_cell_angle_beta 90.720842
_cell_angle_gamma 47.566317
_cell_volume 710.709297
_symmetry_space_group_name_H-M "P -1"
_symmetry_group_IT_number 2
_symmetry_cell_setting 'triclinic'
loop_
_space_group_symop_operation_xyz
x,y,z
-x,-y,-z
loop_
_atom_site_type_symbol
_atom_site_label
_atom_site_fract_x
_atom_site_fract_y
_atom_site_fract_z
Si Si1 0.590555 0.925623 0.788713
Si Si2 0.269531 0.587683 0.834161
Si Si3 0.581494 0.268994 0.715403
Si Si4 0.739258 0.048490 0.339787
Si Si5 0.567300 0.629912 0.541834
Si Si6 0.741745 0.714964 0.411265
Si Si7 0.570586 0.302751 0.957355
Si Si8 0.734874 0.064121 0.088003
O O1 0.461592 0.867375 0.729402
O O2 0.407620 0.992902 0.860530
O O3 0.936821 0.724684 0.804727
O O4 0.560081 0.116252 0.758348
O O5 0.499280 0.450036 0.769793
O O6 0.348169 0.419928 0.892302
O O7 0.285834 0.754629 0.870586
O O8 0.355430 0.361297 0.650461
O O9 0.916145 0.118704 0.684746
O O10 0.658346 0.229113 0.393939
O O11 0.674330 0.920518 0.382447
O O12 0.500000 0.500000 0.500000
O O13 0.561862 0.764073 0.481897
O O14 0.904674 0.467293 0.572303
O O15 0.500000 0.500000 0.000000
O O16 0.562794 0.168932 0.014479
O O17 0.914226 0.138116 0.928711
#
# Coordination Sequence:
#
# PCOD9028659 Si02
#       8
#     2   2   2   2   2   2   2   2
#     4  11  24  39  63  92 124 162 208 255 306 368
#     4  11  22  40  63  91 124 162 208 256 307 366
#     4  11  25  42  63  92 125 164 207 255 309 367
#     4  11  24  43  63  89 127 165 204 256 310 368
#     4  11  24  42  66  94 124 161 206 258 310 366
#     4  10  24  42  64  93 124 162 208 252 310 372
#     4   9  20  40  65  91 125 164 205 254 309 364
#     4  10  22  42  64  91 126 164 206 256 307 365
#
# _framework density 22.512723000000001
#
# number of rings (size 3 to 8) (size 9 to 14) (size 15 to 20)
#    0.000    1.500    0.000    4.125    0.000   14.500 
#    0.000    8.750    0.000    0.000    0.000    0.000 
#    0.000    0.000    0.000    0.000    0.000    0.000 
#
# Total GULP energy -89548.126066 kJ/mol
# GULP energy per Si atom -5596.757879 kJ/mol
# Density = 2.246148 g / cm^3
# Si number density = 22.512723 Si / 1000 Ang^3
#
#
#
# Elastic Constant Matrix: (Units=GPa)
#
#
# Indices 1 2 3 4 5 6 
#
# 1 62.1130 23.6994 26.6970 3.4338 -2.2030 -3.4487
# 2 23.6994 85.1794 49.9822 16.1175 7.8135 -3.2877
# 3 26.6970 49.9822 115.7697 3.5835 0.8572 -10.2378
# 4 3.4338 16.1175 3.5835 64.6527 -0.0008 1.4793
# 5 -2.2030 7.8135 0.8572 -0.0008 44.4734 -4.5641
# 6 -3.4487 -3.2877 -10.2378 1.4793 -4.5641 28.5613
#
#
#
# Elastic Compliance Matrix: (Units=1/GPa)
#
#
# Indices 1 2 3 4 5 6 
#
# 1 0.018803 -0.003846 -0.002587 0.000076 0.001778 0.001181
# 2 -0.003846 0.017741 -0.006733 -0.003819 -0.003297 -0.001165
# 3 -0.002587 -0.006733 0.012409 0.001048 0.001174 0.003494
# 4 0.000076 -0.003819 0.001048 0.016376 0.000571 -0.000811
# 5 0.001778 -0.003297 0.001174 0.000571 0.023539 0.003988
# 6 0.001181 -0.001165 0.003494 -0.000811 0.003988 0.036953
#
#
# Mechanical properties :
#
#
# Convention : Reuss Voigt Hill
#
# Bulk Modulus (GPa) = 44.20447 51.53550 47.86998
# Shear Modulus (GPa) = 31.31017 38.38303 34.84660
#
# Velocity S-wave (km/s) = 3.73336 4.13358 3.93856
# Velocity P-wave (km/s) = 6.18562 6.76191 6.48017
#
# Compressibility (1/GPa) = 0.02262215
#
# Stress axis : x y z
#
# Youngs Moduli (GPa) = 53.18217 56.36745 80.58599
#
# Poissons Ratio (x) = 0.21677 0.20847
# Poissons Ratio (y) = 0.20452 0.54258
# Poissons Ratio (z) = 0.13758 0.37952
#
# Static dielectric constant tensor:
#      x y z
#    x 1.819400 0.042150 0.002580 
#    y 0.042150 1.811450 -0.011690 
#    z 0.002580 -0.011690 1.843890 
# 
# From -- ./inp_files/122780.got.cif
#   From: 2010.05.17/outbox.cif.g08.bks.cpg/sg2_62_cif.got.tgz:122780.got - 2010.06.03 11:33:40.
