data_PCOD9028913
_publ_section_title
;
Structure prediction by ZEFSAII (Michael W. Deem and Ramdas Pophale) SiO2 
 PCOD9028913
Probable space group: P -1
;
_chemical_formula_sum "Si O2"
_cell_formula_units_Z 16
_cell_length_a 10.796719
_cell_length_b 11.676231
_cell_length_c 11.222720
_cell_angle_alpha 57.403285
_cell_angle_beta 33.496583
_cell_angle_gamma 56.218386
_cell_volume 640.234130
_symmetry_space_group_name_H-M "P -1"
_symmetry_group_IT_number 2
_symmetry_cell_setting 'triclinic'
loop_
_space_group_symop_operation_xyz
x,y,z
-x,-y,-z
loop_
_atom_site_type_symbol
_atom_site_label
_atom_site_fract_x
_atom_site_fract_y
_atom_site_fract_z
Si Si1 0.462871 0.737444 0.519159
Si Si2 0.086361 0.406806 0.867266
Si Si3 0.839856 0.152812 0.521984
Si Si4 0.607928 0.165656 0.930134
Si Si5 0.065331 0.235399 0.615134
Si Si6 0.445195 0.969538 0.714622
Si Si7 0.159866 0.767572 0.950570
Si Si8 0.144536 0.363624 0.252623
O O1 0.646228 0.620882 0.366431
O O2 0.258751 0.803413 0.554131
O O3 0.384602 0.687720 0.737648
O O4 0.566122 0.870902 0.391471
O O5 0.942600 0.495440 0.826790
O O6 0.000000 0.500000 0.000000
O O7 0.023734 0.255139 0.990387
O O8 0.620184 0.156663 0.783356
O O9 0.996888 0.260240 0.371596
O O10 0.000000 0.000000 0.500000
O O11 0.865913 0.175480 0.746670
O O12 0.563642 0.052019 0.123301
O O13 0.413373 0.300751 0.047159
O O14 0.305452 0.122082 0.473480
O O15 0.102057 0.359988 0.429913
O O16 0.955997 0.268300 0.814162
O O17 0.247916 0.905523 0.844621
#
# Coordination Sequence:
#
# PCOD9028913 Si02
#       8
#     2   2   2   2   2   2   2   2
#     4  12  26  42  67 100 137 178 222 275 334 400
#     4  12  28  46  65  95 137 185 228 269 327 399
#     4  11  23  40  67 100 131 171 220 277 338 394
#     4   9  19  38  67  95 129 171 217 276 332 385
#     4   9  20  42  70 100 131 170 220 277 335 391
#     4  10  22  43  69 102 134 167 221 282 339 395
#     4  11  25  44  70  99 135 178 221 276 338 396
#     4  10  22  42  65  94 135 177 225 273 322 395
#
# _framework density 24.990856999999998
#
# number of rings (size 3 to 8) (size 9 to 14) (size 15 to 20)
#    0.000    1.500    0.000    4.875    0.000   11.500 
#    0.000    6.250    0.000    0.000    0.000    0.000 
#    0.000    0.000    0.000    0.000    0.000    0.000 
#
# Total GULP energy -89241.424758 kJ/mol
# GULP energy per Si atom -5577.589047 kJ/mol
# Density = 2.493398 g / cm^3
# Si number density = 24.990857 Si / 1000 Ang^3
#
#
#
# Elastic Constant Matrix: (Units=GPa)
#
#
# Indices 1 2 3 4 5 6 
#
# 1 95.7049 43.1532 62.6798 13.5856 7.7423 12.4447
# 2 43.1532 83.3076 59.6534 20.1492 0.3067 3.9881
# 3 62.6798 59.6534 193.4841 31.7741 40.7410 -3.9216
# 4 13.5856 20.1492 31.7741 28.5222 5.6817 -2.3369
# 5 7.7423 0.3067 40.7410 5.6817 59.1693 -4.3059
# 6 12.4447 3.9881 -3.9216 -2.3369 -4.3059 50.6509
#
#
#
# Elastic Compliance Matrix: (Units=1/GPa)
#
#
# Indices 1 2 3 4 5 6 
#
# 1 0.015657 -0.005419 -0.003491 -0.000067 0.000121 -0.003683
# 2 -0.005419 0.019408 -0.003797 -0.007724 0.003927 -0.000513
# 3 -0.003491 -0.003797 0.009471 -0.005017 -0.005476 0.001193
# 4 -0.000067 -0.007724 -0.005017 0.046485 -0.000792 0.002314
# 5 0.000121 0.003927 -0.005476 -0.000792 0.020782 0.000967
# 6 -0.003683 -0.000513 0.001193 0.002314 0.000967 0.020970
#
#
# Mechanical properties :
#
#
# Convention : Reuss Voigt Hill
#
# Bulk Modulus (GPa) = 52.29375 78.16327 65.22851
# Shear Modulus (GPa) = 30.38421 41.46918 35.92669
#
# Velocity S-wave (km/s) = 3.49063 4.07796 3.79567
# Velocity P-wave (km/s) = 6.10054 7.31558 6.73551
#
# Compressibility (1/GPa) = 0.01912274
#
# Stress axis : x y z
#
# Youngs Moduli (GPa) = 63.87016 51.52572 105.58387
#
# Poissons Ratio (x) = 0.27920 0.36855
# Poissons Ratio (y) = 0.34609 0.40093
# Poissons Ratio (z) = 0.22295 0.19566
#
# Static dielectric constant tensor:
#      x y z
#    x 2.042860 0.027150 0.006290 
#    y 0.027150 2.015260 -0.034570 
#    z 0.006290 -0.034570 2.068520 
# 
# From -- ./inp_files/427694.got.cif
#   From: 2010.05.17/outbox.cif.g08.bks.cpg/sg2_214_cif.got.tgz:427694.got - 2010.06.03 11:33:40.
