data_PCOD9028259
_publ_section_title
;
Structure prediction by ZEFSAII (Michael W. Deem and Ramdas Pophale) SiO2 
 PCOD9028259
Probable space group: P -1
;
_chemical_formula_sum "Si O2"
_cell_formula_units_Z 16
_cell_length_a 5.129798
_cell_length_b 17.510727
_cell_length_c 20.859325
_cell_angle_alpha 152.845236
_cell_angle_beta 79.322602
_cell_angle_gamma 85.300704
_cell_volume 701.693696
_symmetry_space_group_name_H-M "P -1"
_symmetry_group_IT_number 2
_symmetry_cell_setting 'triclinic'
loop_
_space_group_symop_operation_xyz
x,y,z
-x,-y,-z
loop_
_atom_site_type_symbol
_atom_site_label
_atom_site_fract_x
_atom_site_fract_y
_atom_site_fract_z
Si Si1 0.344413 0.414940 0.396689
Si Si2 0.540051 0.530634 0.912773
Si Si3 0.471194 0.751169 0.209260
Si Si4 0.702417 0.000593 0.429745
Si Si5 0.125549 0.386562 0.693631
Si Si6 0.787349 0.572699 0.730910
Si Si7 0.173689 0.750076 0.979107
Si Si8 0.182179 0.037249 0.963807
O O1 0.500000 0.500000 0.500000
O O2 0.307961 0.472955 0.366641
O O3 0.000000 0.500000 0.500000
O O4 0.497204 0.177095 0.212891
O O5 0.424898 0.390171 0.838313
O O6 0.292571 0.725135 0.027412
O O7 0.861805 0.387255 0.750241
O O8 0.581885 0.613164 0.038657
O O9 0.650891 0.863028 0.281973
O O10 0.081436 0.902641 0.345435
O O11 0.500000 0.000000 0.500000
O O12 0.482069 0.221894 0.575371
O O13 0.044240 0.607471 0.876300
O O14 0.073028 0.390096 0.622001
O O15 0.493020 0.643913 0.843919
O O16 0.824326 0.763431 0.868532
O O17 0.949217 0.936753 0.083528
O O18 0.000000 0.000000 0.000000
#
# Coordination Sequence:
#
# PCOD9028259 Si02
#       8
#     2   2   2   2   2   2   2   2
#     4  12  27  44  69 104 141 169 215 288 353 392
#     4  10  23  43  65  99 129 178 224 286 336 394
#     4  11  26  41  70  97 140 172 227 286 341 395
#     4  12  24  43  66 101 131 180 224 275 338 405
#     4  10  23  41  70  92 136 176 232 276 332 407
#     4  10  23  44  70  98 130 188 234 273 331 421
#     4  10  22  41  73  92 129 177 240 268 331 402
#     4  11  22  44  75  97 128 182 239 274 326 421
#
# _framework density 22.801973
#
# number of rings (size 3 to 8) (size 9 to 14) (size 15 to 20)
#    0.000    1.250    2.500    2.250    8.750    1.000 
#    4.500    0.000    0.000    0.000    0.000    0.000 
#    0.000    0.000    0.000    0.000    0.000    0.000 
#
# Total GULP energy -89235.805058 kJ/mol
# GULP energy per Si atom -5577.237816 kJ/mol
# Density = 2.275008 g / cm^3
# Si number density = 22.801973 Si / 1000 Ang^3
#
#
#
# Elastic Constant Matrix: (Units=GPa)
#
#
# Indices 1 2 3 4 5 6 
#
# 1 82.4660 29.2491 11.9850 -11.7171 1.2872 -4.1612
# 2 29.2491 154.5481 32.4404 0.2411 -3.1721 -18.4799
# 3 11.9850 32.4404 62.7395 1.8247 -8.6724 -6.1941
# 4 -11.7171 0.2411 1.8247 22.3186 -17.8952 -1.7330
# 5 1.2872 -3.1721 -8.6724 -17.8952 38.3173 -0.4919
# 6 -4.1612 -18.4799 -6.1941 -1.7330 -0.4919 31.2627
#
#
#
# Elastic Compliance Matrix: (Units=1/GPa)
#
#
# Indices 1 2 3 4 5 6 
#
# 1 0.014749 -0.002335 -0.001231 0.011487 0.004411 0.001045
# 2 -0.002335 0.008059 -0.003393 -0.001163 -0.000518 0.003708
# 3 -0.001231 -0.003393 0.018723 0.001946 0.004929 0.001726
# 4 0.011487 -0.001163 0.001946 0.081876 0.038278 0.006368
# 5 0.004411 -0.000518 0.004929 0.038278 0.044952 0.004087
# 6 0.001045 0.003708 0.001726 0.006368 0.004087 0.035077
#
#
# Mechanical properties :
#
#
# Convention : Reuss Voigt Hill
#
# Bulk Modulus (GPa) = 36.21415 49.67804 42.94609
# Shear Modulus (GPa) = 22.06919 33.45167 27.76043
#
# Velocity S-wave (km/s) = 3.11442 3.83437 3.49299
# Velocity P-wave (km/s) = 5.37116 6.43717 5.92818
#
# Compressibility (1/GPa) = 0.02761352
#
# Stress axis : x y z
#
# Youngs Moduli (GPa) = 67.79910 124.08185 53.40891
#
# Poissons Ratio (x) = 0.28978 0.06576
# Poissons Ratio (y) = 0.15834 0.18120
# Poissons Ratio (z) = 0.08348 0.42096
#
# Static dielectric constant tensor:
#      x y z
#    x 1.896840 -0.099770 -0.019160 
#    y -0.099770 2.022310 0.046070 
#    z -0.019160 0.046070 1.805740 
# 
# From -- ./inp_files/584058.got.cif
#   From: 2010.05.17/outbox.cif.g08.bks.cpg/sg2_293_cif.got.tgz:584058.got - 2010.06.03 11:33:40.
