data_PCOD9028316
_publ_section_title
;
Structure prediction by ZEFSAII (Michael W. Deem and Ramdas Pophale) SiO2 
 PCOD9028316
Probable space group: P -1
;
_chemical_formula_sum "Si O2"
_cell_formula_units_Z 12
_cell_length_a 11.644211
_cell_length_b 5.052967
_cell_length_c 12.341050
_cell_angle_alpha 85.693540
_cell_angle_beta 134.669262
_cell_angle_gamma 114.562910
_cell_volume 442.410903
_symmetry_space_group_name_H-M "P -1"
_symmetry_group_IT_number 2
_symmetry_cell_setting 'triclinic'
loop_
_space_group_symop_operation_xyz
x,y,z
-x,-y,-z
loop_
_atom_site_type_symbol
_atom_site_label
_atom_site_fract_x
_atom_site_fract_y
_atom_site_fract_z
Si Si1 0.097677 0.822869 0.118386
Si Si2 0.630229 0.302059 0.970207
Si Si3 0.920934 0.670503 0.514866
Si Si4 0.600755 0.399342 0.169836
Si Si5 0.207909 0.180126 0.372510
Si Si6 0.398301 0.693075 0.292915
O O1 0.318837 0.926051 0.249389
O O2 0.083514 0.857373 0.236587
O O3 0.000000 0.500000 0.000000
O O4 0.000000 0.000000 0.000000
O O5 0.449350 0.334560 0.876591
O O6 0.669702 0.433007 0.871036
O O7 0.573787 0.949085 0.933479
O O8 0.726505 0.424624 0.147359
O O9 0.702181 0.449240 0.348627
O O10 0.919467 0.742343 0.637934
O O11 0.000000 0.500000 0.500000
O O12 0.000000 0.000000 0.500000
O O13 0.298658 0.438385 0.329651
O O14 0.379992 0.177660 0.548690
#
# Coordination Sequence:
#
# PCOD9028316 Si02
#       6
#     2   2   2   2   2   2
#     4  12  27  49  72 111 157 204 246 314 394 459
#     4  10  22  41  76 101 143 182 248 311 367 431
#     4  12  28  47  74 105 153 206 250 310 377 461
#     4  10  22  44  66 107 140 190 246 301 363 449
#     4  11  27  50  79 118 153 204 265 314 389 464
#     4  11  25  47  84 115 153 199 256 329 382 462
#
# _framework density 27.124106999999999
#
# number of rings (size 3 to 8) (size 9 to 14) (size 15 to 20)
#    0.000    1.000    3.333    1.500    4.667    2.667 
#    0.000    0.000    0.000    0.000    0.000    0.000 
#    0.000    0.000    0.000    0.000    0.000    0.000 
#
# Total GULP energy -66944.433241 kJ/mol
# GULP energy per Si atom -5578.702770 kJ/mol
# Density = 2.706237 g / cm^3
# Si number density = 27.124107 Si / 1000 Ang^3
#
#
#
# Elastic Constant Matrix: (Units=GPa)
#
#
# Indices 1 2 3 4 5 6 
#
# 1 177.2456 63.8773 52.1396 -4.5520 -42.4612 -27.0459
# 2 63.8773 136.6030 30.2738 -20.0960 -9.2444 -23.0449
# 3 52.1396 30.2738 114.5064 4.1801 -29.9417 -18.6258
# 4 -4.5520 -20.0960 4.1801 37.0224 -13.5552 -9.6559
# 5 -42.4612 -9.2444 -29.9417 -13.5552 64.3794 -6.9885
# 6 -27.0459 -23.0449 -18.6258 -9.6559 -6.9885 61.2878
#
#
#
# Elastic Compliance Matrix: (Units=1/GPa)
#
#
# Indices 1 2 3 4 5 6 
#
# 1 0.009033 -0.002384 -0.001385 0.003202 0.006065 0.003865
# 2 -0.002384 0.010405 -0.000940 0.006959 0.001366 0.003827
# 3 -0.001385 -0.000940 0.011316 0.000558 0.004667 0.003094
# 4 0.003202 0.006959 0.000558 0.038895 0.012840 0.011791
# 5 0.006065 0.001366 0.004667 0.012840 0.025641 0.009555
# 6 0.003865 0.003827 0.003094 0.011791 0.009555 0.023349
#
#
# Mechanical properties :
#
#
# Convention : Reuss Voigt Hill
#
# Bulk Modulus (GPa) = 46.86799 80.10405 63.48602
# Shear Modulus (GPa) = 36.99056 51.34222 44.16639
#
# Velocity S-wave (km/s) = 3.69691 4.35542 4.03961
# Velocity P-wave (km/s) = 5.96150 7.40874 6.72417
#
# Compressibility (1/GPa) = 0.02133652
#
# Stress axis : x y z
#
# Youngs Moduli (GPa) = 110.70006 96.10543 88.37113
#
# Poissons Ratio (x) = 0.22907 0.12242
# Poissons Ratio (y) = 0.26386 0.08308
# Poissons Ratio (z) = 0.15336 0.09035
#
# Static dielectric constant tensor:
#      x y z
#    x 2.195230 0.080650 0.028010 
#    y 0.080650 2.199010 -0.015580 
#    z 0.028010 -0.015580 2.263880 
# 
# From -- ./inp_files/409390.got.cif
#   From: 2010.05.17/outbox.cif.g08.bks.cpg/sg2_205_cif.got.tgz:409390.got - 2010.06.03 11:33:40.
