data_PCOD9028136
_publ_section_title
;
Structure prediction by ZEFSAII (Michael W. Deem and Ramdas Pophale) SiO2 
 PCOD9028136
Probable space group: P -1
;
_chemical_formula_sum "Si O2"
_cell_formula_units_Z 16
_cell_length_a 8.358462
_cell_length_b 14.308636
_cell_length_c 12.445339
_cell_angle_alpha 62.870885
_cell_angle_beta 107.274775
_cell_angle_gamma 145.381144
_cell_volume 743.491275
_symmetry_space_group_name_H-M "P -1"
_symmetry_group_IT_number 2
_symmetry_cell_setting 'triclinic'
loop_
_space_group_symop_operation_xyz
x,y,z
-x,-y,-z
loop_
_atom_site_type_symbol
_atom_site_label
_atom_site_fract_x
_atom_site_fract_y
_atom_site_fract_z
Si Si1 0.453521 0.479963 0.132180
Si Si2 0.619426 0.942353 0.554827
Si Si3 0.415241 0.047745 0.219700
Si Si4 0.004285 0.582934 0.551739
Si Si5 0.862474 0.084863 0.307711
Si Si6 0.168234 0.328473 0.694501
Si Si7 0.564368 0.759800 0.272977
Si Si8 0.347955 0.180241 0.970620
O O1 0.650349 0.532799 0.242472
O O2 0.516080 0.635185 0.086878
O O3 0.151754 0.272647 0.211617
O O4 0.500000 0.500000 0.000000
O O5 0.686761 0.955987 0.684452
O O6 0.325039 0.736437 0.576635
O O7 0.500000 0.000000 0.500000
O O8 0.857547 0.054857 0.450851
O O9 0.652022 0.078886 0.262482
O O10 0.488329 0.179770 0.088819
O O11 0.137067 0.850938 0.220538
O O12 0.904657 0.639132 0.442324
O O13 0.762900 0.428750 0.667093
O O14 0.000000 0.500000 0.500000
O O15 0.723267 0.913404 0.310973
O O16 0.300350 0.286569 0.698035
O O17 0.583060 0.828553 0.128065
O O18 0.000000 0.000000 0.000000
#
# Coordination Sequence:
#
# PCOD9028136 Si02
#       8
#     2   2   2   2   2   2   2   2
#     4  11  26  45  69 101 146 174 233 288 334 409
#     4  10  22  41  71  95 145 167 229 287 338 394
#     4  11  23  44  75  96 137 186 229 275 353 400
#     4  12  23  46  67 107 137 179 231 283 341 412
#     4  11  24  46  68 106 136 179 231 289 338 400
#     4  11  24  44  73  97 136 189 222 277 358 405
#     4  11  24  42  72  96 142 179 228 281 342 416
#     4  11  23  45  69  99 135 184 227 278 345 412
#
# _framework density 21.52009
#
# number of rings (size 3 to 8) (size 9 to 14) (size 15 to 20)
#    0.000    1.000    6.250    1.125    7.000    3.000 
#    2.250    1.250    0.000    0.000    0.000    0.000 
#    0.000    0.000    0.000    0.000    0.000    0.000 
#
# Total GULP energy -89138.489299 kJ/mol
# GULP energy per Si atom -5571.155581 kJ/mol
# Density = 2.147111 g / cm^3
# Si number density = 21.520090 Si / 1000 Ang^3
#
#
#
# Elastic Constant Matrix: (Units=GPa)
#
#
# Indices 1 2 3 4 5 6 
#
# 1 43.3012 13.3159 33.7499 3.4941 -2.3184 -2.7431
# 2 13.3159 88.3793 10.0272 -14.1659 -18.5651 -1.6955
# 3 33.7499 10.0272 128.2687 -3.1596 -18.2520 0.9740
# 4 3.4941 -14.1659 -3.1596 43.0460 -1.0940 -10.4306
# 5 -2.3184 -18.5651 -18.2520 -1.0940 31.9886 -3.1273
# 6 -2.7431 -1.6955 0.9740 -10.4306 -3.1273 31.3597
#
#
#
# Elastic Compliance Matrix: (Units=1/GPa)
#
#
# Indices 1 2 3 4 5 6 
#
# 1 0.032084 -0.006015 -0.009025 -0.005327 -0.006464 0.000345
# 2 -0.006015 0.015277 0.001970 0.006765 0.010127 0.003499
# 3 -0.009025 0.001970 0.011061 0.002488 0.006933 0.000493
# 4 -0.005327 0.006765 0.002488 0.028685 0.006924 0.010054
# 5 -0.006464 0.010127 0.006933 0.006924 0.041470 0.006205
# 6 0.000345 0.003499 0.000493 0.010054 0.006205 0.036055
#
#
# Mechanical properties :
#
#
# Convention : Reuss Voigt Hill
#
# Bulk Modulus (GPa) = 30.97881 41.57059 36.27470
# Shear Modulus (GPa) = 24.80993 34.80259 29.80626
#
# Velocity S-wave (km/s) = 3.39908 4.02582 3.72565
# Velocity P-wave (km/s) = 5.46183 6.40068 5.94980
#
# Compressibility (1/GPa) = 0.03228013
#
# Stress axis : x y z
#
# Youngs Moduli (GPa) = 31.16829 65.45986 90.40753
#
# Poissons Ratio (x) = 0.39374 0.81595
# Poissons Ratio (y) = 0.18748 -0.17807
# Poissons Ratio (z) = 0.28130 -0.12893
#
# Static dielectric constant tensor:
#      x y z
#    x 1.809240 -0.017070 0.041390 
#    y -0.017070 1.762810 -0.000970 
#    z 0.041390 -0.000970 1.817900 
# 
# From -- ./inp_files/398956.got.cif
#   From: 2010.05.17/outbox.cif.g08.bks.cpg/sg2_200_cif.got.tgz:398956.got - 2010.06.03 11:33:40.
