data_PCOD9028063
_publ_section_title
;
Structure prediction by ZEFSAII (Michael W. Deem and Ramdas Pophale) SiO2 
 PCOD9028063
Probable space group: P -1
;
_chemical_formula_sum "Si O2"
_cell_formula_units_Z 16
_cell_length_a 11.537040
_cell_length_b 8.994666
_cell_length_c 11.353791
_cell_angle_alpha 64.058218
_cell_angle_beta 52.420186
_cell_angle_gamma 53.947133
_cell_volume 749.206149
_symmetry_space_group_name_H-M "P -1"
_symmetry_group_IT_number 2
_symmetry_cell_setting 'triclinic'
loop_
_space_group_symop_operation_xyz
x,y,z
-x,-y,-z
loop_
_atom_site_type_symbol
_atom_site_label
_atom_site_fract_x
_atom_site_fract_y
_atom_site_fract_z
Si Si1 0.851095 0.572746 0.402200
Si Si2 0.662373 0.370905 0.365885
Si Si3 0.015797 0.083480 0.338851
Si Si4 0.681843 0.838600 0.931576
Si Si5 0.935161 0.293120 0.643438
Si Si6 0.499767 0.813347 0.616912
Si Si7 0.391020 0.395761 0.138762
Si Si8 0.825608 0.605887 0.131161
O O1 0.939105 0.375084 0.481947
O O2 0.662027 0.647303 0.520649
O O3 0.862288 0.598479 0.248531
O O4 0.912766 0.703951 0.384961
O O5 0.500000 0.500000 0.500000
O O6 0.637997 0.226310 0.346733
O O7 0.705563 0.512313 0.217406
O O8 0.835943 0.250779 0.366194
O O9 0.171324 0.125760 0.225318
O O10 0.056863 0.907456 0.288997
O O11 0.000000 0.000000 0.500000
O O12 0.663293 0.686371 0.911807
O O13 0.737820 0.792472 0.048783
O O14 0.500000 0.000000 0.000000
O O15 0.772929 0.447970 0.752593
O O16 0.518534 0.767412 0.761496
O O17 0.500000 0.000000 0.500000
O O18 0.500000 0.500000 0.000000
O O19 0.000000 0.500000 0.000000
#
# Coordination Sequence:
#
# PCOD9028063 Si02
#       8
#     2   2   2   2   2   2   2   2
#     4  10  22  41  71 100 137 193 233 295 361 435
#     4  12  26  45  72 104 146 191 238 302 365 435
#     4  12  28  44  72 111 145 187 247 300 365 435
#     4  12  29  47  75 109 150 190 240 310 367 438
#     4  10  23  44  72 101 144 188 243 296 362 435
#     4  11  25  42  70 104 141 182 247 303 357 428
#     4  11  25  47  73 101 143 198 243 294 375 443
#     4  12  24  46  70 103 145 191 243 292 368 436
#
# _framework density 21.35594
#
# number of rings (size 3 to 8) (size 9 to 14) (size 15 to 20)
#    0.000    0.750    2.500    3.750   12.250    0.000 
#    0.000    0.625    0.000    0.000    0.000    0.000 
#    0.000    0.000    0.000    0.000    0.000    0.000 
#
# Total GULP energy -89250.449982 kJ/mol
# GULP energy per Si atom -5578.153124 kJ/mol
# Density = 2.130733 g / cm^3
# Si number density = 21.355940 Si / 1000 Ang^3
#
#
#
# Elastic Constant Matrix: (Units=GPa)
#
#
# Indices 1 2 3 4 5 6 
#
# 1 138.1885 30.5297 51.1607 -3.9971 -2.7099 4.9031
# 2 30.5297 89.2244 24.7368 6.0221 -0.4850 -7.0177
# 3 51.1607 24.7368 130.7345 -5.8422 0.2211 -6.4010
# 4 -3.9971 6.0221 -5.8422 35.6070 -0.6264 -7.9905
# 5 -2.7099 -0.4850 0.2211 -0.6264 52.3517 -6.2679
# 6 4.9031 -7.0177 -6.4010 -7.9905 -6.2679 47.0517
#
#
#
# Elastic Compliance Matrix: (Units=1/GPa)
#
#
# Indices 1 2 3 4 5 6 
#
# 1 0.008995 -0.002372 -0.003125 0.000547 0.000273 -0.001587
# 2 -0.002372 0.012716 -0.001505 -0.002309 0.000162 0.001568
# 3 -0.003125 -0.001505 0.009320 0.001809 0.000007 0.001677
# 4 0.000547 -0.002309 0.001809 0.029987 0.000965 0.005066
# 5 0.000273 0.000162 0.000007 0.000965 0.019458 0.002753
# 6 -0.001587 0.001568 0.001677 0.005066 0.002753 0.023108
#
#
# Mechanical properties :
#
#
# Convention : Reuss Voigt Hill
#
# Bulk Modulus (GPa) = 58.72538 63.44467 61.08502
# Shear Modulus (GPa) = 40.56384 43.78343 42.17363
#
# Velocity S-wave (km/s) = 4.36296 4.53280 4.44869
# Velocity P-wave (km/s) = 7.27589 7.56093 7.41978
#
# Compressibility (1/GPa) = 0.01702841
#
# Stress axis : x y z
#
# Youngs Moduli (GPa) = 111.17452 78.63837 107.29990
#
# Poissons Ratio (x) = 0.18650 0.33531
# Poissons Ratio (y) = 0.26366 0.16145
# Poissons Ratio (z) = 0.34742 0.11833
#
# Static dielectric constant tensor:
#      x y z
#    x 1.857650 0.039840 0.048500 
#    y 0.039840 1.811130 -0.023640 
#    z 0.048500 -0.023640 1.788270 
# 
# From -- ./inp_files/419103.got.cif
#   From: 2010.05.17/outbox.cif.g08.bks.cpg/sg2_210_cif.got.tgz:419103.got - 2010.06.03 11:33:40.
