data_PCOD9028078
_publ_section_title
;
Structure prediction by ZEFSAII (Michael W. Deem and Ramdas Pophale) SiO2 
 PCOD9028078
Probable space group: P -1
;
_chemical_formula_sum "Si O2"
_cell_formula_units_Z 16
_cell_length_a 8.269878
_cell_length_b 8.208620
_cell_length_c 18.485173
_cell_angle_alpha 44.291434
_cell_angle_beta 67.756515
_cell_angle_gamma 97.091657
_cell_volume 642.545726
_symmetry_space_group_name_H-M "P -1"
_symmetry_group_IT_number 2
_symmetry_cell_setting 'triclinic'
loop_
_space_group_symop_operation_xyz
x,y,z
-x,-y,-z
loop_
_atom_site_type_symbol
_atom_site_label
_atom_site_fract_x
_atom_site_fract_y
_atom_site_fract_z
Si Si1 0.088352 0.185031 0.093783
Si Si2 0.905350 0.106933 0.541543
Si Si3 0.800597 0.979878 0.078269
Si Si4 0.505393 0.148977 0.215324
Si Si5 0.347350 0.659348 0.281906
Si Si6 0.687256 0.854666 0.370602
Si Si7 0.249982 0.849147 0.590637
Si Si8 0.168165 0.753831 0.145808
O O1 0.920080 0.164387 0.070671
O O2 0.157770 0.987172 0.116110
O O3 0.305705 0.519077 0.947915
O O4 0.925681 0.007585 0.244448
O O5 0.802552 0.194063 0.471970
O O6 0.126824 0.396673 0.443654
O O7 0.705736 0.894632 0.697342
O O8 0.000000 0.000000 0.500000
O O9 0.565712 0.671967 0.237247
O O10 0.719989 0.106314 0.994224
O O11 0.000000 0.000000 0.000000
O O12 0.424036 0.943863 0.223957
O O13 0.597242 0.024575 0.295275
O O14 0.266613 0.645834 0.218037
O O15 0.500000 0.500000 0.500000
O O16 0.752626 0.947929 0.413851
O O17 0.074793 0.519265 0.751689
O O18 0.500000 0.000000 0.500000
#
# Coordination Sequence:
#
# PCOD9028078 Si02
#       8
#     2   2   2   2   2   2   2   2
#     4  11  25  45  75 111 140 192 250 301 368 425
#     4  11  28  45  71 103 142 195 245 296 371 429
#     4  10  22  41  71 101 141 183 241 299 355 428
#     4  12  26  48  74 106 153 188 247 307 363 442
#     4  11  25  45  71 101 150 192 241 299 370 438
#     4  12  26  44  77 109 148 190 247 302 367 430
#     4  11  23  44  72 100 140 188 247 299 347 432
#     4  10  24  43  69 105 146 189 243 295 370 423
#
# _framework density 24.900949000000001
#
# number of rings (size 3 to 8) (size 9 to 14) (size 15 to 20)
#    0.000    1.000    2.500    2.625    8.750    2.500 
#    0.000    0.000    0.000    0.000    0.000    0.000 
#    0.000    0.000    0.000    0.000    0.000    0.000 
#
# Total GULP energy -89225.776495 kJ/mol
# GULP energy per Si atom -5576.611031 kJ/mol
# Density = 2.484427 g / cm^3
# Si number density = 24.900949 Si / 1000 Ang^3
#
#
#
# Elastic Constant Matrix: (Units=GPa)
#
#
# Indices 1 2 3 4 5 6 
#
# 1 47.7751 10.0106 41.5856 -13.7100 -15.8080 1.8737
# 2 10.0106 111.0664 72.3379 -7.1724 -10.4780 0.7551
# 3 41.5856 72.3379 224.7076 -18.0335 -42.7175 -4.0019
# 4 -13.7100 -7.1724 -18.0335 60.1560 3.8186 -1.0998
# 5 -15.8080 -10.4780 -42.7175 3.8186 46.4684 3.4032
# 6 1.8737 0.7551 -4.0019 -1.0998 3.4032 30.1755
#
#
#
# Elastic Compliance Matrix: (Units=1/GPa)
#
#
# Indices 1 2 3 4 5 6 
#
# 1 0.027584 0.000985 -0.003995 0.004792 0.005740 -0.002740
# 2 0.000985 0.011482 -0.003997 0.000427 -0.000728 -0.000781
# 3 -0.003995 -0.003997 0.007375 0.000559 0.004411 0.000849
# 4 0.004792 0.000427 0.000559 0.017893 0.000746 0.000334
# 5 0.005740 -0.000728 0.004411 0.000746 0.027510 -0.002829
# 6 -0.002740 -0.000781 0.000849 0.000334 -0.002829 0.033773
#
#
# Mechanical properties :
#
#
# Convention : Reuss Voigt Hill
#
# Bulk Modulus (GPa) = 30.83695 70.15749 50.49722
# Shear Modulus (GPa) = 33.23609 44.66766 38.95187
#
# Velocity S-wave (km/s) = 3.65736 4.23994 3.95938
# Velocity P-wave (km/s) = 5.49962 7.22532 6.42071
#
# Compressibility (1/GPa) = 0.03242863
#
# Stress axis : x y z
#
# Youngs Moduli (GPa) = 36.25231 87.09228 135.59818
#
# Poissons Ratio (x) = -0.08582 0.54173
# Poissons Ratio (y) = -0.03572 0.54193
# Poissons Ratio (z) = 0.14483 0.34807
#
# Static dielectric constant tensor:
#      x y z
#    x 2.089080 -0.052100 0.001780 
#    y -0.052100 1.961530 0.024120 
#    z 0.001780 0.024120 2.032280 
# 
# From -- ./inp_files/587833.got.cif
#   From: 2010.05.17/outbox.cif.g08.bks.cpg/sg2_294_cif.got.tgz:587833.got - 2010.06.03 11:33:40.
