data_PCOD9028616
_publ_section_title
;
Structure prediction by ZEFSAII (Michael W. Deem and Ramdas Pophale) SiO2 
 PCOD9028616
Probable space group: P -1
;
_chemical_formula_sum "Si O2"
_cell_formula_units_Z 15
_cell_length_a 13.650111
_cell_length_b 11.362492
_cell_length_c 5.255919
_cell_angle_alpha 62.279235
_cell_angle_beta 71.125137
_cell_angle_gamma 48.777523
_cell_volume 542.599370
_symmetry_space_group_name_H-M "P -1"
_symmetry_group_IT_number 2
_symmetry_cell_setting 'triclinic'
loop_
_space_group_symop_operation_xyz
x,y,z
-x,-y,-z
loop_
_atom_site_type_symbol
_atom_site_label
_atom_site_fract_x
_atom_site_fract_y
_atom_site_fract_z
Si Si1 0.650331 0.347840 0.613638
Si Si2 0.920977 0.850613 0.058012
Si Si3 0.852680 0.355887 0.260246
Si Si4 0.500000 0.500000 0.000000
Si Si5 0.236444 0.954389 0.519607
Si Si6 0.659536 0.620852 0.777859
Si Si7 0.381657 0.100884 0.190381
Si Si8 0.855049 0.609278 0.254595
O O1 0.500000 0.500000 0.500000
O O2 0.793826 0.304955 0.571610
O O3 0.688931 0.235572 0.438695
O O4 0.601349 0.317461 0.943310
O O5 0.869505 0.955954 0.254787
O O6 0.917626 0.691005 0.244495
O O7 0.830769 0.958079 0.785349
O O8 0.062129 0.774786 0.900634
O O9 0.925389 0.431845 0.226383
O O10 0.715264 0.508786 0.098405
O O11 0.410737 0.445235 0.234126
O O12 0.335797 0.997384 0.444370
O O13 0.584478 0.811595 0.724680
O O14 0.779450 0.586482 0.556569
O O15 0.254690 0.252376 0.988547
O O16 0.500000 0.000000 0.000000
#
# Coordination Sequence:
#
# PCOD9028616 Si02
#       8
#     2   2   2   1   2   2   2   2
#     4  12  27  47  70 104 141 188 240 303 362 442
#     4  11  26  49  73 108 146 191 242 304 352 438
#     4  11  25  43  73 102 143 191 243 291 361 427
#     4  12  24  40  70 100 144 180 238 292 356 432
#     4  11  27  47  73 105 149 190 242 300 371 422
#     4  11  22  40  67 102 135 187 234 293 356 426
#     4  10  22  42  64 101 143 189 235 296 363 433
#     4  10  22  43  66 104 140 184 237 292 360 420
#
# _framework density 27.644705999999999
#
# number of rings (size 3 to 8) (size 9 to 14) (size 15 to 20)
#    0.000    1.067    4.000    1.200    5.600    2.133 
#    0.000    0.000    0.000    0.000    0.000    0.000 
#    0.000    0.000    0.000    0.000    0.000    0.000 
#
# Total GULP energy -83603.800498 kJ/mol
# GULP energy per Si atom -5573.586700 kJ/mol
# Density = 2.758179 g / cm^3
# Si number density = 27.644706 Si / 1000 Ang^3
#
#
#
# Elastic Constant Matrix: (Units=GPa)
#
#
# Indices 1 2 3 4 5 6 
#
# 1 88.7056 20.1468 7.6199 -9.7085 -10.3315 6.7972
# 2 20.1468 154.0422 26.6902 45.8883 -30.9440 10.6692
# 3 7.6199 26.6902 82.5925 38.2662 -19.1407 -6.5756
# 4 -9.7085 45.8883 38.2662 55.3967 -11.2456 -5.8468
# 5 -10.3315 -30.9440 -19.1407 -11.2456 59.0622 4.3313
# 6 6.7972 10.6692 -6.5756 -5.8468 4.3313 28.1702
#
#
#
# Elastic Compliance Matrix: (Units=1/GPa)
#
#
# Indices 1 2 3 4 5 6 
#
# 1 0.013293 -0.002958 -0.003495 0.007259 0.001141 -0.001572
# 2 -0.002958 0.011037 0.002356 -0.011023 0.004361 -0.005875
# 3 -0.003495 0.002356 0.019764 -0.015313 0.004057 0.000762
# 4 0.007259 -0.011023 -0.015313 0.039300 -0.002528 0.007394
# 5 0.001141 0.004361 0.004057 -0.002528 0.020591 -0.004671
# 6 -0.001572 -0.005875 0.000762 0.007394 -0.004671 0.040534
#
#
# Mechanical properties :
#
#
# Convention : Reuss Voigt Hill
#
# Bulk Modulus (GPa) = 27.85355 48.25047 38.05201
# Shear Modulus (GPa) = 30.36223 46.58473 38.47348
#
# Velocity S-wave (km/s) = 3.31766 4.10948 3.73461
# Velocity P-wave (km/s) = 4.97727 6.32525 5.69131
#
# Compressibility (1/GPa) = 0.03590207
#
# Stress axis : x y z
#
# Youngs Moduli (GPa) = 75.22784 90.60477 50.59695
#
# Poissons Ratio (x) = 0.26797 0.17682
# Poissons Ratio (y) = 0.22249 -0.11922
# Poissons Ratio (z) = 0.26290 -0.21350
#
# Static dielectric constant tensor:
#      x y z
#    x 1.944620 0.186580 -0.305750 
#    y 0.186580 2.324570 0.097350 
#    z -0.305750 0.097350 1.788300 
# 
# From -- ./inp_files/93134.got.cif
#   From: 2010.05.17/outbox.cif.g08.bks.cpg/sg2_47_cif.got.tgz:93134.got - 2010.06.03 11:33:40.
