data_PCOD9028969
_publ_section_title
;
Structure prediction by ZEFSAII (Michael W. Deem and Ramdas Pophale) SiO2 
 PCOD9028969
Probable space group: P -1
;
_chemical_formula_sum "Si O2"
_cell_formula_units_Z 15
_cell_length_a 11.751283
_cell_length_b 15.232448
_cell_length_c 8.201428
_cell_angle_alpha 127.634144
_cell_angle_beta 143.887007
_cell_angle_gamma 57.207189
_cell_volume 681.530107
_symmetry_space_group_name_H-M "P -1"
_symmetry_group_IT_number 2
_symmetry_cell_setting 'triclinic'
loop_
_space_group_symop_operation_xyz
x,y,z
-x,-y,-z
loop_
_atom_site_type_symbol
_atom_site_label
_atom_site_fract_x
_atom_site_fract_y
_atom_site_fract_z
Si Si1 0.193299 0.804883 0.903771
Si Si2 0.500000 0.500000 0.500000
Si Si3 0.402730 0.117728 0.866441
Si Si4 0.689430 0.258105 0.535660
Si Si5 0.794265 0.776909 0.567625
Si Si6 0.520704 0.597100 0.004077
Si Si7 0.517361 0.121650 0.452633
Si Si8 0.014084 0.125464 0.599058
O O1 0.338730 0.693190 0.917524
O O2 0.091143 0.850326 0.670582
O O3 0.020474 0.781496 0.801292
O O4 0.328092 0.893180 0.236150
O O5 0.636443 0.386196 0.583250
O O6 0.523561 0.552298 0.772579
O O7 0.310555 0.166143 0.648002
O O8 0.236878 0.138945 0.834674
O O9 0.462354 0.988228 0.756878
O O10 0.577634 0.184829 0.195955
O O11 0.599452 0.221571 0.559871
O O12 0.911755 0.212629 0.708974
O O13 0.694061 0.843076 0.679719
O O14 0.715287 0.655677 0.338383
O O15 0.500000 0.500000 0.000000
O O16 0.000000 0.000000 0.500000
#
# Coordination Sequence:
#
# PCOD9028969 Si02
#       8
#     2   1   2   2   2   2   2   2
#     4  10  23  44  65  98 140 170 223 282 342 402
#     4  12  22  44  76  88 140 184 230 284 332 404
#     4  11  23  42  66  95 136 178 221 276 343 406
#     4  12  24  44  65 100 135 179 227 285 334 407
#     4  10  22  42  65  97 135 173 226 274 348 404
#     4  11  23  45  71  98 136 187 232 286 341 398
#     4  11  23  39  67 102 133 178 222 275 347 408
#     4  11  23  42  67  96 137 176 214 278 339 403
#
# _framework density 22.009297
#
# number of rings (size 3 to 8) (size 9 to 14) (size 15 to 20)
#    0.000    1.067    4.000    3.200    0.000    4.800 
#    0.000    2.667    0.000    0.000    0.000    0.000 
#    0.000    0.000    0.000    0.000    0.000    0.000 
#
# Total GULP energy -83673.413895 kJ/mol
# GULP energy per Si atom -5578.227593 kJ/mol
# Density = 2.195920 g / cm^3
# Si number density = 22.009297 Si / 1000 Ang^3
#
#
#
# Elastic Constant Matrix: (Units=GPa)
#
#
# Indices 1 2 3 4 5 6 
#
# 1 144.6017 43.3883 27.3349 11.0062 21.3834 -27.8009
# 2 43.3883 128.5808 25.3636 11.4728 6.1135 -4.2350
# 3 27.3349 25.3636 79.3095 -1.8436 5.1529 -27.1457
# 4 11.0062 11.4728 -1.8436 27.7652 -3.8381 -10.4429
# 5 21.3834 6.1135 5.1529 -3.8381 42.2197 -5.0621
# 6 -27.8009 -4.2350 -27.1457 -10.4429 -5.0621 41.5652
#
#
#
# Elastic Compliance Matrix: (Units=1/GPa)
#
#
# Indices 1 2 3 4 5 6 
#
# 1 0.009409 -0.002602 -0.000528 -0.001396 -0.003868 0.004862
# 2 -0.002602 0.009754 -0.003889 -0.005092 -0.000639 -0.004644
# 3 -0.000528 -0.003889 0.018898 0.008398 0.000944 0.013818
# 4 -0.001396 -0.005092 0.008398 0.046344 0.006608 0.016481
# 5 -0.003868 -0.000639 0.000944 0.006608 0.026566 0.002860
# 6 0.004862 -0.004644 0.013818 0.016481 0.002860 0.040350
#
#
# Mechanical properties :
#
#
# Convention : Reuss Voigt Hill
#
# Bulk Modulus (GPa) = 41.62625 60.51840 51.07232
# Shear Modulus (GPa) = 28.84064 39.40368 34.12216
#
# Velocity S-wave (km/s) = 3.62385 4.23581 3.94172
# Velocity P-wave (km/s) = 6.03853 7.17490 6.63110
#
# Compressibility (1/GPa) = 0.02402330
#
# Stress axis : x y z
#
# Youngs Moduli (GPa) = 106.27975 102.51952 52.91640
#
# Poissons Ratio (x) = 0.26679 0.02793
# Poissons Ratio (y) = 0.27657 0.20578
# Poissons Ratio (z) = 0.05609 0.39868
#
# Static dielectric constant tensor:
#      x y z
#    x 1.898390 0.028430 -0.017710 
#    y 0.028430 1.765460 -0.024130 
#    z -0.017710 -0.024130 1.832730 
# 
# From -- ./inp_files/274517.got.cif
#   From: 2010.05.17/outbox.cif.g08.bks.cpg/sg2_138_cif.got.tgz:274517.got - 2010.06.03 11:33:40.
