data_PCOD9028125
_publ_section_title
;
Structure prediction by ZEFSAII (Michael W. Deem and Ramdas Pophale) SiO2 
 PCOD9028125
Probable space group: P -1
;
_chemical_formula_sum "Si O2"
_cell_formula_units_Z 16
_cell_length_a 8.755864
_cell_length_b 9.385093
_cell_length_c 17.148911
_cell_angle_alpha 66.695698
_cell_angle_beta 141.007840
_cell_angle_gamma 95.285728
_cell_volume 755.687888
_symmetry_space_group_name_H-M "P -1"
_symmetry_group_IT_number 2
_symmetry_cell_setting 'triclinic'
loop_
_space_group_symop_operation_xyz
x,y,z
-x,-y,-z
loop_
_atom_site_type_symbol
_atom_site_label
_atom_site_fract_x
_atom_site_fract_y
_atom_site_fract_z
Si Si1 0.532270 0.650009 0.234293
Si Si2 0.791042 0.877015 0.360401
Si Si3 0.078648 0.521874 0.114900
Si Si4 0.514149 0.749669 0.888040
Si Si5 0.113722 0.642579 0.661823
Si Si6 0.844322 0.073497 0.636100
Si Si7 0.251389 0.257633 0.370630
Si Si8 0.667194 0.117525 0.043472
O O1 0.632236 0.756910 0.309506
O O2 0.326269 0.577116 0.202129
O O3 0.780827 0.501866 0.328594
O O4 0.392442 0.769486 0.080503
O O5 0.959058 0.815821 0.518095
O O6 0.993550 0.858441 0.373828
O O7 0.591859 0.067690 0.233750
O O8 0.156914 0.351102 0.231399
O O9 0.000000 0.500000 0.000000
O O10 0.822420 0.657844 0.022586
O O11 0.365683 0.648153 0.805846
O O12 0.420722 0.775384 0.935063
O O13 0.915803 0.626893 0.651587
O O14 0.560235 0.205717 0.513597
O O15 0.804596 0.913748 0.615136
O O16 0.030753 0.999520 0.799797
O O17 0.500000 0.000000 0.000000
#
# Coordination Sequence:
#
# PCOD9028125 Si02
#       8
#     2   2   2   2   2   2   2   2
#     4  12  25  44  70  97 138 183 216 282 346 395
#     4  11  24  46  66 100 134 179 225 273 346 401
#     4  12  26  43  67 103 139 173 228 283 334 398
#     4  11  24  43  71  99 132 181 228 277 331 409
#     4  12  24  42  71  99 136 176 229 281 332 406
#     4  10  22  41  71  94 133 172 226 271 335 398
#     4  11  24  42  66 102 129 176 226 283 327 392
#     4  11  21  45  70  99 133 177 221 276 337 399
#
# _framework density 21.172763
#
# number of rings (size 3 to 8) (size 9 to 14) (size 15 to 20)
#    0.000    0.750    6.250    3.000    0.000    3.500 
#    2.250    1.250    0.000    0.000    0.000    0.000 
#    0.000    0.000    0.000    0.000    0.000    0.000 
#
# Total GULP energy -89528.209768 kJ/mol
# GULP energy per Si atom -5595.513111 kJ/mol
# Density = 2.112457 g / cm^3
# Si number density = 21.172763 Si / 1000 Ang^3
#
#
#
# Elastic Constant Matrix: (Units=GPa)
#
#
# Indices 1 2 3 4 5 6 
#
# 1 73.9754 6.5936 37.3406 -6.1989 17.1734 10.4858
# 2 6.5936 50.8621 -2.8383 4.4667 13.2721 9.5908
# 3 37.3406 -2.8383 105.7831 -3.0064 13.6627 -1.7317
# 4 -6.1989 4.4667 -3.0064 23.4876 1.4085 2.4789
# 5 17.1734 13.2721 13.6627 1.4085 46.0941 -2.5393
# 6 10.4858 9.5908 -1.7317 2.4789 -2.5393 23.9382
#
#
#
# Elastic Compliance Matrix: (Units=1/GPa)
#
#
# Indices 1 2 3 4 5 6 
#
# 1 0.020203 0.000216 -0.006291 0.006005 -0.006498 -0.010702
# 2 0.000216 0.023903 0.001332 -0.002781 -0.007830 -0.010118
# 3 -0.006291 0.001332 0.011921 -0.000621 -0.001389 0.003002
# 4 0.006005 -0.002781 -0.000621 0.045486 -0.003005 -0.006590
# 5 -0.006498 -0.007830 -0.001389 -0.003005 0.027375 0.009098
# 6 -0.010702 -0.010118 0.003002 -0.006590 0.009098 0.052380
#
#
# Mechanical properties :
#
#
# Convention : Reuss Voigt Hill
#
# Bulk Modulus (GPa) = 21.48707 34.75696 28.12201
# Shear Modulus (GPa) = 24.24053 31.33896 27.78974
#
# Velocity S-wave (km/s) = 3.38730 3.85145 3.62681
# Velocity P-wave (km/s) = 5.04667 6.01912 5.55421
#
# Compressibility (1/GPa) = 0.04653962
#
# Stress axis : x y z
#
# Youngs Moduli (GPa) = 49.49790 41.83661 83.88887
#
# Poissons Ratio (x) = -0.00904 0.52774
# Poissons Ratio (y) = -0.01070 -0.11171
# Poissons Ratio (z) = 0.31139 -0.05571
#
# Static dielectric constant tensor:
#      x y z
#    x 1.742410 -0.001900 0.002290 
#    y -0.001900 1.760370 -0.011920 
#    z 0.002290 -0.011920 1.761560 
# 
# From -- ./inp_files/557059.got.cif
#   From: 2010.05.17/outbox.cif.g08.bks.cpg/sg2_279_cif.got.tgz:557059.got - 2010.06.03 11:33:40.
