data_PCOD9028987
_publ_section_title
;
Structure prediction by ZEFSAII (Michael W. Deem and Ramdas Pophale) SiO2 
 PCOD9028987
Probable space group: P -1
;
_chemical_formula_sum "Si O2"
_cell_formula_units_Z 14
_cell_length_a 12.011121
_cell_length_b 9.933750
_cell_length_c 5.662031
_cell_angle_alpha 68.697465
_cell_angle_beta 66.779886
_cell_angle_gamma 64.349887
_cell_volume 544.324111
_symmetry_space_group_name_H-M "P -1"
_symmetry_group_IT_number 2
_symmetry_cell_setting 'triclinic'
loop_
_space_group_symop_operation_xyz
x,y,z
-x,-y,-z
loop_
_atom_site_type_symbol
_atom_site_label
_atom_site_fract_x
_atom_site_fract_y
_atom_site_fract_z
Si Si1 0.163771 0.710848 0.093824
Si Si2 0.929689 0.899824 0.478497
Si Si3 0.529732 0.799105 0.741672
Si Si4 0.269414 0.970210 0.805056
Si Si5 0.546143 0.644185 0.337684
Si Si6 0.947551 0.735887 0.983223
Si Si7 0.779628 0.596888 0.467871
O O1 0.207233 0.551371 0.293757
O O2 0.031016 0.828463 0.234083
O O3 0.100924 0.702370 0.898507
O O4 0.261221 0.802807 0.978636
O O5 0.792314 0.998117 0.425450
O O6 0.924398 0.750593 0.715474
O O7 0.000000 0.000000 0.500000
O O8 0.413719 0.962011 0.753870
O O9 0.488712 0.746231 0.554270
O O10 0.683623 0.745201 0.596999
O O11 0.521595 0.716572 0.051334
O O12 0.164168 0.100781 0.960491
O O13 0.500000 0.500000 0.500000
O O14 0.697169 0.595084 0.303178
O O15 0.908625 0.617914 0.253172
#
# Coordination Sequence:
#
# PCOD9028987 Si02
#       7
#     2   2   2   2   2   2   2
#     4  11  22  40  66  98 128 174 230 274 345 396
#     4  11  21  40  65  97 128 176 228 283 330 403
#     4  10  25  43  67 102 136 176 230 274 345 398
#     4  11  23  39  70  95 130 177 226 282 331 413
#     4  10  22  42  65  98 136 179 223 273 334 404
#     4  11  23  43  64  97 136 173 227 277 348 396
#     4  10  26  41  66  99 139 178 220 286 340 411
#
# _framework density 25.719971000000001
#
# number of rings (size 3 to 8) (size 9 to 14) (size 15 to 20)
#    0.857    0.571    2.857    2.571    4.000    5.714 
#    0.000    1.429    0.000    0.000    0.000    0.000 
#    0.000    0.000    0.000    0.000    0.000    0.000 
#
# Total GULP energy -78014.326897 kJ/mol
# GULP energy per Si atom -5572.451921 kJ/mol
# Density = 2.566143 g / cm^3
# Si number density = 25.719971 Si / 1000 Ang^3
#
#
#
# Elastic Constant Matrix: (Units=GPa)
#
#
# Indices 1 2 3 4 5 6 
#
# 1 97.8576 17.6052 16.7012 -10.8877 4.2248 -13.6130
# 2 17.6052 91.4141 17.9361 -19.3148 3.6044 -14.2284
# 3 16.7012 17.9361 116.0962 -17.8233 9.0901 -6.5322
# 4 -10.8877 -19.3148 -17.8233 46.5352 -6.5057 -2.5594
# 5 4.2248 3.6044 9.0901 -6.5057 42.7936 -10.9247
# 6 -13.6130 -14.2284 -6.5322 -2.5594 -10.9247 37.6881
#
#
#
# Elastic Compliance Matrix: (Units=1/GPa)
#
#
# Indices 1 2 3 4 5 6 
#
# 1 0.011310 -0.000953 -0.000970 0.002157 0.000479 0.003843
# 2 -0.000953 0.013198 -0.000884 0.005390 0.001326 0.005236
# 3 -0.000970 -0.000884 0.009476 0.002913 -0.001193 0.000811
# 4 0.002157 0.005390 0.002913 0.026303 0.004337 0.006362
# 5 0.000479 0.001326 -0.001193 0.004337 0.026259 0.008373
# 6 0.003843 0.005236 0.000811 0.006362 0.008373 0.032898
#
#
# Mechanical properties :
#
#
# Convention : Reuss Voigt Hill
#
# Bulk Modulus (GPa) = 35.24782 45.53923 40.39352
# Shear Modulus (GPa) = 37.17119 42.27840 39.72480
#
# Velocity S-wave (km/s) = 3.80574 4.05877 3.93429
# Velocity P-wave (km/s) = 5.74854 6.30152 6.03137
#
# Compressibility (1/GPa) = 0.02837055
#
# Stress axis : x y z
#
# Youngs Moduli (GPa) = 88.41911 75.77189 105.53119
#
# Poissons Ratio (x) = 0.07219 0.10235
# Poissons Ratio (y) = 0.08424 0.09326
# Poissons Ratio (z) = 0.08575 0.06696
#
# Static dielectric constant tensor:
#      x y z
#    x 2.545700 0.235410 0.002300 
#    y 0.235410 2.199870 0.085010 
#    z 0.002300 0.085010 2.194010 
# 
# From -- ./inp_files/76718.got.cif
#   From: 2010.05.17/outbox.cif.g08.bks.cpg/sg2_39_cif.got.tgz:76718.got - 2010.06.03 11:33:40.
