data_PCOD9028199
_publ_section_title
;
Structure prediction by ZEFSAII (Michael W. Deem and Ramdas Pophale) SiO2 
 PCOD9028199
Probable space group: P -1
;
_chemical_formula_sum "Si O2"
_cell_formula_units_Z 16
_cell_length_a 11.274210
_cell_length_b 18.233005
_cell_length_c 8.768175
_cell_angle_alpha 43.180987
_cell_angle_beta 67.472988
_cell_angle_gamma 38.216656
_cell_volume 682.045208
_symmetry_space_group_name_H-M "P -1"
_symmetry_group_IT_number 2
_symmetry_cell_setting 'triclinic'
loop_
_space_group_symop_operation_xyz
x,y,z
-x,-y,-z
loop_
_atom_site_type_symbol
_atom_site_label
_atom_site_fract_x
_atom_site_fract_y
_atom_site_fract_z
Si Si1 0.481525 0.778235 0.492180
Si Si2 0.484344 0.060223 0.584922
Si Si3 0.994223 0.945982 0.746704
Si Si4 0.397932 0.231643 0.872317
Si Si5 0.730466 0.402274 0.023616
Si Si6 0.998412 0.427537 0.263808
Si Si7 0.676196 0.235632 0.882838
Si Si8 0.234950 0.635183 0.593283
O O1 0.400947 0.905440 0.480248
O O2 0.591086 0.764494 0.318623
O O3 0.652117 0.575656 0.770481
O O4 0.260245 0.887614 0.355350
O O5 0.243559 0.254202 0.445992
O O6 0.500000 0.000000 0.500000
O O7 0.553643 0.920577 0.873001
O O8 0.134501 0.905348 0.873552
O O9 0.114927 0.751211 0.948319
O O10 0.000000 0.000000 0.500000
O O11 0.164139 0.413262 0.778209
O O12 0.567148 0.201548 0.916814
O O13 0.500000 0.500000 0.000000
O O14 0.825941 0.314205 0.276478
O O15 0.915620 0.360955 0.391261
O O16 0.000000 0.500000 0.000000
O O17 0.477974 0.426415 0.777872
O O18 0.241279 0.734820 0.330553
#
# Coordination Sequence:
#
# PCOD9028199 Si02
#       8
#     2   2   2   2   2   2   2   2
#     4  12  29  48  70 112 150 197 252 307 377 441
#     4  12  28  48  74 104 146 195 258 313 363 444
#     4  12  27  43  73 111 152 197 243 299 381 450
#     4  11  27  49  75 104 153 190 249 318 364 449
#     4  12  23  43  71 103 152 194 237 306 368 447
#     4  11  24  45  75 106 137 198 248 297 378 436
#     4  10  23  44  72 110 146 185 244 299 380 443
#     4  10  22  41  72 106 142 186 243 300 364 449
#
# _framework density 23.458856000000001
#
# number of rings (size 3 to 8) (size 9 to 14) (size 15 to 20)
#    0.000    0.750    3.750    1.875   10.500    2.000 
#    0.000    0.000    0.000    0.000    0.000    0.000 
#    0.000    0.000    0.000    0.000    0.000    0.000 
#
# Total GULP energy -89436.252813 kJ/mol
# GULP energy per Si atom -5589.765801 kJ/mol
# Density = 2.340546 g / cm^3
# Si number density = 23.458856 Si / 1000 Ang^3
#
#
#
# Elastic Constant Matrix: (Units=GPa)
#
#
# Indices 1 2 3 4 5 6 
#
# 1 64.7719 17.3204 24.5604 -13.5055 2.9399 11.6896
# 2 17.3204 102.4604 19.0313 2.9160 5.0111 12.2559
# 3 24.5604 19.0313 82.9844 -5.8669 3.3117 14.1995
# 4 -13.5055 2.9160 -5.8669 29.8082 0.0107 -0.8254
# 5 2.9399 5.0111 3.3117 0.0107 44.3259 -3.7603
# 6 11.6896 12.2559 14.1995 -0.8254 -3.7603 38.9249
#
#
#
# Elastic Compliance Matrix: (Units=1/GPa)
#
#
# Indices 1 2 3 4 5 6 
#
# 1 0.020119 -0.002376 -0.004136 0.008432 -0.001073 -0.003710
# 2 -0.002376 0.010848 -0.001520 -0.002501 -0.001151 -0.002312
# 3 -0.004136 -0.001520 0.014343 0.000999 -0.000929 -0.003580
# 4 0.008432 -0.002501 0.000999 0.037772 -0.000475 -0.001354
# 5 -0.001073 -0.001151 -0.000929 -0.000475 0.023106 0.003246
# 6 -0.003710 -0.002312 -0.003580 -0.001354 0.003246 0.029123
#
#
# Mechanical properties :
#
#
# Convention : Reuss Voigt Hill
#
# Bulk Modulus (GPa) = 34.19253 41.33786 37.76520
# Shear Modulus (GPa) = 31.03197 35.23213 33.13205
#
# Velocity S-wave (km/s) = 3.64101 3.87960 3.76220
# Velocity P-wave (km/s) = 5.68182 6.14232 5.91655
#
# Compressibility (1/GPa) = 0.02924615
#
# Stress axis : x y z
#
# Youngs Moduli (GPa) = 49.70487 92.18421 69.71851
#
# Poissons Ratio (x) = 0.21907 0.28833
# Poissons Ratio (y) = 0.11812 0.10596
# Poissons Ratio (z) = 0.20556 0.14010
#
# Static dielectric constant tensor:
#      x y z
#    x 2.106660 0.017270 0.045390 
#    y 0.017270 1.991060 -0.075670 
#    z 0.045390 -0.075670 1.904740 
# 
# From -- ./inp_files/279011.got.cif
#   From: 2010.05.17/outbox.cif.g08.bks.cpg/sg2_140_cif.got.tgz:279011.got - 2010.06.03 11:33:40.
