data_PCOD9028013
_publ_section_title
;
Structure prediction by ZEFSAII (Michael W. Deem and Ramdas Pophale) SiO2 
 PCOD9028013
Probable space group: P -1
;
_chemical_formula_sum "Si O2"
_cell_formula_units_Z 15
_cell_length_a 12.839961
_cell_length_b 5.069346
_cell_length_c 14.125724
_cell_angle_alpha 57.927606
_cell_angle_beta 60.223761
_cell_angle_gamma 54.028870
_cell_volume 607.246104
_symmetry_space_group_name_H-M "P -1"
_symmetry_group_IT_number 2
_symmetry_cell_setting 'triclinic'
loop_
_space_group_symop_operation_xyz
x,y,z
-x,-y,-z
loop_
_atom_site_type_symbol
_atom_site_label
_atom_site_fract_x
_atom_site_fract_y
_atom_site_fract_z
Si Si1 0.675064 0.722124 0.624059
Si Si2 0.986396 0.092551 0.877594
Si Si3 0.576705 0.625385 0.313204
Si Si4 0.500000 0.000000 0.500000
Si Si5 0.708937 0.336610 0.863917
Si Si6 0.552391 0.003807 0.077939
Si Si7 0.912371 0.895106 0.488995
Si Si8 0.124053 0.565414 0.757237
O O1 0.653673 0.688865 0.528847
O O2 0.717835 0.384259 0.736965
O O3 0.772016 0.891789 0.578673
O O4 0.523754 0.035813 0.647092
O O5 0.070745 0.310124 0.785336
O O6 0.837313 0.329466 0.860010
O O7 0.046428 0.744655 0.854078
O O8 0.000000 0.000000 0.000000
O O9 0.718846 0.621809 0.263471
O O10 0.557112 0.690180 0.197607
O O11 0.560449 0.288406 0.411434
O O12 0.565520 0.662525 0.884171
O O13 0.687934 0.034049 0.986853
O O14 0.500000 0.000000 0.000000
O O15 0.000000 0.500000 0.500000
O O16 0.897467 0.121755 0.361037
O O17 0.000000 0.000000 0.500000
#
# Coordination Sequence:
#
# PCOD9028013 Si02
#       8
#     2   2   2   1   2   2   2   2
#     4  11  25  44  69 103 141 187 237 299 363 430
#     4  12  28  48  75 104 147 195 246 304 368 442
#     4  11  26  42  68 103 139 182 237 297 361 427
#     4  12  24  42  72 100 144 182 246 292 364 436
#     4  10  23  44  66 102 137 183 235 296 362 431
#     4  10  22  41  70  97 133 176 234 292 353 422
#     4  12  27  47  73 106 149 196 245 298 366 441
#     4  12  27  47  72 107 144 192 245 304 366 438
#
# _framework density 24.701681000000001
#
# number of rings (size 3 to 8) (size 9 to 14) (size 15 to 20)
#    0.000    0.800    1.333    4.800    7.467    0.000 
#    0.000    0.000    0.000    0.000    0.000    0.000 
#    0.000    0.000    0.000    0.000    0.000    0.000 
#
# Total GULP energy -83639.191424 kJ/mol
# GULP energy per Si atom -5575.946095 kJ/mol
# Density = 2.464546 g / cm^3
# Si number density = 24.701681 Si / 1000 Ang^3
#
#
#
# Elastic Constant Matrix: (Units=GPa)
#
#
# Indices 1 2 3 4 5 6 
#
# 1 121.7432 0.6295 -6.1775 4.4615 -30.1902 -18.3146
# 2 0.6295 46.1772 0.1834 -4.5899 -9.0738 -0.5842
# 3 -6.1775 0.1834 106.0823 -23.5934 -1.0856 -14.6555
# 4 4.4615 -4.5899 -23.5934 24.9089 -0.3541 2.0010
# 5 -30.1902 -9.0738 -1.0856 -0.3541 44.5900 -4.9101
# 6 -18.3146 -0.5842 -14.6555 2.0010 -4.9101 38.8940
#
#
#
# Elastic Compliance Matrix: (Units=1/GPa)
#
#
# Indices 1 2 3 4 5 6 
#
# 1 0.011662 0.001638 0.001621 -0.000710 0.009068 0.007308
# 2 0.001638 0.023421 0.001650 0.005493 0.006206 0.002246
# 3 0.001621 0.001650 0.012919 0.011855 0.002431 0.005353
# 4 -0.000710 0.005493 0.011855 0.052399 0.001531 0.001713
# 5 0.009068 0.006206 0.002431 0.001531 0.030903 0.009102
# 6 0.007308 0.002246 0.005353 0.001713 0.009102 0.032264
#
#
# Mechanical properties :
#
#
# Convention : Reuss Voigt Hill
#
# Bulk Modulus (GPa) = 17.29474 29.25260 23.27367
# Shear Modulus (GPa) = 28.89805 40.30306 34.60056
#
# Velocity S-wave (km/s) = 3.42406 4.04368 3.74670
# Velocity P-wave (km/s) = 4.75909 5.80257 5.30654
#
# Compressibility (1/GPa) = 0.05782104
#
# Stress axis : x y z
#
# Youngs Moduli (GPa) = 85.74993 42.69712 77.40345
#
# Poissons Ratio (x) = -0.06995 -0.12546
# Poissons Ratio (y) = -0.14048 -0.12775
# Poissons Ratio (z) = -0.13898 -0.07047
#
# Static dielectric constant tensor:
#      x y z
#    x 2.011170 -0.070130 -0.236490 
#    y -0.070130 1.861360 -0.140140 
#    z -0.236490 -0.140140 1.799840 
# 
# From -- ./inp_files/80818.got.cif
#   From: 2010.05.17/outbox.cif.g08.bks.cpg/sg2_41_cif.got.tgz:80818.got - 2010.06.03 11:33:40.
