data_PCOD9028861
_publ_section_title
;
Structure prediction by ZEFSAII (Michael W. Deem and Ramdas Pophale) SiO2 
 PCOD9028861
Probable space group: P -1
;
_chemical_formula_sum "Si O2"
_cell_formula_units_Z 16
_cell_length_a 6.822816
_cell_length_b 8.795944
_cell_length_c 23.943530
_cell_angle_alpha 43.524134
_cell_angle_beta 53.140799
_cell_angle_gamma 69.261909
_cell_volume 783.184694
_symmetry_space_group_name_H-M "P -1"
_symmetry_group_IT_number 2
_symmetry_cell_setting 'triclinic'
loop_
_space_group_symop_operation_xyz
x,y,z
-x,-y,-z
loop_
_atom_site_type_symbol
_atom_site_label
_atom_site_fract_x
_atom_site_fract_y
_atom_site_fract_z
Si Si1 0.944170 0.667115 0.323149
Si Si2 0.012117 0.141542 0.227162
Si Si3 0.780751 0.924182 0.016092
Si Si4 0.370528 0.580081 0.647676
Si Si5 0.590249 0.449787 0.221949
Si Si6 0.274487 0.023935 0.110842
Si Si7 0.895916 0.828786 0.670502
Si Si8 0.058331 0.334198 0.485138
O O1 0.724798 0.604150 0.333384
O O2 0.185423 0.777492 0.217378
O O3 0.989906 0.457762 0.407683
O O4 0.904935 0.876551 0.313096
O O5 0.790317 0.282851 0.222462
O O6 0.145622 0.189663 0.250665
O O7 0.192423 0.176707 0.133314
O O8 0.670153 0.667739 0.113361
O O9 0.558955 0.060366 0.034867
O O10 0.862185 0.961650 0.928306
O O11 0.000000 0.000000 0.000000
O O12 0.383169 0.490677 0.732562
O O13 0.650107 0.685101 0.558415
O O14 0.160571 0.742639 0.638709
O O15 0.323284 0.320130 0.285206
O O16 0.913411 0.086436 0.581679
O O17 0.000000 0.500000 0.500000
#
# Coordination Sequence:
#
# PCOD9028861 Si02
#       8
#     2   2   2   2   2   2   2   2
#     4  10  22  42  65  92 126 169 211 263 306 374
#     4   9  23  42  64  91 132 164 209 260 317 360
#     4  11  22  39  67  95 124 163 212 252 317 386
#     4  11  24  40  64  90 131 165 214 260 315 364
#     4  11  25  43  66  95 126 172 204 260 324 372
#     4   9  21  40  61  94 125 158 207 260 308 371
#     4  11  24  44  61  94 132 164 212 265 309 378
#     4  12  24  39  66  95 124 173 217 253 315 368
#
# _framework density 20.429411000000002
#
# number of rings (size 3 to 8) (size 9 to 14) (size 15 to 20)
#    0.750    0.750    1.250    3.375    1.750    9.000 
#    0.000    1.250    0.000    0.000    0.000    0.000 
#    0.000    0.000    0.000    0.000    0.000    0.000 
#
# Total GULP energy -89314.260309 kJ/mol
# GULP energy per Si atom -5582.141269 kJ/mol
# Density = 2.038291 g / cm^3
# Si number density = 20.429411 Si / 1000 Ang^3
#
#
#
# Elastic Constant Matrix: (Units=GPa)
#
#
# Indices 1 2 3 4 5 6 
#
# 1 112.4281 38.3604 27.7692 11.0111 10.3434 18.6260
# 2 38.3604 54.7315 24.7448 2.2034 9.2734 10.6750
# 3 27.7692 24.7448 73.9225 11.9187 15.1971 0.9781
# 4 11.0111 2.2034 11.9187 26.7722 4.0610 5.5771
# 5 10.3434 9.2734 15.1971 4.0610 29.9891 -0.9429
# 6 18.6260 10.6750 0.9781 5.5771 -0.9429 32.1291
#
#
#
# Elastic Compliance Matrix: (Units=1/GPa)
#
#
# Indices 1 2 3 4 5 6 
#
# 1 0.012865 -0.007025 -0.001731 -0.002806 -0.001153 -0.004618
# 2 -0.007025 0.027804 -0.006698 0.005395 -0.003700 -0.006007
# 3 -0.001731 -0.006698 0.018671 -0.006949 -0.005736 0.003698
# 4 -0.002806 0.005395 -0.006949 0.043225 -0.003270 -0.007554
# 5 -0.001153 -0.003700 -0.005736 -0.003270 0.038355 0.003766
# 6 -0.004618 -0.006007 0.003698 -0.007554 0.003766 0.037106
#
#
# Mechanical properties :
#
#
# Convention : Reuss Voigt Hill
#
# Bulk Modulus (GPa) = 35.17138 46.98121 41.07629
# Shear Modulus (GPa) = 22.89247 27.79193 25.34220
#
# Velocity S-wave (km/s) = 3.35112 3.69235 3.52586
# Velocity P-wave (km/s) = 5.67686 6.42064 6.06017
#
# Compressibility (1/GPa) = 0.02843221
#
# Stress axis : x y z
#
# Youngs Moduli (GPa) = 77.73016 35.96553 53.56018
#
# Poissons Ratio (x) = 0.25267 0.09269
# Poissons Ratio (y) = 0.54609 0.35874
# Poissons Ratio (z) = 0.13452 0.24089
#
# Static dielectric constant tensor:
#      x y z
#    x 1.724870 -0.007710 0.012010 
#    y -0.007710 1.748220 0.017500 
#    z 0.012010 0.017500 1.722560 
# 
# From -- ./inp_files/603775.got.cif
#   From: 2010.05.17/outbox.cif.g08.bks.cpg/sg2_302_cif.got.tgz:603775.got - 2010.06.03 11:33:40.
