data_PCOD9028852
_publ_section_title
;
Structure prediction by ZEFSAII (Michael W. Deem and Ramdas Pophale) SiO2 
 PCOD9028852
Probable space group: P -1
;
_chemical_formula_sum "Si O2"
_cell_formula_units_Z 12
_cell_length_a 8.886108
_cell_length_b 15.239282
_cell_length_c 8.486108
_cell_angle_alpha 146.587322
_cell_angle_beta 75.572968
_cell_angle_gamma 122.934832
_cell_volume 476.185028
_symmetry_space_group_name_H-M "P -1"
_symmetry_group_IT_number 2
_symmetry_cell_setting 'triclinic'
loop_
_space_group_symop_operation_xyz
x,y,z
-x,-y,-z
loop_
_atom_site_type_symbol
_atom_site_label
_atom_site_fract_x
_atom_site_fract_y
_atom_site_fract_z
Si Si1 0.217802 0.287243 0.706792
Si Si2 0.390157 0.181350 0.267170
Si Si3 0.796228 0.431296 0.381837
Si Si4 0.228969 0.628786 0.072458
Si Si5 0.229755 0.962229 0.682258
Si Si6 0.351247 0.367200 0.151475
O O1 0.306841 0.177414 0.452570
O O2 0.985934 0.146663 0.504020
O O3 0.303467 0.510838 0.950423
O O4 0.264371 0.326139 0.936739
O O5 0.608468 0.249292 0.268086
O O6 0.447475 0.400113 0.527321
O O7 0.231363 0.992646 0.914914
O O8 0.799138 0.624298 0.692149
O O9 0.000000 0.500000 0.500000
O O10 0.777141 0.375086 0.120277
O O11 0.320292 0.850134 0.448366
O O12 0.000000 0.500000 0.000000
O O13 0.364473 0.193312 0.930715
#
# Coordination Sequence:
#
# PCOD9028852 Si02
#       6
#     2   2   2   2   2   2
#     4  11  22  43  68  97 132 170 213 266 321 385
#     4  10  24  41  67  98 128 173 215 267 320 385
#     4  10  22  42  65  91 132 172 214 262 327 375
#     4  10  23  40  67  94 133 169 214 261 328 377
#     4  11  22  42  67  99 128 171 215 264 322 385
#     4  10  23  42  70  93 133 170 218 259 325 381
#
# _framework density 25.200289999999999
#
# number of rings (size 3 to 8) (size 9 to 14) (size 15 to 20)
#    1.000    0.667    0.000    5.000    2.333    2.000 
#    0.000    2.500    3.667    0.000    0.000    0.000 
#    0.000    0.000    0.000    0.000    0.000    0.000 
#
# Total GULP energy -66998.509920 kJ/mol
# GULP energy per Si atom -5583.209160 kJ/mol
# Density = 2.514293 g / cm^3
# Si number density = 25.200290 Si / 1000 Ang^3
#
#
#
# Elastic Constant Matrix: (Units=GPa)
#
#
# Indices 1 2 3 4 5 6 
#
# 1 117.4404 10.5302 49.7387 -24.2074 14.6531 17.7616
# 2 10.5302 36.5962 38.0245 -16.9948 -0.4092 12.4381
# 3 49.7387 38.0245 206.4272 -41.1827 -2.3371 -10.6119
# 4 -24.2074 -16.9948 -41.1827 46.3590 3.4337 -3.5239
# 5 14.6531 -0.4092 -2.3371 3.4337 43.1796 3.5926
# 6 17.7616 12.4381 -10.6119 -3.5239 3.5926 28.2570
#
#
#
# Elastic Compliance Matrix: (Units=1/GPa)
#
#
# Indices 1 2 3 4 5 6 
#
# 1 0.012821 0.006483 -0.003900 0.005046 -0.003966 -0.011243
# 2 0.006483 0.051008 -0.010304 0.010783 -0.000722 -0.028961
# 3 -0.003900 -0.010304 0.008778 0.002741 0.000605 0.010548
# 4 0.005046 0.010783 0.002741 0.030670 -0.003685 -0.002596
# 5 -0.003966 -0.000722 0.000605 -0.003685 0.024872 -0.000584
# 6 -0.011243 -0.028961 0.010548 -0.002596 -0.000584 0.058917
#
#
# Mechanical properties :
#
#
# Convention : Reuss Voigt Hill
#
# Bulk Modulus (GPa) = 17.49270 61.89451 39.69360
# Shear Modulus (GPa) = 22.56712 41.03712 31.80212
#
# Velocity S-wave (km/s) = 2.99575 4.03977 3.55628
# Velocity P-wave (km/s) = 4.35001 6.80985 5.71387
#
# Compressibility (1/GPa) = 0.05716671
#
# Stress axis : x y z
#
# Youngs Moduli (GPa) = 77.99913 19.60466 113.92287
#
# Poissons Ratio (x) = -0.12710 0.44424
# Poissons Ratio (y) = -0.50568 1.17382
# Poissons Ratio (z) = 0.30416 0.20200
#
# Static dielectric constant tensor:
#      x y z
#    x 1.981980 0.061290 -0.036500 
#    y 0.061290 2.204700 -0.013360 
#    z -0.036500 -0.013360 2.085620 
# 
# From -- ./inp_files/219008.got.cif
#   From: 2010.05.17/outbox.cif.g08.bks.cpg/sg2_110_cif.got.tgz:219008.got - 2010.06.03 11:33:40.
