data_PCOD9028704
_publ_section_title
;
Structure prediction by ZEFSAII (Michael W. Deem and Ramdas Pophale) SiO2 
 PCOD9028704
Probable space group: P -1
;
_chemical_formula_sum "Si O2"
_cell_formula_units_Z 14
_cell_length_a 9.216567
_cell_length_b 10.986024
_cell_length_c 11.361474
_cell_angle_alpha 147.810779
_cell_angle_beta 81.819888
_cell_angle_gamma 97.367501
_cell_volume 606.529600
_symmetry_space_group_name_H-M "P -1"
_symmetry_group_IT_number 2
_symmetry_cell_setting 'triclinic'
loop_
_space_group_symop_operation_xyz
x,y,z
-x,-y,-z
loop_
_atom_site_type_symbol
_atom_site_label
_atom_site_fract_x
_atom_site_fract_y
_atom_site_fract_z
Si Si1 0.224081 0.412773 0.426235
Si Si2 0.028038 0.747150 0.840137
Si Si3 0.457926 0.440931 0.250723
Si Si4 0.996057 0.567071 0.190873
Si Si5 0.304351 0.785094 0.399816
Si Si6 0.726391 0.768849 0.497735
Si Si7 0.502498 0.839798 0.216270
O O1 0.178211 0.650254 0.687338
O O2 0.384756 0.362607 0.316015
O O3 0.199697 0.224014 0.376658
O O4 0.108181 0.385340 0.313130
O O5 0.021015 0.654480 0.900330
O O6 0.000000 0.000000 0.000000
O O7 0.352959 0.648313 0.397032
O O8 0.618919 0.547044 0.329673
O O9 0.452520 0.270451 0.001850
O O10 0.140785 0.714994 0.328791
O O11 0.855583 0.723870 0.356428
O O12 0.000000 0.500000 0.000000
O O13 0.412712 0.701563 0.213900
O O14 0.358915 0.041291 0.636119
O O15 0.621717 0.975392 0.650615
#
# Coordination Sequence:
#
# PCOD9028704 Si02
#       7
#     2   2   2   2   2   2   2
#     4  10  22  42  64  96 132 173 218 276 325 388
#     4  10  23  44  67  97 136 176 219 270 336 401
#     4  11  21  42  66  93 130 177 222 267 330 394
#     4  11  23  44  70 100 136 174 217 285 338 383
#     4  10  22  42  64  94 133 176 221 273 328 394
#     4  10  24  41  63  99 138 166 215 283 326 389
#     4  10  23  41  65  96 132 179 218 269 329 402
#
# _framework density 23.082135999999998
#
# number of rings (size 3 to 8) (size 9 to 14) (size 15 to 20)
#    0.000    1.714    1.429    1.714    0.000    9.143 
#    2.571    1.429    0.000    0.000    0.000    0.000 
#    0.000    0.000    0.000    0.000    0.000    0.000 
#
# Total GULP energy -78113.707260 kJ/mol
# GULP energy per Si atom -5579.550519 kJ/mol
# Density = 2.302960 g / cm^3
# Si number density = 23.082136 Si / 1000 Ang^3
#
#
#
# Elastic Constant Matrix: (Units=GPa)
#
#
# Indices 1 2 3 4 5 6 
#
# 1 127.8405 16.6152 31.6748 -3.3712 4.1097 14.6833
# 2 16.6152 106.9553 49.7003 -16.8133 -11.3205 -1.9294
# 3 31.6748 49.7003 52.5179 -15.5072 -8.3159 15.5143
# 4 -3.3712 -16.8133 -15.5072 37.8400 -3.6461 -5.3798
# 5 4.1097 -11.3205 -8.3159 -3.6461 17.1319 -7.5114
# 6 14.6833 -1.9294 15.5143 -5.3798 -7.5114 51.7069
#
#
#
# Elastic Compliance Matrix: (Units=1/GPa)
#
#
# Indices 1 2 3 4 5 6 
#
# 1 0.010219 0.001324 -0.009045 -0.003129 -0.007302 -0.001525
# 2 0.001324 0.019550 -0.019710 0.002456 0.006853 0.007519
# 3 -0.009045 -0.019710 0.051480 0.011143 0.011797 -0.010740
# 4 -0.003129 0.002456 0.011143 0.033910 0.016566 0.003571
# 5 -0.007302 0.006853 0.011797 0.016566 0.079170 0.012014
# 6 -0.001525 0.007519 -0.010740 0.003571 0.012014 0.025393
#
#
# Mechanical properties :
#
#
# Convention : Reuss Voigt Hill
#
# Bulk Modulus (GPa) = 37.89988 53.69936 45.79962
# Shear Modulus (GPa) = 17.64406 33.95730 25.80068
#
# Velocity S-wave (km/s) = 2.76778 3.83972 3.34694
# Velocity P-wave (km/s) = 5.16424 6.55537 5.90094
#
# Compressibility (1/GPa) = 0.02638531
#
# Stress axis : x y z
#
# Youngs Moduli (GPa) = 97.85966 51.15033 19.42487
#
# Poissons Ratio (x) = -0.06770 0.17570
# Poissons Ratio (y) = -0.12953 0.38287
# Poissons Ratio (z) = 0.88517 1.00819
#
# Static dielectric constant tensor:
#      x y z
#    x 1.861020 -0.002760 0.013950 
#    y -0.002760 1.940220 0.026520 
#    z 0.013950 0.026520 1.903680 
# 
# From -- ./inp_files/130665.got.cif
#   From: 2010.05.17/outbox.cif.g08.bks.cpg/sg2_66_cif.got.tgz:130665.got - 2010.06.03 11:33:40.
