data_PCOD9028680
_publ_section_title
;
Structure prediction by ZEFSAII (Michael W. Deem and Ramdas Pophale) SiO2 
 PCOD9028680
Probable space group: P -1
;
_chemical_formula_sum "Si O2"
_cell_formula_units_Z 13
_cell_length_a 14.123874
_cell_length_b 10.722782
_cell_length_c 7.824137
_cell_angle_alpha 83.636612
_cell_angle_beta 112.885712
_cell_angle_gamma 148.197995
_cell_volume 513.033560
_symmetry_space_group_name_H-M "P -1"
_symmetry_group_IT_number 2
_symmetry_cell_setting 'triclinic'
loop_
_space_group_symop_operation_xyz
x,y,z
-x,-y,-z
loop_
_atom_site_type_symbol
_atom_site_label
_atom_site_fract_x
_atom_site_fract_y
_atom_site_fract_z
Si Si1 0.104196 0.358429 0.315276
Si Si2 0.825433 0.114053 0.650655
Si Si3 0.998262 0.976029 0.206266
Si Si4 0.253318 0.642708 0.019145
Si Si5 0.502218 0.105904 0.333437
Si Si6 0.635050 0.888703 0.194894
Si Si7 0.500000 0.500000 0.000000
O O1 0.181051 0.493612 0.165186
O O2 0.254178 0.578650 0.535803
O O3 0.122608 0.227557 0.340686
O O4 0.853581 0.125834 0.200718
O O5 0.652143 0.945999 0.706126
O O6 0.904355 0.056658 0.693419
O O7 0.705126 0.018331 0.406859
O O8 0.031780 0.422718 0.792951
O O9 0.752678 0.723396 0.135432
O O10 0.000000 0.000000 0.000000
O O11 0.382476 0.904052 0.128890
O O12 0.418731 0.731856 0.020704
O O13 0.500000 0.000000 0.500000
O O14 0.563988 0.668274 0.173879
#
# Coordination Sequence:
#
# PCOD9028680 Si02
#       7
#     2   2   2   2   2   2   1
#     4  10  22  42  66  97 133 179 212 274 335 385
#     4  12  23  42  74  99 126 186 219 267 343 385
#     4  11  22  42  67  96 137 169 220 274 327 399
#     4  11  22  48  66  95 139 173 221 281 325 385
#     4  10  22  44  69  94 137 177 220 277 325 390
#     4  11  23  43  67  99 135 173 222 274 328 398
#     4  10  22  42  64  92 144 168 204 282 330 376
#
# _framework density 25.339471
#
# number of rings (size 3 to 8) (size 9 to 14) (size 15 to 20)
#    0.000    1.231    6.154    0.462    0.000    3.692 
#    5.538    0.769    0.000    0.000    0.000    0.000 
#    0.000    0.000    0.000    0.000    0.000    0.000 
#
# Total GULP energy -72532.523226 kJ/mol
# GULP energy per Si atom -5579.424864 kJ/mol
# Density = 2.528180 g / cm^3
# Si number density = 25.339471 Si / 1000 Ang^3
#
#
#
# Elastic Constant Matrix: (Units=GPa)
#
#
# Indices 1 2 3 4 5 6 
#
# 1 113.9057 8.9089 -4.6657 11.7965 -7.3699 9.0160
# 2 8.9089 38.7885 12.1929 6.4408 -8.8448 -1.5778
# 3 -4.6657 12.1929 108.5883 33.3618 -23.4605 -21.1718
# 4 11.7965 6.4408 33.3618 32.1643 -6.8932 -5.5080
# 5 -7.3699 -8.8448 -23.4605 -6.8932 46.6125 20.7014
# 6 9.0160 -1.5778 -21.1718 -5.5080 20.7014 35.4504
#
#
#
# Elastic Compliance Matrix: (Units=1/GPa)
#
#
# Indices 1 2 3 4 5 6 
#
# 1 0.010151 -0.001469 0.002322 -0.005806 0.003506 -0.004210
# 2 -0.001469 0.028174 -0.001919 -0.002520 0.005043 -0.002855
# 3 0.002322 -0.001919 0.015916 -0.015430 0.003882 0.004165
# 4 -0.005806 -0.002520 -0.015430 0.049425 -0.002399 0.001230
# 5 0.003506 0.005043 0.003882 -0.002399 0.032398 -0.017641
# 6 -0.004210 -0.002855 0.004165 0.001230 -0.017641 0.042132
#
#
# Mechanical properties :
#
#
# Convention : Reuss Voigt Hill
#
# Bulk Modulus (GPa) = 19.19148 32.68385 25.93766
# Shear Modulus (GPa) = 25.29107 39.16855 32.22981
#
# Velocity S-wave (km/s) = 3.16268 3.93587 3.57027
# Velocity P-wave (km/s) = 4.57460 5.79493 5.22054
#
# Compressibility (1/GPa) = 0.05210645
#
# Stress axis : x y z
#
# Youngs Moduli (GPa) = 98.51729 35.49383 62.83087
#
# Poissons Ratio (x) = 0.05214 -0.14586
# Poissons Ratio (y) = 0.14471 0.12060
# Poissons Ratio (z) = -0.22871 0.06813
#
# Static dielectric constant tensor:
#      x y z
#    x 2.020450 -0.055940 0.009480 
#    y -0.055940 2.040460 -0.051340 
#    z 0.009480 -0.051340 1.989290 
# 
# From -- ./inp_files/305270.got.cif
#   From: 2010.05.17/outbox.cif.g08.bks.cpg/sg2_153_cif.got.tgz:305270.got - 2010.06.03 11:33:40.
