data_PCOD9028395
_publ_section_title
;
Structure prediction by ZEFSAII (Michael W. Deem and Ramdas Pophale) SiO2 
 PCOD9028395
Probable space group: P -1
;
_chemical_formula_sum "Si O2"
_cell_formula_units_Z 14
_cell_length_a 20.663071
_cell_length_b 8.072106
_cell_length_c 17.559190
_cell_angle_alpha 50.162727
_cell_angle_beta 161.007503
_cell_angle_gamma 136.637441
_cell_volume 639.910269
_symmetry_space_group_name_H-M "P -1"
_symmetry_group_IT_number 2
_symmetry_cell_setting 'triclinic'
loop_
_space_group_symop_operation_xyz
x,y,z
-x,-y,-z
loop_
_atom_site_type_symbol
_atom_site_label
_atom_site_fract_x
_atom_site_fract_y
_atom_site_fract_z
Si Si1 0.920996 0.843668 0.075902
Si Si2 0.949755 0.034931 0.642592
Si Si3 0.395411 0.866450 0.593523
Si Si4 0.804438 0.838437 0.270873
Si Si5 0.785707 0.248101 0.809070
Si Si6 0.658180 0.270078 0.252861
Si Si7 0.577064 0.472281 0.393358
O O1 0.934555 0.865763 0.176684
O O2 0.155303 0.855155 0.309345
O O3 0.685424 0.602724 0.863598
O O4 0.884257 0.071227 0.941605
O O5 0.841440 0.201811 0.444761
O O6 0.116088 0.046129 0.758531
O O7 0.749213 0.757153 0.511710
O O8 0.407504 0.863534 0.698587
O O9 0.397913 0.626348 0.632346
O O10 0.607356 0.098921 0.721801
O O11 0.756323 0.557903 0.294944
O O12 0.559953 0.819075 0.017471
O O13 0.000000 0.000000 0.500000
O O14 0.649275 0.316098 0.575799
O O15 0.000000 0.500000 0.000000
#
# Coordination Sequence:
#
# PCOD9028395 Si02
#       7
#     2   2   2   2   2   2   2
#     4  10  22  42  61  89 125 164 208 251 303 357
#     4  11  23  41  63  90 125 162 198 255 305 358
#     4  10  22  42  63  87 125 163 204 258 302 357
#     4  11  23  41  66  91 122 158 200 250 307 364
#     4  11  22  39  61  92 125 163 207 252 304 357
#     4  10  24  42  61  93 120 158 205 248 305 365
#     4  11  23  38  62  91 123 163 208 249 304 357
#
# _framework density 21.878067000000001
#
# number of rings (size 3 to 8) (size 9 to 14) (size 15 to 20)
#    0.000    1.429    1.429    4.714    0.000    8.000 
#    2.571    0.000    0.000    0.000    0.000    0.000 
#    0.000    0.000    0.000    0.000    0.000    0.000 
#
# Total GULP energy -78278.602813 kJ/mol
# GULP energy per Si atom -5591.328772 kJ/mol
# Density = 2.182827 g / cm^3
# Si number density = 21.878067 Si / 1000 Ang^3
#
#
#
# Elastic Constant Matrix: (Units=GPa)
#
#
# Indices 1 2 3 4 5 6 
#
# 1 34.5705 -12.1634 12.4945 4.8735 -0.4100 9.9318
# 2 -12.1634 77.8549 41.8603 3.3624 5.2452 9.9062
# 3 12.4945 41.8603 165.7487 -2.8641 10.7014 -8.1884
# 4 4.8735 3.3624 -2.8641 30.5021 -4.5156 3.3754
# 5 -0.4100 5.2452 10.7014 -4.5156 30.2056 1.5031
# 6 9.9318 9.9062 -8.1884 3.3754 1.5031 16.6765
#
#
#
# Elastic Compliance Matrix: (Units=1/GPa)
#
#
# Indices 1 2 3 4 5 6 
#
# 1 0.058330 0.023164 -0.013230 -0.006683 0.003141 -0.053925
# 2 0.023164 0.026348 -0.010160 -0.003761 0.000454 -0.033716
# 3 -0.013230 -0.010160 0.010759 0.001695 -0.002925 0.019118
# 4 -0.006683 -0.003761 0.001695 0.035268 0.005262 -0.000566
# 5 0.003141 0.000454 -0.002925 0.005262 0.035282 -0.007822
# 6 -0.053925 -0.033716 0.019118 -0.000566 -0.007822 0.122315
#
#
# Mechanical properties :
#
#
# Convention : Reuss Voigt Hill
#
# Bulk Modulus (GPa) = 10.52788 40.28411 25.40599
# Shear Modulus (GPa) = 15.60477 31.20903 23.40690
#
# Velocity S-wave (km/s) = 2.67359 3.78100 3.27445
# Velocity P-wave (km/s) = 3.78858 6.12489 5.09252
#
# Compressibility (1/GPa) = 0.09498592
#
# Stress axis : x y z
#
# Youngs Moduli (GPa) = 17.14394 37.95326 92.94397
#
# Poissons Ratio (x) = -0.87917 1.22961
# Poissons Ratio (y) = -0.39713 0.94435
# Poissons Ratio (z) = 0.22681 0.38562
#
# Static dielectric constant tensor:
#      x y z
#    x 1.820890 0.013060 0.014620 
#    y 0.013060 1.779870 -0.018080 
#    z 0.014620 -0.018080 1.821270 
# 
# From -- ./inp_files/216093.got.cif
#   From: 2010.05.17/outbox.cif.g08.bks.cpg/sg2_109_cif.got.tgz:216093.got - 2010.06.03 11:33:40.
