data_PCOD9028965
_publ_section_title
;
Structure prediction by ZEFSAII (Michael W. Deem and Ramdas Pophale) SiO2 
 PCOD9028965
Probable space group: P -1
;
_chemical_formula_sum "Si O2"
_cell_formula_units_Z 16
_cell_length_a 9.290506
_cell_length_b 11.797808
_cell_length_c 18.623101
_cell_angle_alpha 42.212858
_cell_angle_beta 46.871731
_cell_angle_gamma 79.844162
_cell_volume 740.341002
_symmetry_space_group_name_H-M "P -1"
_symmetry_group_IT_number 2
_symmetry_cell_setting 'triclinic'
loop_
_space_group_symop_operation_xyz
x,y,z
-x,-y,-z
loop_
_atom_site_type_symbol
_atom_site_label
_atom_site_fract_x
_atom_site_fract_y
_atom_site_fract_z
Si Si1 0.113676 0.986829 0.159459
Si Si2 0.256880 0.062703 0.923005
Si Si3 0.645544 0.440622 0.828734
Si Si4 0.201033 0.460248 0.433281
Si Si5 0.313711 0.177089 0.300155
Si Si6 0.322009 0.764504 0.962708
Si Si7 0.385809 0.805815 0.686049
Si Si8 0.963642 0.673129 0.997978
O O1 0.026584 0.121207 0.098066
O O2 0.170865 0.929125 0.091240
O O3 0.381883 0.181133 0.020843
O O4 0.913896 0.768876 0.379336
O O5 0.502507 0.326242 0.737524
O O6 0.374652 0.981581 0.872124
O O7 0.000000 0.000000 0.000000
O O8 0.783764 0.550619 0.653182
O O9 0.581055 0.579330 0.825234
O O10 0.796917 0.416551 0.847725
O O11 0.000000 0.500000 0.500000
O O12 0.424069 0.184916 0.181653
O O13 0.424048 0.104988 0.352902
O O14 0.000000 0.000000 0.500000
O O15 0.119466 0.674353 0.008686
O O16 0.107240 0.716026 0.853495
O O17 0.500000 0.000000 0.500000
O O18 0.322620 0.581971 0.783674
#
# Coordination Sequence:
#
# PCOD9028965 Si02
#       8
#     2   2   2   2   2   2   2   2
#     4  11  23  45  72  98 140 182 235 289 347 416
#     4  11  24  46  70 105 139 182 235 292 354 407
#     4  11  25  44  70 100 141 182 231 289 350 418
#     4  11  26  45  74 103 136 190 242 286 354 419
#     4  11  26  42  66 107 134 181 231 278 356 415
#     4  11  24  46  68  96 144 177 225 293 344 413
#     4  10  23  41  65  93 137 177 226 272 336 413
#     4  10  22  42  65  97 132 180 220 280 344 399
#
# _framework density 21.611661000000002
#
# number of rings (size 3 to 8) (size 9 to 14) (size 15 to 20)
#    0.000    1.250    2.500    1.875    7.000    2.500 
#    0.000    0.000    0.000    0.000    0.000    0.000 
#    0.000    0.000    0.000    0.000    0.000    0.000 
#
# Total GULP energy -89361.477936 kJ/mol
# GULP energy per Si atom -5585.092371 kJ/mol
# Density = 2.156247 g / cm^3
# Si number density = 21.611661 Si / 1000 Ang^3
#
#
#
# Elastic Constant Matrix: (Units=GPa)
#
#
# Indices 1 2 3 4 5 6 
#
# 1 100.8960 23.9015 57.0585 1.1912 20.2998 4.7825
# 2 23.9015 131.6091 43.5791 16.3602 12.2486 4.7522
# 3 57.0585 43.5791 147.8033 3.4956 27.9010 11.3631
# 4 1.1912 16.3602 3.4956 24.3346 -1.7551 3.3076
# 5 20.2998 12.2486 27.9010 -1.7551 37.0924 6.2175
# 6 4.7825 4.7522 11.3631 3.3076 6.2175 32.1684
#
#
#
# Elastic Compliance Matrix: (Units=1/GPa)
#
#
# Indices 1 2 3 4 5 6 
#
# 1 0.013210 -0.000669 -0.004194 0.000074 -0.003912 0.000365
# 2 -0.000669 0.009290 -0.002086 -0.006071 -0.001482 0.000375
# 3 -0.004194 -0.002086 0.009922 0.000123 -0.004175 -0.001779
# 4 0.000074 -0.006071 0.000123 0.046163 0.004868 -0.004845
# 5 -0.003912 -0.001482 -0.004175 0.004868 0.033757 -0.004750
# 6 0.000365 0.000375 -0.001779 -0.004845 -0.004750 0.033021
#
#
# Mechanical properties :
#
#
# Convention : Reuss Voigt Hill
#
# Bulk Modulus (GPa) = 53.98384 69.93186 61.95785
# Shear Modulus (GPa) = 30.22317 35.77037 32.99677
#
# Velocity S-wave (km/s) = 3.74366 4.07276 3.91167
# Velocity P-wave (km/s) = 6.61211 7.38547 7.00946
#
# Compressibility (1/GPa) = 0.01852406
#
# Stress axis : x y z
#
# Youngs Moduli (GPa) = 75.69902 107.64724 100.78720
#
# Poissons Ratio (x) = 0.07198 0.42269
# Poissons Ratio (y) = 0.05062 0.21027
# Poissons Ratio (z) = 0.31748 0.22458
#
# Static dielectric constant tensor:
#      x y z
#    x 1.808380 -0.044870 -0.039090 
#    y -0.044870 2.140450 0.135890 
#    z -0.039090 0.135890 1.837640 
# 
# From -- ./inp_files/559657.got.cif
#   From: 2010.05.17/outbox.cif.g08.bks.cpg/sg2_280_cif.got.tgz:559657.got - 2010.06.03 11:33:40.
