data_PCOD9028797
_publ_section_title
;
Structure prediction by ZEFSAII (Michael W. Deem and Ramdas Pophale) SiO2 
 PCOD9028797
Probable space group: P -1
;
_chemical_formula_sum "Si O2"
_cell_formula_units_Z 14
_cell_length_a 10.537546
_cell_length_b 5.317701
_cell_length_c 13.837821
_cell_angle_alpha 79.663543
_cell_angle_beta 53.865204
_cell_angle_gamma 68.645824
_cell_volume 582.609548
_symmetry_space_group_name_H-M "P -1"
_symmetry_group_IT_number 2
_symmetry_cell_setting 'triclinic'
loop_
_space_group_symop_operation_xyz
x,y,z
-x,-y,-z
loop_
_atom_site_type_symbol
_atom_site_label
_atom_site_fract_x
_atom_site_fract_y
_atom_site_fract_z
Si Si1 0.006688 0.189476 0.338799
Si Si2 0.955093 0.778148 0.228960
Si Si3 0.476212 0.378509 0.178296
Si Si4 0.279168 0.814038 0.384857
Si Si5 0.630923 0.828943 0.250806
Si Si6 0.356660 0.276047 0.047665
Si Si7 0.160810 0.510432 0.980359
O O1 0.991639 0.487030 0.286134
O O2 0.853675 0.221522 0.478438
O O3 0.983105 0.990778 0.278281
O O4 0.173991 0.038163 0.337863
O O5 0.766255 0.846562 0.267234
O O6 0.078009 0.745173 0.082756
O O7 0.367871 0.549810 0.300096
O O8 0.347566 0.376560 0.151719
O O9 0.589750 0.087356 0.181010
O O10 0.594587 0.515810 0.059316
O O11 0.440590 0.854982 0.362005
O O12 0.713721 0.561598 0.165423
O O13 0.209560 0.254022 0.051097
O O14 0.500000 0.000000 0.000000
O O15 0.000000 0.500000 0.000000
#
# Coordination Sequence:
#
# PCOD9028797 Si02
#       7
#     2   2   2   2   2   2   2
#     4  11  29  50  72 106 142 195 240 300 356 419
#     4  11  28  49  72 104 150 189 241 292 362 428
#     4  11  23  38  72 100 137 181 235 293 352 421
#     4  11  26  46  75 101 144 184 246 299 353 423
#     4  11  25  45  72 107 140 189 237 298 359 432
#     4  11  21  38  63  99 137 175 227 280 352 425
#     4  10  22  42  65 101 140 180 224 293 357 421
#
# _framework density 24.029817000000001
#
# number of rings (size 3 to 8) (size 9 to 14) (size 15 to 20)
#    0.000    1.143    2.857    0.857   10.000    3.429 
#    0.000    3.571    0.000    0.000    0.000    0.000 
#    0.000    0.000    0.000    0.000    0.000    0.000 
#
# Total GULP energy -78034.493333 kJ/mol
# GULP energy per Si atom -5573.892381 kJ/mol
# Density = 2.397512 g / cm^3
# Si number density = 24.029817 Si / 1000 Ang^3
#
#
#
# Elastic Constant Matrix: (Units=GPa)
#
#
# Indices 1 2 3 4 5 6 
#
# 1 98.8704 22.7175 23.5777 3.8849 -2.6604 -25.8157
# 2 22.7175 57.5423 20.0165 1.5508 2.3681 8.7367
# 3 23.5777 20.0165 112.8392 22.2851 -10.0383 25.5383
# 4 3.8849 1.5508 22.2851 37.8106 -4.0780 -1.9757
# 5 -2.6604 2.3681 -10.0383 -4.0780 39.3566 4.3857
# 6 -25.8157 8.7367 25.5383 -1.9757 4.3857 43.7859
#
#
#
# Elastic Compliance Matrix: (Units=1/GPa)
#
#
# Indices 1 2 3 4 5 6 
#
# 1 0.017239 -0.006886 -0.006696 0.003112 -0.001560 0.015740
# 2 -0.006886 0.021569 -0.000628 -0.000337 -0.001077 -0.007905
# 3 -0.006696 -0.000628 0.015574 -0.008731 0.004182 -0.013719
# 4 0.003112 -0.000337 -0.008731 0.031765 0.000360 0.008392
# 5 -0.001560 -0.001077 0.004182 0.000360 0.027123 -0.005844
# 6 0.015740 -0.007905 -0.013719 0.008392 -0.005844 0.042662
#
#
# Mechanical properties :
#
#
# Convention : Reuss Voigt Hill
#
# Bulk Modulus (GPa) = 38.51772 44.65280 41.58526
# Shear Modulus (GPa) = 25.90584 37.71995 31.81290
#
# Velocity S-wave (km/s) = 3.28696 3.96626 3.64248
# Velocity P-wave (km/s) = 5.51991 6.29266 5.91891
#
# Compressibility (1/GPa) = 0.02596207
#
# Stress axis : x y z
#
# Youngs Moduli (GPa) = 58.00790 46.36266 64.20911
#
# Poissons Ratio (x) = 0.31926 0.42997
# Poissons Ratio (y) = 0.39945 0.04030
# Poissons Ratio (z) = 0.38844 0.02910
#
# Static dielectric constant tensor:
#      x y z
#    x 1.654210 0.025830 -0.117050 
#    y 0.025830 1.924990 0.010060 
#    z -0.117050 0.010060 1.983020 
# 
# From -- ./inp_files/510245.got.cif
#   From: 2010.05.17/outbox.cif.g08.bks.cpg/sg2_256_cif.got.tgz:510245.got - 2010.06.03 11:33:40.
