data_PCOD9028566
_publ_section_title
;
Structure prediction by ZEFSAII (Michael W. Deem and Ramdas Pophale) SiO2 
 PCOD9028566
Probable space group: P -1
;
_chemical_formula_sum "Si O2"
_cell_formula_units_Z 16
_cell_length_a 9.156111
_cell_length_b 12.479390
_cell_length_c 20.132126
_cell_angle_alpha 152.666423
_cell_angle_beta 44.226381
_cell_angle_gamma 140.384081
_cell_volume 669.405302
_symmetry_space_group_name_H-M "P -1"
_symmetry_group_IT_number 2
_symmetry_cell_setting 'triclinic'
loop_
_space_group_symop_operation_xyz
x,y,z
-x,-y,-z
loop_
_atom_site_type_symbol
_atom_site_label
_atom_site_fract_x
_atom_site_fract_y
_atom_site_fract_z
Si Si1 0.254717 0.796967 0.437754
Si Si2 0.297915 0.127975 0.864601
Si Si3 0.894695 0.649453 0.664069
Si Si4 0.327237 0.994243 0.112199
Si Si5 0.761191 0.100386 0.657145
Si Si6 0.262169 0.882462 0.868182
Si Si7 0.969721 0.606802 0.936611
Si Si8 0.771925 0.631903 0.466299
O O1 0.234046 0.534215 0.333823
O O2 0.260486 0.834995 0.377236
O O3 0.990879 0.779746 0.526285
O O4 0.500000 0.000000 0.500000
O O5 0.522505 0.079441 0.753807
O O6 0.244546 0.091525 0.940290
O O7 0.104164 0.894892 0.759623
O O8 0.274502 0.374416 0.976861
O O9 0.733003 0.761829 0.742180
O O10 0.000000 0.500000 0.500000
O O11 0.469809 0.018452 0.145119
O O12 0.500000 0.000000 0.000000
O O13 0.103942 0.729171 0.027250
O O14 0.946369 0.334678 0.768608
O O15 0.789880 0.840660 0.519319
O O16 0.115403 0.808647 0.942618
O O17 0.186765 0.612415 0.706342
O O18 0.500000 0.500000 0.500000
#
# Coordination Sequence:
#
# PCOD9028566 Si02
#       8
#     2   2   2   2   2   2   2   2
#     4  12  27  42  65 107 141 177 225 294 355 397
#     4  11  22  41  66  97 130 184 230 277 338 423
#     4  11  23  42  67  97 137 179 233 283 340 416
#     4   9  23  39  65  96 128 175 223 285 336 415
#     4  12  24  43  67  97 142 179 223 289 354 415
#     4  11  21  41  70  96 128 177 237 279 341 409
#     4  10  22  42  63  94 135 178 228 281 349 402
#     4  12  25  45  71 100 134 183 234 281 350 421
#
# _framework density 23.901813000000001
#
# number of rings (size 3 to 8) (size 9 to 14) (size 15 to 20)
#    0.000    1.000    3.750    1.875    5.250    3.000 
#    0.000    0.625    0.000    0.000    0.000    0.000 
#    0.000    0.000    0.000    0.000    0.000    0.000 
#
# Total GULP energy -89284.014701 kJ/mol
# GULP energy per Si atom -5580.250919 kJ/mol
# Density = 2.384741 g / cm^3
# Si number density = 23.901813 Si / 1000 Ang^3
#
#
#
# Elastic Constant Matrix: (Units=GPa)
#
#
# Indices 1 2 3 4 5 6 
#
# 1 152.2786 23.7555 34.9172 19.8897 2.7807 18.3598
# 2 23.7555 69.7565 4.4660 4.3798 1.9889 4.9272
# 3 34.9172 4.4660 99.3660 12.7189 -4.6246 -2.2336
# 4 19.8897 4.3798 12.7189 33.3772 5.8306 -2.8779
# 5 2.7807 1.9889 -4.6246 5.8306 29.1049 4.3317
# 6 18.3598 4.9272 -2.2336 -2.8779 4.3317 47.5389
#
#
#
# Elastic Compliance Matrix: (Units=1/GPa)
#
#
# Indices 1 2 3 4 5 6 
#
# 1 0.008408 -0.002218 -0.002385 -0.004159 0.000310 -0.003410
# 2 -0.002218 0.015190 0.000143 -0.000689 -0.000561 -0.000702
# 3 -0.002385 0.000143 0.011463 -0.003325 0.002555 0.001011
# 4 -0.004159 -0.000689 -0.003325 0.035547 -0.007858 0.004389
# 5 0.000310 -0.000561 0.002555 -0.007858 0.036910 -0.003780
# 6 -0.003410 -0.000702 0.001011 0.004389 -0.003780 0.023083
#
#
# Mechanical properties :
#
#
# Convention : Reuss Voigt Hill
#
# Bulk Modulus (GPa) = 38.25265 49.74207 43.99736
# Shear Modulus (GPa) = 33.73021 39.22169 36.47595
#
# Velocity S-wave (km/s) = 3.76067 4.05526 3.91074
# Velocity P-wave (km/s) = 5.90725 6.54087 6.23212
#
# Compressibility (1/GPa) = 0.02614198
#
# Stress axis : x y z
#
# Youngs Moduli (GPa) = 118.92941 65.83076 87.23991
#
# Poissons Ratio (x) = 0.14599 0.20806
# Poissons Ratio (y) = 0.26374 -0.01246
# Poissons Ratio (z) = 0.28364 -0.00940
#
# Static dielectric constant tensor:
#      x y z
#    x 1.970780 0.077710 -0.036560 
#    y 0.077710 2.046810 -0.048410 
#    z -0.036560 -0.048410 1.978870 
# 
# From -- ./inp_files/589701.got.cif
#   From: 2010.05.17/outbox.cif.g08.bks.cpg/sg2_295_cif.got.tgz:589701.got - 2010.06.03 11:33:40.
