data_PCOD9028943
_publ_section_title
;
Structure prediction by ZEFSAII (Michael W. Deem and Ramdas Pophale) SiO2 
 PCOD9028943
Probable space group: P -1
;
_chemical_formula_sum "Si O2"
_cell_formula_units_Z 12
_cell_length_a 7.250085
_cell_length_b 12.743728
_cell_length_c 8.215774
_cell_angle_alpha 82.065654
_cell_angle_beta 112.537193
_cell_angle_gamma 130.520864
_cell_volume 526.261563
_symmetry_space_group_name_H-M "P -1"
_symmetry_group_IT_number 2
_symmetry_cell_setting 'triclinic'
loop_
_space_group_symop_operation_xyz
x,y,z
-x,-y,-z
loop_
_atom_site_type_symbol
_atom_site_label
_atom_site_fract_x
_atom_site_fract_y
_atom_site_fract_z
Si Si1 0.009475 0.993147 0.193296
Si Si2 0.963633 0.750886 0.868347
Si Si3 0.895784 0.314414 0.389524
Si Si4 0.765546 0.142312 0.710934
Si Si5 0.696717 0.862927 0.380793
Si Si6 0.566511 0.386900 0.404234
O O1 0.019003 0.120387 0.209289
O O2 0.430661 0.275753 0.531207
O O3 0.238684 0.985367 0.295975
O O4 0.000000 0.000000 0.000000
O O5 0.652875 0.622057 0.763652
O O6 0.121870 0.742402 0.783736
O O7 0.060039 0.775578 0.082959
O O8 0.860455 0.227012 0.555100
O O9 0.690487 0.339210 0.340262
O O10 0.190418 0.462501 0.477967
O O11 0.491389 0.101862 0.672898
O O12 0.748008 0.852654 0.213100
O O13 0.000000 0.000000 0.500000
#
# Coordination Sequence:
#
# PCOD9028943 Si02
#       6
#     2   2   2   2   2   2
#     4  10  23  40  60  96 130 164 212 265 314 385
#     4  11  22  41  65  96 129 174 209 268 324 375
#     4  10  23  43  67  91 132 173 213 267 319 385
#     4  10  25  41  65  99 129 167 219 263 321 388
#     4  11  22  43  65  92 129 168 215 265 325 384
#     4  10  22  42  65  96 127 169 222 261 319 385
#
# _framework density 22.802350000000001
#
# number of rings (size 3 to 8) (size 9 to 14) (size 15 to 20)
#    0.000    1.667    1.667    1.500    0.000    8.000 
#    0.000    9.167    0.000    0.000    0.000    0.000 
#    0.000    0.000    0.000    0.000    0.000    0.000 
#
# Total GULP energy -66934.154420 kJ/mol
# GULP energy per Si atom -5577.846202 kJ/mol
# Density = 2.275045 g / cm^3
# Si number density = 22.802350 Si / 1000 Ang^3
#
#
#
# Elastic Constant Matrix: (Units=GPa)
#
#
# Indices 1 2 3 4 5 6 
#
# 1 120.4708 31.9405 57.8020 3.7116 -10.4082 4.3739
# 2 31.9405 65.4439 16.2710 -0.3580 -2.4050 15.7639
# 3 57.8020 16.2710 108.6526 1.0414 -11.6634 10.9753
# 4 3.7116 -0.3580 1.0414 11.4472 -7.6892 -2.8631
# 5 -10.4082 -2.4050 -11.6634 -7.6892 44.1718 2.5333
# 6 4.3739 15.7639 10.9753 -2.8631 2.5333 43.2307
#
#
#
# Elastic Compliance Matrix: (Units=1/GPa)
#
#
# Indices 1 2 3 4 5 6 
#
# 1 0.012628 -0.005113 -0.006066 -0.002903 0.000481 0.001906
# 2 -0.005113 0.019256 0.000552 0.000909 0.000527 -0.006615
# 3 -0.006066 0.000552 0.012888 0.001751 0.002474 -0.002889
# 4 -0.002903 0.000909 0.001751 0.100958 0.017104 0.005202
# 5 0.000481 0.000527 0.002474 0.017104 0.026485 -0.001288
# 6 0.001906 -0.006615 -0.002889 0.005202 -0.001288 0.026504
#
#
# Mechanical properties :
#
#
# Convention : Reuss Voigt Hill
#
# Bulk Modulus (GPa) = 42.51525 56.28827 49.40176
# Shear Modulus (GPa) = 21.94786 32.34020 27.14403
#
# Velocity S-wave (km/s) = 3.10583 3.77010 3.45397
# Velocity P-wave (km/s) = 5.61668 6.60987 6.13341
#
# Compressibility (1/GPa) = 0.02352097
#
# Stress axis : x y z
#
# Youngs Moduli (GPa) = 79.18687 51.93177 77.58910
#
# Poissons Ratio (x) = 0.26551 0.47062
# Poissons Ratio (y) = 0.40486 -0.04286
# Poissons Ratio (z) = 0.48032 -0.02868
#
# Static dielectric constant tensor:
#      x y z
#    x 2.152540 -0.110430 -0.622240 
#    y -0.110430 1.949420 0.357160 
#    z -0.622240 0.357160 3.543470 
# 
# From -- ./inp_files/201139.got.cif
#   From: 2010.05.17/outbox.cif.g08.bks.cpg/sg2_101_cif.got.tgz:201139.got - 2010.06.03 11:33:40.
