data_PCOD9028509
_publ_section_title
;
Structure prediction by ZEFSAII (Michael W. Deem and Ramdas Pophale) SiO2 
 PCOD9028509
Probable space group: P -1
;
_chemical_formula_sum "Si O2"
_cell_formula_units_Z 16
_cell_length_a 15.746917
_cell_length_b 10.786127
_cell_length_c 14.718958
_cell_angle_alpha 136.069412
_cell_angle_beta 151.246884
_cell_angle_gamma 63.503896
_cell_volume 694.007097
_symmetry_space_group_name_H-M "P -1"
_symmetry_group_IT_number 2
_symmetry_cell_setting 'triclinic'
loop_
_space_group_symop_operation_xyz
x,y,z
-x,-y,-z
loop_
_atom_site_type_symbol
_atom_site_label
_atom_site_fract_x
_atom_site_fract_y
_atom_site_fract_z
Si Si1 0.912992 0.082759 0.539009
Si Si2 0.326861 0.353775 0.837065
Si Si3 0.021052 0.243678 0.914776
Si Si4 0.616530 0.206932 0.281653
Si Si5 0.756571 0.897291 0.821865
Si Si6 0.642030 0.264214 0.530218
Si Si7 0.370850 0.417876 0.615501
Si Si8 0.972853 0.681613 0.607951
O O1 0.705100 0.865000 0.270857
O O2 0.847851 0.241970 0.526427
O O3 0.000000 0.000000 0.500000
O O4 0.060421 0.195494 0.824015
O O5 0.106407 0.264055 0.530004
O O6 0.500000 0.500000 0.000000
O O7 0.409279 0.501266 0.082756
O O8 0.780391 0.181359 0.658207
O O9 0.076059 0.131555 0.982705
O O10 0.181618 0.496665 0.211437
O O11 0.522710 0.147996 0.264190
O O12 0.607250 0.402095 0.337594
O O13 0.500000 0.000000 0.000000
O O14 0.520742 0.739397 0.556278
O O15 0.735112 0.811130 0.654621
O O16 0.827581 0.131437 0.048517
O O17 0.214336 0.402811 0.538623
O O18 0.000000 0.500000 0.500000
#
# Coordination Sequence:
#
# PCOD9028509 Si02
#       8
#     2   2   2   2   2   2   2   2
#     4  11  24  37  67 102 138 181 233 292 351 410
#     4  10  23  45  66  95 140 189 231 283 349 420
#     4  10  22  42  63 102 143 178 226 290 349 424
#     4  11  23  37  65 103 138 170 228 290 337 418
#     4  12  24  45  75  99 141 187 233 290 360 424
#     4  10  24  40  65 105 139 183 225 283 358 418
#     4  11  25  45  70 104 141 183 238 288 355 422
#     4  11  27  48  72  98 137 188 240 292 352 426
#
# _framework density 23.05452
#
# number of rings (size 3 to 8) (size 9 to 14) (size 15 to 20)
#    0.000    1.250    3.750    0.750    7.000    1.000 
#    2.250    0.625    0.000    0.000    0.000    0.000 
#    0.000    0.000    0.000    0.000    0.000    0.000 
#
# Total GULP energy -89235.959119 kJ/mol
# GULP energy per Si atom -5577.247445 kJ/mol
# Density = 2.300205 g / cm^3
# Si number density = 23.054520 Si / 1000 Ang^3
#
#
#
# Elastic Constant Matrix: (Units=GPa)
#
#
# Indices 1 2 3 4 5 6 
#
# 1 108.8150 37.0090 31.5341 -6.3764 -28.7719 -15.3395
# 2 37.0090 67.5390 18.6813 -2.0664 -8.3113 -5.5600
# 3 31.5341 18.6813 101.2517 7.6159 -39.9057 -2.7280
# 4 -6.3764 -2.0664 7.6159 32.1963 -2.7831 -11.9036
# 5 -28.7719 -8.3113 -39.9057 -2.7831 45.0275 13.0184
# 6 -15.3395 -5.5600 -2.7280 -11.9036 13.0184 22.9341
#
#
#
# Elastic Compliance Matrix: (Units=1/GPa)
#
#
# Indices 1 2 3 4 5 6 
#
# 1 0.014615 -0.005953 -0.002085 0.006786 0.004135 0.009259
# 2 -0.005953 0.018800 -0.003272 0.001706 -0.004114 0.003407
# 3 -0.002085 -0.003272 0.018656 -0.009029 0.018406 -0.015103
# 4 0.006786 0.001706 -0.009029 0.046214 -0.010229 0.033672
# 5 0.004135 -0.004114 0.018406 -0.010229 0.048048 -0.028626
# 6 0.009259 0.003407 -0.015103 0.033672 -0.028626 0.082552
#
#
# Mechanical properties :
#
#
# Convention : Reuss Voigt Hill
#
# Bulk Modulus (GPa) = 33.95538 50.22824 42.09181
# Shear Modulus (GPa) = 19.13345 32.72367 25.92856
#
# Velocity S-wave (km/s) = 2.88396 3.77158 3.35724
# Velocity P-wave (km/s) = 5.08428 6.38753 5.77280
#
# Compressibility (1/GPa) = 0.02945041
#
# Stress axis : x y z
#
# Youngs Moduli (GPa) = 68.42296 53.19157 53.60198
#
# Poissons Ratio (x) = 0.31666 0.11175
# Poissons Ratio (y) = 0.40733 0.17541
# Poissons Ratio (z) = 0.14264 0.17406
#
# Static dielectric constant tensor:
#      x y z
#    x 1.867370 -0.009520 -0.002680 
#    y -0.009520 1.937210 0.001030 
#    z -0.002680 0.001030 2.050650 
# 
# From -- ./inp_files/532754.got.cif
#   From: 2010.05.17/outbox.cif.g08.bks.cpg/sg2_267_cif.got.tgz:532754.got - 2010.06.03 11:33:40.
