data_PCOD9028958
_publ_section_title
;
Structure prediction by ZEFSAII (Michael W. Deem and Ramdas Pophale) SiO2 
 PCOD9028958
Probable space group: P -1
;
_chemical_formula_sum "Si O2"
_cell_formula_units_Z 16
_cell_length_a 8.344402
_cell_length_b 18.951349
_cell_length_c 5.408357
_cell_angle_alpha 98.135828
_cell_angle_beta 89.120787
_cell_angle_gamma 126.447283
_cell_volume 678.512628
_symmetry_space_group_name_H-M "P -1"
_symmetry_group_IT_number 2
_symmetry_cell_setting 'triclinic'
loop_
_space_group_symop_operation_xyz
x,y,z
-x,-y,-z
loop_
_atom_site_type_symbol
_atom_site_label
_atom_site_fract_x
_atom_site_fract_y
_atom_site_fract_z
Si Si1 0.549235 0.450663 0.159756
Si Si2 0.962195 0.868322 0.450687
Si Si3 0.917367 0.591323 0.489293
Si Si4 0.820579 0.217320 0.615071
Si Si5 0.820033 0.953762 0.172002
Si Si6 0.588499 0.189084 0.107259
Si Si7 0.414359 0.292450 0.336362
Si Si8 0.219604 0.559487 0.246404
O O1 0.699938 0.433736 0.022251
O O2 0.500000 0.500000 0.000000
O O3 0.686708 0.525678 0.391535
O O4 0.374872 0.352079 0.200393
O O5 0.832272 0.880717 0.270401
O O6 0.793822 0.792696 0.600227
O O7 0.091774 0.836258 0.343596
O O8 0.120395 0.966529 0.608354
O O9 0.899979 0.544957 0.725977
O O10 0.001588 0.689976 0.469029
O O11 0.067301 0.581375 0.322767
O O12 0.732048 0.224388 0.878968
O O13 0.666665 0.179060 0.364874
O O14 0.609507 0.905553 0.020072
O O15 0.000000 0.000000 0.000000
O O16 0.523869 0.253591 0.192247
O O17 0.578131 0.366719 0.566597
#
# Coordination Sequence:
#
# PCOD9028958 Si02
#       8
#     2   2   2   2   2   2   2   2
#     4  11  26  38  66 103 147 192 246 311 363 429
#     4  11  28  48  77 113 148 198 247 320 379 460
#     4  10  23  41  65  97 141 193 238 302 358 438
#     4  12  29  46  78 115 154 191 259 315 376 441
#     4  11  26  51  79 106 151 195 249 303 396 462
#     4  12  27  49  77 113 149 201 248 317 377 461
#     4  11  24  45  73 101 143 199 253 295 373 454
#     4  10  22  42  65  96 140 191 244 290 362 427
#
# _framework density 23.580992999999999
#
# number of rings (size 3 to 8) (size 9 to 14) (size 15 to 20)
#    0.000    1.000    2.500    1.875   10.500    2.000 
#    0.000    0.000    0.000    0.000    0.000    0.000 
#    0.000    0.000    0.000    0.000    0.000    0.000 
#
# Total GULP energy -89346.354993 kJ/mol
# GULP energy per Si atom -5584.147187 kJ/mol
# Density = 2.352732 g / cm^3
# Si number density = 23.580993 Si / 1000 Ang^3
#
#
#
# Elastic Constant Matrix: (Units=GPa)
#
#
# Indices 1 2 3 4 5 6 
#
# 1 53.7863 18.1868 7.6155 -4.1085 -15.0134 -2.9837
# 2 18.1868 97.2000 6.5829 -16.4594 1.6732 -0.4056
# 3 7.6155 6.5829 49.2283 -1.7064 -7.3721 4.6998
# 4 -4.1085 -16.4594 -1.7064 36.3493 3.4545 3.3668
# 5 -15.0134 1.6732 -7.3721 3.4545 36.0234 -0.8747
# 6 -2.9837 -0.4056 4.6998 3.3668 -0.8747 32.0581
#
#
#
# Elastic Compliance Matrix: (Units=1/GPa)
#
#
# Indices 1 2 3 4 5 6 
#
# 1 0.023144 -0.004472 -0.001824 -0.000658 0.009609 0.002696
# 2 -0.004472 0.012155 -0.001157 0.005316 -0.003193 -0.000738
# 3 -0.001824 -0.001157 0.021613 0.000245 0.003614 -0.003280
# 4 -0.000658 0.005316 0.000245 0.030494 -0.003476 -0.003327
# 5 0.009609 -0.003193 0.003614 -0.003476 0.033024 0.001590
# 6 0.002696 -0.000738 -0.003280 -0.003327 0.001590 0.032309
#
#
# Mechanical properties :
#
#
# Convention : Reuss Voigt Hill
#
# Bulk Modulus (GPa) = 23.80578 29.44278 26.62428
# Shear Modulus (GPa) = 27.52595 32.07480 29.80038
#
# Velocity S-wave (km/s) = 3.42028 3.69209 3.55878
# Velocity P-wave (km/s) = 5.07099 5.53970 5.31052
#
# Compressibility (1/GPa) = 0.04200661
#
# Stress axis : x y z
#
# Youngs Moduli (GPa) = 43.20783 82.26854 46.26820
#
# Poissons Ratio (x) = 0.36794 0.08437
# Poissons Ratio (y) = 0.19324 0.05353
# Poissons Ratio (z) = 0.07879 0.09518
#
# Static dielectric constant tensor:
#      x y z
#    x 1.723650 0.320660 0.224430 
#    y 0.320660 1.260320 -0.354190 
#    z 0.224430 -0.354190 1.814010 
# 
# From -- ./inp_files/47896.got.cif
#   From: 2010.05.17/outbox.cif.g08.bks.cpg/sg2_24_cif.got.tgz:47896.got - 2010.06.03 11:33:40.
