data_PCOD9028466
_publ_section_title
;
Structure prediction by ZEFSAII (Michael W. Deem and Ramdas Pophale) SiO2 
 PCOD9028466
Probable space group: P -1
;
_chemical_formula_sum "Si O2"
_cell_formula_units_Z 14
_cell_length_a 21.660819
_cell_length_b 5.169130
_cell_length_c 8.867693
_cell_angle_alpha 58.793685
_cell_angle_beta 43.204256
_cell_angle_gamma 58.687358
_cell_volume 564.018866
_symmetry_space_group_name_H-M "P -1"
_symmetry_group_IT_number 2
_symmetry_cell_setting 'triclinic'
loop_
_space_group_symop_operation_xyz
x,y,z
-x,-y,-z
loop_
_atom_site_type_symbol
_atom_site_label
_atom_site_fract_x
_atom_site_fract_y
_atom_site_fract_z
Si Si1 0.366111 0.024948 0.670330
Si Si2 0.086267 0.032781 0.735917
Si Si3 0.085092 0.751876 0.495379
Si Si4 0.550488 0.759706 0.280698
Si Si5 0.289045 0.631634 0.139917
Si Si6 0.416894 0.775901 0.124661
Si Si7 0.720765 0.986434 0.478792
O O1 0.363825 0.225872 0.765305
O O2 0.293073 0.101088 0.642120
O O3 0.462987 0.041091 0.415042
O O4 0.352038 0.693812 0.867430
O O5 0.075526 0.397499 0.602094
O O6 0.183127 0.925171 0.687379
O O7 0.090622 0.829223 0.639182
O O8 0.000000 0.000000 0.000000
O O9 0.182676 0.791732 0.241325
O O10 0.000000 0.000000 0.500000
O O11 0.500000 0.500000 0.500000
O O12 0.558652 0.895327 0.058985
O O13 0.331758 0.768258 0.165689
O O14 0.279674 0.301774 0.321739
O O15 0.372191 0.767711 0.370828
O O16 0.500000 0.500000 0.000000
#
# Coordination Sequence:
#
# PCOD9028466 Si02
#       7
#     2   2   2   2   2   2   2
#     4  10  23  40  65  97 131 186 238 289 355 418
#     4  11  25  48  75 113 149 190 243 311 368 453
#     4  11  24  47  77 108 151 191 243 302 383 440
#     4  10  22  42  62  93 135 177 241 291 346 425
#     4  10  23  44  66 101 144 185 241 295 357 443
#     4  11  23  43  69  95 140 190 238 296 363 421
#     4  11  24  44  70 101 144 186 244 297 366 434
#
# _framework density 24.821864999999999
#
# number of rings (size 3 to 8) (size 9 to 14) (size 15 to 20)
#    0.000    1.429    1.429    2.571    2.000    6.857 
#    0.000    3.571    0.000    0.000    0.000    0.000 
#    0.000    0.000    0.000    0.000    0.000    0.000 
#
# Total GULP energy -78196.229006 kJ/mol
# GULP energy per Si atom -5585.444929 kJ/mol
# Density = 2.476537 g / cm^3
# Si number density = 24.821865 Si / 1000 Ang^3
#
#
#
# Elastic Constant Matrix: (Units=GPa)
#
#
# Indices 1 2 3 4 5 6 
#
# 1 127.3594 -2.0823 20.0439 -8.9379 -0.5560 -12.5948
# 2 -2.0823 69.0988 -2.6231 -27.8904 -2.1166 -9.6075
# 3 20.0439 -2.6231 146.9039 -18.2929 -6.0875 -14.8984
# 4 -8.9379 -27.8904 -18.2929 19.5517 0.5523 -1.8579
# 5 -0.5560 -2.1166 -6.0875 0.5523 41.5667 7.4891
# 6 -12.5948 -9.6075 -14.8984 -1.8579 7.4891 38.4344
#
#
#
# Elastic Compliance Matrix: (Units=1/GPa)
#
#
# Indices 1 2 3 4 5 6 
#
# 1 0.010123 0.011156 0.002603 0.023797 -0.000747 0.008411
# 2 0.011156 0.075101 0.020305 0.134798 -0.001531 0.037114
# 3 0.002603 0.020305 0.013678 0.044219 0.000079 0.013353
# 4 0.023797 0.134798 0.044219 0.302820 -0.003696 0.073993
# 5 -0.000747 -0.001531 0.000079 -0.003696 0.025050 -0.005657
# 6 0.008411 0.037114 0.013353 0.073993 -0.005657 0.047907
#
#
# Mechanical properties :
#
#
# Convention : Reuss Voigt Hill
#
# Bulk Modulus (GPa) = 5.98695 41.55990 23.77342
# Shear Modulus (GPa) = 10.81719 41.77883 26.29801
#
# Velocity S-wave (km/s) = 2.08983 4.10707 3.25848
# Velocity P-wave (km/s) = 2.87061 6.26660 4.87394
#
# Compressibility (1/GPa) = 0.16702990
#
# Stress axis : x y z
#
# Youngs Moduli (GPa) = 98.78433 13.31545 73.10883
#
# Poissons Ratio (x) = -0.14854 -0.19033
# Poissons Ratio (y) = -1.10202 -1.48446
# Poissons Ratio (z) = -0.25717 -0.27037
#
# Static dielectric constant tensor:
#      x y z
#    x 0.040960 -2.796650 -1.039910 
#    y -2.796650 -1.787090 -1.436060 
#    z -1.039910 -1.436060 1.397750 
# 
# From -- ./inp_files/340069.got.cif
#   From: 2010.05.17/outbox.cif.g08.bks.cpg/sg2_171_cif.got.tgz:340069.got - 2010.06.03 11:33:40.
