data_PCOD9028537
_publ_section_title
;
Structure prediction by ZEFSAII (Michael W. Deem and Ramdas Pophale) SiO2 
 PCOD9028537
Probable space group: P -1
;
_chemical_formula_sum "Si O2"
_cell_formula_units_Z 14
_cell_length_a 10.866247
_cell_length_b 11.453036
_cell_length_c 5.195693
_cell_angle_alpha 80.304834
_cell_angle_beta 91.043903
_cell_angle_gamma 79.487073
_cell_volume 625.877930
_symmetry_space_group_name_H-M "P -1"
_symmetry_group_IT_number 2
_symmetry_cell_setting 'triclinic'
loop_
_space_group_symop_operation_xyz
x,y,z
-x,-y,-z
loop_
_atom_site_type_symbol
_atom_site_label
_atom_site_fract_x
_atom_site_fract_y
_atom_site_fract_z
Si Si1 0.672463 0.180388 0.094962
Si Si2 0.554160 0.284462 0.556417
Si Si3 0.033468 0.390790 0.845873
Si Si4 0.207605 0.177592 0.154112
Si Si5 0.717558 0.705082 0.362581
Si Si6 0.201278 0.687495 0.304073
Si Si7 0.144301 0.947761 0.473697
O O1 0.573432 0.225850 0.298416
O O2 0.768589 0.069668 0.261862
O O3 0.600463 0.183649 0.819311
O O4 0.760616 0.278811 0.996613
O O5 0.412055 0.339743 0.590388
O O6 0.661778 0.365473 0.554403
O O7 0.074291 0.263173 0.046189
O O8 0.159552 0.389392 0.686492
O O9 0.000000 0.500000 0.000000
O O10 0.912410 0.380738 0.679338
O O11 0.253564 0.233249 0.394167
O O12 0.193066 0.042892 0.257242
O O13 0.292882 0.198499 0.907463
O O14 0.158094 0.816344 0.395158
O O15 0.000000 0.000000 0.500000
#
# Coordination Sequence:
#
# PCOD9028537 Si02
#       7
#     2   2   2   2   2   2   2
#     4   9  20  35  60  89 124 164 205 247 298 365
#     4   9  19  40  63  85 129 169 206 246 306 372
#     4  10  23  43  67  93 124 162 209 266 319 364
#     4  10  24  37  64  92 126 162 208 253 312 364
#     4  10  22  42  63  91 128 166 207 255 309 376
#     4   9  21  39  62  94 126 162 208 255 306 370
#     4  11  21  36  62  96 132 165 207 251 314 369
#
# _framework density 22.368580999999999
#
# number of rings (size 3 to 8) (size 9 to 14) (size 15 to 20)
#    1.714    0.571    0.000    2.571    2.000    2.857 
#    0.000   10.714    0.000    1.714    0.000    0.000 
#    0.000    0.000    0.000    0.000    0.000    0.000 
#
# Total GULP energy -77974.710722 kJ/mol
# GULP energy per Si atom -5569.622194 kJ/mol
# Density = 2.231767 g / cm^3
# Si number density = 22.368581 Si / 1000 Ang^3
#
#
#
# Elastic Constant Matrix: (Units=GPa)
#
#
# Indices 1 2 3 4 5 6 
#
# 1 183.8356 38.9261 19.9124 29.4788 -18.9605 -12.2280
# 2 38.9261 71.1843 17.7796 3.9877 10.4082 -10.8163
# 3 19.9124 17.7796 121.6577 11.5106 -1.3413 -26.1217
# 4 29.4788 3.9877 11.5106 25.4647 -1.4253 12.0363
# 5 -18.9605 10.4082 -1.3413 -1.4253 19.2704 23.0507
# 6 -12.2280 -10.8163 -26.1217 12.0363 23.0507 -28.3782
#
#
#
# Elastic Compliance Matrix: (Units=1/GPa)
#
#
# Indices 1 2 3 4 5 6 
#
# 1 0.009453 -0.006044 0.000734 -0.010420 0.010173 0.001398
# 2 -0.006044 0.018388 -0.003664 0.007745 -0.009259 -0.005268
# 3 0.000734 -0.003664 0.008376 -0.002476 0.006233 -0.002618
# 4 -0.010420 0.007745 -0.002476 0.046637 -0.019976 0.007372
# 5 0.010173 -0.009259 0.006233 -0.019976 0.042544 0.019493
# 6 0.001398 -0.005268 -0.002618 0.007372 0.019493 -0.012464
#
#
# Mechanical properties :
#
#
# Convention : Reuss Voigt Hill
#
# Bulk Modulus (GPa) = 54.73543 58.87932 56.80738
# Shear Modulus (GPa) = 36.50413 23.27534 29.88974
#
# Velocity S-wave (km/s) = 4.04411 3.22924 3.65942
# Velocity P-wave (km/s) = 6.80656 6.34692 6.58076
#
# Compressibility (1/GPa) = 0.01826970
#
# Stress axis : x y z
#
# Youngs Moduli (GPa) = 105.78584 54.38378 119.38867
#
# Poissons Ratio (x) = 0.32869 -0.08767
# Poissons Ratio (y) = 0.63937 0.43743
# Poissons Ratio (z) = -0.07768 0.19926
#
# Static dielectric constant tensor:
#      x y z
#    x 1.867850 -0.022330 0.011820 
#    y -0.022330 1.818120 -0.016810 
#    z 0.011820 -0.016810 1.865930 
# 
# From -- ./inp_files/66793.got.cif
#   From: 2010.05.17/outbox.cif.g08.bks.cpg/sg2_34_cif.got.tgz:66793.got - 2010.06.03 11:33:40.
