data_PCOD9028372
_publ_section_title
;
Structure prediction by ZEFSAII (Michael W. Deem and Ramdas Pophale) SiO2 
 PCOD9028372
Probable space group: P -1
;
_chemical_formula_sum "Si O2"
_cell_formula_units_Z 16
_cell_length_a 8.944162
_cell_length_b 7.506166
_cell_length_c 16.942981
_cell_angle_alpha 106.369374
_cell_angle_beta 74.454509
_cell_angle_gamma 53.919116
_cell_volume 730.962537
_symmetry_space_group_name_H-M "P -1"
_symmetry_group_IT_number 2
_symmetry_cell_setting 'triclinic'
loop_
_space_group_symop_operation_xyz
x,y,z
-x,-y,-z
loop_
_atom_site_type_symbol
_atom_site_label
_atom_site_fract_x
_atom_site_fract_y
_atom_site_fract_z
Si Si1 0.873591 0.787952 0.642143
Si Si2 0.560014 0.799722 0.160798
Si Si3 0.184236 0.055540 0.818808
Si Si4 0.306345 0.187804 0.485191
Si Si5 0.379290 0.777007 0.593645
Si Si6 0.965593 0.086317 0.605935
Si Si7 0.481497 0.444717 0.188141
Si Si8 0.658379 0.534948 0.957105
O O1 0.744421 0.910298 0.590790
O O2 0.064515 0.470304 0.580569
O O3 0.690055 0.917296 0.750518
O O4 0.987789 0.890794 0.637885
O O5 0.728796 0.804577 0.175607
O O6 0.553141 0.595241 0.173207
O O7 0.605974 0.738758 0.053736
O O8 0.920668 0.270836 0.893250
O O9 0.262228 0.879005 0.707570
O O10 0.309043 0.844021 0.844687
O O11 0.414924 0.261906 0.428772
O O12 0.500000 0.000000 0.500000
O O13 0.500000 0.500000 0.500000
O O14 0.183213 0.016098 0.591669
O O15 0.722205 0.373378 0.697134
O O16 0.000000 0.000000 0.500000
O O17 0.392025 0.408066 0.120983
O O18 0.500000 0.500000 0.000000
#
# Coordination Sequence:
#
# PCOD9028372 Si02
#       8
#     2   2   2   2   2   2   2   2
#     4  10  22  42  60  90 135 168 212 275 323 386
#     4  10  23  45  69  98 135 175 225 280 330 396
#     4  12  24  45  69  96 140 171 219 287 328 399
#     4  11  23  39  62  92 129 172 216 263 329 393
#     4  12  23  39  63  96 129 174 222 266 331 395
#     4  11  21  39  64  91 132 174 219 269 328 396
#     4  10  24  43  69  99 131 180 223 269 343 395
#     4  10  23  46  72 100 133 173 225 280 335 397
#
# _framework density 21.888947999999999
#
# number of rings (size 3 to 8) (size 9 to 14) (size 15 to 20)
#    0.000    1.250    3.750    1.875    0.000    4.500 
#    0.000    3.750    0.000    0.000    0.000    0.000 
#    0.000    0.000    0.000    0.000    0.000    0.000 
#
# Total GULP energy -89244.072042 kJ/mol
# GULP energy per Si atom -5577.754503 kJ/mol
# Density = 2.183913 g / cm^3
# Si number density = 21.888948 Si / 1000 Ang^3
#
#
#
# Elastic Constant Matrix: (Units=GPa)
#
#
# Indices 1 2 3 4 5 6 
#
# 1 125.9512 33.0974 48.8912 7.5681 -4.8623 -19.4210
# 2 33.0974 105.5100 55.2428 7.9045 4.0210 -36.6007
# 3 48.8912 55.2428 177.7960 18.3816 -2.2411 -28.5785
# 4 7.5681 7.9045 18.3816 20.2531 -10.6152 1.1785
# 5 -4.8623 4.0210 -2.2411 -10.6152 38.0276 0.2809
# 6 -19.4210 -36.6007 -28.5785 1.1785 0.2809 36.9034
#
#
#
# Elastic Compliance Matrix: (Units=1/GPa)
#
#
# Indices 1 2 3 4 5 6 
#
# 1 0.009389 -0.001112 -0.001684 -0.001250 0.000851 0.002568
# 2 -0.001112 0.016602 -0.001746 -0.007551 -0.004218 0.014802
# 3 -0.001684 -0.001746 0.007927 -0.006897 -0.001517 0.003753
# 4 -0.001250 -0.007551 -0.006897 0.070467 0.020020 -0.015891
# 5 0.000851 -0.004218 -0.001517 0.020020 0.032393 -0.005796
# 6 0.002568 0.014802 0.003753 -0.015891 -0.005796 0.046588
#
#
# Mechanical properties :
#
#
# Convention : Reuss Voigt Hill
#
# Bulk Modulus (GPa) = 40.26482 75.96889 58.11685
# Shear Modulus (GPa) = 24.90944 37.17187 31.04065
#
# Velocity S-wave (km/s) = 3.37707 4.12540 3.76985
# Velocity P-wave (km/s) = 5.80010 7.58114 6.74962
#
# Compressibility (1/GPa) = 0.02483557
#
# Stress axis : x y z
#
# Youngs Moduli (GPa) = 106.50482 60.23497 126.14947
#
# Poissons Ratio (x) = 0.06696 0.21240
# Poissons Ratio (y) = 0.11839 0.22024
# Poissons Ratio (z) = 0.17933 0.10516
#
# Static dielectric constant tensor:
#      x y z
#    x 2.090630 0.139510 -0.027010 
#    y 0.139510 1.941050 -0.121620 
#    z -0.027010 -0.121620 1.874010 
# 
# From -- ./inp_files/495428.got.cif
#   From: 2010.05.17/outbox.cif.g08.bks.cpg/sg2_248_cif.got.tgz:495428.got - 2010.06.03 11:33:40.
