data_PCOD9028482
_publ_section_title
;
Structure prediction by ZEFSAII (Michael W. Deem and Ramdas Pophale) SiO2 
 PCOD9028482
Probable space group: P -1
;
_chemical_formula_sum "Si O2"
_cell_formula_units_Z 14
_cell_length_a 13.511034
_cell_length_b 8.047368
_cell_length_c 5.329403
_cell_angle_alpha 84.115539
_cell_angle_beta 86.273057
_cell_angle_gamma 79.998314
_cell_volume 566.984402
_symmetry_space_group_name_H-M "P -1"
_symmetry_group_IT_number 2
_symmetry_cell_setting 'triclinic'
loop_
_space_group_symop_operation_xyz
x,y,z
-x,-y,-z
loop_
_atom_site_type_symbol
_atom_site_label
_atom_site_fract_x
_atom_site_fract_y
_atom_site_fract_z
Si Si1 0.162568 0.636039 0.173920
Si Si2 0.940009 0.120538 0.199098
Si Si3 0.332186 0.607255 0.526764
Si Si4 0.574536 0.843605 0.134122
Si Si5 0.222701 0.336997 0.866606
Si Si6 0.946006 0.767153 0.440872
Si Si7 0.482577 0.316784 0.317209
O O1 0.244257 0.685348 0.342904
O O2 0.052081 0.686088 0.305110
O O3 0.154325 0.756120 0.913595
O O4 0.185229 0.440602 0.109858
O O5 0.015208 0.240080 0.277674
O O6 0.912127 0.973293 0.403347
O O7 0.000000 0.000000 0.000000
O O8 0.286077 0.465738 0.705721
O O9 0.421468 0.502571 0.361001
O O10 0.396564 0.709473 0.676415
O O11 0.695428 0.833456 0.087045
O O12 0.549939 0.803152 0.433794
O O13 0.552021 0.706974 0.955006
O O14 0.500000 0.000000 0.000000
O O15 0.136793 0.309545 0.688179
#
# Coordination Sequence:
#
# PCOD9028482 Si02
#       7
#     2   2   2   2   2   2   2
#     4  11  21  39  64  95 129 174 226 273 331 407
#     4   9  21  41  62  86 129 171 220 269 336 395
#     4  10  23  38  65  96 129 173 220 279 336 401
#     4  11  24  46  69 102 137 178 225 281 346 405
#     4  11  24  40  65  96 136 172 227 278 339 403
#     4  10  22  42  62  95 133 175 219 278 331 406
#     4  10  23  44  69  95 139 175 224 284 337 404
#
# _framework density 24.692038
#
# number of rings (size 3 to 8) (size 9 to 14) (size 15 to 20)
#    0.000    1.714    1.429    1.714    2.000    7.429 
#    7.714    0.000    0.000    0.000    0.000    0.000 
#    0.000    0.000    0.000    0.000    0.000    0.000 
#
# Total GULP energy -78062.607420 kJ/mol
# GULP energy per Si atom -5575.900530 kJ/mol
# Density = 2.463584 g / cm^3
# Si number density = 24.692038 Si / 1000 Ang^3
#
#
#
# Elastic Constant Matrix: (Units=GPa)
#
#
# Indices 1 2 3 4 5 6 
#
# 1 159.8275 29.2163 47.0336 11.6661 46.4616 -17.7272
# 2 29.2163 44.9023 7.3379 1.5687 2.5327 -28.2335
# 3 47.0336 7.3379 108.2456 4.9905 31.7037 -0.9652
# 4 11.6661 1.5687 4.9905 43.0506 -4.3783 13.3897
# 5 46.4616 2.5327 31.7037 -4.3783 45.0936 -3.7333
# 6 -17.7272 -28.2335 -0.9652 13.3897 -3.7333 34.0501
#
#
#
# Elastic Compliance Matrix: (Units=1/GPa)
#
#
# Indices 1 2 3 4 5 6 
#
# 1 0.011183 -0.004783 -0.001179 -0.004566 -0.010666 0.002449
# 2 -0.004783 0.060851 -0.002589 -0.017198 0.006242 0.055340
# 3 -0.001179 -0.002589 0.012134 -0.000852 -0.007494 -0.002903
# 4 -0.004566 -0.017198 -0.000852 0.035162 0.007225 -0.029697
# 5 -0.010666 0.006242 -0.007494 0.007225 0.038854 0.000829
# 6 0.002449 0.055340 -0.002903 -0.029697 0.000829 0.088216
#
#
# Mechanical properties :
#
#
# Convention : Reuss Voigt Hill
#
# Bulk Modulus (GPa) = 14.91030 53.35010 34.13020
# Shear Modulus (GPa) = 17.49120 39.73137 28.61128
#
# Velocity S-wave (km/s) = 2.66442 4.01568 3.40770
# Velocity P-wave (km/s) = 3.93918 6.56917 5.41623
#
# Compressibility (1/GPa) = 0.06706772
#
# Stress axis : x y z
#
# Youngs Moduli (GPa) = 89.41796 16.43364 82.41077
#
# Poissons Ratio (x) = 0.07860 0.09715
# Poissons Ratio (y) = 0.42768 0.21334
# Poissons Ratio (z) = 0.10541 0.04254
#
# Static dielectric constant tensor:
#      x y z
#    x 2.010740 0.038350 -0.033430 
#    y 0.038350 2.122170 -0.017520 
#    z -0.033430 -0.017520 2.119060 
# 
# From -- ./inp_files/45005.got.cif
#   From: 2010.05.17/outbox.cif.g08.bks.cpg/sg2_23_cif.got.tgz:45005.got - 2010.06.03 11:33:40.
