data_PCOD9028936
_publ_section_title
;
Structure prediction by ZEFSAII (Michael W. Deem and Ramdas Pophale) SiO2 
 PCOD9028936
Probable space group: P -1
;
_chemical_formula_sum "Si O2"
_cell_formula_units_Z 16
_cell_length_a 15.474455
_cell_length_b 10.620815
_cell_length_c 9.629632
_cell_angle_alpha 100.922088
_cell_angle_beta 114.171225
_cell_angle_gamma 135.098991
_cell_volume 680.356274
_symmetry_space_group_name_H-M "P -1"
_symmetry_group_IT_number 2
_symmetry_cell_setting 'triclinic'
loop_
_space_group_symop_operation_xyz
x,y,z
-x,-y,-z
loop_
_atom_site_type_symbol
_atom_site_label
_atom_site_fract_x
_atom_site_fract_y
_atom_site_fract_z
Si Si1 0.234624 0.714685 0.348085
Si Si2 0.047675 0.424632 0.432200
Si Si3 0.822571 0.060131 0.574210
Si Si4 0.628547 0.044513 0.781185
Si Si5 0.740151 0.367021 0.137105
Si Si6 0.256623 0.155530 0.930329
Si Si7 0.313606 0.187674 0.281598
Si Si8 0.532018 0.373342 0.956626
O O1 0.065986 0.468126 0.289396
O O2 0.253732 0.886699 0.432517
O O3 0.216382 0.697424 0.166783
O O4 0.421838 0.853081 0.546713
O O5 0.245421 0.619434 0.684327
O O6 0.000000 0.500000 0.500000
O O7 0.901857 0.132979 0.290217
O O8 0.041204 0.333009 0.711470
O O9 0.814641 0.973152 0.695499
O O10 0.652118 0.811912 0.304227
O O11 0.633232 0.897802 0.736506
O O12 0.680556 0.160484 0.989905
O O13 0.585777 0.289246 0.970322
O O14 0.461885 0.330678 0.055070
O O15 0.224407 0.133584 0.067972
O O16 0.281497 0.322009 0.907696
O O17 0.500000 0.500000 0.500000
#
# Coordination Sequence:
#
# PCOD9028936 Si02
#       8
#     2   2   2   2   2   2   2   2
#     4  10  22  42  65  95 140 170 220 286 327 396
#     4  12  24  42  67 103 139 170 230 281 331 402
#     4  11  22  46  68  98 138 175 221 283 336 395
#     4  10  24  41  70 100 130 182 225 268 351 395
#     4  12  25  42  74 103 131 184 225 274 343 405
#     4  11  25  45  68  98 136 186 218 285 340 391
#     4  11  24  43  71  96 134 182 228 274 341 404
#     4  11  24  48  69  94 146 176 226 278 337 406
#
# _framework density 23.517091000000001
#
# number of rings (size 3 to 8) (size 9 to 14) (size 15 to 20)
#    0.000    1.000    5.000    0.750    3.500    2.000 
#    2.250    0.625    0.000    0.000    0.000    0.000 
#    0.000    0.000    0.000    0.000    0.000    0.000 
#
# Total GULP energy -89364.130849 kJ/mol
# GULP energy per Si atom -5585.258178 kJ/mol
# Density = 2.346356 g / cm^3
# Si number density = 23.517091 Si / 1000 Ang^3
#
#
#
# Elastic Constant Matrix: (Units=GPa)
#
#
# Indices 1 2 3 4 5 6 
#
# 1 42.5457 1.6905 10.0870 3.9559 -1.4636 -3.6545
# 2 1.6905 125.6806 29.1433 -3.8163 -16.0078 5.1720
# 3 10.0870 29.1433 94.1312 2.9146 -19.2090 -3.8788
# 4 3.9559 -3.8163 2.9146 35.7526 -6.5986 -7.6636
# 5 -1.4636 -16.0078 -19.2090 -6.5986 31.9022 6.4242
# 6 -3.6545 5.1720 -3.8788 -7.6636 6.4242 24.1212
#
#
#
# Elastic Compliance Matrix: (Units=1/GPa)
#
#
# Indices 1 2 3 4 5 6 
#
# 1 0.024564 -0.000093 -0.002744 -0.002151 -0.001631 0.003051
# 2 -0.000093 0.009148 -0.002135 0.001283 0.004175 -0.003023
# 3 -0.002744 -0.002135 0.012926 0.000335 0.006559 0.000480
# 4 -0.002151 0.001283 0.000335 0.031026 0.005590 0.007822
# 5 -0.001631 0.004175 0.006559 0.005590 0.040292 -0.009043
# 6 0.003051 -0.003023 0.000480 0.007822 -0.009043 0.047538
#
#
# Mechanical properties :
#
#
# Convention : Reuss Voigt Hill
#
# Bulk Modulus (GPa) = 27.25120 38.24435 32.74778
# Shear Modulus (GPa) = 26.64252 33.11765 29.88009
#
# Velocity S-wave (km/s) = 3.36951 3.75672 3.56837
# Velocity P-wave (km/s) = 5.17215 5.92579 5.56175
#
# Compressibility (1/GPa) = 0.03669563
#
# Stress axis : x y z
#
# Youngs Moduli (GPa) = 40.70932 109.31299 77.36184
#
# Poissons Ratio (x) = 0.01014 0.21229
# Poissons Ratio (y) = 0.00378 0.16514
# Poissons Ratio (z) = 0.11171 0.23335
#
# Static dielectric constant tensor:
#      x y z
#    x 1.896750 0.074070 0.031690 
#    y 0.074070 1.983970 -0.015520 
#    z 0.031690 -0.015520 1.919910 
# 
# From -- ./inp_files/332195.got.cif
#   From: 2010.05.17/outbox.cif.g08.bks.cpg/sg2_167_cif.got.tgz:332195.got - 2010.06.03 11:33:40.
