data_PCOD9028277
_publ_section_title
;
Structure prediction by ZEFSAII (Michael W. Deem and Ramdas Pophale) SiO2 
 PCOD9028277
Probable space group: P -1
;
_chemical_formula_sum "Si O2"
_cell_formula_units_Z 14
_cell_length_a 12.439135
_cell_length_b 5.427034
_cell_length_c 14.980554
_cell_angle_alpha 65.984867
_cell_angle_beta 140.203400
_cell_angle_gamma 112.527442
_cell_volume 586.959852
_symmetry_space_group_name_H-M "P -1"
_symmetry_group_IT_number 2
_symmetry_cell_setting 'triclinic'
loop_
_space_group_symop_operation_xyz
x,y,z
-x,-y,-z
loop_
_atom_site_type_symbol
_atom_site_label
_atom_site_fract_x
_atom_site_fract_y
_atom_site_fract_z
Si Si1 0.252538 0.630307 0.567796
Si Si2 0.143906 0.950225 0.005536
Si Si3 0.165927 0.326530 0.138103
Si Si4 0.527999 0.731832 0.862786
Si Si5 0.480316 0.677146 0.549366
Si Si6 0.656444 0.223274 0.084635
Si Si7 0.074542 0.115120 0.624774
O O1 0.212508 0.359700 0.642473
O O2 0.311962 0.579657 0.513114
O O3 0.081784 0.771795 0.442197
O O4 0.416176 0.792925 0.697268
O O5 0.138682 0.642817 0.083999
O O6 0.319506 0.029731 0.055140
O O7 0.147988 0.175283 0.052579
O O8 0.959576 0.890336 0.850562
O O9 0.358914 0.350596 0.283583
O O10 0.388762 0.679536 0.859228
O O11 0.500000 0.500000 0.500000
O O12 0.500000 0.000000 0.500000
O O13 0.630213 0.469316 0.966113
O O14 0.830759 0.094753 0.226102
O O15 0.500000 0.000000 0.000000
O O16 0.000000 0.000000 0.500000
#
# Coordination Sequence:
#
# PCOD9028277 Si02
#       7
#     2   2   2   2   2   2   2
#     4  11  25  45  74 107 143 203 253 309 385 464
#     4  10  22  41  74 100 133 187 236 306 364 444
#     4  10  22  44  69 103 135 177 253 297 365 437
#     4  11  23  41  72 105 144 193 249 309 382 455
#     4  12  28  48  74 108 150 199 255 315 375 457
#     4  11  24  42  67 110 146 183 247 314 371 453
#     4  11  24  45  75 106 149 196 246 308 385 461
#
# _framework density 23.851714999999999
#
# number of rings (size 3 to 8) (size 9 to 14) (size 15 to 20)
#    0.000    1.143    4.286    0.857    6.000    0.000 
#    5.143    0.000    0.000    0.000    0.000    0.000 
#    0.000    0.000    0.000    0.000    0.000    0.000 
#
# Total GULP energy -78088.276540 kJ/mol
# GULP energy per Si atom -5577.734039 kJ/mol
# Density = 2.379743 g / cm^3
# Si number density = 23.851715 Si / 1000 Ang^3
#
#
#
# Elastic Constant Matrix: (Units=GPa)
#
#
# Indices 1 2 3 4 5 6 
#
# 1 168.3681 50.4860 35.0561 -0.4205 7.8129 -4.4588
# 2 50.4860 122.7343 27.2950 2.6027 6.2052 -9.4946
# 3 35.0561 27.2950 55.5197 -3.3409 13.4944 -9.6437
# 4 -0.4205 2.6027 -3.3409 37.2167 -5.6683 9.5430
# 5 7.8129 6.2052 13.4944 -5.6683 30.6613 9.3485
# 6 -4.4588 -9.4946 -9.6437 9.5430 9.3485 42.0517
#
#
#
# Elastic Compliance Matrix: (Units=1/GPa)
#
#
# Indices 1 2 3 4 5 6 
#
# 1 0.007365 -0.002278 -0.003774 0.000173 0.000506 -0.000750
# 2 -0.002278 0.009984 -0.002988 -0.001641 -0.001016 0.001926
# 3 -0.003774 -0.002988 0.026286 -0.001502 -0.012760 0.008131
# 4 0.000173 -0.001641 -0.001502 0.030845 0.009652 -0.009842
# 5 0.000506 -0.001016 -0.012760 0.009652 0.044737 -0.015238
# 6 -0.000750 0.001926 0.008131 -0.009842 -0.015238 0.031621
#
#
# Mechanical properties :
#
#
# Convention : Reuss Voigt Hill
#
# Bulk Modulus (GPa) = 39.12698 63.58846 51.35772
# Shear Modulus (GPa) = 28.17912 37.57160 32.87536
#
# Velocity S-wave (km/s) = 3.44092 3.97320 3.71660
# Velocity P-wave (km/s) = 5.67684 6.91131 6.32427
#
# Compressibility (1/GPa) = 0.02555781
#
# Stress axis : x y z
#
# Youngs Moduli (GPa) = 135.77491 100.15889 38.04253
#
# Poissons Ratio (x) = 0.22813 0.14356
# Poissons Ratio (y) = 0.30925 0.11366
# Poissons Ratio (z) = 0.51236 0.29924
#
# Static dielectric constant tensor:
#      x y z
#    x 2.142500 0.025500 0.198680 
#    y 0.025500 1.887400 -0.018420 
#    z 0.198680 -0.018420 2.207590 
# 
# From -- ./inp_files/525626.got.cif
#   From: 2010.05.17/outbox.cif.g08.bks.cpg/sg2_263_cif.got.tgz:525626.got - 2010.06.03 11:33:40.
