data_PCOD9028280
_publ_section_title
;
Structure prediction by ZEFSAII (Michael W. Deem and Ramdas Pophale) SiO2 
 PCOD9028280
Probable space group: P -1
;
_chemical_formula_sum "Si O2"
_cell_formula_units_Z 16
_cell_length_a 15.602895
_cell_length_b 15.363953
_cell_length_c 14.571238
_cell_angle_alpha 38.194295
_cell_angle_beta 36.228311
_cell_angle_gamma 19.287160
_cell_volume 676.477048
_symmetry_space_group_name_H-M "P -1"
_symmetry_group_IT_number 2
_symmetry_cell_setting 'triclinic'
loop_
_space_group_symop_operation_xyz
x,y,z
-x,-y,-z
loop_
_atom_site_type_symbol
_atom_site_label
_atom_site_fract_x
_atom_site_fract_y
_atom_site_fract_z
Si Si1 0.727976 0.678373 0.794484
Si Si2 0.636674 0.163157 0.869255
Si Si3 0.499868 0.590059 0.621612
Si Si4 0.140990 0.659181 0.185821
Si Si5 0.260773 0.374302 0.848089
Si Si6 0.680704 0.219145 0.190890
Si Si7 0.330092 0.244366 0.701267
Si Si8 0.881437 0.212496 0.357847
O O1 0.813528 0.519543 0.762968
O O2 0.015669 0.456157 0.784046
O O3 0.562094 0.959362 0.687773
O O4 0.503061 0.780163 0.965883
O O5 0.649274 0.321300 0.736408
O O6 0.453752 0.257132 0.863640
O O7 0.938610 0.880243 0.807586
O O8 0.283023 0.788562 0.726437
O O9 0.655437 0.608207 0.468270
O O10 0.365837 0.663634 0.579209
O O11 0.360772 0.474395 0.230914
O O12 0.216204 0.727161 0.996491
O O13 0.844176 0.948168 0.239056
O O14 0.400443 0.181289 0.801759
O O15 0.166876 0.602845 0.701414
O O16 0.000000 0.500000 0.000000
O O17 0.000000 0.000000 0.500000
#
# Coordination Sequence:
#
# PCOD9028280 Si02
#       8
#     2   2   2   2   2   2   2   2
#     4  12  26  46  69 105 137 184 228 295 346 409
#     4  11  24  41  72  96 137 183 239 292 332 413
#     4  11  26  44  67 106 137 185 235 282 355 417
#     4  10  22  43  70 104 135 169 234 291 347 404
#     4  11  23  42  62 100 134 183 234 279 341 404
#     4  10  22  41  74 102 132 178 226 291 342 419
#     4  12  28  43  69  99 148 184 228 284 353 416
#     4  11  25  41  69  98 142 182 232 295 338 405
#
# _framework density 23.651948999999998
#
# number of rings (size 3 to 8) (size 9 to 14) (size 15 to 20)
#    0.000    1.000    2.500    3.000    8.750    4.000 
#    0.000    3.750    0.000    0.000    0.000    0.000 
#    0.000    0.000    0.000    0.000    0.000    0.000 
#
# Total GULP energy -89451.986734 kJ/mol
# GULP energy per Si atom -5590.749171 kJ/mol
# Density = 2.359812 g / cm^3
# Si number density = 23.651949 Si / 1000 Ang^3
#
#
#
# Elastic Constant Matrix: (Units=GPa)
#
#
# Indices 1 2 3 4 5 6 
#
# 1 87.4698 27.6182 30.8948 -4.7801 -11.0468 28.8393
# 2 27.6182 96.8834 27.7418 6.9147 -17.4203 22.5593
# 3 30.8948 27.7418 69.4097 -11.1742 -12.0756 -0.5150
# 4 -4.7801 6.9147 -11.1742 18.4185 9.2795 -3.7363
# 5 -11.0468 -17.4203 -12.0756 9.2795 25.7570 -1.8037
# 6 28.8393 22.5593 -0.5150 -3.7363 -1.8037 35.3940
#
#
#
# Elastic Compliance Matrix: (Units=1/GPa)
#
#
# Indices 1 2 3 4 5 6 
#
# 1 0.022280 0.005544 -0.012684 -0.014078 0.010834 -0.022806
# 2 0.005544 0.023903 -0.013389 -0.031210 0.021962 -0.022122
# 3 -0.012684 -0.013389 0.028415 0.028361 -0.009866 0.021773
# 4 -0.014078 -0.031210 0.028361 0.114161 -0.052096 0.041172
# 5 0.010834 0.021962 -0.009866 -0.052096 0.070726 -0.024864
# 6 -0.022806 -0.022122 0.021773 0.041172 -0.024864 0.064332
#
#
# Mechanical properties :
#
#
# Convention : Reuss Voigt Hill
#
# Bulk Modulus (GPa) = 29.81497 47.36362 38.58929
# Shear Modulus (GPa) = 13.29595 27.08111 20.18853
#
# Velocity S-wave (km/s) = 2.37354 3.38743 2.92476
# Velocity P-wave (km/s) = 4.48828 5.94713 5.26844
#
# Compressibility (1/GPa) = 0.03354020
#
# Stress axis : x y z
#
# Youngs Moduli (GPa) = 44.88288 41.83647 35.19287
#
# Poissons Ratio (x) = -0.23193 0.44637
# Poissons Ratio (y) = -0.24881 0.47119
# Poissons Ratio (z) = 0.56928 0.56014
#
# Static dielectric constant tensor:
#      x y z
#    x 1.901840 0.012000 0.012710 
#    y 0.012000 1.915910 -0.007860 
#    z 0.012710 -0.007860 1.908880 
# 
# From -- ./inp_files/37861.got.cif
#   From: 2010.05.17/outbox.cif.g08.bks.cpg/sg2_19_cif.got.tgz:37861.got - 2010.06.03 11:33:40.
