data_PCOD9028141
_publ_section_title
;
Structure prediction by ZEFSAII (Michael W. Deem and Ramdas Pophale) SiO2 
 PCOD9028141
Probable space group: P -1
;
_chemical_formula_sum "Si O2"
_cell_formula_units_Z 16
_cell_length_a 14.921474
_cell_length_b 11.093466
_cell_length_c 13.781268
_cell_angle_alpha 54.797562
_cell_angle_beta 29.627259
_cell_angle_gamma 37.773865
_cell_volume 643.043742
_symmetry_space_group_name_H-M "P -1"
_symmetry_group_IT_number 2
_symmetry_cell_setting 'triclinic'
loop_
_space_group_symop_operation_xyz
x,y,z
-x,-y,-z
loop_
_atom_site_type_symbol
_atom_site_label
_atom_site_fract_x
_atom_site_fract_y
_atom_site_fract_z
Si Si1 0.636294 0.072676 0.427069
Si Si2 0.808631 0.714826 0.140080
Si Si3 0.628764 0.244181 0.164037
Si Si4 0.012699 0.908474 0.809229
Si Si5 0.895453 0.602301 0.444328
Si Si6 0.349026 0.434022 0.961567
Si Si7 0.480736 0.889435 0.192087
Si Si8 0.190116 0.020180 0.231161
O O1 0.321141 0.251039 0.651721
O O2 0.742969 0.148786 0.352959
O O3 0.288346 0.924791 0.754904
O O4 0.763646 0.841561 0.443097
O O5 0.538666 0.873651 0.257237
O O6 0.947809 0.789343 0.972049
O O7 0.000000 0.500000 0.000000
O O8 0.324536 0.390322 0.372014
O O9 0.687290 0.372031 0.089546
O O10 0.771354 0.142299 0.973533
O O11 0.027573 0.872197 0.695763
O O12 0.000000 0.500000 0.500000
O O13 0.138391 0.468185 0.205847
O O14 0.372211 0.342101 0.878240
O O15 0.630505 0.227985 0.835500
O O16 0.202522 0.038772 0.328311
O O17 0.640753 0.938014 0.981217
#
# Coordination Sequence:
#
# PCOD9028141 Si02
#       8
#     2   2   2   2   2   2   2   2
#     4  12  28  44  68 104 143 179 235 277 347 422
#     4  11  26  45  71  92 138 185 233 286 336 411
#     4  12  26  43  69 103 144 184 218 288 351 406
#     4  11  23  43  70  99 135 181 224 283 354 395
#     4  12  27  41  70 105 137 181 231 281 345 419
#     4  10  22  41  71  96 143 174 232 276 346 412
#     4   8  19  40  68  92 130 186 224 279 345 382
#     4   8  18  39  68  95 134 182 224 281 336 402
#
# _framework density 24.881665999999999
#
# number of rings (size 3 to 8) (size 9 to 14) (size 15 to 20)
#    0.750    0.750    2.500    1.500    7.000    1.500 
#    0.000    0.625    0.000    0.000    0.000    0.000 
#    0.000    0.000    0.000    0.000    0.000    0.000 
#
# Total GULP energy -89233.460409 kJ/mol
# GULP energy per Si atom -5577.091276 kJ/mol
# Density = 2.482503 g / cm^3
# Si number density = 24.881666 Si / 1000 Ang^3
#
#
#
# Elastic Constant Matrix: (Units=GPa)
#
#
# Indices 1 2 3 4 5 6 
#
# 1 109.5790 13.4552 7.4461 -26.6792 -26.1684 -6.6298
# 2 13.4552 92.0111 18.5982 -15.8528 -0.9920 19.3747
# 3 7.4461 18.5982 113.5777 -28.6908 -6.1661 1.5097
# 4 -26.6792 -15.8528 -28.6908 25.8076 -2.2226 -6.1570
# 5 -26.1684 -0.9920 -6.1661 -2.2226 22.9650 -2.5561
# 6 -6.6298 19.3747 1.5097 -6.1570 -2.5561 29.6186
#
#
#
# Elastic Compliance Matrix: (Units=1/GPa)
#
#
# Indices 1 2 3 4 5 6 
#
# 1 0.055429 -0.003897 0.026835 0.102090 0.084767 0.042126
# 2 -0.003897 0.013890 -0.002535 -0.001349 -0.005833 -0.010613
# 3 0.026835 -0.002535 0.026030 0.064797 0.046380 0.023811
# 4 0.102090 -0.001349 0.064797 0.250687 0.167617 0.087009
# 5 0.084767 -0.005833 0.046380 0.167617 0.176405 0.070493
# 6 0.042126 -0.010613 0.023811 0.087009 0.070493 0.073091
#
#
# Mechanical properties :
#
#
# Convention : Reuss Voigt Hill
#
# Bulk Modulus (GPa) = 7.34460 43.79630 25.57045
# Shear Modulus (GPa) = 8.33178 34.05612 21.19395
#
# Velocity S-wave (km/s) = 1.83189 3.70364 2.92171
# Velocity P-wave (km/s) = 2.72629 5.99411 4.65628
#
# Compressibility (1/GPa) = 0.13615437
#
# Stress axis : x y z
#
# Youngs Moduli (GPa) = 18.04125 71.99427 38.41682
#
# Poissons Ratio (x) = 0.28056 -1.03092
# Poissons Ratio (y) = 0.07031 0.09741
# Poissons Ratio (z) = -0.48414 0.18254
#
# Static dielectric constant tensor:
#      x y z
#    x 2.186370 -0.055440 0.052120 
#    y -0.055440 1.959960 0.037540 
#    z 0.052120 0.037540 1.945080 
# 
# From -- ./inp_files/601354.got.cif
#   From: 2010.05.17/outbox.cif.g08.bks.cpg/sg2_301_cif.got.tgz:601354.got - 2010.06.03 11:33:40.
