data_PCOD9028854
_publ_section_title
;
Structure prediction by ZEFSAII (Michael W. Deem and Ramdas Pophale) SiO2 
 PCOD9028854
Probable space group: P -1
;
_chemical_formula_sum "Si O2"
_cell_formula_units_Z 12
_cell_length_a 5.118016
_cell_length_b 9.758239
_cell_length_c 10.806655
_cell_angle_alpha 114.117710
_cell_angle_beta 96.175436
_cell_angle_gamma 77.177067
_cell_volume 480.230358
_symmetry_space_group_name_H-M "P -1"
_symmetry_group_IT_number 2
_symmetry_cell_setting 'triclinic'
loop_
_space_group_symop_operation_xyz
x,y,z
-x,-y,-z
loop_
_atom_site_type_symbol
_atom_site_label
_atom_site_fract_x
_atom_site_fract_y
_atom_site_fract_z
Si Si1 0.413340 0.724344 0.067535
Si Si2 0.468847 0.954669 0.795387
Si Si3 0.444410 0.845941 0.497213
Si Si4 0.848279 0.547537 0.383069
Si Si5 0.688651 0.423070 0.740864
Si Si6 0.154724 0.195233 0.040806
O O1 0.387036 0.610357 0.135233
O O2 0.423510 0.893329 0.185614
O O3 0.680634 0.697076 0.988092
O O4 0.155717 0.747312 0.975200
O O5 0.356770 0.878225 0.645858
O O6 0.709005 0.840000 0.832721
O O7 0.247129 0.029820 0.913136
O O8 0.724615 0.726181 0.460674
O O9 0.259507 0.750481 0.378652
O O10 0.500000 0.000000 0.500000
O O11 0.575701 0.488741 0.313063
O O12 0.000000 0.500000 0.500000
O O13 0.050465 0.517419 0.266738
#
# Coordination Sequence:
#
# PCOD9028854 Si02
#       6
#     2   2   2   2   2   2
#     4  10  17  32  48  74 105 136 179 209 261 310
#     4   9  18  31  46  74 111 140 172 207 268 310
#     4  10  20  35  52  87 111 137 170 223 268 318
#     4  10  22  39  53  78 110 144 179 212 266 325
#     4  10  21  34  58  77 106 142 177 218 266 319
#     4   9  19  29  47  68 111 145 168 209 260 317
#
# _framework density 24.988009000000002
#
# number of rings (size 3 to 8) (size 9 to 14) (size 15 to 20)
#    2.000    0.333    1.667    2.000    2.333    2.000 
#    0.000    0.000    0.000    0.000    0.000    7.000 
#    0.000    0.000    0.000    0.000    0.000    0.000 
#
# Total GULP energy -67011.024262 kJ/mol
# GULP energy per Si atom -5584.252022 kJ/mol
# Density = 2.493114 g / cm^3
# Si number density = 24.988009 Si / 1000 Ang^3
#
#
#
# Elastic Constant Matrix: (Units=GPa)
#
#
# Indices 1 2 3 4 5 6 
#
# 1 73.3599 8.8818 -20.6719 11.7653 -8.4513 4.7421
# 2 8.8818 78.4755 7.3869 -2.3843 0.8249 -2.9126
# 3 -20.6719 7.3869 84.3235 10.4565 -15.8350 1.0865
# 4 11.7653 -2.3843 10.4565 31.3857 2.7572 1.4948
# 5 -8.4513 0.8249 -15.8350 2.7572 27.1460 -3.3412
# 6 4.7421 -2.9126 1.0865 1.4948 -3.3412 27.1272
#
#
#
# Elastic Compliance Matrix: (Units=1/GPa)
#
#
# Indices 1 2 3 4 5 6 
#
# 1 0.020166 -0.003716 0.009155 -0.011908 0.012686 -0.002072
# 2 -0.003716 0.013685 -0.003290 0.003776 -0.003680 0.001589
# 3 0.009155 -0.003290 0.018576 -0.011167 0.014889 -0.000248
# 4 -0.011908 0.003776 -0.011167 0.041681 -0.014714 -0.001175
# 5 0.012686 -0.003680 0.014889 -0.014714 0.051566 0.003953
# 6 -0.002072 0.001589 -0.000248 -0.001175 0.003953 0.037958
#
#
# Mechanical properties :
#
#
# Convention : Reuss Voigt Hill
#
# Bulk Modulus (GPa) = 17.62881 25.26140 21.44511
# Shear Modulus (GPa) = 25.22166 33.16925 29.19545
#
# Velocity S-wave (km/s) = 3.18047 3.64731 3.42186
# Velocity P-wave (km/s) = 4.53403 5.27907 4.92067
#
# Compressibility (1/GPa) = 0.05672532
#
# Stress axis : x y z
#
# Youngs Moduli (GPa) = 49.58784 73.07007 53.83412
#
# Poissons Ratio (x) = 0.27154 -0.49285
# Poissons Ratio (y) = 0.18428 0.17710
# Poissons Ratio (z) = -0.45397 0.24038
#
# Static dielectric constant tensor:
#      x y z
#    x 1.913790 0.005160 -0.025520 
#    y 0.005160 2.011810 0.087910 
#    z -0.025520 0.087910 2.041840 
# 
# From -- ./inp_files/131822.got.cif
#   From: 2010.05.17/outbox.cif.g08.bks.cpg/sg2_66_cif.got.tgz:131822.got - 2010.06.03 11:33:40.
