data_PCOD9028584
_publ_section_title
;
Structure prediction by ZEFSAII (Michael W. Deem and Ramdas Pophale) SiO2 
 PCOD9028584
Probable space group: P -1
;
_chemical_formula_sum "Si O2"
_cell_formula_units_Z 14
_cell_length_a 15.984115
_cell_length_b 5.492694
_cell_length_c 7.983968
_cell_angle_alpha 119.176166
_cell_angle_beta 97.215068
_cell_angle_gamma 90.546881
_cell_volume 605.148903
_symmetry_space_group_name_H-M "P -1"
_symmetry_group_IT_number 2
_symmetry_cell_setting 'triclinic'
loop_
_space_group_symop_operation_xyz
x,y,z
-x,-y,-z
loop_
_atom_site_type_symbol
_atom_site_label
_atom_site_fract_x
_atom_site_fract_y
_atom_site_fract_z
Si Si1 0.919042 0.179457 0.232259
Si Si2 0.282148 0.210098 0.294215
Si Si3 0.568613 0.332813 0.597476
Si Si4 0.103543 0.451271 0.327724
Si Si5 0.859183 0.522060 0.010583
Si Si6 0.668811 0.349893 0.959962
Si Si7 0.610093 0.751602 0.363294
O O1 0.892278 0.329836 0.446368
O O2 0.882604 0.344109 0.119145
O O3 0.019990 0.244143 0.261941
O O4 0.892074 0.850225 0.130892
O O5 0.351794 0.461314 0.362818
O O6 0.187130 0.285368 0.292080
O O7 0.308388 0.143405 0.469305
O O8 0.303309 0.958146 0.094165
O O9 0.594374 0.295341 0.787986
O O10 0.470661 0.396189 0.605548
O O11 0.574771 0.044773 0.401255
O O12 0.102579 0.590690 0.190074
O O13 0.757204 0.497342 0.962608
O O14 0.637536 0.540152 0.161926
#
# Coordination Sequence:
#
# PCOD9028584 Si02
#       7
#     2   2   2   2   2   2   2
#     4  11  28  45  73 107 138 197 237 293 364 428
#     4  11  23  41  64  96 131 178 225 291 348 417
#     4  10  22  42  63  96 131 173 224 288 353 409
#     4  11  25  47  71 101 146 179 241 297 353 423
#     4  12  25  46  71 105 146 186 242 291 359 427
#     4  11  24  39  66  96 134 177 230 281 354 416
#     4  10  23  41  66  94 132 175 228 285 348 431
#
# _framework density 23.134802000000001
#
# number of rings (size 3 to 8) (size 9 to 14) (size 15 to 20)
#    0.000    1.143    1.429    3.429    2.000    7.429 
#    0.000    0.000    0.000    0.000    0.000    0.000 
#    0.000    0.000    0.000    0.000    0.000    0.000 
#
# Total GULP energy -78228.087590 kJ/mol
# GULP energy per Si atom -5587.720542 kJ/mol
# Density = 2.308215 g / cm^3
# Si number density = 23.134802 Si / 1000 Ang^3
#
#
#
# Elastic Constant Matrix: (Units=GPa)
#
#
# Indices 1 2 3 4 5 6 
#
# 1 141.2317 34.3672 55.4546 17.6794 -0.3834 -0.8027
# 2 34.3672 71.7997 43.0541 12.4404 12.7668 5.8255
# 3 55.4546 43.0541 153.0603 15.4351 -13.5628 -1.5641
# 4 17.6794 12.4404 15.4351 24.6812 -6.3772 4.9838
# 5 -0.3834 12.7668 -13.5628 -6.3772 37.1140 -4.8021
# 6 -0.8027 5.8255 -1.5641 4.9838 -4.8021 35.4666
#
#
#
# Elastic Compliance Matrix: (Units=1/GPa)
#
#
# Indices 1 2 3 4 5 6 
#
# 1 0.009050 -0.002201 -0.002267 -0.004308 -0.000590 0.000992
# 2 -0.002201 0.022294 -0.005732 -0.008228 -0.011769 -0.004402
# 3 -0.002267 -0.005732 0.009531 -0.000422 0.005634 0.002133
# 4 -0.004308 -0.008228 -0.000422 0.051759 0.010936 -0.004557
# 5 -0.000590 -0.011769 0.005634 0.010936 0.035630 0.005456
# 6 0.000992 -0.004402 0.002133 -0.004557 0.005456 0.030414
#
#
# Mechanical properties :
#
#
# Convention : Reuss Voigt Hill
#
# Bulk Modulus (GPa) = 48.84323 70.20484 59.52404
# Shear Modulus (GPa) = 26.89577 35.00008 30.94793
#
# Velocity S-wave (km/s) = 3.41334 3.89379 3.66146
# Velocity P-wave (km/s) = 6.05746 7.11529 6.60758
#
# Compressibility (1/GPa) = 0.02047366
#
# Stress axis : x y z
#
# Youngs Moduli (GPa) = 110.50025 44.85570 104.92477
#
# Poissons Ratio (x) = 0.09875 0.23789
# Poissons Ratio (y) = 0.24326 0.60138
# Poissons Ratio (z) = 0.25053 0.25709
#
# Static dielectric constant tensor:
#      x y z
#    x 1.837320 -0.039270 0.019190 
#    y -0.039270 2.077570 -0.062610 
#    z 0.019190 -0.062610 1.861810 
# 
# From -- ./inp_files/289336.got.cif
#   From: 2010.05.17/outbox.cif.g08.bks.cpg/sg2_145_cif.got.tgz:289336.got - 2010.06.03 11:33:40.
