data_PCOD9028241
_publ_section_title
;
Structure prediction by ZEFSAII (Michael W. Deem and Ramdas Pophale) SiO2 
 PCOD9028241
Probable space group: P -1
;
_chemical_formula_sum "Si O2"
_cell_formula_units_Z 12
_cell_length_a 11.891808
_cell_length_b 15.073423
_cell_length_c 8.973865
_cell_angle_alpha 138.788986
_cell_angle_beta 52.309337
_cell_angle_gamma 151.530896
_cell_volume 498.758074
_symmetry_space_group_name_H-M "P -1"
_symmetry_group_IT_number 2
_symmetry_cell_setting 'triclinic'
loop_
_space_group_symop_operation_xyz
x,y,z
-x,-y,-z
loop_
_atom_site_type_symbol
_atom_site_label
_atom_site_fract_x
_atom_site_fract_y
_atom_site_fract_z
Si Si1 0.874459 0.917507 0.156374
Si Si2 0.878095 0.658753 0.992746
Si Si3 0.380963 0.082652 0.251946
Si Si4 0.533648 0.184571 0.720383
Si Si5 0.724727 0.264125 0.965265
Si Si6 0.289228 0.307449 0.543805
O O1 0.796402 0.707689 0.002075
O O2 0.671465 0.873763 0.244677
O O3 0.059807 0.104942 0.370367
O O4 0.000000 0.000000 0.000000
O O5 0.777979 0.635757 0.204582
O O6 0.773012 0.430757 0.765820
O O7 0.163693 0.880134 0.058161
O O8 0.633821 0.247330 0.176962
O O9 0.353843 0.220065 0.470351
O O10 0.335416 0.941146 0.240807
O O11 0.500000 0.000000 0.500000
O O12 0.566878 0.220328 0.916739
O O13 0.000000 0.500000 0.000000
O O14 0.500000 0.500000 0.500000
#
# Coordination Sequence:
#
# PCOD9028241 Si02
#       6
#     2   2   2   2   2   2
#     4  11  24  46  70 104 146 181 237 300 360 421
#     4  11  23  47  73  98 141 189 245 292 348 439
#     4  10  22  41  73 102 130 183 240 291 339 420
#     4  12  27  41  68 102 142 187 228 301 369 411
#     4  11  23  44  70  97 146 183 236 287 356 429
#     4  11  24  42  78 104 135 189 251 284 351 425
#
# _framework density 24.059761999999999
#
# number of rings (size 3 to 8) (size 9 to 14) (size 15 to 20)
#    0.000    1.000    1.667    6.500    4.667    0.000 
#    0.000    1.667    0.000    0.000    0.000    0.000 
#    0.000    0.000    0.000    0.000    0.000    0.000 
#
# Total GULP energy -67148.990396 kJ/mol
# GULP energy per Si atom -5595.749200 kJ/mol
# Density = 2.400500 g / cm^3
# Si number density = 24.059762 Si / 1000 Ang^3
#
#
#
# Elastic Constant Matrix: (Units=GPa)
#
#
# Indices 1 2 3 4 5 6 
#
# 1 167.9277 35.2092 20.9372 11.8879 -20.9268 -24.0024
# 2 35.2092 161.7620 34.1124 2.0123 -10.6646 -16.8500
# 3 20.9372 34.1124 67.6833 9.0730 -17.1551 -16.9001
# 4 11.8879 2.0123 9.0730 37.1304 -15.3863 -10.2973
# 5 -20.9268 -10.6646 -17.1551 -15.3863 29.5159 1.0089
# 6 -24.0024 -16.8500 -16.9001 -10.2973 1.0089 49.3167
#
#
#
# Elastic Compliance Matrix: (Units=1/GPa)
#
#
# Indices 1 2 3 4 5 6 
#
# 1 0.007188 -0.000948 0.000305 0.000760 0.005213 0.003331
# 2 -0.000948 0.007185 -0.002986 0.001334 0.000842 0.001232
# 3 0.000305 -0.002986 0.020488 0.001633 0.011683 0.006251
# 4 0.000760 0.001334 0.001633 0.037425 0.021179 0.008766
# 5 0.005213 0.000842 0.011683 0.021179 0.055365 0.010118
# 6 0.003331 0.001232 0.006251 0.008766 0.010118 0.026085
#
#
# Mechanical properties :
#
#
# Convention : Reuss Voigt Hill
#
# Bulk Modulus (GPa) = 36.22554 64.21008 50.21781
# Shear Modulus (GPa) = 29.37817 43.66688 36.52252
#
# Velocity S-wave (km/s) = 3.49814 4.26483 3.90037
# Velocity P-wave (km/s) = 5.60403 7.14124 6.41882
#
# Compressibility (1/GPa) = 0.02760484
#
# Stress axis : x y z
#
# Youngs Moduli (GPa) = 139.12955 139.17682 48.80793
#
# Poissons Ratio (x) = 0.13189 -0.01491
# Poissons Ratio (y) = 0.13184 0.14574
# Poissons Ratio (z) = -0.04250 0.41558
#
# Static dielectric constant tensor:
#      x y z
#    x 1.928790 -0.005360 0.015620 
#    y -0.005360 1.952960 0.020680 
#    z 0.015620 0.020680 1.969990 
# 
# From -- ./inp_files/274574.got.cif
#   From: 2010.05.17/outbox.cif.g08.bks.cpg/sg2_138_cif.got.tgz:274574.got - 2010.06.03 11:33:40.
