data_PCOD9028643
_publ_section_title
;
Structure prediction by ZEFSAII (Michael W. Deem and Ramdas Pophale) SiO2 
 PCOD9028643
Probable space group: P -1
;
_chemical_formula_sum "Si O2"
_cell_formula_units_Z 14
_cell_length_a 9.040852
_cell_length_b 17.043879
_cell_length_c 10.312760
_cell_angle_alpha 150.500622
_cell_angle_beta 122.378363
_cell_angle_gamma 47.039046
_cell_volume 565.272592
_symmetry_space_group_name_H-M "P -1"
_symmetry_group_IT_number 2
_symmetry_cell_setting 'triclinic'
loop_
_space_group_symop_operation_xyz
x,y,z
-x,-y,-z
loop_
_atom_site_type_symbol
_atom_site_label
_atom_site_fract_x
_atom_site_fract_y
_atom_site_fract_z
Si Si1 0.146731 0.142564 0.587469
Si Si2 0.307622 0.612029 0.222896
Si Si3 0.681810 0.037446 0.320440
Si Si4 0.042306 0.431119 0.272239
Si Si5 0.950423 0.174344 0.972092
Si Si6 0.372888 0.490998 0.544572
Si Si7 0.299583 0.277445 0.628122
O O1 0.288252 0.171867 0.596694
O O2 0.917438 0.321236 0.729505
O O3 0.225226 0.103385 0.716055
O O4 0.128233 0.965861 0.286146
O O5 0.268091 0.798640 0.401529
O O6 0.478217 0.576104 0.358393
O O7 0.376735 0.417115 0.906083
O O8 0.440820 0.142833 0.385466
O O9 0.800299 0.945219 0.107793
O O10 0.281995 0.360593 0.276697
O O11 0.000000 0.500000 0.500000
O O12 0.926144 0.592598 0.346910
O O13 0.918096 0.322702 0.058437
O O14 0.823950 0.303993 0.219749
O O15 0.500000 0.500000 0.500000
#
# Coordination Sequence:
#
# PCOD9028643 Si02
#       7
#     2   2   2   2   2   2   2
#     4  11  23  39  63 103 136 163 212 281 329 370
#     4  11  23  42  68  96 127 176 222 263 323 398
#     4  11  22  39  63  96 135 170 211 269 330 386
#     4  10  22  44  67  93 130 176 219 261 318 397
#     4  10  22  42  64  89 130 172 210 263 325 386
#     4  11  24  44  68  96 129 171 221 275 328 386
#     4  12  23  40  69 101 129 172 223 266 320 389
#
# _framework density 24.766812000000002
#
# number of rings (size 3 to 8) (size 9 to 14) (size 15 to 20)
#    0.000    1.143    0.000    8.143    0.000    2.286 
#    0.000   22.857    0.000    1.714    0.000    0.000 
#    0.000    0.000    0.000    0.000    0.000    0.000 
#
# Total GULP energy -78059.359107 kJ/mol
# GULP energy per Si atom -5575.668508 kJ/mol
# Density = 2.471044 g / cm^3
# Si number density = 24.766812 Si / 1000 Ang^3
#
#
#
# Elastic Constant Matrix: (Units=GPa)
#
#
# Indices 1 2 3 4 5 6 
#
# 1 148.8735 15.4942 50.0132 12.7039 -13.8621 10.3641
# 2 15.4942 95.9571 28.1519 -8.0305 9.4470 -5.5083
# 3 50.0132 28.1519 107.0508 -0.7299 -9.6309 -1.5252
# 4 12.7039 -8.0305 -0.7299 27.8127 -5.3544 4.4791
# 5 -13.8621 9.4470 -9.6309 -5.3544 39.7780 3.0117
# 6 10.3641 -5.5083 -1.5252 4.4791 3.0117 38.1773
#
#
#
# Elastic Compliance Matrix: (Units=1/GPa)
#
#
# Indices 1 2 3 4 5 6 
#
# 1 0.008724 -0.000966 -0.003693 -0.003575 0.002076 -0.002400
# 2 -0.000966 0.012182 -0.003041 0.002864 -0.003721 0.001856
# 3 -0.003693 -0.003041 0.012113 0.001504 0.002519 0.000673
# 4 -0.003575 0.002864 0.001504 0.039808 0.004065 -0.003547
# 5 0.002076 -0.003721 0.002519 0.004065 0.028184 -0.003700
# 6 -0.002400 0.001856 0.000673 -0.003547 -0.003700 0.027848
#
#
# Mechanical properties :
#
#
# Convention : Reuss Voigt Hill
#
# Bulk Modulus (GPa) = 56.76133 59.91110 58.33621
# Shear Modulus (GPa) = 33.30391 38.36840 35.83615
#
# Velocity S-wave (km/s) = 3.67099 3.94024 3.80800
# Velocity P-wave (km/s) = 6.39815 6.70397 6.55284
#
# Compressibility (1/GPa) = 0.01761763
#
# Stress axis : x y z
#
# Youngs Moduli (GPa) = 114.62839 82.08785 82.55557
#
# Poissons Ratio (x) = 0.07933 0.30491
# Poissons Ratio (y) = 0.11077 0.25105
# Poissons Ratio (z) = 0.42336 0.24962
#
# Static dielectric constant tensor:
#      x y z
#    x 1.956380 -0.063490 -0.056530 
#    y -0.063490 1.982740 0.129000 
#    z -0.056530 0.129000 2.450220 
# 
# From -- ./inp_files/403590.got.cif
#   From: 2010.05.17/outbox.cif.g08.bks.cpg/sg2_202_cif.got.tgz:403590.got - 2010.06.03 11:33:40.
