data_PCOD9028216
_publ_section_title
;
Structure prediction by ZEFSAII (Michael W. Deem and Ramdas Pophale) SiO2 
 PCOD9028216
Probable space group: P -1
;
_chemical_formula_sum "Si O2"
_cell_formula_units_Z 12
_cell_length_a 8.770353
_cell_length_b 8.598103
_cell_length_c 10.489631
_cell_angle_alpha 48.903756
_cell_angle_beta 102.972899
_cell_angle_gamma 81.396303
_cell_volume 531.210246
_symmetry_space_group_name_H-M "P -1"
_symmetry_group_IT_number 2
_symmetry_cell_setting 'triclinic'
loop_
_space_group_symop_operation_xyz
x,y,z
-x,-y,-z
loop_
_atom_site_type_symbol
_atom_site_label
_atom_site_fract_x
_atom_site_fract_y
_atom_site_fract_z
Si Si1 0.404126 0.552421 0.250333
Si Si2 0.954107 0.004914 0.340165
Si Si3 0.732996 0.285263 0.607317
Si Si4 0.264587 0.231942 0.696524
Si Si5 0.188793 0.491369 0.034620
Si Si6 0.602740 0.801476 0.997207
O O1 0.553241 0.357976 0.461064
O O2 0.292080 0.733408 0.237131
O O3 0.499491 0.661004 0.114761
O O4 0.286237 0.456108 0.205280
O O5 0.856887 0.849259 0.364138
O O6 0.122347 0.917911 0.329222
O O7 0.833646 0.260733 0.147654
O O8 0.000000 0.000000 0.500000
O O9 0.768893 0.512310 0.478618
O O10 0.258917 0.214068 0.859228
O O11 0.459426 0.049984 0.809888
O O12 0.302563 0.311487 0.051346
O O13 0.000000 0.500000 0.000000
#
# Coordination Sequence:
#
# PCOD9028216 Si02
#       6
#     2   2   2   2   2   2
#     4  10  22  45  69  93 133 180 219 269 326 391
#     4  12  26  42  67 102 139 173 216 279 336 384
#     4  10  24  42  70  99 133 172 225 273 329 393
#     4  10  22  41  72  96 130 176 222 271 330 393
#     4  12  28  43  68 100 136 175 221 276 329 392
#     4  10  22  45  71  95 128 179 227 265 332 394
#
# _framework density 22.589924
#
# number of rings (size 3 to 8) (size 9 to 14) (size 15 to 20)
#    0.000    1.333    1.667    3.000    7.000    6.000 
#    0.000    1.667    0.000    0.000    0.000    0.000 
#    0.000    0.000    0.000    0.000    0.000    0.000 
#
# Total GULP energy -67141.982214 kJ/mol
# GULP energy per Si atom -5595.165184 kJ/mol
# Density = 2.253851 g / cm^3
# Si number density = 22.589924 Si / 1000 Ang^3
#
#
#
# Elastic Constant Matrix: (Units=GPa)
#
#
# Indices 1 2 3 4 5 6 
#
# 1 67.0952 55.3671 8.9532 34.7283 1.3488 -1.3533
# 2 55.3671 142.6083 28.6645 45.7902 18.7577 -9.5395
# 3 8.9532 28.6645 39.0859 13.8836 -2.2762 10.0713
# 4 34.7283 45.7902 13.8836 50.4024 7.5718 9.7987
# 5 1.3488 18.7577 -2.2762 7.5718 26.3756 3.2432
# 6 -1.3533 -9.5395 10.0713 9.7987 3.2432 62.5213
#
#
#
# Elastic Compliance Matrix: (Units=1/GPa)
#
#
# Indices 1 2 3 4 5 6 
#
# 1 0.029014 -0.008823 0.005655 -0.015014 0.009561 0.000228
# 2 -0.008823 0.015724 -0.009712 -0.004902 -0.010789 0.005101
# 3 0.005655 -0.009712 0.035822 -0.005417 0.012114 -0.006909
# 4 -0.015014 -0.004902 -0.005417 0.038242 -0.006472 -0.005858
# 5 0.009561 -0.010789 0.012114 -0.006472 0.048604 -0.004898
# 6 0.000228 0.005101 -0.006909 -0.005858 -0.004898 0.019063
#
#
# Mechanical properties :
#
#
# Convention : Reuss Voigt Hill
#
# Bulk Modulus (GPa) = 18.24785 48.30658 33.27721
# Shear Modulus (GPa) = 21.69261 38.24682 29.96971
#
# Velocity S-wave (km/s) = 3.10220 4.11918 3.64632
# Velocity P-wave (km/s) = 4.57459 6.63733 5.70004
#
# Compressibility (1/GPa) = 0.05480099
#
# Stress axis : x y z
#
# Youngs Moduli (GPa) = 34.46643 63.59739 27.91597
#
# Poissons Ratio (x) = 0.56110 -0.15788
# Poissons Ratio (y) = 0.30408 0.27112
# Poissons Ratio (z) = -0.19492 0.61766
#
# Static dielectric constant tensor:
#      x y z
#    x 1.888100 0.031710 -0.036130 
#    y 0.031710 1.843050 0.029140 
#    z -0.036130 0.029140 1.863240 
# 
# From -- ./inp_files/375458.got.cif
#   From: 2010.05.17/outbox.cif.g08.bks.cpg/sg2_188_cif.got.tgz:375458.got - 2010.06.03 11:33:40.
