data_PCOD9028118
_publ_section_title
;
Structure prediction by ZEFSAII (Michael W. Deem and Ramdas Pophale) SiO2 
 PCOD9028118
Probable space group: P -1
;
_chemical_formula_sum "Si O2"
_cell_formula_units_Z 16
_cell_length_a 7.963000
_cell_length_b 14.067979
_cell_length_c 8.885820
_cell_angle_alpha 107.340654
_cell_angle_beta 130.008314
_cell_angle_gamma 72.005842
_cell_volume 718.361146
_symmetry_space_group_name_H-M "P -1"
_symmetry_group_IT_number 2
_symmetry_cell_setting 'triclinic'
loop_
_space_group_symop_operation_xyz
x,y,z
-x,-y,-z
loop_
_atom_site_type_symbol
_atom_site_label
_atom_site_fract_x
_atom_site_fract_y
_atom_site_fract_z
Si Si1 0.844946 0.940917 0.483632
Si Si2 0.705592 0.282988 0.940986
Si Si3 0.772185 0.433831 0.525580
Si Si4 0.239445 0.768458 0.712671
Si Si5 0.652149 0.477061 0.816504
Si Si6 0.940164 0.070733 0.856183
Si Si7 0.677049 0.854647 0.077331
Si Si8 0.235466 0.349167 0.819557
O O1 0.008695 0.838814 0.575968
O O2 0.654332 0.916232 0.250841
O O3 0.000000 0.000000 0.500000
O O4 0.798008 0.011748 0.633801
O O5 0.753962 0.376804 0.915999
O O6 0.805589 0.177920 0.875785
O O7 0.439646 0.301377 0.811903
O O8 0.781810 0.279718 0.157409
O O9 0.696577 0.323517 0.410286
O O10 0.748823 0.473571 0.701960
O O11 0.612642 0.508205 0.361410
O O12 0.031768 0.405006 0.633181
O O13 0.440083 0.834054 0.870491
O O14 0.691316 0.569975 0.985557
O O15 0.168425 0.092010 0.918009
O O16 0.000000 0.000000 0.000000
O O17 0.811778 0.744353 0.148869
#
# Coordination Sequence:
#
# PCOD9028118 Si02
#       8
#     2   2   2   2   2   2   2   2
#     4  10  22  41  71  91 128 172 220 267 331 383
#     4  11  24  43  65  96 144 169 215 280 328 385
#     4  11  23  41  70  96 134 172 230 262 324 403
#     4  11  22  44  67  96 132 171 221 269 329 398
#     4  11  24  43  67 100 135 172 221 277 324 393
#     4  11  23  43  68 100 132 170 221 279 326 387
#     4  10  22  42  72  93 128 175 215 269 329 389
#     4  11  22  43  70  98 134 177 217 266 338 393
#
# _framework density 22.272919000000002
#
# number of rings (size 3 to 8) (size 9 to 14) (size 15 to 20)
#    0.000    1.250    5.000    1.500    1.750    2.500 
#    0.000    5.000    2.750    0.000    0.000    0.000 
#    0.000    0.000    0.000    0.000    0.000    0.000 
#
# Total GULP energy -89396.772392 kJ/mol
# GULP energy per Si atom -5587.298275 kJ/mol
# Density = 2.222222 g / cm^3
# Si number density = 22.272919 Si / 1000 Ang^3
#
#
#
# Elastic Constant Matrix: (Units=GPa)
#
#
# Indices 1 2 3 4 5 6 
#
# 1 38.4828 19.0305 42.0506 9.9921 -9.5821 2.4282
# 2 19.0305 118.3528 29.5409 1.4236 -23.2066 -1.7228
# 3 42.0506 29.5409 100.3531 16.5114 0.0278 -4.4469
# 4 9.9921 1.4236 16.5114 44.6061 -8.7037 -6.7601
# 5 -9.5821 -23.2066 0.0278 -8.7037 23.5208 -3.3033
# 6 2.4282 -1.7228 -4.4469 -6.7601 -3.3033 33.1426
#
#
#
# Elastic Compliance Matrix: (Units=1/GPa)
#
#
# Indices 1 2 3 4 5 6 
#
# 1 0.060205 0.001781 -0.026042 0.000327 0.025708 -0.005184
# 2 0.001781 0.012267 -0.004964 0.004247 0.014711 0.002174
# 3 -0.026042 -0.004964 0.023376 -0.005773 -0.017408 0.001874
# 4 0.000327 0.004247 -0.005773 0.028465 0.015819 0.006805
# 5 0.025708 0.014711 -0.017408 0.015819 0.074387 0.007186
# 6 -0.005184 0.002174 0.001874 0.006805 0.007186 0.033021
#
#
# Mechanical properties :
#
#
# Convention : Reuss Voigt Hill
#
# Bulk Modulus (GPa) = 26.73952 48.71476 37.72714
# Shear Modulus (GPa) = 16.52139 31.35834 23.93987
#
# Velocity S-wave (km/s) = 2.72650 3.75629 3.28203
# Velocity P-wave (km/s) = 4.68436 6.38217 5.59801
#
# Compressibility (1/GPa) = 0.03739783
#
# Stress axis : x y z
#
# Youngs Moduli (GPa) = 16.60985 81.51892 42.77839
#
# Poissons Ratio (x) = -0.14518 1.11406
# Poissons Ratio (y) = -0.02958 0.21234
# Poissons Ratio (z) = 0.43256 0.40465
#
# Static dielectric constant tensor:
#      x y z
#    x 1.845140 0.013000 0.017620 
#    y 0.013000 1.837820 0.018250 
#    z 0.017620 0.018250 1.850560 
# 
# From -- ./inp_files/203365.got.cif
#   From: 2010.05.17/outbox.cif.g08.bks.cpg/sg2_102_cif.got.tgz:203365.got - 2010.06.03 11:33:40.
