data_PCOD9028635
_publ_section_title
;
Structure prediction by ZEFSAII (Michael W. Deem and Ramdas Pophale) SiO2 
 PCOD9028635
Probable space group: P -1
;
_chemical_formula_sum "Si O2"
_cell_formula_units_Z 16
_cell_length_a 7.102154
_cell_length_b 14.964334
_cell_length_c 11.853259
_cell_angle_alpha 92.279079
_cell_angle_beta 103.873071
_cell_angle_gamma 134.134431
_cell_volume 838.235935
_symmetry_space_group_name_H-M "P -1"
_symmetry_group_IT_number 2
_symmetry_cell_setting 'triclinic'
loop_
_space_group_symop_operation_xyz
x,y,z
-x,-y,-z
loop_
_atom_site_type_symbol
_atom_site_label
_atom_site_fract_x
_atom_site_fract_y
_atom_site_fract_z
Si Si1 0.165230 0.146337 0.060694
Si Si2 0.812957 0.696772 0.121225
Si Si3 0.852505 0.545052 0.958636
Si Si4 0.782893 0.281163 0.194844
Si Si5 0.826865 0.630588 0.556067
Si Si6 0.102912 0.869593 0.750384
Si Si7 0.750052 0.983598 0.434889
Si Si8 0.145129 0.797926 0.401654
O O1 0.143050 0.210860 0.960172
O O2 0.498519 0.240222 0.133540
O O3 0.031528 0.137398 0.156906
O O4 0.000000 0.000000 0.000000
O O5 0.484194 0.582146 0.105430
O O6 0.000517 0.772671 0.262072
O O7 0.888842 0.628278 0.068950
O O8 0.002368 0.635810 0.874159
O O9 0.000000 0.500000 0.000000
O O10 0.698814 0.147997 0.189586
O O11 0.968742 0.363144 0.337574
O O12 0.500000 0.500000 0.500000
O O13 0.871828 0.741110 0.632223
O O14 0.947004 0.675444 0.449854
O O15 0.246519 0.989822 0.695729
O O16 0.798327 0.091617 0.516184
O O17 0.441378 0.848598 0.422202
O O18 0.000000 0.000000 0.500000
#
# Coordination Sequence:
#
# PCOD9028635 Si02
#       8
#     2   2   2   2   2   2   2   2
#     4  12  26  38  64  96 128 173 212 259 315 388
#     4  11  24  40  65  95 129 163 215 266 319 387
#     4  11  22  43  65  89 128 169 211 265 324 375
#     4  10  22  42  64  88 129 163 213 259 321 372
#     4   9  19  42  68  87 122 167 203 269 319 374
#     4   9  23  41  62  87 130 162 213 260 318 373
#     4  10  23  40  64  88 126 172 210 261 317 374
#     4  10  23  39  61  95 124 160 209 260 319 376
#
# _framework density 19.087703000000001
#
# number of rings (size 3 to 8) (size 9 to 14) (size 15 to 20)
#    0.750    1.000    2.500    0.750    5.250    2.500 
#    0.000    0.625    0.000    0.000    0.000    0.000 
#    0.000    0.000    0.000    0.000    0.000    0.000 
#
# Total GULP energy -89222.879483 kJ/mol
# GULP energy per Si atom -5576.429968 kJ/mol
# Density = 1.904426 g / cm^3
# Si number density = 19.087703 Si / 1000 Ang^3
#
#
#
# Elastic Constant Matrix: (Units=GPa)
#
#
# Indices 1 2 3 4 5 6 
#
# 1 99.1371 27.2728 48.5880 -18.1992 12.0240 14.8429
# 2 27.2728 80.7923 40.8621 -20.1061 7.0609 22.3761
# 3 48.5880 40.8621 111.0594 -26.3605 4.4983 22.5129
# 4 -18.1992 -20.1061 -26.3605 35.1261 -0.7551 -0.5059
# 5 12.0240 7.0609 4.4983 -0.7551 20.7530 -2.1602
# 6 14.8429 22.3761 22.5129 -0.5059 -2.1602 29.2226
#
#
#
# Elastic Compliance Matrix: (Units=1/GPa)
#
#
# Indices 1 2 3 4 5 6 
#
# 1 0.014530 0.000353 -0.004101 0.004409 -0.008011 -0.005007
# 2 0.000353 0.020572 -0.002015 0.010063 -0.007941 -0.014792
# 3 -0.004101 -0.002015 0.015035 0.007876 -0.000730 -0.007874
# 4 0.004409 0.010063 0.007876 0.042027 -0.007807 -0.015861
# 5 -0.008011 -0.007941 -0.000730 -0.007807 0.056942 0.014786
# 6 -0.005007 -0.014792 -0.007874 -0.015861 0.014786 0.054975
#
#
# Mechanical properties :
#
#
# Convention : Reuss Voigt Hill
#
# Bulk Modulus (GPa) = 25.89883 58.27051 42.08467
# Shear Modulus (GPa) = 21.88392 28.63808 25.26100
#
# Velocity S-wave (km/s) = 3.38966 3.87763 3.64183
# Velocity P-wave (km/s) = 5.37750 7.11632 6.30712
#
# Compressibility (1/GPa) = 0.03861178
#
# Stress axis : x y z
#
# Youngs Moduli (GPa) = 68.82105 48.60875 66.51168
#
# Poissons Ratio (x) = -0.01717 0.27277
# Poissons Ratio (y) = -0.02431 0.13403
# Poissons Ratio (z) = 0.28224 0.09795
#
# Static dielectric constant tensor:
#      x y z
#    x 1.646320 -0.014010 0.005900 
#    y -0.014010 1.696180 0.000080 
#    z 0.005900 0.000080 1.652280 
# 
# From -- ./inp_files/367820.got.cif
#   From: 2010.05.17/outbox.cif.g08.bks.cpg/sg2_184_cif.got.tgz:367820.got - 2010.06.03 11:33:40.
