data_PCOD9028176
_publ_section_title
;
Structure prediction by ZEFSAII (Michael W. Deem and Ramdas Pophale) SiO2 
 PCOD9028176
Probable space group: P -1
;
_chemical_formula_sum "Si O2"
_cell_formula_units_Z 14
_cell_length_a 5.075738
_cell_length_b 9.899433
_cell_length_c 16.378209
_cell_angle_alpha 134.794755
_cell_angle_beta 115.281538
_cell_angle_gamma 71.708289
_cell_volume 527.954804
_symmetry_space_group_name_H-M "P -1"
_symmetry_group_IT_number 2
_symmetry_cell_setting 'triclinic'
loop_
_space_group_symop_operation_xyz
x,y,z
-x,-y,-z
loop_
_atom_site_type_symbol
_atom_site_label
_atom_site_fract_x
_atom_site_fract_y
_atom_site_fract_z
Si Si1 0.666939 0.670270 0.994138
Si Si2 0.174500 0.845902 0.906145
Si Si3 0.657223 0.732549 0.203361
Si Si4 0.730253 0.380932 0.315155
Si Si5 0.397161 0.058179 0.420337
Si Si6 0.810494 0.294189 0.465660
Si Si7 0.857274 0.505403 0.796432
O O1 0.703401 0.762590 0.126057
O O2 0.497360 0.471698 0.896825
O O3 0.916719 0.594865 0.933428
O O4 0.488520 0.817921 0.976691
O O5 0.008821 0.651693 0.820178
O O6 0.197507 0.824632 0.803551
O O7 0.000000 0.000000 0.000000
O O8 0.466773 0.885510 0.292863
O O9 0.975538 0.695514 0.269557
O O10 0.002338 0.519708 0.412484
O O11 0.477860 0.481610 0.269170
O O12 0.640862 0.338673 0.378110
O O13 0.403959 0.775955 0.522283
O O14 0.500000 0.000000 0.500000
O O15 0.064070 0.134059 0.413649
#
# Coordination Sequence:
#
# PCOD9028176 Si02
#       7
#     2   2   2   2   2   2   2
#     4   9  21  41  66 102 140 191 235 298 374 436
#     4  10  23  38  68 103 142 180 240 307 366 440
#     4  10  23  42  69 104 142 190 241 301 365 442
#     4  10  26  46  73 104 144 193 249 301 375 435
#     4  12  30  48  76 110 149 193 254 308 367 440
#     4  11  29  50  76 107 145 200 249 309 364 440
#     4  10  22  41  72 100 146 189 238 305 371 444
#
# _framework density 26.517422
#
# number of rings (size 3 to 8) (size 9 to 14) (size 15 to 20)
#    0.000    1.714    0.000    0.857   14.000    4.571 
#    0.000    0.000    0.000    0.000    0.000    0.000 
#    0.000    0.000    0.000    0.000    0.000    0.000 
#
# Total GULP energy -78409.550934 kJ/mol
# GULP energy per Si atom -5600.682210 kJ/mol
# Density = 2.645707 g / cm^3
# Si number density = 26.517422 Si / 1000 Ang^3
#
#
#
# Elastic Constant Matrix: (Units=GPa)
#
#
# Indices 1 2 3 4 5 6 
#
# 1 101.5632 20.5074 24.9643 -3.4224 -15.7769 1.6732
# 2 20.5074 98.3510 48.9966 -7.3615 -17.3576 -4.4353
# 3 24.9643 48.9966 158.1145 -2.4612 -35.8142 2.4198
# 4 -3.4224 -7.3615 -2.4612 46.5531 0.2033 -15.0674
# 5 -15.7769 -17.3576 -35.8142 0.2033 46.8118 6.1113
# 6 1.6732 -4.4353 2.4198 -15.0674 6.1113 60.7244
#
#
#
# Elastic Compliance Matrix: (Units=1/GPa)
#
#
# Indices 1 2 3 4 5 6 
#
# 1 0.010729 -0.001455 -0.000624 0.000332 0.002671 -0.000564
# 2 -0.001455 0.012621 -0.003348 0.002190 0.001424 0.001495
# 3 -0.000624 -0.003348 0.008685 -0.000543 0.005358 -0.001247
# 4 0.000332 0.002190 -0.000543 0.023805 -0.000394 0.006119
# 5 0.002671 0.001424 0.005358 -0.000394 0.027286 -0.003027
# 6 -0.000564 0.001495 -0.001247 0.006119 -0.003027 0.018465
#
#
# Mechanical properties :
#
#
# Convention : Reuss Voigt Hill
#
# Bulk Modulus (GPa) = 47.21353 60.77392 53.99372
# Shear Modulus (GPa) = 41.83896 48.38855 45.11376
#
# Velocity S-wave (km/s) = 3.97645 4.27638 4.12914
# Velocity P-wave (km/s) = 6.23909 6.88124 6.56802
#
# Compressibility (1/GPa) = 0.02118037
#
# Stress axis : x y z
#
# Youngs Moduli (GPa) = 93.20778 79.23010 115.14464
#
# Poissons Ratio (x) = 0.11531 0.07187
# Poissons Ratio (y) = 0.13565 0.38547
# Poissons Ratio (z) = 0.05818 0.26524
#
# Static dielectric constant tensor:
#      x y z
#    x 2.142220 -0.009790 -0.017560 
#    y -0.009790 2.092570 0.030930 
#    z -0.017560 0.030930 2.115630 
# 
# From -- ./inp_files/549341.got.cif
#   From: 2010.05.17/outbox.cif.g08.bks.cpg/sg2_275_cif.got.tgz:549341.got - 2010.06.03 11:33:40.
