data_PCOD9028638
_publ_section_title
;
Structure prediction by ZEFSAII (Michael W. Deem and Ramdas Pophale) SiO2 
 PCOD9028638
Probable space group: P -1
;
_chemical_formula_sum "Si O2"
_cell_formula_units_Z 14
_cell_length_a 8.539161
_cell_length_b 17.493770
_cell_length_c 10.895363
_cell_angle_alpha 41.198564
_cell_angle_beta 101.145586
_cell_angle_gamma 131.478041
_cell_volume 631.331887
_symmetry_space_group_name_H-M "P -1"
_symmetry_group_IT_number 2
_symmetry_cell_setting 'triclinic'
loop_
_space_group_symop_operation_xyz
x,y,z
-x,-y,-z
loop_
_atom_site_type_symbol
_atom_site_label
_atom_site_fract_x
_atom_site_fract_y
_atom_site_fract_z
Si Si1 0.246795 0.139210 0.462529
Si Si2 0.557815 0.882283 0.960650
Si Si3 0.260355 0.442242 0.894249
Si Si4 0.675447 0.077944 0.311895
Si Si5 0.873090 0.734388 0.320908
Si Si6 0.179739 0.166083 0.059898
Si Si7 0.627313 0.401395 0.533609
O O1 0.478240 0.367804 0.221876
O O2 0.365982 0.080877 0.534551
O O3 0.000000 0.000000 0.500000
O O4 0.085442 0.049364 0.672731
O O5 0.400770 0.889675 0.857100
O O6 0.590775 0.792679 0.980716
O O7 0.452877 0.767026 0.212508
O O8 0.856677 0.100572 0.764303
O O9 0.252356 0.524700 0.674093
O O10 0.262884 0.316777 0.982460
O O11 0.991717 0.285968 0.122714
O O12 0.500000 0.000000 0.500000
O O13 0.813928 0.571987 0.457267
O O14 0.619817 0.649935 0.446410
O O15 0.898562 0.824108 0.092623
#
# Coordination Sequence:
#
# PCOD9028638 Si02
#       7
#     2   2   2   2   2   2   2
#     4  11  23  43  67  86 114 161 211 255 301 361
#     4  11  20  36  63  92 128 161 195 248 300 358
#     4  10  22  42  64  89 123 157 205 256 296 363
#     4  11  27  44  58  88 124 161 207 252 310 363
#     4   9  17  32  59  94 128 157 196 244 294 360
#     4   9  19  36  62  94 122 160 205 246 298 356
#     4   9  18  34  60  94 122 158 201 242 301 356
#
# _framework density 22.175339999999998
#
# number of rings (size 3 to 8) (size 9 to 14) (size 15 to 20)
#    0.000    2.000    0.000    5.143    0.000    4.571 
#    0.000   15.714    0.000    0.000    0.000    0.000 
#    0.000    0.000    0.000    0.000    0.000    0.000 
#
# Total GULP energy -78172.799982 kJ/mol
# GULP energy per Si atom -5583.771427 kJ/mol
# Density = 2.212487 g / cm^3
# Si number density = 22.175340 Si / 1000 Ang^3
#
#
#
# Elastic Constant Matrix: (Units=GPa)
#
#
# Indices 1 2 3 4 5 6 
#
# 1 50.8230 33.1542 24.2717 -3.0294 6.5020 3.5310
# 2 33.1542 84.6070 40.5002 -26.9511 -5.7447 2.1983
# 3 24.2717 40.5002 131.9709 -13.2725 -22.3479 -1.8881
# 4 -3.0294 -26.9511 -13.2725 39.3847 -3.8149 -8.9855
# 5 6.5020 -5.7447 -22.3479 -3.8149 36.3552 8.5704
# 6 3.5310 2.1983 -1.8881 -8.9855 8.5704 21.7534
#
#
#
# Elastic Compliance Matrix: (Units=1/GPa)
#
#
# Indices 1 2 3 4 5 6 
#
# 1 0.032546 -0.014811 -0.004507 -0.011241 -0.011059 -0.004463
# 2 -0.014811 0.023996 -0.001947 0.016145 0.005964 0.004129
# 3 -0.004507 -0.001947 0.010481 0.002564 0.007196 0.000062
# 4 -0.011241 0.016145 0.002564 0.040388 0.006995 0.014343
# 5 -0.011059 0.005964 0.007196 0.006995 0.038004 -0.010267
# 6 -0.004463 0.004129 0.000062 0.014343 -0.010267 0.056252
#
#
# Mechanical properties :
#
#
# Convention : Reuss Voigt Hill
#
# Bulk Modulus (GPa) = 40.83104 51.47255 46.15179
# Shear Modulus (GPa) = 19.81275 30.79698 25.30487
#
# Velocity S-wave (km/s) = 2.99232 3.73070 3.38172
# Velocity P-wave (km/s) = 5.51284 6.46680 6.00878
#
# Compressibility (1/GPa) = 0.02449117
#
# Stress axis : x y z
#
# Youngs Moduli (GPa) = 30.72591 41.67367 95.40794
#
# Poissons Ratio (x) = 0.61724 0.43004
# Poissons Ratio (y) = 0.45509 0.18578
# Poissons Ratio (z) = 0.13849 0.08115
#
# Static dielectric constant tensor:
#      x y z
#    x 1.843550 0.016050 0.003270 
#    y 0.016050 1.352790 -0.318530 
#    z 0.003270 -0.318530 1.627250 
# 
# From -- ./inp_files/402841.got.cif
#   From: 2010.05.17/outbox.cif.g08.bks.cpg/sg2_202_cif.got.tgz:402841.got - 2010.06.03 11:33:40.
