data_PCOD9028225
_publ_section_title
;
Structure prediction by ZEFSAII (Michael W. Deem and Ramdas Pophale) SiO2 
 PCOD9028225
Probable space group: P -1
;
_chemical_formula_sum "Si O2"
_cell_formula_units_Z 14
_cell_length_a 11.751858
_cell_length_b 11.501220
_cell_length_c 8.933037
_cell_angle_alpha 39.564677
_cell_angle_beta 60.042129
_cell_angle_gamma 52.505041
_cell_volume 609.084309
_symmetry_space_group_name_H-M "P -1"
_symmetry_group_IT_number 2
_symmetry_cell_setting 'triclinic'
loop_
_space_group_symop_operation_xyz
x,y,z
-x,-y,-z
loop_
_atom_site_type_symbol
_atom_site_label
_atom_site_fract_x
_atom_site_fract_y
_atom_site_fract_z
Si Si1 0.691020 0.652118 0.448582
Si Si2 0.128411 0.740027 0.787705
Si Si3 0.620876 0.544760 0.289531
Si Si4 0.878302 0.832957 0.658990
Si Si5 0.882399 0.814475 0.340261
Si Si6 0.555526 0.950974 0.842469
Si Si7 0.808835 0.266390 0.912123
O O1 0.703447 0.603149 0.312387
O O2 0.820365 0.699978 0.381427
O O3 0.688455 0.457593 0.723869
O O4 0.549145 0.854304 0.370058
O O5 0.266825 0.638460 0.692895
O O6 0.997889 0.709585 0.823025
O O7 0.086126 0.976355 0.591183
O O8 0.165515 0.671133 0.000663
O O9 0.500000 0.500000 0.500000
O O10 0.553638 0.734513 0.035165
O O11 0.874856 0.746682 0.582723
O O12 0.720004 0.913450 0.751043
O O13 0.045812 0.775536 0.234909
O O14 0.793403 0.055539 0.140119
O O15 0.500000 0.000000 0.000000
#
# Coordination Sequence:
#
# PCOD9028225 Si02
#       7
#     2   2   2   2   2   2   2
#     4  11  24  43  68  94 138 178 219 277 337 403
#     4  10  22  41  72  98 131 178 225 279 329 401
#     4  11  25  45  68  99 132 179 228 276 342 400
#     4  10  22  44  67  99 135 173 230 276 332 399
#     4  10  23  43  66 101 138 177 225 272 342 399
#     4  10  24  42  64  96 131 177 223 278 328 400
#     4  10  23  42  69 103 135 179 219 281 338 393
#
# _framework density 22.985322
#
# number of rings (size 3 to 8) (size 9 to 14) (size 15 to 20)
#    0.000    1.714    0.000    3.000    8.000    2.286 
#    0.000    2.143    0.000    0.000    0.000    0.000 
#    0.000    0.000    0.000    0.000    0.000    0.000 
#
# Total GULP energy -78225.486995 kJ/mol
# GULP energy per Si atom -5587.534785 kJ/mol
# Density = 2.293301 g / cm^3
# Si number density = 22.985322 Si / 1000 Ang^3
#
#
#
# Elastic Constant Matrix: (Units=GPa)
#
#
# Indices 1 2 3 4 5 6 
#
# 1 50.7660 22.5464 19.7282 1.6239 -0.0616 6.6386
# 2 22.5464 71.2144 11.7801 11.8041 10.8736 9.3010
# 3 19.7282 11.7801 80.5165 -16.6180 18.4896 5.6386
# 4 1.6239 11.8041 -16.6180 52.1508 1.8115 -7.8350
# 5 -0.0616 10.8736 18.4896 1.8115 33.7907 -1.8852
# 6 6.6386 9.3010 5.6386 -7.8350 -1.8852 40.2783
#
#
#
# Elastic Compliance Matrix: (Units=1/GPa)
#
#
# Indices 1 2 3 4 5 6 
#
# 1 0.026037 -0.007541 -0.006978 -0.001791 0.006298 -0.001627
# 2 -0.007541 0.018644 -0.000145 -0.004454 -0.005929 -0.004186
# 3 -0.006978 -0.000145 0.017775 0.006177 -0.010055 -0.000574
# 4 -0.001791 -0.004454 0.006177 0.023030 -0.002917 0.004802
# 5 0.006298 -0.005929 -0.010055 -0.002917 0.037335 0.002919
# 6 -0.001627 -0.004186 -0.000574 0.004802 0.002919 0.027213
#
#
# Mechanical properties :
#
#
# Convention : Reuss Voigt Hill
#
# Bulk Modulus (GPa) = 30.18620 34.51182 32.34901
# Shear Modulus (GPa) = 26.25993 35.14012 30.70003
#
# Velocity S-wave (km/s) = 3.38370 3.91424 3.65860
# Velocity P-wave (km/s) = 5.33172 5.95614 5.65256
#
# Compressibility (1/GPa) = 0.03312772
#
# Stress axis : x y z
#
# Youngs Moduli (GPa) = 38.40713 53.63690 56.25896
#
# Poissons Ratio (x) = 0.40449 0.39258
# Poissons Ratio (y) = 0.28964 0.00814
# Poissons Ratio (z) = 0.26801 0.00776
#
# Static dielectric constant tensor:
#      x y z
#    x 1.894490 -0.002270 0.033510 
#    y -0.002270 1.899500 -0.091760 
#    z 0.033510 -0.091760 1.903130 
# 
# From -- ./inp_files/256660.got.cif
#   From: 2010.05.17/outbox.cif.g08.bks.cpg/sg2_129_cif.got.tgz:256660.got - 2010.06.03 11:33:40.
