data_PCOD9028963
_publ_section_title
;
Structure prediction by ZEFSAII (Michael W. Deem and Ramdas Pophale) SiO2 
 PCOD9028963
Probable space group: P -1
;
_chemical_formula_sum "Si O2"
_cell_formula_units_Z 16
_cell_length_a 15.957115
_cell_length_b 18.881985
_cell_length_c 5.045719
_cell_angle_alpha 96.883080
_cell_angle_beta 83.117268
_cell_angle_gamma 31.897574
_cell_volume 722.894262
_symmetry_space_group_name_H-M "P -1"
_symmetry_group_IT_number 2
_symmetry_cell_setting 'triclinic'
loop_
_space_group_symop_operation_xyz
x,y,z
-x,-y,-z
loop_
_atom_site_type_symbol
_atom_site_label
_atom_site_fract_x
_atom_site_fract_y
_atom_site_fract_z
Si Si1 0.294024 0.409478 0.706467
Si Si2 0.016661 0.935579 0.213273
Si Si3 0.588852 0.396234 0.167012
Si Si4 0.552584 0.844440 0.397183
Si Si5 0.308399 0.121265 0.340003
Si Si6 0.506515 0.292333 0.069566
Si Si7 0.760936 0.011289 0.143983
Si Si8 0.090562 0.244304 0.989407
O O1 0.296152 0.325723 0.766154
O O2 0.363603 0.367139 0.362618
O O3 0.429517 0.346836 0.828830
O O4 0.104704 0.583570 0.866201
O O5 0.859599 0.995350 0.280915
O O6 0.201193 0.757821 0.026456
O O7 0.000000 0.000000 0.500000
O O8 0.000000 0.000000 0.000000
O O9 0.500000 0.500000 0.500000
O O10 0.546698 0.343222 0.159115
O O11 0.500000 0.500000 0.000000
O O12 0.616018 0.860946 0.569215
O O13 0.465059 0.947094 0.222179
O O14 0.397756 0.912546 0.618641
O O15 0.170685 0.195822 0.645910
O O16 0.213767 0.194814 0.128700
O O17 0.675490 0.117564 0.980351
O O18 0.894634 0.848465 0.959983
#
# Coordination Sequence:
#
# PCOD9028963 Si02
#       8
#     2   2   2   2   2   2   2   2
#     4  11  24  41  65  99 130 177 219 277 338 398
#     4  12  27  47  72 104 138 182 234 287 340 410
#     4  12  27  46  70 102 139 184 222 290 355 411
#     4   9  22  41  69  95 132 178 220 273 335 409
#     4  10  22  42  65  97 132 174 224 270 334 405
#     4  11  24  43  67  90 135 176 227 268 337 415
#     4  10  24  44  69  95 132 176 227 277 334 405
#     4  11  24  41  65  98 133 170 222 282 333 398
#
# _framework density 22.133251000000001
#
# number of rings (size 3 to 8) (size 9 to 14) (size 15 to 20)
#    0.000    1.250    1.250    3.000    7.000    9.500 
#    0.000    0.000    0.000    0.000    0.000    0.000 
#    0.000    0.000    0.000    0.000    0.000    0.000 
#
# Total GULP energy -89486.704091 kJ/mol
# GULP energy per Si atom -5592.919006 kJ/mol
# Density = 2.208288 g / cm^3
# Si number density = 22.133251 Si / 1000 Ang^3
#
#
#
# Elastic Constant Matrix: (Units=GPa)
#
#
# Indices 1 2 3 4 5 6 
#
# 1 115.5048 37.8862 1.1539 9.7979 18.4562 10.7882
# 2 37.8862 189.6564 42.0746 24.5414 9.1081 12.5517
# 3 1.1539 42.0746 91.0654 -3.6715 7.1975 3.7543
# 4 9.7979 24.5414 -3.6715 31.7068 -3.1609 12.0700
# 5 18.4562 9.1081 7.1975 -3.1609 28.4144 -0.3217
# 6 10.7882 12.5517 3.7543 12.0700 -0.3217 28.0526
#
#
#
# Elastic Compliance Matrix: (Units=1/GPa)
#
#
# Indices 1 2 3 4 5 6 
#
# 1 0.010710 -0.001711 0.001270 -0.001383 -0.006917 -0.003007
# 2 -0.001711 0.007124 -0.003436 -0.005600 -0.000921 0.000329
# 3 0.001270 -0.003436 0.013048 0.004545 -0.002553 -0.002682
# 4 -0.001383 -0.005600 0.004545 0.043643 0.006213 -0.016277
# 5 -0.006917 -0.000921 -0.002553 0.006213 0.041333 0.001215
# 6 -0.003007 0.000329 -0.002682 -0.016277 0.001215 0.044033
#
#
# Mechanical properties :
#
#
# Convention : Reuss Voigt Hill
#
# Bulk Modulus (GPa) = 43.23973 62.05069 52.64521
# Shear Modulus (GPa) = 28.51353 38.64221 33.57787
#
# Velocity S-wave (km/s) = 3.59314 4.18292 3.89919
# Velocity P-wave (km/s) = 6.06570 7.17112 6.64145
#
# Compressibility (1/GPa) = 0.02312688
#
# Stress axis : x y z
#
# Youngs Moduli (GPa) = 93.37372 140.37194 76.63840
#
# Poissons Ratio (x) = 0.24016 -0.09731
# Poissons Ratio (y) = 0.15975 0.26336
# Poissons Ratio (z) = -0.11856 0.48237
#
# Static dielectric constant tensor:
#      x y z
#    x 1.809430 0.007100 -0.010280 
#    y 0.007100 1.839290 0.078380 
#    z -0.010280 0.078380 1.882550 
# 
# From -- ./inp_files/99817.got.cif
#   From: 2010.05.17/outbox.cif.g08.bks.cpg/sg2_50_cif.got.tgz:99817.got - 2010.06.03 11:33:40.
