data_PCOD9028648
_publ_section_title
;
Structure prediction by ZEFSAII (Michael W. Deem and Ramdas Pophale) SiO2 
 PCOD9028648
Probable space group: P -1
;
_chemical_formula_sum "Si O2"
_cell_formula_units_Z 15
_cell_length_a 11.574139
_cell_length_b 9.287932
_cell_length_c 21.122278
_cell_angle_alpha 39.194295
_cell_angle_beta 39.329225
_cell_angle_gamma 69.011721
_cell_volume 725.842070
_symmetry_space_group_name_H-M "P -1"
_symmetry_group_IT_number 2
_symmetry_cell_setting 'triclinic'
loop_
_space_group_symop_operation_xyz
x,y,z
-x,-y,-z
loop_
_atom_site_type_symbol
_atom_site_label
_atom_site_fract_x
_atom_site_fract_y
_atom_site_fract_z
Si Si1 0.236863 0.072996 0.349234
Si Si2 0.444454 0.848585 0.429315
Si Si3 0.375810 0.415446 0.421732
Si Si4 0.927808 0.184843 0.630199
Si Si5 0.500000 0.000000 0.500000
Si Si6 0.660443 0.921253 0.042859
Si Si7 0.489442 0.712830 0.051111
Si Si8 0.184958 0.229028 0.707619
O O1 0.339611 0.951746 0.390368
O O2 0.180070 0.938083 0.350094
O O3 0.412054 0.415326 0.157946
O O4 0.000000 0.000000 0.500000
O O5 0.273690 0.501743 0.620909
O O6 0.682457 0.906176 0.287586
O O7 0.481979 0.994056 0.431265
O O8 0.516461 0.290824 0.398662
O O9 0.528128 0.740839 0.222961
O O10 0.269863 0.357077 0.556762
O O11 0.157567 0.220564 0.534735
O O12 0.000000 0.500000 0.500000
O O13 0.739505 0.972309 0.833357
O O14 0.671496 0.202353 0.933279
O O15 0.505824 0.721731 0.117065
O O16 0.913272 0.010123 0.901106
#
# Coordination Sequence:
#
# PCOD9028648 Si02
#       8
#     2   2   2   2   1   2   2   2
#     4  12  25  41  67 101 137 172 219 281 334 391
#     4  10  22  42  66  92 132 169 222 270 333 390
#     4  11  22  42  67  97 129 175 218 267 331 392
#     4  12  23  42  69  96 136 180 217 274 336 389
#     4  10  22  42  64  90 128 170 216 270 328 392
#     4  11  22  40  69  97 132 175 225 265 333 399
#     4  11  24  39  63 104 135 171 227 271 329 401
#     4  10  22  43  68  95 127 175 222 272 318 399
#
# _framework density 20.665652999999999
#
# number of rings (size 3 to 8) (size 9 to 14) (size 15 to 20)
#    0.000    1.067    2.667    4.400    1.867    0.000 
#    2.400    8.000    2.933    0.000    0.000    0.000 
#    0.000    0.000    0.000    0.000    0.000    0.000 
#
# Total GULP energy -83575.390101 kJ/mol
# GULP energy per Si atom -5571.692673 kJ/mol
# Density = 2.061862 g / cm^3
# Si number density = 20.665653 Si / 1000 Ang^3
#
#
#
# Elastic Constant Matrix: (Units=GPa)
#
#
# Indices 1 2 3 4 5 6 
#
# 1 107.8793 30.3583 21.7725 2.0799 -2.4379 -17.1354
# 2 30.3583 92.4992 22.4760 -15.5127 0.7924 8.2566
# 3 21.7725 22.4760 86.8864 6.6520 -4.1187 -6.9421
# 4 2.0799 -15.5127 6.6520 33.9035 0.8541 -5.6519
# 5 -2.4379 0.7924 -4.1187 0.8541 22.0741 5.7712
# 6 -17.1354 8.2566 -6.9421 -5.6519 5.7712 45.7900
#
#
#
# Elastic Compliance Matrix: (Units=1/GPa)
#
#
# Indices 1 2 3 4 5 6 
#
# 1 0.011461 -0.004116 -0.001317 -0.001556 0.000016 0.004637
# 2 -0.004116 0.014560 -0.003616 0.007026 -0.000949 -0.003727
# 3 -0.001317 -0.003616 0.013300 -0.004007 0.002256 0.001397
# 4 -0.001556 0.007026 -0.004007 0.034023 -0.003044 0.002127
# 5 0.000016 -0.000949 0.002256 -0.003044 0.047401 -0.005831
# 6 0.004637 -0.003727 0.001397 0.002127 -0.005831 0.025455
#
#
# Mechanical properties :
#
#
# Convention : Reuss Voigt Hill
#
# Bulk Modulus (GPa) = 47.11906 48.49763 47.80834
# Shear Modulus (GPa) = 29.17641 34.53072 31.85357
#
# Velocity S-wave (km/s) = 3.76151 4.09213 3.93030
# Velocity P-wave (km/s) = 6.45875 6.77097 6.61670
#
# Compressibility (1/GPa) = 0.02122284
#
# Stress axis : x y z
#
# Youngs Moduli (GPa) = 87.25459 68.68312 75.18917
#
# Poissons Ratio (x) = 0.28273 0.09900
# Poissons Ratio (y) = 0.35918 0.27185
# Poissons Ratio (z) = 0.11489 0.24833
#
# Static dielectric constant tensor:
#      x y z
#    x 1.815020 -0.000270 0.006510 
#    y -0.000270 1.764110 0.023100 
#    z 0.006510 0.023100 1.730410 
# 
# From -- ./inp_files/348670.got.cif
#   From: 2010.05.17/outbox.cif.g08.bks.cpg/sg2_175_cif.got.tgz:348670.got - 2010.06.03 11:33:40.
