data_PCOD9028909
_publ_section_title
;
Structure prediction by ZEFSAII (Michael W. Deem and Ramdas Pophale) SiO2 
 PCOD9028909
Probable space group: P -1
;
_chemical_formula_sum "Si O2"
_cell_formula_units_Z 15
_cell_length_a 11.935548
_cell_length_b 6.345623
_cell_length_c 9.215801
_cell_angle_alpha 96.118981
_cell_angle_beta 75.071642
_cell_angle_gamma 118.003212
_cell_volume 595.386639
_symmetry_space_group_name_H-M "P -1"
_symmetry_group_IT_number 2
_symmetry_cell_setting 'triclinic'
loop_
_space_group_symop_operation_xyz
x,y,z
-x,-y,-z
loop_
_atom_site_type_symbol
_atom_site_label
_atom_site_fract_x
_atom_site_fract_y
_atom_site_fract_z
Si Si1 0.597505 0.251676 0.378708
Si Si2 0.771056 0.768223 0.214987
Si Si3 0.124077 0.498196 0.031295
Si Si4 0.377198 0.997459 0.906716
Si Si5 0.875397 0.462892 0.632952
Si Si6 0.500000 0.500000 0.000000
Si Si7 0.632090 0.535597 0.648114
Si Si8 0.258657 0.990835 0.505527
O O1 0.674841 0.510591 0.296851
O O2 0.546161 0.075332 0.245261
O O3 0.550236 0.314842 0.551784
O O4 0.691414 0.152150 0.415332
O O5 0.826420 0.937495 0.349464
O O6 0.693065 0.864234 0.145554
O O7 0.859745 0.709623 0.073123
O O8 0.096491 0.452695 0.206506
O O9 0.257535 0.749142 0.985426
O O10 0.000000 0.500000 0.000000
O O11 0.463615 0.207858 0.003363
O O12 0.778855 0.562155 0.609681
O O13 0.000000 0.500000 0.500000
O O14 0.799291 0.176834 0.625140
O O15 0.421791 0.485971 0.175292
O O16 0.637325 0.764499 0.582706
#
# Coordination Sequence:
#
# PCOD9028909 Si02
#       8
#     2   2   2   2   2   1   2   2
#     4   8  18  39  66  92 128 168 220 277 326 404
#     4   9  19  40  67  93 130 171 221 278 335 405
#     4  11  25  41  65  99 137 173 225 283 339 402
#     4  10  22  42  65  94 133 173 226 272 341 397
#     4  11  25  41  65  99 137 173 225 283 339 402
#     4  12  24  42  68  94 134 184 224 278 330 410
#     4  10  22  42  65  94 133 173 226 272 341 397
#     4   9  19  40  67  93 130 171 221 278 335 405
#
# _framework density 25.193712000000001
#
# number of rings (size 3 to 8) (size 9 to 14) (size 15 to 20)
#    0.000    2.133    0.000    1.600   11.200    1.600 
#    2.400   22.667    0.000    0.000    0.000    0.000 
#    0.000    0.000    0.000    0.000    0.000    0.000 
#
# Total GULP energy -83501.672452 kJ/mol
# GULP energy per Si atom -5566.778163 kJ/mol
# Density = 2.513637 g / cm^3
# Si number density = 25.193712 Si / 1000 Ang^3
#
#
#
# Elastic Constant Matrix: (Units=GPa)
#
#
# Indices 1 2 3 4 5 6 
#
# 1 71.5799 2.2478 31.2013 -7.3943 3.1704 -14.5388
# 2 2.2478 96.7585 30.7311 24.6547 -16.9565 -15.5265
# 3 31.2013 30.7311 166.4689 12.9408 -13.8649 -22.8200
# 4 -7.3943 24.6547 12.9408 53.6587 -8.2230 -7.4008
# 5 3.1704 -16.9565 -13.8649 -8.2230 37.2739 0.9673
# 6 -14.5388 -15.5265 -22.8200 -7.4008 0.9673 33.0009
#
#
#
# Elastic Compliance Matrix: (Units=1/GPa)
#
#
# Indices 1 2 3 4 5 6 
#
# 1 0.016923 0.000345 -0.002751 0.003478 -0.001708 0.006546
# 2 0.000345 0.013357 -0.001194 -0.004496 0.004495 0.004471
# 3 -0.002751 -0.001194 0.007416 -0.000858 0.002180 0.003098
# 4 0.003478 -0.004496 -0.000858 0.022234 0.002148 0.003747
# 5 -0.001708 0.004495 0.002180 0.002148 0.030239 0.002465
# 6 0.006546 0.004471 0.003098 0.003747 0.002465 0.038200
#
#
# Mechanical properties :
#
#
# Convention : Reuss Voigt Hill
#
# Bulk Modulus (GPa) = 32.78937 51.46307 42.12622
# Shear Modulus (GPa) = 34.30903 42.82851 38.56877
#
# Velocity S-wave (km/s) = 3.69427 4.12754 3.91690
# Velocity P-wave (km/s) = 5.58928 6.57166 6.10028
#
# Compressibility (1/GPa) = 0.03049769
#
# Stress axis : x y z
#
# Youngs Moduli (GPa) = 59.09051 74.86745 134.84205
#
# Poissons Ratio (x) = -0.02586 0.37095
# Poissons Ratio (y) = -0.02041 0.16097
# Poissons Ratio (z) = 0.16256 0.08937
#
# Static dielectric constant tensor:
#      x y z
#    x 2.006390 0.001100 0.058620 
#    y 0.001100 2.032630 0.023520 
#    z 0.058620 0.023520 1.997940 
# 
# From -- ./inp_files/287916.got.cif
#   From: 2010.05.17/outbox.cif.g08.bks.cpg/sg2_144_cif.got.tgz:287916.got - 2010.06.03 11:33:40.
