data_PCOD9028244
_publ_section_title
;
Structure prediction by ZEFSAII (Michael W. Deem and Ramdas Pophale) SiO2 
 PCOD9028244
Probable space group: P -1
;
_chemical_formula_sum "Si O2"
_cell_formula_units_Z 15
_cell_length_a 14.755680
_cell_length_b 9.042653
_cell_length_c 11.648340
_cell_angle_alpha 53.722419
_cell_angle_beta 147.307918
_cell_angle_gamma 126.779364
_cell_volume 658.385604
_symmetry_space_group_name_H-M "P -1"
_symmetry_group_IT_number 2
_symmetry_cell_setting 'triclinic'
loop_
_space_group_symop_operation_xyz
x,y,z
-x,-y,-z
loop_
_atom_site_type_symbol
_atom_site_label
_atom_site_fract_x
_atom_site_fract_y
_atom_site_fract_z
Si Si1 0.218146 0.951413 0.532632
Si Si2 0.251522 0.685106 0.127741
Si Si3 0.660845 0.565639 0.864856
Si Si4 0.335429 0.331985 0.756955
Si Si5 0.131242 0.328014 0.326589
Si Si6 0.111847 0.349430 0.717529
Si Si7 0.500000 0.000000 0.000000
Si Si8 0.559450 0.921479 0.483200
O O1 0.334565 0.905747 0.780661
O O2 0.020509 0.844804 0.366523
O O3 0.226677 0.173255 0.451830
O O4 0.302817 0.927147 0.511277
O O5 0.319628 0.599930 0.125708
O O6 0.207533 0.521927 0.252260
O O7 0.398669 0.850833 0.258825
O O8 0.071258 0.733663 0.884497
O O9 0.494146 0.484363 0.802084
O O10 0.632690 0.741619 0.680364
O O11 0.824070 0.629035 0.093120
O O12 0.172906 0.343669 0.497722
O O13 0.279358 0.368811 0.807445
O O14 0.383012 0.132061 0.877291
O O15 0.000000 0.500000 0.500000
O O16 0.500000 0.000000 0.500000
#
# Coordination Sequence:
#
# PCOD9028244 Si02
#       8
#     2   2   2   2   2   2   1   2
#     4  11  26  46  69 106 141 181 242 283 353 413
#     4  11  22  45  72 103 141 179 230 283 358 421
#     4  12  25  46  74 101 139 188 231 291 356 416
#     4  11  24  45  71 101 136 186 241 283 351 415
#     4  10  22  41  73 102 137 181 226 290 345 419
#     4  12  29  45  68 101 147 189 235 293 347 420
#     4  10  24  44  76 100 138 190 232 296 334 424
#     4  12  28  43  74 105 141 181 230 298 353 418
#
# _framework density 22.783000000000001
#
# number of rings (size 3 to 8) (size 9 to 14) (size 15 to 20)
#    0.000    0.800    2.667    4.000    5.600    6.933 
#    0.000    0.000    0.000    0.000    0.000    0.000 
#    0.000    0.000    0.000    0.000    0.000    0.000 
#
# Total GULP energy -83730.088163 kJ/mol
# GULP energy per Si atom -5582.005878 kJ/mol
# Density = 2.273114 g / cm^3
# Si number density = 22.783000 Si / 1000 Ang^3
#
#
#
# Elastic Constant Matrix: (Units=GPa)
#
#
# Indices 1 2 3 4 5 6 
#
# 1 99.6359 12.0295 16.0471 4.5157 -2.1094 -10.7754
# 2 12.0295 28.6479 14.5220 7.2297 -7.5940 -4.2266
# 3 16.0471 14.5220 130.0622 21.5756 -8.8428 -5.6940
# 4 4.5157 7.2297 21.5756 30.2893 -10.9713 4.1797
# 5 -2.1094 -7.5940 -8.8428 -10.9713 30.3361 7.6373
# 6 -10.7754 -4.2266 -5.6940 4.1797 7.6373 34.3702
#
#
#
# Elastic Compliance Matrix: (Units=1/GPa)
#
#
# Indices 1 2 3 4 5 6 
#
# 1 0.011009 -0.003906 -0.000670 -0.001336 -0.001750 0.003411
# 2 -0.003906 0.041416 -0.002693 -0.005294 0.006750 0.002566
# 3 -0.000670 -0.002693 0.009152 -0.006346 -0.000834 0.001932
# 4 -0.001336 -0.005294 -0.006346 0.046530 0.016438 -0.011432
# 5 -0.001750 0.006750 -0.000834 0.016438 0.043113 -0.011436
# 6 0.003411 0.002566 0.001932 -0.011432 -0.011436 0.034731
#
#
# Mechanical properties :
#
#
# Convention : Reuss Voigt Hill
#
# Bulk Modulus (GPa) = 21.25916 38.17147 29.71531
# Shear Modulus (GPa) = 23.13006 33.38226 28.25616
#
# Velocity S-wave (km/s) = 3.18973 3.83198 3.52551
# Velocity P-wave (km/s) = 4.78720 6.03071 5.44457
#
# Compressibility (1/GPa) = 0.04703854
#
# Stress axis : x y z
#
# Youngs Moduli (GPa) = 90.83882 24.14530 109.25992
#
# Poissons Ratio (x) = 0.09432 0.07321
# Poissons Ratio (y) = 0.35484 0.29422
# Poissons Ratio (z) = 0.06087 0.06502
#
# Static dielectric constant tensor:
#      x y z
#    x 1.911250 0.089900 -0.015800 
#    y 0.089900 1.989960 -0.021300 
#    z -0.015800 -0.021300 1.814690 
# 
# From -- ./inp_files/445708.got.cif
#   From: 2010.05.17/outbox.cif.g08.bks.cpg/sg2_223_cif.got.tgz:445708.got - 2010.06.03 11:33:40.
