data_PCOD9028565
_publ_section_title
;
Structure prediction by ZEFSAII (Michael W. Deem and Ramdas Pophale) SiO2 
 PCOD9028565
Probable space group: P -1
;
_chemical_formula_sum "Si O2"
_cell_formula_units_Z 16
_cell_length_a 9.585665
_cell_length_b 10.876265
_cell_length_c 8.881105
_cell_angle_alpha 123.580591
_cell_angle_beta 80.484375
_cell_angle_gamma 90.056114
_cell_volume 756.145636
_symmetry_space_group_name_H-M "P -1"
_symmetry_group_IT_number 2
_symmetry_cell_setting 'triclinic'
loop_
_space_group_symop_operation_xyz
x,y,z
-x,-y,-z
loop_
_atom_site_type_symbol
_atom_site_label
_atom_site_fract_x
_atom_site_fract_y
_atom_site_fract_z
Si Si1 0.361323 0.309214 0.872253
Si Si2 0.883561 0.187531 0.219389
Si Si3 0.409501 0.108041 0.207008
Si Si4 0.329592 0.639302 0.200695
Si Si5 0.107604 0.886081 0.495253
Si Si6 0.186312 0.147402 0.037714
Si Si7 0.349329 0.065123 0.508095
Si Si8 0.596071 0.359309 0.455977
O O1 0.532791 0.297642 0.855733
O O2 0.330115 0.239364 0.668858
O O3 0.313076 0.481261 0.023725
O O4 0.279332 0.210750 0.933446
O O5 0.938726 0.164804 0.367393
O O6 0.752908 0.316226 0.327809
O O7 0.021068 0.213049 0.114187
O O8 0.825025 0.030483 0.081299
O O9 0.274939 0.186031 0.194344
O O10 0.345217 0.031861 0.310579
O O11 0.511619 0.219033 0.336503
O O12 0.500000 0.000000 0.000000
O O13 0.182713 0.745821 0.295256
O O14 0.375403 0.622105 0.357857
O O15 0.238747 0.980889 0.562115
O O16 0.000000 0.000000 0.500000
O O17 0.500000 0.000000 0.500000
O O18 0.500000 0.500000 0.500000
#
# Coordination Sequence:
#
# PCOD9028565 Si02
#       8
#     2   2   2   2   2   2   2   2
#     4  11  21  42  68  93 126 176 218 262 334 385
#     4  10  22  42  63  94 135 170 213 269 328 388
#     4  12  23  37  61 101 126 164 231 270 314 394
#     4  10  23  41  68  96 131 170 217 276 328 386
#     4  11  22  41  66  96 131 170 218 270 328 391
#     4  11  22  40  66  94 131 174 213 268 329 385
#     4  12  21  39  65  94 127 173 221 272 323 382
#     4  11  22  42  64  96 130 169 215 275 329 384
#
# _framework density 21.159942999999998
#
# number of rings (size 3 to 8) (size 9 to 14) (size 15 to 20)
#    0.000    1.000    5.000    3.000    0.000    0.000 
#    0.000    7.500    0.000    0.000    0.000    0.000 
#    0.000    0.000    0.000    0.000    0.000    0.000 
#
# Total GULP energy -89315.007402 kJ/mol
# GULP energy per Si atom -5582.187963 kJ/mol
# Density = 2.111178 g / cm^3
# Si number density = 21.159943 Si / 1000 Ang^3
#
#
#
# Elastic Constant Matrix: (Units=GPa)
#
#
# Indices 1 2 3 4 5 6 
#
# 1 99.8914 26.9686 14.8287 -6.9489 -19.8149 -10.0148
# 2 26.9686 59.4573 30.0655 -0.4001 -14.3952 -7.2921
# 3 14.8287 30.0655 109.8343 14.3871 -12.4450 -1.2366
# 4 -6.9489 -0.4001 14.3871 37.6579 0.1398 -6.8044
# 5 -19.8149 -14.3952 -12.4450 0.1398 23.5854 4.6282
# 6 -10.0148 -7.2921 -1.2366 -6.8044 4.6282 45.1717
#
#
#
# Elastic Compliance Matrix: (Units=1/GPa)
#
#
# Indices 1 2 3 4 5 6 
#
# 1 0.013021 -0.003559 -0.000183 0.002742 0.008287 0.001871
# 2 -0.003559 0.023313 -0.005225 0.001974 0.008017 0.002307
# 3 -0.000183 -0.005225 0.011518 -0.004791 0.003078 -0.001606
# 4 0.002742 0.001974 -0.004791 0.029875 -0.000240 0.005320
# 5 0.008287 0.008017 0.003078 -0.000240 0.056390 -0.002598
# 6 0.001871 0.002307 -0.001606 0.005320 -0.002598 0.023949
#
#
# Mechanical properties :
#
#
# Convention : Reuss Voigt Hill
#
# Bulk Modulus (GPa) = 33.42572 45.87875 39.65224
# Shear Modulus (GPa) = 26.88576 34.43767 30.66172
#
# Velocity S-wave (km/s) = 3.56841 4.03860 3.81076
# Velocity P-wave (km/s) = 5.72792 6.59363 6.17596
#
# Compressibility (1/GPa) = 0.02991708
#
# Stress axis : x y z
#
# Youngs Moduli (GPa) = 76.79777 42.89521 86.82105
#
# Poissons Ratio (x) = 0.15268 0.01587
# Poissons Ratio (y) = 0.27335 0.45366
# Poissons Ratio (z) = 0.01404 0.22414
#
# Static dielectric constant tensor:
#      x y z
#    x 1.763130 0.012530 -0.022770 
#    y 0.012530 1.792630 -0.008510 
#    z -0.022770 -0.008510 1.823470 
# 
# From -- ./inp_files/190809.got.cif
#   From: 2010.05.17/outbox.cif.g08.bks.cpg/sg2_96_cif.got.tgz:190809.got - 2010.06.03 11:33:40.
