data_PCOD9028318
_publ_section_title
;
Structure prediction by ZEFSAII (Michael W. Deem and Ramdas Pophale) SiO2 
 PCOD9028318
Probable space group: P -1
;
_chemical_formula_sum "Si O2"
_cell_formula_units_Z 16
_cell_length_a 8.094882
_cell_length_b 17.325121
_cell_length_c 5.772848
_cell_angle_alpha 63.594535
_cell_angle_beta 67.365501
_cell_angle_gamma 60.380802
_cell_volume 616.063100
_symmetry_space_group_name_H-M "P -1"
_symmetry_group_IT_number 2
_symmetry_cell_setting 'triclinic'
loop_
_space_group_symop_operation_xyz
x,y,z
-x,-y,-z
loop_
_atom_site_type_symbol
_atom_site_label
_atom_site_fract_x
_atom_site_fract_y
_atom_site_fract_z
Si Si1 0.104938 0.271655 0.922612
Si Si2 0.901704 0.959479 0.299797
Si Si3 0.846046 0.449810 0.624948
Si Si4 0.770473 0.515833 0.077424
Si Si5 0.524914 0.707526 0.128959
Si Si6 0.348981 0.846966 0.669786
Si Si7 0.827836 0.248468 0.421754
Si Si8 0.363381 0.090624 0.816913
O O1 0.287387 0.299780 0.816380
O O2 0.184058 0.162017 0.965797
O O3 0.967891 0.338137 0.713394
O O4 0.984040 0.289357 0.203769
O O5 0.718961 0.943471 0.313543
O O6 0.052871 0.857039 0.415353
O O7 0.810394 0.047499 0.401556
O O8 0.000000 0.000000 0.000000
O O9 0.735965 0.481068 0.399138
O O10 0.000000 0.500000 0.500000
O O11 0.742385 0.473299 0.902454
O O12 0.621651 0.624010 0.006995
O O13 0.000000 0.500000 0.000000
O O14 0.350556 0.700345 0.381055
O O15 0.439857 0.810368 0.919657
O O16 0.265515 0.771424 0.737267
O O17 0.517416 0.849196 0.411007
O O18 0.500000 0.000000 0.000000
#
# Coordination Sequence:
#
# PCOD9028318 Si02
#       8
#     2   2   2   2   2   2   2   2
#     4  12  25  46  76 103 148 193 244 311 375 451
#     4  12  23  45  66 101 153 192 241 311 364 440
#     4  10  22  44  73 111 139 200 247 308 388 453
#     4  10  22  41  76 104 148 186 252 309 384 448
#     4  12  25  46  73 106 138 192 246 310 369 456
#     4  12  25  44  73  98 149 194 246 306 370 447
#     4  12  27  46  68 110 142 194 252 301 378 445
#     4  12  25  43  73 110 144 197 251 299 374 453
#
# _framework density 25.971367999999998
#
# number of rings (size 3 to 8) (size 9 to 14) (size 15 to 20)
#    0.000    0.500    5.000    4.500    5.250    1.000 
#    0.000    1.250    0.000    0.000    0.000    0.000 
#    0.000    0.000    0.000    0.000    0.000    0.000 
#
# Total GULP energy -89565.250480 kJ/mol
# GULP energy per Si atom -5597.828155 kJ/mol
# Density = 2.591226 g / cm^3
# Si number density = 25.971368 Si / 1000 Ang^3
#
#
#
# Elastic Constant Matrix: (Units=GPa)
#
#
# Indices 1 2 3 4 5 6 
#
# 1 76.0887 24.3308 25.3052 7.0938 -7.8706 -13.0923
# 2 24.3308 143.6896 32.4227 4.3009 -7.0010 -14.8366
# 3 25.3052 32.4227 117.2223 7.1018 -6.4175 -15.0058
# 4 7.0938 4.3009 7.1018 50.9409 -7.5968 3.6242
# 5 -7.8706 -7.0010 -6.4175 -7.5968 43.4498 3.1949
# 6 -13.0923 -14.8366 -15.0058 3.6242 3.1949 35.7310
#
#
#
# Elastic Compliance Matrix: (Units=1/GPa)
#
#
# Indices 1 2 3 4 5 6 
#
# 1 0.015403 -0.001562 -0.002171 -0.001764 0.001607 0.004119
# 2 -0.001562 0.007810 -0.001517 -0.000291 0.000552 0.002013
# 3 -0.002171 -0.001517 0.009865 -0.001080 0.000425 0.002789
# 4 -0.001764 -0.000291 -0.001080 0.020814 0.003380 -0.003634
# 5 0.001607 0.000552 0.000425 0.003380 0.024160 -0.001506
# 6 0.004119 0.002013 0.002789 -0.003634 -0.001506 0.032007
#
#
# Mechanical properties :
#
#
# Convention : Reuss Voigt Hill
#
# Bulk Modulus (GPa) = 44.29210 55.67978 49.98594
# Shear Modulus (GPa) = 39.03656 43.02048 41.02852
#
# Velocity S-wave (km/s) = 3.88114 4.07438 3.97893
# Velocity P-wave (km/s) = 6.09718 6.60451 6.35590
#
# Compressibility (1/GPa) = 0.02257739
#
# Stress axis : x y z
#
# Youngs Moduli (GPa) = 64.92057 128.04365 101.36989
#
# Poissons Ratio (x) = 0.20000 0.22008
# Poissons Ratio (y) = 0.10141 0.15381
# Poissons Ratio (z) = 0.14095 0.19428
#
# Static dielectric constant tensor:
#      x y z
#    x 2.013010 0.015310 0.049190 
#    y 0.015310 2.140910 0.077310 
#    z 0.049190 0.077310 2.030760 
# 
# From -- ./inp_files/52363.got.cif
#   From: 2010.05.17/outbox.cif.g08.bks.cpg/sg2_27_cif.got.tgz:52363.got - 2010.06.03 11:33:40.
