data_PCOD9028792
_publ_section_title
;
Structure prediction by ZEFSAII (Michael W. Deem and Ramdas Pophale) SiO2 
 PCOD9028792
Probable space group: P -1
;
_chemical_formula_sum "Si O2"
_cell_formula_units_Z 14
_cell_length_a 17.549209
_cell_length_b 22.421859
_cell_length_c 5.093459
_cell_angle_alpha 102.513561
_cell_angle_beta 65.010164
_cell_angle_gamma 157.573298
_cell_volume 599.083456
_symmetry_space_group_name_H-M "P -1"
_symmetry_group_IT_number 2
_symmetry_cell_setting 'triclinic'
loop_
_space_group_symop_operation_xyz
x,y,z
-x,-y,-z
loop_
_atom_site_type_symbol
_atom_site_label
_atom_site_fract_x
_atom_site_fract_y
_atom_site_fract_z
Si Si1 0.752542 0.138096 0.330255
Si Si2 0.933926 0.414440 0.764379
Si Si3 0.192173 0.473347 0.662939
Si Si4 0.857125 0.698191 0.656792
Si Si5 0.652637 0.000987 0.845052
Si Si6 0.713533 0.786811 0.171707
Si Si7 0.596489 0.630796 0.687144
O O1 0.500000 0.000000 0.500000
O O2 0.734343 0.112131 0.638400
O O3 0.003887 0.343152 0.063457
O O4 0.715758 0.054939 0.110123
O O5 0.000000 0.500000 0.500000
O O6 0.084918 0.454467 0.621383
O O7 0.637197 0.202928 0.976424
O O8 0.000000 0.500000 0.000000
O O9 0.171029 0.389103 0.507418
O O10 0.491228 0.683038 0.464247
O O11 0.733591 0.664770 0.625634
O O12 0.697155 0.582125 0.043606
O O13 0.148467 0.912666 0.462214
O O14 0.662669 0.697244 0.365613
O O15 0.673087 0.736084 0.884331
O O16 0.000000 0.000000 0.000000
#
# Coordination Sequence:
#
# PCOD9028792 Si02
#       7
#     2   2   2   2   2   2   2
#     4  11  21  37  68  93 122 155 211 274 318 374
#     4  12  28  44  61  89 133 175 217 261 310 391
#     4  10  24  43  67  96 127 169 218 267 331 377
#     4   9  22  40  70  98 127 162 210 282 330 374
#     4  11  23  40  63  94 124 166 208 263 326 377
#     4  11  24  42  67  93 135 177 211 252 312 398
#     4  10  22  42  65 101 131 160 215 271 323 371
#
# _framework density 23.369033000000002
#
# number of rings (size 3 to 8) (size 9 to 14) (size 15 to 20)
#    0.000    1.429    1.429    2.571    2.000   12.000 
#    0.000    0.000    0.000    0.000    0.000    0.000 
#    0.000    0.000    0.000    0.000    0.000    0.000 
#
# Total GULP energy -78168.234916 kJ/mol
# GULP energy per Si atom -5583.445351 kJ/mol
# Density = 2.331584 g / cm^3
# Si number density = 23.369033 Si / 1000 Ang^3
#
#
#
# Elastic Constant Matrix: (Units=GPa)
#
#
# Indices 1 2 3 4 5 6 
#
# 1 125.1224 19.5624 53.7215 -25.9049 -5.4370 12.5173
# 2 19.5624 103.8842 45.1442 -22.9775 -13.8514 17.1168
# 3 53.7215 45.1442 117.9245 -39.0538 -0.4886 10.8558
# 4 -25.9049 -22.9775 -39.0538 56.0070 21.0074 -12.8575
# 5 -5.4370 -13.8514 -0.4886 21.0074 44.2731 -6.7939
# 6 12.5173 17.1168 10.8558 -12.8575 -6.7939 26.8608
#
#
#
# Elastic Compliance Matrix: (Units=1/GPa)
#
#
# Indices 1 2 3 4 5 6 
#
# 1 0.010277 0.000722 -0.004278 0.001269 0.000407 -0.002810
# 2 0.000722 0.012940 -0.004835 -0.000346 0.003335 -0.005950
# 3 -0.004278 -0.004835 0.015157 0.009283 -0.005988 0.001879
# 4 0.001269 -0.000346 0.009283 0.031650 -0.013708 0.007560
# 5 0.000407 0.003335 -0.005988 -0.013708 0.030304 0.001208
# 6 -0.002810 -0.005950 0.001879 0.007560 0.001208 0.045495
#
#
# Mechanical properties :
#
#
# Convention : Reuss Voigt Hill
#
# Bulk Modulus (GPa) = 46.31560 64.86527 55.59044
# Shear Modulus (GPa) = 29.44569 40.66172 35.05370
#
# Velocity S-wave (km/s) = 3.55354 4.17584 3.87719
# Velocity P-wave (km/s) = 6.05798 7.14614 6.62444
#
# Compressibility (1/GPa) = 0.02159100
#
# Stress axis : x y z
#
# Youngs Moduli (GPa) = 97.30000 77.27943 65.97808
#
# Poissons Ratio (x) = -0.05576 0.28223
# Poissons Ratio (y) = -0.07020 0.31904
# Poissons Ratio (z) = 0.41621 0.37368
#
# Static dielectric constant tensor:
#      x y z
#    x 1.942270 0.030920 -0.085670 
#    y 0.030920 2.010330 -0.015190 
#    z -0.085670 -0.015190 1.967580 
# 
# From -- ./inp_files/100377.got.cif
#   From: 2010.05.17/outbox.cif.g08.bks.cpg/sg2_51_cif.got.tgz:100377.got - 2010.06.03 11:33:40.
