data_PCOD9028212
_publ_section_title
;
Structure prediction by ZEFSAII (Michael W. Deem and Ramdas Pophale) SiO2 
 PCOD9028212
Probable space group: P -1
;
_chemical_formula_sum "Si O2"
_cell_formula_units_Z 16
_cell_length_a 18.298714
_cell_length_b 9.452248
_cell_length_c 11.063862
_cell_angle_alpha 71.968235
_cell_angle_beta 24.350604
_cell_angle_gamma 67.094621
_cell_volume 721.689102
_symmetry_space_group_name_H-M "P -1"
_symmetry_group_IT_number 2
_symmetry_cell_setting 'triclinic'
loop_
_space_group_symop_operation_xyz
x,y,z
-x,-y,-z
loop_
_atom_site_type_symbol
_atom_site_label
_atom_site_fract_x
_atom_site_fract_y
_atom_site_fract_z
Si Si1 0.193859 0.460510 0.655468
Si Si2 0.705298 0.478855 0.857098
Si Si3 0.650291 0.289450 0.765005
Si Si4 0.927135 0.659622 0.360238
Si Si5 0.870110 0.940747 0.554192
Si Si6 0.667993 0.381307 0.213719
Si Si7 0.560991 0.792509 0.496121
Si Si8 0.243216 0.038481 0.013411
O O1 0.227084 0.617132 0.514306
O O2 0.351115 0.371197 0.531993
O O3 0.190407 0.343450 0.581782
O O4 0.000000 0.500000 0.000000
O O5 0.660685 0.348810 0.871594
O O6 0.894397 0.514444 0.522856
O O7 0.548884 0.635652 0.014125
O O8 0.703358 0.433535 0.010596
O O9 0.732411 0.106983 0.684034
O O10 0.873914 0.810214 0.484652
O O11 0.138125 0.636797 0.009892
O O12 0.074528 0.966950 0.252533
O O13 0.807816 0.897312 0.791946
O O14 0.500000 0.500000 0.500000
O O15 0.598316 0.227770 0.349116
O O16 0.444260 0.914240 0.735904
O O17 0.722090 0.841076 0.169718
#
# Coordination Sequence:
#
# PCOD9028212 Si02
#       8
#     2   2   2   2   2   2   2   2
#     4  11  23  45  70  99 133 179 229 274 341 401
#     4  10  23  43  67  99 132 177 228 270 334 398
#     4  10  22  41  72  95 130 184 221 274 325 409
#     4  11  26  42  66 104 138 173 222 287 335 395
#     4  11  23  43  67 100 139 171 229 273 340 395
#     4  12  24  42  69  97 137 170 224 285 332 397
#     4  11  22  45  69  95 133 180 225 266 334 410
#     4  10  24  41  70  96 133 184 218 270 337 409
#
# _framework density 22.170211999999999
#
# number of rings (size 3 to 8) (size 9 to 14) (size 15 to 20)
#    0.000    1.250    2.500    2.625    7.000    1.500 
#    0.000    2.500    0.000    0.000    0.000    0.000 
#    0.000    0.000    0.000    0.000    0.000    0.000 
#
# Total GULP energy -89428.472275 kJ/mol
# GULP energy per Si atom -5589.279517 kJ/mol
# Density = 2.211975 g / cm^3
# Si number density = 22.170212 Si / 1000 Ang^3
#
#
#
# Elastic Constant Matrix: (Units=GPa)
#
#
# Indices 1 2 3 4 5 6 
#
# 1 39.7920 10.6310 2.7696 -12.9381 0.1648 6.6535
# 2 10.6310 72.2979 9.8316 5.7745 9.6530 8.7635
# 3 2.7696 9.8316 121.6179 -15.0247 9.1867 7.3128
# 4 -12.9381 5.7745 -15.0247 32.2535 0.4354 0.1535
# 5 0.1648 9.6530 9.1867 0.4354 36.7484 -0.3577
# 6 6.6535 8.7635 7.3128 0.1535 -0.3577 30.7330
#
#
#
# Elastic Compliance Matrix: (Units=1/GPa)
#
#
# Indices 1 2 3 4 5 6 
#
# 1 0.032294 -0.005551 0.001855 0.014832 0.000616 -0.005917
# 2 -0.005551 0.016183 -0.001412 -0.005715 -0.003835 -0.003093
# 3 0.001855 -0.001412 0.009243 0.005341 -0.002033 -0.002249
# 4 0.014832 -0.005715 0.005341 0.040485 -0.000410 -0.003059
# 5 0.000616 -0.003835 -0.002033 -0.000410 0.028747 0.001781
# 6 -0.005917 -0.003093 -0.002249 -0.003059 0.001781 0.035272
#
#
# Mechanical properties :
#
#
# Convention : Reuss Voigt Hill
#
# Bulk Modulus (GPa) = 21.05072 31.13023 26.09048
# Shear Modulus (GPa) = 26.55684 33.97869 30.26777
#
# Velocity S-wave (km/s) = 3.46477 3.91913 3.69893
# Velocity P-wave (km/s) = 5.05191 5.87804 5.48056
#
# Compressibility (1/GPa) = 0.04750431
#
# Stress axis : x y z
#
# Youngs Moduli (GPa) = 30.96578 61.79176 108.19024
#
# Poissons Ratio (x) = 0.34298 -0.20068
# Poissons Ratio (y) = 0.17188 0.15279
# Poissons Ratio (z) = -0.05744 0.08726
#
# Static dielectric constant tensor:
#      x y z
#    x 1.820770 0.007040 -0.000880 
#    y 0.007040 1.834870 0.013610 
#    z -0.000880 0.013610 1.853660 
# 
# From -- ./inp_files/205268.got.cif
#   From: 2010.05.17/outbox.cif.g08.bks.cpg/sg2_103_cif.got.tgz:205268.got - 2010.06.03 11:33:40.
