data_PCOD9028098
_publ_section_title
;
Structure prediction by ZEFSAII (Michael W. Deem and Ramdas Pophale) SiO2 
 PCOD9028098
Probable space group: P -1
;
_chemical_formula_sum "Si O2"
_cell_formula_units_Z 12
_cell_length_a 10.204661
_cell_length_b 11.152527
_cell_length_c 9.017254
_cell_angle_alpha 95.843147
_cell_angle_beta 82.687558
_cell_angle_gamma 153.141737
_cell_volume 459.708034
_symmetry_space_group_name_H-M "P -1"
_symmetry_group_IT_number 2
_symmetry_cell_setting 'triclinic'
loop_
_space_group_symop_operation_xyz
x,y,z
-x,-y,-z
loop_
_atom_site_type_symbol
_atom_site_label
_atom_site_fract_x
_atom_site_fract_y
_atom_site_fract_z
Si Si1 0.739224 0.253140 0.208597
Si Si2 0.927712 0.672566 0.313571
Si Si3 0.683356 0.751684 0.085351
Si Si4 0.229825 0.931041 0.027887
Si Si5 0.289610 0.969550 0.583236
Si Si6 0.346207 0.515912 0.384327
O O1 0.885765 0.497948 0.259504
O O2 0.685468 0.136796 0.353264
O O3 0.465901 0.066536 0.122615
O O4 0.889028 0.272225 0.085596
O O5 0.674241 0.519313 0.438669
O O6 0.988141 0.781210 0.160586
O O7 0.200182 0.902344 0.415627
O O8 0.619569 0.839729 0.057180
O O9 0.500000 0.500000 0.000000
O O10 0.591774 0.665749 0.260077
O O11 0.000000 0.000000 0.000000
O O12 0.979734 0.774703 0.664428
O O13 0.577986 0.280116 0.607216
#
# Coordination Sequence:
#
# PCOD9028098 Si02
#       6
#     2   2   2   2   2   2
#     4  11  23  42  72 111 158 186 230 291 369 439
#     4  10  24  39  74 105 159 184 231 291 364 438
#     4  12  28  52  78  98 138 198 250 302 356 423
#     4  11  26  44  71 113 148 186 246 298 361 422
#     4  10  22  41  71 106 153 190 226 279 359 447
#     4  10  23  45  70 104 144 186 244 283 354 435
#
# _framework density 26.103525000000001
#
# number of rings (size 3 to 8) (size 9 to 14) (size 15 to 20)
#    1.000    0.333    1.667    3.000    4.667    1.333 
#    0.000    1.667    0.000    0.000    0.000    0.000 
#    0.000    0.000    0.000    0.000    0.000    0.000 
#
# Total GULP energy -66968.682036 kJ/mol
# GULP energy per Si atom -5580.723503 kJ/mol
# Density = 2.604411 g / cm^3
# Si number density = 26.103525 Si / 1000 Ang^3
#
#
#
# Elastic Constant Matrix: (Units=GPa)
#
#
# Indices 1 2 3 4 5 6 
#
# 1 67.9937 22.7811 52.7560 -18.4444 -20.1359 0.0698
# 2 22.7811 118.2814 44.8667 -13.4812 -9.4187 -4.6487
# 3 52.7560 44.8667 201.1019 -42.1362 -27.2502 -10.2711
# 4 -18.4444 -13.4812 -42.1362 50.6996 -2.7480 -1.0896
# 5 -20.1359 -9.4187 -27.2502 -2.7480 49.6292 -10.0398
# 6 0.0698 -4.6487 -10.2711 -1.0896 -10.0398 37.8410
#
#
#
# Elastic Compliance Matrix: (Units=1/GPa)
#
#
# Indices 1 2 3 4 5 6 
#
# 1 0.021139 -0.001724 -0.003107 0.005049 0.007008 0.000911
# 2 -0.001724 0.009482 -0.001361 0.000816 0.000596 0.000980
# 3 -0.003107 -0.001361 0.007870 0.005317 0.003727 0.003116
# 4 0.005049 0.000816 0.005317 0.026694 0.007468 0.004284
# 5 0.007008 0.000596 0.003727 0.007468 0.027291 0.008528
# 6 0.000911 0.000980 0.003116 0.004284 0.008528 0.029777
#
#
# Mechanical properties :
#
#
# Convention : Reuss Voigt Hill
#
# Bulk Modulus (GPa) = 38.30425 69.79827 54.05126
# Shear Modulus (GPa) = 34.88241 45.43218 40.15730
#
# Velocity S-wave (km/s) = 3.65952 4.17641 3.92648
# Velocity P-wave (km/s) = 5.70631 7.07486 6.42711
#
# Compressibility (1/GPa) = 0.02610677
#
# Stress axis : x y z
#
# Youngs Moduli (GPa) = 47.30483 105.46509 127.06981
#
# Poissons Ratio (x) = 0.18178 0.39481
# Poissons Ratio (y) = 0.08154 0.17300
# Poissons Ratio (z) = 0.14698 0.14359
#
# Static dielectric constant tensor:
#      x y z
#    x 2.174140 0.088860 -0.113700 
#    y 0.088860 1.977790 -0.052560 
#    z -0.113700 -0.052560 2.059170 
# 
# From -- ./inp_files/253646.got.cif
#   From: 2010.05.17/outbox.cif.g08.bks.cpg/sg2_127_cif.got.tgz:253646.got - 2010.06.03 11:33:40.
