data_PCOD9028403
_publ_section_title
;
Structure prediction by ZEFSAII (Michael W. Deem and Ramdas Pophale) SiO2 
 PCOD9028403
Probable space group: P -1
;
_chemical_formula_sum "Si O2"
_cell_formula_units_Z 15
_cell_length_a 6.278151
_cell_length_b 10.715528
_cell_length_c 17.503554
_cell_angle_alpha 135.711297
_cell_angle_beta 122.577552
_cell_angle_gamma 78.286966
_cell_volume 658.730948
_symmetry_space_group_name_H-M "P -1"
_symmetry_group_IT_number 2
_symmetry_cell_setting 'triclinic'
loop_
_space_group_symop_operation_xyz
x,y,z
-x,-y,-z
loop_
_atom_site_type_symbol
_atom_site_label
_atom_site_fract_x
_atom_site_fract_y
_atom_site_fract_z
Si Si1 0.582774 0.047927 0.625779
Si Si2 0.274621 0.655826 0.599152
Si Si3 0.764863 0.566118 0.651940
Si Si4 0.946276 0.576730 0.124555
Si Si5 0.000000 0.000000 0.500000
Si Si6 0.207728 0.423426 0.739681
Si Si7 0.772626 0.680783 0.977989
Si Si8 0.017985 0.911358 0.738481
O O1 0.296699 0.001237 0.588606
O O2 0.765875 0.264752 0.759380
O O3 0.500000 0.000000 0.500000
O O4 0.783237 0.944075 0.654531
O O5 0.519305 0.606261 0.664293
O O6 0.324095 0.610953 0.501301
O O7 0.228095 0.848285 0.699299
O O8 0.000000 0.500000 0.500000
O O9 0.978636 0.518057 0.724158
O O10 0.900392 0.747577 0.705430
O O11 0.817890 0.627308 0.197600
O O12 0.781887 0.591986 0.025023
O O13 0.999853 0.377312 0.048864
O O14 0.135183 0.222702 0.596948
O O15 0.486822 0.575369 0.842002
O O16 0.844935 0.899371 0.105105
#
# Coordination Sequence:
#
# PCOD9028403 Si02
#       8
#     2   2   2   2   1   2   2   2
#     4  11  23  39  65  97 128 164 210 264 322 372
#     4   9  21  40  62  91 127 167 209 255 309 377
#     4  10  24  41  63  98 129 167 210 262 321 376
#     4  10  22  42  61  91 128 167 211 261 315 376
#     4  12  26  38  64 104 128 158 206 274 324 376
#     4  12  25  40  66  96 129 164 210 266 323 379
#     4  10  23  43  64  89 127 172 215 260 310 380
#     4  10  24  43  66  92 129 175 215 256 314 379
#
# _framework density 22.771056000000002
#
# number of rings (size 3 to 8) (size 9 to 14) (size 15 to 20)
#    0.000    1.600    2.667    0.400    7.467    3.733 
#    0.000    1.333    0.000    0.000    0.000    0.000 
#    0.000    0.000    0.000    0.000    0.000    0.000 
#
# Total GULP energy -83502.279514 kJ/mol
# GULP energy per Si atom -5566.818634 kJ/mol
# Density = 2.271923 g / cm^3
# Si number density = 22.771056 Si / 1000 Ang^3
#
#
#
# Elastic Constant Matrix: (Units=GPa)
#
#
# Indices 1 2 3 4 5 6 
#
# 1 64.8840 22.3589 26.9910 10.8823 6.0934 -23.7043
# 2 22.3589 95.6343 39.8398 11.2821 1.2200 -32.6988
# 3 26.9910 39.8398 122.2980 22.5477 13.9466 -13.2155
# 4 10.8823 11.2821 22.5477 40.8463 -9.9563 -4.3617
# 5 6.0934 1.2200 13.9466 -9.9563 35.1924 -7.1874
# 6 -23.7043 -32.6988 -13.2155 -4.3617 -7.1874 41.8265
#
#
#
# Elastic Compliance Matrix: (Units=1/GPa)
#
#
# Indices 1 2 3 4 5 6 
#
# 1 0.021080 0.000339 -0.002848 -0.003300 -0.001271 0.010749
# 2 0.000339 0.016381 -0.004528 0.000087 0.003686 0.012210
# 3 -0.002848 -0.004528 0.011876 -0.006483 -0.006545 -0.003202
# 4 -0.003300 0.000087 -0.006483 0.032159 0.012576 0.001664
# 5 -0.001271 0.003686 -0.006545 0.012576 0.036217 0.007628
# 6 0.010749 0.012210 -0.003202 0.001664 0.007628 0.040018
#
#
# Mechanical properties :
#
#
# Convention : Reuss Voigt Hill
#
# Bulk Modulus (GPa) = 28.35855 51.24396 39.80126
# Shear Modulus (GPa) = 27.23908 36.48147 31.86028
#
# Velocity S-wave (km/s) = 3.46239 4.00696 3.74459
# Velocity P-wave (km/s) = 5.33526 6.63027 6.01770
#
# Compressibility (1/GPa) = 0.03526273
#
# Stress axis : x y z
#
# Youngs Moduli (GPa) = 47.43862 61.04559 84.20385
#
# Poissons Ratio (x) = -0.02068 0.23979
# Poissons Ratio (y) = -0.01607 0.38128
# Poissons Ratio (z) = 0.13509 0.27642
#
# Static dielectric constant tensor:
#      x y z
#    x 1.927290 -0.026010 -0.023860 
#    y -0.026010 1.899360 -0.025670 
#    z -0.023860 -0.025670 1.860410 
# 
# From -- ./inp_files/583129.got.cif
#   From: 2010.05.17/outbox.cif.g08.bks.cpg/sg2_292_cif.got.tgz:583129.got - 2010.06.03 11:33:40.
