data_PCOD9028798
_publ_section_title
;
Structure prediction by ZEFSAII (Michael W. Deem and Ramdas Pophale) SiO2 
 PCOD9028798
Probable space group: P -1
;
_chemical_formula_sum "Si O2"
_cell_formula_units_Z 13
_cell_length_a 22.314540
_cell_length_b 5.435439
_cell_length_c 12.858430
_cell_angle_alpha 72.934787
_cell_angle_beta 157.621294
_cell_angle_gamma 116.317728
_cell_volume 500.259604
_symmetry_space_group_name_H-M "P -1"
_symmetry_group_IT_number 2
_symmetry_cell_setting 'triclinic'
loop_
_space_group_symop_operation_xyz
x,y,z
-x,-y,-z
loop_
_atom_site_type_symbol
_atom_site_label
_atom_site_fract_x
_atom_site_fract_y
_atom_site_fract_z
Si Si1 0.324124 0.845575 0.306943
Si Si2 0.816502 0.834642 0.092931
Si Si3 0.799705 0.015367 0.282356
Si Si4 0.500000 0.500000 0.000000
Si Si5 0.022283 0.310536 0.962541
Si Si6 0.463786 0.745569 0.224002
Si Si7 0.652197 0.110418 0.319567
O O1 0.500000 0.000000 0.500000
O O2 0.399319 0.989532 0.520107
O O3 0.212358 0.502075 0.188027
O O4 0.187701 0.939081 0.023558
O O5 0.806052 0.922866 0.184686
O O6 0.631424 0.537401 0.823996
O O7 0.996884 0.812625 0.374492
O O8 0.685431 0.736828 0.206095
O O9 0.699265 0.209366 0.088298
O O10 0.613601 0.366886 0.265512
O O11 0.861655 0.242122 0.631705
O O12 0.000000 0.500000 0.000000
O O13 0.000000 0.000000 0.000000
O O14 0.582804 0.800678 0.306287
O O15 0.500000 0.000000 0.000000
#
# Coordination Sequence:
#
# PCOD9028798 Si02
#       7
#     2   2   2   1   2   2   2
#     4  12  26  47  73 109 150 207 258 323 399 475
#     4  11  23  41  70  99 145 188 250 309 389 459
#     4  10  22  42  65 101 140 188 250 313 383 456
#     4  10  22  42  70  98 152 186 268 312 398 450
#     4  12  30  54  82 117 165 214 272 333 406 483
#     4  11  23  43  71 101 146 194 257 317 397 463
#     4  11  25  45  76 110 148 207 263 329 395 471
#
# _framework density 25.986508000000001
#
# number of rings (size 3 to 8) (size 9 to 14) (size 15 to 20)
#    0.000    0.923    3.077    2.769    4.308    2.462 
#    5.538    0.000    0.000    0.000    0.000    0.000 
#    0.000    0.000    0.000    0.000    0.000    0.000 
#
# Total GULP energy -72413.385355 kJ/mol
# GULP energy per Si atom -5570.260412 kJ/mol
# Density = 2.592736 g / cm^3
# Si number density = 25.986508 Si / 1000 Ang^3
#
#
#
# Elastic Constant Matrix: (Units=GPa)
#
#
# Indices 1 2 3 4 5 6 
#
# 1 30.0935 17.9264 17.7139 -15.2529 -4.4590 0.6872
# 2 17.9264 150.0361 39.8236 6.6693 1.2066 29.7001
# 3 17.7139 39.8236 159.3535 9.3744 8.1404 9.2868
# 4 -15.2529 6.6693 9.3744 35.5884 6.2260 3.6419
# 5 -4.4590 1.2066 8.1404 6.2260 32.2241 -1.2392
# 6 0.6872 29.7001 9.2868 3.6419 -1.2392 43.1762
#
#
#
# Elastic Compliance Matrix: (Units=1/GPa)
#
#
# Indices 1 2 3 4 5 6 
#
# 1 0.054052 -0.006540 -0.006251 0.024925 0.004604 0.003013
# 2 -0.006540 0.008965 -0.000952 -0.003570 -0.000525 -0.005572
# 3 -0.006251 -0.000952 0.007584 -0.004092 -0.001977 -0.000589
# 4 0.024925 -0.003570 -0.004092 0.041182 -0.003364 -0.000631
# 5 0.004604 -0.000525 -0.001977 -0.003364 0.032913 0.001941
# 6 0.003013 -0.005572 -0.000589 -0.000631 0.001941 0.027181
#
#
# Mechanical properties :
#
#
# Convention : Reuss Voigt Hill
#
# Bulk Modulus (GPa) = 23.19397 54.49011 38.84204
# Shear Modulus (GPa) = 23.39339 39.79903 31.59621
#
# Velocity S-wave (km/s) = 3.00361 3.91772 3.49072
# Velocity P-wave (km/s) = 4.57970 6.44041 5.58804
#
# Compressibility (1/GPa) = 0.04311466
#
# Stress axis : x y z
#
# Youngs Moduli (GPa) = 18.50076 111.54410 131.85396
#
# Poissons Ratio (x) = 0.72954 0.82422
# Poissons Ratio (y) = 0.12100 0.12550
# Poissons Ratio (z) = 0.11565 0.10617
#
# Static dielectric constant tensor:
#      x y z
#    x 2.283450 -0.070830 -0.020910 
#    y -0.070830 2.173760 0.091650 
#    z -0.020910 0.091650 1.965820 
# 
# From -- ./inp_files/543554.got.cif
#   From: 2010.05.17/outbox.cif.g08.bks.cpg/sg2_272_cif.got.tgz:543554.got - 2010.06.03 11:33:40.
