data_PCOD9028626
_publ_section_title
;
Structure prediction by ZEFSAII (Michael W. Deem and Ramdas Pophale) SiO2 
 PCOD9028626
Probable space group: P -1
;
_chemical_formula_sum "Si O2"
_cell_formula_units_Z 13
_cell_length_a 28.122252
_cell_length_b 28.552164
_cell_length_c 12.594304
_cell_angle_alpha 18.260196
_cell_angle_beta 161.243938
_cell_angle_gamma 169.991442
_cell_volume 537.819065
_symmetry_space_group_name_H-M "P -1"
_symmetry_group_IT_number 2
_symmetry_cell_setting 'triclinic'
loop_
_space_group_symop_operation_xyz
x,y,z
-x,-y,-z
loop_
_atom_site_type_symbol
_atom_site_label
_atom_site_fract_x
_atom_site_fract_y
_atom_site_fract_z
Si Si1 0.903667 0.286522 0.677998
Si Si2 0.124097 0.449030 0.333488
Si Si3 0.500000 0.500000 0.500000
Si Si4 0.661764 0.845070 0.739996
Si Si5 0.505976 0.790784 0.763399
Si Si6 0.827360 0.660898 0.542099
Si Si7 0.704401 0.863366 0.330474
O O1 0.000000 0.500000 0.500000
O O2 0.183527 0.503224 0.734932
O O3 0.649034 0.057575 0.548138
O O4 0.816664 0.088444 0.006938
O O5 0.447850 0.714565 0.478325
O O6 0.090157 0.384899 0.275526
O O7 0.960224 0.175025 0.636459
O O8 0.000000 0.500000 0.000000
O O9 0.682014 0.700285 0.560053
O O10 0.360746 0.240316 0.831141
O O11 0.554787 0.819566 0.680422
O O12 0.677465 0.678998 0.137173
O O13 0.614908 0.399168 0.738216
O O14 0.090894 0.955291 0.527659
#
# Coordination Sequence:
#
# PCOD9028626 Si02
#       7
#     2   2   1   2   2   2   2
#     4  11  25  42  61 100 145 188 226 281 347 426
#     4  12  28  49  73 103 143 188 240 301 363 433
#     4  10  22  42  64 106 140 168 232 274 350 396
#     4  12  25  47  73 106 137 188 238 303 358 423
#     4  11  24  40  71  97 137 183 228 285 342 420
#     4  12  25  46  73 109 137 189 240 302 362 419
#     4  11  24  41  72 103 144 186 234 292 350 423
#
# _framework density 24.171697999999999
#
# number of rings (size 3 to 8) (size 9 to 14) (size 15 to 20)
#    0.000    0.615    1.538    6.462    2.154    5.538 
#    0.000    0.000    0.000    0.000    0.000    0.000 
#    0.000    0.000    0.000    0.000    0.000    0.000 
#
# Total GULP energy -72479.582226 kJ/mol
# GULP energy per Si atom -5575.352479 kJ/mol
# Density = 2.411668 g / cm^3
# Si number density = 24.171698 Si / 1000 Ang^3
#
#
#
# Elastic Constant Matrix: (Units=GPa)
#
#
# Indices 1 2 3 4 5 6 
#
# 1 226.6044 44.0097 30.4211 -26.3832 37.9284 -13.0160
# 2 44.0097 125.9066 19.3228 -24.6595 10.2170 -15.2791
# 3 30.4211 19.3228 39.9150 -31.7225 26.4611 -19.5023
# 4 -26.3832 -24.6595 -31.7225 39.6263 -10.6794 -8.2210
# 5 37.9284 10.2170 26.4611 -10.6794 36.0974 -9.1737
# 6 -13.0160 -15.2791 -19.5023 -8.2210 -9.1737 63.7944
#
#
#
# Elastic Compliance Matrix: (Units=1/GPa)
#
#
# Indices 1 2 3 4 5 6 
#
# 1 0.005019 -0.002333 -0.014979 -0.010677 0.001882 -0.005219
# 2 -0.002333 0.008022 -0.024380 -0.013993 0.012380 -0.006031
# 3 -0.014979 -0.024380 -0.320462 -0.266625 0.148199 -0.119910
# 4 -0.010677 -0.013993 -0.266625 -0.187695 0.131643 -0.092296
# 5 0.001882 0.012380 0.148199 0.131643 -0.031961 0.061023
# 6 -0.005219 -0.006031 -0.119910 -0.092296 0.061023 -0.026610
#
#
# Mechanical properties :
#
#
# Convention : Reuss Voigt Hill
#
# Bulk Modulus (GPa) = -2.55882 64.43701 30.93910
# Shear Modulus (GPa) = -8.32541 47.81512 19.74485
#
# Velocity S-wave (km/s) = -1.85789 4.45246 2.86117
# Velocity P-wave (km/s) = 2.37976 7.29030 4.87264
#
# Compressibility (1/GPa) = -0.39080537
#
# Stress axis : x y z
#
# Youngs Moduli (GPa) = 199.24016 124.65106 -3.12049
#
# Poissons Ratio (x) = 0.29078 -0.04674
# Poissons Ratio (y) = 0.46478 -0.07608
# Poissons Ratio (z) = 2.98446 3.03902
#
# Static dielectric constant tensor:
#      x y z
#    x 1.891920 0.016740 0.038850 
#    y 0.016740 1.906060 0.048380 
#    z 0.038850 0.048380 2.039050 
# 
# From -- ./inp_files/384993.got.cif
#   From: 2010.05.17/outbox.cif.g08.bks.cpg/sg2_193_cif.got.tgz:384993.got - 2010.06.03 11:33:40.
