data_PCOD9028354
_publ_section_title
;
Structure prediction by ZEFSAII (Michael W. Deem and Ramdas Pophale) SiO2 
 PCOD9028354
Probable space group: P -1
;
_chemical_formula_sum "Si O2"
_cell_formula_units_Z 16
_cell_length_a 14.439755
_cell_length_b 8.977258
_cell_length_c 14.420712
_cell_angle_alpha 80.647120
_cell_angle_beta 147.848378
_cell_angle_gamma 79.178996
_cell_volume 770.468217
_symmetry_space_group_name_H-M "P -1"
_symmetry_group_IT_number 2
_symmetry_cell_setting 'triclinic'
loop_
_space_group_symop_operation_xyz
x,y,z
-x,-y,-z
loop_
_atom_site_type_symbol
_atom_site_label
_atom_site_fract_x
_atom_site_fract_y
_atom_site_fract_z
Si Si1 0.905955 0.374948 0.223586
Si Si2 0.254783 0.191870 0.261486
Si Si3 0.968235 0.068248 0.073635
Si Si4 0.414563 0.657217 0.148395
Si Si5 0.227707 0.260111 0.822912
Si Si6 0.156805 0.703892 0.398152
Si Si7 0.646583 0.848093 0.272048
Si Si8 0.966899 0.461071 0.838159
O O1 0.807648 0.546966 0.197489
O O2 0.155550 0.209470 0.486451
O O3 0.924942 0.465600 0.137976
O O4 0.759755 0.308508 0.080196
O O5 0.200170 0.379952 0.244468
O O6 0.101167 0.151462 0.183694
O O7 0.500000 0.000000 0.500000
O O8 0.162505 0.261346 0.072538
O O9 0.720908 0.234998 0.883049
O O10 0.071034 0.896681 0.252495
O O11 0.000000 0.000000 0.000000
O O12 0.599278 0.427231 0.338911
O O13 0.540831 0.743431 0.220143
O O14 0.254583 0.225267 0.739758
O O15 0.024007 0.267479 0.687048
O O16 0.449087 0.074945 0.076584
O O17 0.167732 0.571821 0.340875
#
# Coordination Sequence:
#
# PCOD9028354 Si02
#       8
#     2   2   2   2   2   2   2   2
#     4  11  24  42  67  99 137 171 221 271 333 395
#     4  11  25  40  64  90 130 175 221 278 332 386
#     4  12  26  43  62  98 128 172 230 268 331 392
#     4  12  26  43  68 100 136 177 221 275 331 398
#     4  10  23  45  70 102 131 177 220 269 342 397
#     4  11  24  42  68  93 134 175 220 274 329 396
#     4  11  23  46  73  97 138 173 219 278 332 402
#     4  10  22  42  59  94 126 169 224 265 324 397
#
# _framework density 20.766590999999998
#
# number of rings (size 3 to 8) (size 9 to 14) (size 15 to 20)
#    0.000    1.000    6.250    0.375    3.500    4.000 
#    0.000    1.250    0.000    0.000    0.000    0.000 
#    0.000    0.000    0.000    0.000    0.000    0.000 
#
# Total GULP energy -89373.795482 kJ/mol
# GULP energy per Si atom -5585.862218 kJ/mol
# Density = 2.071933 g / cm^3
# Si number density = 20.766591 Si / 1000 Ang^3
#
#
#
# Elastic Constant Matrix: (Units=GPa)
#
#
# Indices 1 2 3 4 5 6 
#
# 1 91.5414 11.4456 52.4901 -4.3245 5.9042 -1.8507
# 2 11.4456 41.4634 32.9737 -1.1766 4.3906 -1.2330
# 3 52.4901 32.9737 159.0938 -5.0202 13.9491 3.0328
# 4 -4.3245 -1.1766 -5.0202 33.2999 -3.7512 6.0737
# 5 5.9042 4.3906 13.9491 -3.7512 9.0687 -11.9005
# 6 -1.8507 -1.2330 3.0328 6.0737 -11.9005 16.6687
#
#
#
# Elastic Compliance Matrix: (Units=1/GPa)
#
#
# Indices 1 2 3 4 5 6 
#
# 1 0.013492 -0.000079 -0.003546 0.001049 -0.008780 -0.004513
# 2 -0.000079 0.029051 -0.006390 -0.000646 0.003035 0.005705
# 3 -0.003546 -0.006390 -0.000859 -0.002511 0.094348 0.067564
# 4 0.001049 -0.000646 -0.002511 0.031133 0.034431 0.013763
# 5 -0.008780 0.003035 0.094348 0.034431 -0.892634 -0.667754
# 6 -0.004513 0.005705 0.067564 0.013763 -0.667754 -0.434134
#
#
# Mechanical properties :
#
#
# Convention : Reuss Voigt Hill
#
# Bulk Modulus (GPa) = 46.18329 53.99083 50.08706
# Shear Modulus (GPa) = -4.07597 24.82007 10.37205
#
# Velocity S-wave (km/s) = -1.40250 3.46091 2.23728
# Velocity P-wave (km/s) = 4.43450 6.48273 5.55386
#
# Compressibility (1/GPa) = 0.02165285
#
# Stress axis : x y z
#
# Youngs Moduli (GPa) = 74.11913 34.42181 -1163.47477
#
# Poissons Ratio (x) = 0.00272 -4.12571
# Poissons Ratio (y) = 0.00586 -7.43500
# Poissons Ratio (z) = 0.26283 0.21997
#
# Static dielectric constant tensor:
#      x y z
#    x 1.741950 -0.019000 -0.018750 
#    y -0.019000 1.793440 -0.016140 
#    z -0.018750 -0.016140 1.793370 
# 
# From -- ./inp_files/529707.got.cif
#   From: 2010.05.17/outbox.cif.g08.bks.cpg/sg2_265_cif.got.tgz:529707.got - 2010.06.03 11:33:40.
