data_PCOD9028399
_publ_section_title
;
Structure prediction by ZEFSAII (Michael W. Deem and Ramdas Pophale) SiO2 
 PCOD9028399
Probable space group: P -1
;
_chemical_formula_sum "Si O2"
_cell_formula_units_Z 16
_cell_length_a 8.552446
_cell_length_b 9.186611
_cell_length_c 18.895474
_cell_angle_alpha 55.401254
_cell_angle_beta 44.522340
_cell_angle_gamma 52.869421
_cell_volume 804.447960
_symmetry_space_group_name_H-M "P -1"
_symmetry_group_IT_number 2
_symmetry_cell_setting 'triclinic'
loop_
_space_group_symop_operation_xyz
x,y,z
-x,-y,-z
loop_
_atom_site_type_symbol
_atom_site_label
_atom_site_fract_x
_atom_site_fract_y
_atom_site_fract_z
Si Si1 0.475186 0.486048 0.699838
Si Si2 0.536292 0.901730 0.232239
Si Si3 0.971024 0.528227 0.917047
Si Si4 0.499306 0.118661 0.037646
Si Si5 0.054908 0.807990 0.078954
Si Si6 0.089537 0.470053 0.398756
Si Si7 0.240266 0.045734 0.415873
Si Si8 0.431705 0.345693 0.518845
O O1 0.534334 0.283491 0.699553
O O2 0.678182 0.471488 0.695786
O O3 0.492020 0.627989 0.593648
O O4 0.217106 0.535722 0.803699
O O5 0.356070 0.048894 0.301093
O O6 0.807238 0.837081 0.190636
O O7 0.531052 0.984687 0.132735
O O8 0.751864 0.716377 0.921916
O O9 0.916494 0.360137 0.939517
O O10 0.000000 0.500000 0.000000
O O11 0.712185 0.205510 0.947818
O O12 0.500000 0.000000 0.000000
O O13 0.000000 0.000000 0.000000
O O14 0.000000 0.500000 0.500000
O O15 0.853650 0.591109 0.399835
O O16 0.173028 0.249550 0.415639
O O17 0.429982 0.867106 0.442987
O O18 0.000000 0.000000 0.500000
O O19 0.500000 0.500000 0.500000
#
# Coordination Sequence:
#
# PCOD9028399 Si02
#       8
#     2   2   2   2   2   2   2   2
#     4  10  22  42  61  90 129 163 205 270 313 377
#     4  10  22  42  63  92 125 166 212 259 317 385
#     4  11  23  41  64  92 128 167 210 264 323 380
#     4  11  23  41  65  95 127 166 209 266 325 385
#     4   9  20  41  66  89 126 161 212 261 317 384
#     4  10  23  42  62  94 132 165 216 267 317 379
#     4  12  23  39  69  93 128 172 214 264 316 383
#     4  11  21  42  66  92 126 170 215 257 323 374
#
# _framework density 19.889416000000001
#
# number of rings (size 3 to 8) (size 9 to 14) (size 15 to 20)
#    0.000    1.500    2.500    3.375    1.750    5.000 
#    6.750    0.000    0.000    0.000    0.000    0.000 
#    0.000    0.000    0.000    0.000    0.000    0.000 
#
# Total GULP energy -89323.285510 kJ/mol
# GULP energy per Si atom -5582.705344 kJ/mol
# Density = 1.984415 g / cm^3
# Si number density = 19.889416 Si / 1000 Ang^3
#
#
#
# Elastic Constant Matrix: (Units=GPa)
#
#
# Indices 1 2 3 4 5 6 
#
# 1 132.0633 54.3441 62.3142 13.4153 -30.0095 0.2767
# 2 54.3441 139.8156 44.6481 24.3386 -16.1168 2.6751
# 3 62.3142 44.6481 85.7112 15.5617 -3.2504 12.4394
# 4 13.4153 24.3386 15.5617 35.0833 -0.6208 5.5297
# 5 -30.0095 -16.1168 -3.2504 -0.6208 44.6719 -2.5079
# 6 0.2767 2.6751 12.4394 5.5297 -2.5079 41.8037
#
#
#
# Elastic Compliance Matrix: (Units=1/GPa)
#
#
# Indices 1 2 3 4 5 6 
#
# 1 0.015201 -0.001524 -0.010342 -0.000590 0.009109 0.003699
# 2 -0.001524 0.009882 -0.003211 -0.004986 0.002302 0.001131
# 3 -0.010342 -0.003211 0.022007 -0.002703 -0.006898 -0.006331
# 4 -0.000590 -0.004986 -0.002703 0.033899 -0.002116 -0.003484
# 5 0.009109 0.002302 -0.006898 -0.002116 0.029021 0.003866
# 6 0.003699 0.001131 -0.006331 -0.003484 0.003866 0.026401
#
#
# Mechanical properties :
#
#
# Convention : Reuss Voigt Hill
#
# Bulk Modulus (GPa) = 59.04842 75.57810 67.31326
# Shear Modulus (GPa) = 29.03438 37.39736 33.21587
#
# Velocity S-wave (km/s) = 3.82487 4.34091 4.09103
# Velocity P-wave (km/s) = 7.01847 7.95024 7.49884
#
# Compressibility (1/GPa) = 0.01693526
#
# Stress axis : x y z
#
# Youngs Moduli (GPa) = 65.78429 101.19757 45.44055
#
# Poissons Ratio (x) = 0.15422 0.46995
# Poissons Ratio (y) = 0.10025 0.14592
# Poissons Ratio (z) = 0.68035 0.32496
#
# Static dielectric constant tensor:
#      x y z
#    x 1.815520 0.002830 0.086680 
#    y 0.002830 1.687600 0.023430 
#    z 0.086680 0.023430 1.863350 
# 
# From -- ./inp_files/587294.got.cif
#   From: 2010.05.17/outbox.cif.g08.bks.cpg/sg2_294_cif.got.tgz:587294.got - 2010.06.03 11:33:40.
