data_PCOD9028317
_publ_section_title
;
Structure prediction by ZEFSAII (Michael W. Deem and Ramdas Pophale) SiO2 
 PCOD9028317
Probable space group: P -1
;
_chemical_formula_sum "Si O2"
_cell_formula_units_Z 16
_cell_length_a 7.933935
_cell_length_b 14.648387
_cell_length_c 11.596486
_cell_angle_alpha 63.152975
_cell_angle_beta 54.812621
_cell_angle_gamma 105.453937
_cell_volume 679.624201
_symmetry_space_group_name_H-M "P -1"
_symmetry_group_IT_number 2
_symmetry_cell_setting 'triclinic'
loop_
_space_group_symop_operation_xyz
x,y,z
-x,-y,-z
loop_
_atom_site_type_symbol
_atom_site_label
_atom_site_fract_x
_atom_site_fract_y
_atom_site_fract_z
Si Si1 0.930018 0.264982 0.337501
Si Si2 0.244381 0.400979 0.755825
Si Si3 0.217124 0.651286 0.174386
Si Si4 0.910062 0.902562 0.702818
Si Si5 0.861883 0.325037 0.565406
Si Si6 0.645103 0.819104 0.483722
Si Si7 0.778073 0.824409 0.180442
Si Si8 0.285993 0.531091 0.896559
O O1 0.902299 0.254105 0.492839
O O2 0.632737 0.209586 0.431011
O O3 0.981825 0.173616 0.316611
O O4 0.199822 0.436963 0.096519
O O5 0.500000 0.500000 0.500000
O O6 0.121607 0.241321 0.887688
O O7 0.336529 0.468146 0.808829
O O8 0.987131 0.387030 0.828212
O O9 0.141884 0.699463 0.284250
O O10 0.107283 0.500545 0.344600
O O11 0.559728 0.778164 0.935580
O O12 0.000000 0.000000 0.500000
O O13 0.083542 0.014954 0.677334
O O14 0.536874 0.256988 0.705184
O O15 0.717209 0.779127 0.364739
O O16 0.549866 0.707517 0.686384
O O17 0.000000 0.000000 0.000000
O O18 0.000000 0.500000 0.000000
#
# Coordination Sequence:
#
# PCOD9028317 Si02
#       8
#     2   2   2   2   2   2   2   2
#     4  10  24  45  74  98 131 193 238 281 346 424
#     4  12  23  44  75 102 130 189 240 279 351 410
#     4  11  25  44  70 102 146 180 227 294 346 424
#     4  12  29  44  65 106 150 187 224 294 364 411
#     4  10  23  46  70 102 140 177 238 288 349 411
#     4  10  22  45  68  98 139 178 237 290 337 416
#     4  11  23  41  72 103 135 177 238 291 338 414
#     4  10  22  41  76 102 134 176 246 292 331 415
#
# _framework density 23.542421000000001
#
# number of rings (size 3 to 8) (size 9 to 14) (size 15 to 20)
#    0.000    1.250    2.500    2.625    8.750    3.500 
#    0.000    1.875    0.000    0.000    0.000    0.000 
#    0.000    0.000    0.000    0.000    0.000    0.000 
#
# Total GULP energy -89596.049814 kJ/mol
# GULP energy per Si atom -5599.753113 kJ/mol
# Density = 2.348884 g / cm^3
# Si number density = 23.542421 Si / 1000 Ang^3
#
#
#
# Elastic Constant Matrix: (Units=GPa)
#
#
# Indices 1 2 3 4 5 6 
#
# 1 47.7689 22.2655 17.2063 0.9781 -13.7777 2.8894
# 2 22.2655 118.4440 33.7560 7.2646 -7.6475 -7.1688
# 3 17.2063 33.7560 107.4760 -12.5928 -17.5392 5.0335
# 4 0.9781 7.2646 -12.5928 41.8226 4.6440 3.2075
# 5 -13.7777 -7.6475 -17.5392 4.6440 29.2641 -0.3116
# 6 2.8894 -7.1688 5.0335 3.2075 -0.3116 38.0090
#
#
#
# Elastic Compliance Matrix: (Units=1/GPa)
#
#
# Indices 1 2 3 4 5 6 
#
# 1 0.026565 -0.003994 -0.001265 -0.001333 0.010891 -0.002403
# 2 -0.003994 0.010418 -0.003199 -0.002838 -0.000594 0.002927
# 3 -0.001265 -0.003199 0.011893 0.003784 0.005071 -0.002360
# 4 -0.001333 -0.002838 0.003784 0.026183 -0.003290 -0.003172
# 5 0.010891 -0.000594 0.005071 -0.003290 0.042695 -0.000984
# 6 -0.002403 0.002927 -0.002360 -0.003172 -0.000984 0.027616
#
#
# Mechanical properties :
#
#
# Convention : Reuss Voigt Hill
#
# Bulk Modulus (GPa) = 31.28830 46.68272 38.98551
# Shear Modulus (GPa) = 28.91170 35.18322 32.04746
#
# Velocity S-wave (km/s) = 3.50818 3.87002 3.69353
# Velocity P-wave (km/s) = 5.45241 6.31202 5.89790
#
# Compressibility (1/GPa) = 0.03196083
#
# Stress axis : x y z
#
# Youngs Moduli (GPa) = 37.64306 95.98550 84.08189
#
# Poissons Ratio (x) = 0.38335 0.10635
# Poissons Ratio (y) = 0.15034 0.26900
# Poissons Ratio (z) = 0.04761 0.30708
#
# Static dielectric constant tensor:
#      x y z
#    x 1.878640 0.012300 0.024050 
#    y 0.012300 1.880510 0.025050 
#    z 0.024050 0.025050 1.926870 
# 
# From -- ./inp_files/398910.got.cif
#   From: 2010.05.17/outbox.cif.g08.bks.cpg/sg2_200_cif.got.tgz:398910.got - 2010.06.03 11:33:40.
