data_PCOD9028383
_publ_section_title
;
Structure prediction by ZEFSAII (Michael W. Deem and Ramdas Pophale) SiO2 
 PCOD9028383
Probable space group: P -1
;
_chemical_formula_sum "Si O2"
_cell_formula_units_Z 14
_cell_length_a 6.451295
_cell_length_b 16.243459
_cell_length_c 6.291648
_cell_angle_alpha 101.353493
_cell_angle_beta 76.298969
_cell_angle_gamma 83.027243
_cell_volume 618.166790
_symmetry_space_group_name_H-M "P -1"
_symmetry_group_IT_number 2
_symmetry_cell_setting 'triclinic'
loop_
_space_group_symop_operation_xyz
x,y,z
-x,-y,-z
loop_
_atom_site_type_symbol
_atom_site_label
_atom_site_fract_x
_atom_site_fract_y
_atom_site_fract_z
Si Si1 0.412669 0.323684 0.158931
Si Si2 0.024556 0.462948 0.223327
Si Si3 0.374001 0.026594 0.832353
Si Si4 0.161794 0.740552 0.255452
Si Si5 0.248273 0.670434 0.628429
Si Si6 0.793084 0.070599 0.511835
Si Si7 0.900621 0.793550 0.967637
O O1 0.623188 0.291325 0.949862
O O2 0.266877 0.250987 0.145479
O O3 0.265917 0.407866 0.146314
O O4 0.500875 0.338675 0.380141
O O5 0.000000 0.500000 0.500000
O O6 0.851312 0.398919 0.249641
O O7 0.000000 0.500000 0.000000
O O8 0.566868 0.055891 0.664168
O O9 0.186377 0.107827 0.945843
O O10 0.261419 0.951751 0.727004
O O11 0.500000 0.000000 0.000000
O O12 0.177478 0.671659 0.403245
O O13 0.171362 0.835372 0.388713
O O14 0.946608 0.752717 0.170079
O O15 0.129084 0.763537 0.783765
O O16 0.000000 0.000000 0.500000
#
# Coordination Sequence:
#
# PCOD9028383 Si02
#       7
#     2   2   2   2   2   2   2
#     4  10  24  45  69 100 138 176 230 273 354 417
#     4  11  28  50  77 109 149 182 228 292 358 432
#     4  11  25  39  60  90 133 180 235 291 351 402
#     4  11  23  42  69  94 139 177 235 288 345 421
#     4  10  26  42  72 102 128 187 225 280 353 426
#     4  11  24  41  59  95 130 180 233 290 342 401
#     4  10  22  42  60  95 136 176 232 291 344 418
#
# _framework density 22.647608000000002
#
# number of rings (size 3 to 8) (size 9 to 14) (size 15 to 20)
#    0.000    1.429    2.857    0.000   12.000    2.857 
#    0.000    0.000    0.000    0.000    0.000    0.000 
#    0.000    0.000    0.000    0.000    0.000    0.000 
#
# Total GULP energy -77992.383563 kJ/mol
# GULP energy per Si atom -5570.884540 kJ/mol
# Density = 2.259606 g / cm^3
# Si number density = 22.647608 Si / 1000 Ang^3
#
#
#
# Elastic Constant Matrix: (Units=GPa)
#
#
# Indices 1 2 3 4 5 6 
#
# 1 93.6049 22.0659 16.4628 1.8517 30.4779 -10.3304
# 2 22.0659 70.7468 36.4780 3.4318 5.5014 -4.0729
# 3 16.4628 36.4780 75.7699 -2.8593 27.0213 -9.9983
# 4 1.8517 3.4318 -2.8593 37.3397 -6.9569 -2.0444
# 5 30.4779 5.5014 27.0213 -6.9569 42.3643 2.3589
# 6 -10.3304 -4.0729 -9.9983 -2.0444 2.3589 35.1056
#
#
#
# Elastic Compliance Matrix: (Units=1/GPa)
#
#
# Indices 1 2 3 4 5 6 
#
# 1 0.017330 -0.006787 0.006148 -0.002417 -0.016295 0.007017
# 2 -0.006787 0.022272 -0.013667 -0.000973 0.010775 -0.004086
# 3 0.006148 -0.013667 0.026918 -0.000278 -0.020378 0.009243
# 4 -0.002417 -0.000973 -0.000278 0.028226 0.006661 0.000293
# 5 -0.016295 0.010775 -0.020378 0.006661 0.048702 -0.012233
# 6 0.007017 -0.004086 0.009243 0.000293 -0.012233 0.033548
#
#
# Mechanical properties :
#
#
# Convention : Reuss Voigt Hill
#
# Bulk Modulus (GPa) = 26.37848 43.34831 34.86340
# Shear Modulus (GPa) = 22.91022 33.96960 28.43991
#
# Velocity S-wave (km/s) = 3.18401 3.87708 3.54751
# Velocity P-wave (km/s) = 5.01895 6.26293 5.67513
#
# Compressibility (1/GPa) = 0.03790968
#
# Stress axis : x y z
#
# Youngs Moduli (GPa) = 57.70409 44.89844 37.14984
#
# Poissons Ratio (x) = 0.30472 -0.22840
# Poissons Ratio (y) = 0.39163 0.50771
# Poissons Ratio (z) = -0.35477 0.61361
#
# Static dielectric constant tensor:
#      x y z
#    x 1.809010 -0.000330 0.031630 
#    y -0.000330 1.831870 -0.020740 
#    z 0.031630 -0.020740 2.054780 
# 
# From -- ./inp_files/7404.got.cif
#   From: 2010.05.17/outbox.cif.g08.bks.cpg/sg2_4_cif.got.tgz:7404.got - 2010.06.03 11:33:40.
