data_PCOD9028398
_publ_section_title
;
Structure prediction by ZEFSAII (Michael W. Deem and Ramdas Pophale) SiO2 
 PCOD9028398
Probable space group: P -1
;
_chemical_formula_sum "Si O2"
_cell_formula_units_Z 16
_cell_length_a 10.803161
_cell_length_b 12.323992
_cell_length_c 8.421435
_cell_angle_alpha 54.329514
_cell_angle_beta 75.559714
_cell_angle_gamma 45.755776
_cell_volume 628.166842
_symmetry_space_group_name_H-M "P -1"
_symmetry_group_IT_number 2
_symmetry_cell_setting 'triclinic'
loop_
_space_group_symop_operation_xyz
x,y,z
-x,-y,-z
loop_
_atom_site_type_symbol
_atom_site_label
_atom_site_fract_x
_atom_site_fract_y
_atom_site_fract_z
Si Si1 0.887401 0.233114 0.479424
Si Si2 0.882182 0.684785 0.774649
Si Si3 0.834666 0.759479 0.277098
Si Si4 0.650481 0.824973 0.991244
Si Si5 0.203015 0.600197 0.301191
Si Si6 0.180135 0.787571 0.836006
Si Si7 0.600435 0.767905 0.571235
Si Si8 0.393457 0.855950 0.853746
O O1 0.780329 0.333649 0.593800
O O2 0.791726 0.285680 0.291697
O O3 0.012387 0.271849 0.375008
O O4 0.017968 0.012130 0.666684
O O5 0.772741 0.665628 0.715251
O O6 0.729652 0.855624 0.797506
O O7 0.000000 0.500000 0.000000
O O8 0.814070 0.701125 0.166498
O O9 0.664041 0.823826 0.370838
O O10 0.043144 0.610608 0.378861
O O11 0.774377 0.959405 0.153106
O O12 0.564274 0.756638 0.998161
O O13 0.500000 0.000000 0.000000
O O14 0.383281 0.388085 0.381643
O O15 0.140224 0.715865 0.056455
O O16 0.345525 0.746201 0.898514
O O17 0.438449 0.896416 0.636725
#
# Coordination Sequence:
#
# PCOD9028398 Si02
#       8
#     2   2   2   2   2   2   2   2
#     4  11  24  41  68  97 125 170 223 262 316 378
#     4  11  21  39  64  96 129 162 205 271 331 376
#     4  11  20  39  66  95 124 161 215 270 324 378
#     4   9  21  36  60  94 124 163 205 258 322 380
#     4  12  24  42  67  99 127 167 219 274 311 377
#     4  11  24  45  65  92 130 177 219 260 311 380
#     4  11  23  38  63  94 130 161 204 272 337 374
#     4  10  22  42  61  89 132 173 204 258 323 392
#
# _framework density 25.470938
#
# number of rings (size 3 to 8) (size 9 to 14) (size 15 to 20)
#    0.000    1.250    2.500    3.375    1.750    2.500 
#    4.500    0.625    0.000    0.000    0.000    0.000 
#    0.000    0.000    0.000    0.000    0.000    0.000 
#
# Total GULP energy -89157.469144 kJ/mol
# GULP energy per Si atom -5572.341822 kJ/mol
# Density = 2.541296 g / cm^3
# Si number density = 25.470938 Si / 1000 Ang^3
#
#
#
# Elastic Constant Matrix: (Units=GPa)
#
#
# Indices 1 2 3 4 5 6 
#
# 1 92.7549 15.9016 28.6966 22.9517 21.6262 24.6952
# 2 15.9016 135.6905 38.9356 41.1925 10.1953 26.0662
# 3 28.6966 38.9356 128.3588 30.0780 8.6973 25.2443
# 4 22.9517 41.1925 30.0780 39.4535 14.7323 9.6384
# 5 21.6262 10.1953 8.6973 14.7323 44.4876 13.2391
# 6 24.6952 26.0662 25.2443 9.6384 13.2391 32.3715
#
#
#
# Elastic Compliance Matrix: (Units=1/GPa)
#
#
# Indices 1 2 3 4 5 6 
#
# 1 0.015956 0.003188 -0.000093 -0.009016 -0.002183 -0.011090
# 2 0.003188 0.012987 0.000566 -0.014535 0.003252 -0.010333
# 3 -0.000093 0.000566 0.010799 -0.007925 0.002672 -0.007539
# 4 -0.009016 -0.014535 -0.007925 0.053033 -0.012489 0.014080
# 5 -0.002183 0.003252 0.002672 -0.012489 0.029836 -0.011521
# 6 -0.011090 -0.010333 -0.007539 0.014080 -0.011521 0.054070
#
#
# Mechanical properties :
#
#
# Convention : Reuss Voigt Hill
#
# Bulk Modulus (GPa) = 21.24798 58.20796 39.72797
# Shear Modulus (GPa) = 27.02039 41.48055 34.25047
#
# Velocity S-wave (km/s) = 3.26058 4.03990 3.67098
# Velocity P-wave (km/s) = 4.74714 6.68307 5.79649
#
# Compressibility (1/GPa) = 0.04706331
#
# Stress axis : x y z
#
# Youngs Moduli (GPa) = 62.67383 77.00046 92.60524
#
# Poissons Ratio (x) = -0.24548 0.00858
# Poissons Ratio (y) = -0.19981 -0.05239
# Poissons Ratio (z) = 0.00580 -0.04356
#
# Static dielectric constant tensor:
#      x y z
#    x 2.036490 0.028790 0.070030 
#    y 0.028790 2.090860 -0.014700 
#    z 0.070030 -0.014700 2.322500 
# 
# From -- ./inp_files/262018.got.cif
#   From: 2010.05.17/outbox.cif.g08.bks.cpg/sg2_132_cif.got.tgz:262018.got - 2010.06.03 11:33:40.
