data_PCOD9028948
_publ_section_title
;
Structure prediction by ZEFSAII (Michael W. Deem and Ramdas Pophale) SiO2 
 PCOD9028948
Probable space group: P -1
;
_chemical_formula_sum "Si O2"
_cell_formula_units_Z 14
_cell_length_a 14.491188
_cell_length_b 6.550101
_cell_length_c 15.500592
_cell_angle_alpha 56.902644
_cell_angle_beta 150.650741
_cell_angle_gamma 110.796785
_cell_volume 577.331235
_symmetry_space_group_name_H-M "P -1"
_symmetry_group_IT_number 2
_symmetry_cell_setting 'triclinic'
loop_
_space_group_symop_operation_xyz
x,y,z
-x,-y,-z
loop_
_atom_site_type_symbol
_atom_site_label
_atom_site_fract_x
_atom_site_fract_y
_atom_site_fract_z
Si Si1 0.142923 0.633396 0.535335
Si Si2 0.580863 0.857655 0.206603
Si Si3 0.622761 0.711544 0.650829
Si Si4 0.311316 0.392959 0.471300
Si Si5 0.292909 0.693427 0.814479
Si Si6 0.192581 0.202765 0.895820
Si Si7 0.091170 0.216199 0.990173
O O1 0.338407 0.418231 0.710357
O O2 0.187991 0.787084 0.616511
O O3 0.000000 0.500000 0.500000
O O4 0.017284 0.788689 0.318846
O O5 0.666527 0.794988 0.387650
O O6 0.668871 0.051606 0.178803
O O7 0.357634 0.018667 0.011674
O O8 0.481153 0.533579 0.591086
O O9 0.673424 0.697839 0.594253
O O10 0.500000 0.000000 0.500000
O O11 0.803386 0.668538 0.875487
O O12 0.091951 0.581589 0.249666
O O13 0.199116 0.498896 0.831499
O O14 0.500000 0.500000 0.000000
O O15 0.230984 0.108298 0.047217
O O16 0.000000 0.000000 0.000000
#
# Coordination Sequence:
#
# PCOD9028948 Si02
#       7
#     2   2   2   2   2   2   2
#     4  10  22  42  65  96 134 173 227 278 339 411
#     4  11  23  44  70  96 139 177 224 288 341 413
#     4  11  24  45  70  97 142 184 230 297 346 414
#     4  11  25  44  69 105 136 185 238 280 359 415
#     4   9  22  42  68  95 135 174 225 275 346 405
#     4  10  23  43  66 101 134 181 229 280 347 415
#     4  12  24  45  72  99 143 183 235 292 348 416
#
# _framework density 24.249510000000001
#
# number of rings (size 3 to 8) (size 9 to 14) (size 15 to 20)
#    0.000    1.429    2.857    1.286    2.000   12.000 
#    2.571    1.429    0.000    0.000    0.000    0.000 
#    0.000    0.000    0.000    0.000    0.000    0.000 
#
# Total GULP energy -78159.762709 kJ/mol
# GULP energy per Si atom -5582.840194 kJ/mol
# Density = 2.419432 g / cm^3
# Si number density = 24.249510 Si / 1000 Ang^3
#
#
#
# Elastic Constant Matrix: (Units=GPa)
#
#
# Indices 1 2 3 4 5 6 
#
# 1 136.7187 45.1824 19.6123 12.4684 -17.7121 -13.9326
# 2 45.1824 74.5487 30.5275 15.8238 -0.9801 -2.9056
# 3 19.6123 30.5275 116.1601 12.4198 -15.4713 -6.5525
# 4 12.4684 15.8238 12.4198 43.4228 -11.6527 -6.3651
# 5 -17.7121 -0.9801 -15.4713 -11.6527 33.3478 -4.6972
# 6 -13.9326 -2.9056 -6.5525 -6.3651 -4.6972 34.4599
#
#
#
# Elastic Compliance Matrix: (Units=1/GPa)
#
#
# Indices 1 2 3 4 5 6 
#
# 1 0.010865 -0.007165 0.001146 0.001980 0.007544 0.005401
# 2 -0.007165 0.021016 -0.004955 -0.007171 -0.008636 -0.004569
# 3 0.001146 -0.004955 0.010630 0.000476 0.005980 0.002970
# 4 0.001980 -0.007171 0.000476 0.029336 0.012353 0.007389
# 5 0.007544 -0.008636 0.005980 0.012353 0.042455 0.011528
# 6 0.005401 -0.004569 0.002970 0.007389 0.011528 0.034318
#
#
# Mechanical properties :
#
#
# Convention : Reuss Voigt Hill
#
# Bulk Modulus (GPa) = 48.62602 57.56356 53.09479
# Shear Modulus (GPa) = 28.18133 37.71978 32.95056
#
# Velocity S-wave (km/s) = 3.41272 3.94824 3.69021
# Velocity P-wave (km/s) = 5.96865 6.67641 6.33242
#
# Compressibility (1/GPa) = 0.02056512
#
# Stress axis : x y z
#
# Youngs Moduli (GPa) = 92.03924 47.58269 94.06945
#
# Poissons Ratio (x) = 0.34093 -0.10784
# Poissons Ratio (y) = 0.65946 0.46608
# Poissons Ratio (z) = -0.10551 0.23575
#
# Static dielectric constant tensor:
#      x y z
#    x 1.518030 -1.039270 0.446250 
#    y -1.039270 0.283830 0.901120 
#    z 0.446250 0.901120 1.682160 
# 
# From -- ./inp_files/525644.got.cif
#   From: 2010.05.17/outbox.cif.g08.bks.cpg/sg2_263_cif.got.tgz:525644.got - 2010.06.03 11:33:40.
