data_PCOD9028595
_publ_section_title
;
Structure prediction by ZEFSAII (Michael W. Deem and Ramdas Pophale) SiO2 
 PCOD9028595
Probable space group: P -1
;
_chemical_formula_sum "Si O2"
_cell_formula_units_Z 16
_cell_length_a 6.615436
_cell_length_b 14.510032
_cell_length_c 10.868161
_cell_angle_alpha 55.763329
_cell_angle_beta 93.913066
_cell_angle_gamma 65.479102
_cell_volume 718.770445
_symmetry_space_group_name_H-M "P -1"
_symmetry_group_IT_number 2
_symmetry_cell_setting 'triclinic'
loop_
_space_group_symop_operation_xyz
x,y,z
-x,-y,-z
loop_
_atom_site_type_symbol
_atom_site_label
_atom_site_fract_x
_atom_site_fract_y
_atom_site_fract_z
Si Si1 0.705881 0.796387 0.654517
Si Si2 0.400756 0.919529 0.121126
Si Si3 0.288584 0.387198 0.603312
Si Si4 0.185884 0.010742 0.583543
Si Si5 0.083854 0.906650 0.901041
Si Si6 0.478941 0.615804 0.125507
Si Si7 0.667278 0.567807 0.697764
Si Si8 0.886754 0.618386 0.005134
O O1 0.831772 0.850272 0.533601
O O2 0.667971 0.690788 0.662021
O O3 0.445266 0.908338 0.611232
O O4 0.856454 0.735690 0.832543
O O5 0.620909 0.769616 0.277233
O O6 0.231630 0.906745 0.025412
O O7 0.205871 0.007724 0.153577
O O8 0.500000 0.000000 0.000000
O O9 0.405958 0.401186 0.721480
O O10 0.394131 0.407186 0.466781
O O11 0.000000 0.500000 0.500000
O O12 0.150602 0.971483 0.746310
O O13 0.000000 0.000000 0.500000
O O14 0.210144 0.748762 0.006959
O O15 0.486120 0.481296 0.202857
O O16 0.633086 0.644019 0.017672
O O17 0.940550 0.439143 0.826816
O O18 0.000000 0.500000 0.000000
#
# Coordination Sequence:
#
# PCOD9028595 Si02
#       8
#     2   2   2   2   2   2   2   2
#     4  10  25  44  64 101 134 180 229 282 342 404
#     4  10  25  45  73  97 137 177 228 287 345 419
#     4  11  24  45  68 106 137 180 225 283 352 405
#     4  11  25  43  69  95 136 179 230 282 336 411
#     4  10  24  45  67 102 130 182 233 278 346 412
#     4  11  23  44  71 100 141 181 231 284 346 420
#     4  11  25  42  70 100 137 178 224 292 345 407
#     4  10  22  42  63  97 135 180 226 278 346 404
#
# _framework density 22.260237
#
# number of rings (size 3 to 8) (size 9 to 14) (size 15 to 20)
#    0.000    1.500    2.500    0.375    7.000    5.000 
#    2.250    0.000    0.000    0.000    0.000    0.000 
#    0.000    0.000    0.000    0.000    0.000    0.000 
#
# Total GULP energy -89298.287419 kJ/mol
# GULP energy per Si atom -5581.142964 kJ/mol
# Density = 2.220957 g / cm^3
# Si number density = 22.260237 Si / 1000 Ang^3
#
#
#
# Elastic Constant Matrix: (Units=GPa)
#
#
# Indices 1 2 3 4 5 6 
#
# 1 73.0044 39.9846 47.0757 -20.4925 -15.0703 -7.5866
# 2 39.9846 71.5692 44.6515 -11.7479 -9.1258 -4.4965
# 3 47.0757 44.6515 145.4099 -13.0917 -17.6769 -5.7575
# 4 -20.4925 -11.7479 -13.0917 39.9631 1.1047 -0.1298
# 5 -15.0703 -9.1258 -17.6769 1.1047 47.4109 -4.1324
# 6 -7.5866 -4.4965 -5.7575 -0.1298 -4.1324 33.4764
#
#
#
# Elastic Compliance Matrix: (Units=1/GPa)
#
#
# Indices 1 2 3 4 5 6 
#
# 1 0.025209 -0.009413 -0.003690 0.008827 0.005009 0.004466
# 2 -0.009413 0.021477 -0.003533 0.000334 -0.000173 0.000124
# 3 -0.003690 -0.003533 0.009392 0.000101 0.001691 0.000514
# 4 0.008827 0.000334 0.000101 0.029621 0.002433 0.002478
# 5 0.005009 -0.000173 0.001691 0.002433 0.023602 0.004326
# 6 0.004466 0.000124 0.000514 0.002478 0.004326 0.031532
#
#
# Mechanical properties :
#
#
# Convention : Reuss Voigt Hill
#
# Bulk Modulus (GPa) = 43.85313 61.48967 52.67140
# Shear Modulus (GPa) = 27.51671 34.72155 31.11913
#
# Velocity S-wave (km/s) = 3.51969 3.95372 3.74300
# Velocity P-wave (km/s) = 6.02168 6.96603 6.51100
#
# Compressibility (1/GPa) = 0.02280339
#
# Stress axis : x y z
#
# Youngs Moduli (GPa) = 39.66859 46.56230 106.47629
#
# Poissons Ratio (x) = 0.43831 0.39292
# Poissons Ratio (y) = 0.37341 0.37622
# Poissons Ratio (z) = 0.14638 0.16452
#
# Static dielectric constant tensor:
#      x y z
#    x 1.841870 0.022030 0.027380 
#    y 0.022030 1.866050 -0.022530 
#    z 0.027380 -0.022530 1.855960 
# 
# From -- ./inp_files/367490.got.cif
#   From: 2010.05.17/outbox.cif.g08.bks.cpg/sg2_184_cif.got.tgz:367490.got - 2010.06.03 11:33:40.
