data_PCOD9028357
_publ_section_title
;
Structure prediction by ZEFSAII (Michael W. Deem and Ramdas Pophale) SiO2 
 PCOD9028357
Probable space group: P -1
;
_chemical_formula_sum "Si O2"
_cell_formula_units_Z 14
_cell_length_a 21.046305
_cell_length_b 12.397147
_cell_length_c 9.675354
_cell_angle_alpha 33.825344
_cell_angle_beta 26.655819
_cell_angle_gamma 28.780440
_cell_volume 531.962258
_symmetry_space_group_name_H-M "P -1"
_symmetry_group_IT_number 2
_symmetry_cell_setting 'triclinic'
loop_
_space_group_symop_operation_xyz
x,y,z
-x,-y,-z
loop_
_atom_site_type_symbol
_atom_site_label
_atom_site_fract_x
_atom_site_fract_y
_atom_site_fract_z
Si Si1 0.663770 0.480986 0.271955
Si Si2 0.127244 0.220669 0.272043
Si Si3 0.773582 0.420827 0.635132
Si Si4 0.423220 0.774479 0.661459
Si Si5 0.308427 0.141309 0.276270
Si Si6 0.093111 0.708810 0.781761
Si Si7 0.733097 0.906484 0.153859
O O1 0.500000 0.500000 0.500000
O O2 0.582157 0.641365 0.396120
O O3 0.822271 0.263999 0.272471
O O4 0.729446 0.601336 0.913006
O O5 0.197183 0.135047 0.378136
O O6 0.952278 0.253789 0.538016
O O7 0.093074 0.476998 0.055808
O O8 0.255532 0.080529 0.047050
O O9 0.792990 0.340356 0.523497
O O10 0.746773 0.670590 0.416736
O O11 0.640065 0.393753 0.006013
O O12 0.302026 0.007915 0.561731
O O13 0.424509 0.877437 0.696958
O O14 0.500000 0.000000 0.000000
O O15 0.902681 0.881738 0.914586
#
# Coordination Sequence:
#
# PCOD9028357 Si02
#       7
#     2   2   2   2   2   2   2
#     4  10  22  42  60  79 121 170 192 232 304 352
#     4   8  16  37  63  82 119 161 184 236 306 347
#     4   9  19  37  62  91 120 146 193 247 302 340
#     4  11  23  37  60  95 118 145 207 245 281 354
#     4   9  20  40  55  81 122 155 196 233 288 361
#     4   8  17  39  63  84 120 159 193 236 297 355
#     4   9  19  39  65  90 115 150 196 252 288 335
#
# _framework density 26.317655999999999
#
# number of rings (size 3 to 8) (size 9 to 14) (size 15 to 20)
#    0.000    2.857    0.000    1.714    2.000    3.429 
#   12.857   13.571    0.000    0.000    0.000    0.000 
#    0.000    0.000    0.000    0.000    0.000    0.000 
#
# Total GULP energy -78286.835530 kJ/mol
# GULP energy per Si atom -5591.916824 kJ/mol
# Density = 2.625776 g / cm^3
# Si number density = 26.317656 Si / 1000 Ang^3
#
#
#
# Elastic Constant Matrix: (Units=GPa)
#
#
# Indices 1 2 3 4 5 6 
#
# 1 171.0098 14.8649 16.1321 -15.6676 -25.4784 -23.3679
# 2 14.8649 51.5116 5.9153 -5.8455 -9.2039 9.7428
# 3 16.1321 5.9153 107.0051 -25.6827 -2.1055 -5.5895
# 4 -15.6676 -5.8455 -25.6827 38.0804 5.5387 -1.6427
# 5 -25.4784 -9.2039 -2.1055 5.5387 28.8092 -0.8425
# 6 -23.3679 9.7428 -5.5895 -1.6427 -0.8425 35.5363
#
#
#
# Elastic Compliance Matrix: (Units=1/GPa)
#
#
# Indices 1 2 3 4 5 6 
#
# 1 0.007988 -0.002086 -0.000109 0.002262 0.006132 0.006057
# 2 -0.002086 0.022534 -0.001019 0.000876 0.004891 -0.007553
# 3 -0.000109 -0.001019 0.011372 0.007715 -0.001006 0.002329
# 4 0.002262 0.000876 0.007715 0.033195 -0.003423 0.003914
# 5 0.006132 0.004891 -0.001006 -0.003423 0.042380 0.003380
# 6 0.006057 -0.007553 0.002329 0.003914 0.003380 0.034822
#
#
# Mechanical properties :
#
#
# Convention : Reuss Voigt Hill
#
# Bulk Modulus (GPa) = 28.19640 44.81677 36.50658
# Shear Modulus (GPa) = 29.31852 39.99279 34.65566
#
# Velocity S-wave (km/s) = 3.34132 3.90246 3.63274
# Velocity P-wave (km/s) = 5.06192 6.11324 5.61225
#
# Compressibility (1/GPa) = 0.03546553
#
# Stress axis : x y z
#
# Youngs Moduli (GPa) = 125.19112 44.37739 87.93765
#
# Poissons Ratio (x) = 0.09256 0.00958
# Poissons Ratio (y) = 0.26113 0.08963
# Poissons Ratio (z) = 0.01363 0.04523
#
# Static dielectric constant tensor:
#      x y z
#    x 2.116660 -0.037950 -0.062330 
#    y -0.037950 2.186790 -0.052440 
#    z -0.062330 -0.052440 2.029060 
# 
# From -- ./inp_files/197982.got.cif
#   From: 2010.05.17/outbox.cif.g08.bks.cpg/sg2_99_cif.got.tgz:197982.got - 2010.06.03 11:33:40.
