data_PCOD9028674
_publ_section_title
;
Structure prediction by ZEFSAII (Michael W. Deem and Ramdas Pophale) SiO2 
 PCOD9028674
Probable space group: P -1
;
_chemical_formula_sum "Si O2"
_cell_formula_units_Z 14
_cell_length_a 10.083643
_cell_length_b 7.502636
_cell_length_c 12.770974
_cell_angle_alpha 34.244779
_cell_angle_beta 110.307286
_cell_angle_gamma 97.991626
_cell_volume 489.479683
_symmetry_space_group_name_H-M "P -1"
_symmetry_group_IT_number 2
_symmetry_cell_setting 'triclinic'
loop_
_space_group_symop_operation_xyz
x,y,z
-x,-y,-z
loop_
_atom_site_type_symbol
_atom_site_label
_atom_site_fract_x
_atom_site_fract_y
_atom_site_fract_z
Si Si1 0.288935 0.160866 0.609638
Si Si2 0.843248 0.254607 0.560920
Si Si3 0.159081 0.319508 0.839506
Si Si4 0.347639 0.690476 0.241318
Si Si5 0.501327 0.653819 0.079043
Si Si6 0.363359 0.095255 0.260365
Si Si7 0.099845 0.704280 0.819894
O O1 0.197109 0.510604 0.464813
O O2 0.354863 0.316999 0.453722
O O3 0.178006 0.945893 0.663149
O O4 0.391166 0.939280 0.838193
O O5 0.877585 0.498980 0.366668
O O6 0.699202 0.120087 0.568808
O O7 0.980863 0.932145 0.752205
O O8 0.329130 0.349697 0.886892
O O9 0.050451 0.508620 0.807308
O O10 0.190242 0.929049 0.046061
O O11 0.448587 0.697439 0.164038
O O12 0.384028 0.860349 0.276575
O O13 0.480996 0.301504 0.208926
O O14 0.221516 0.414924 0.050154
#
# Coordination Sequence:
#
# PCOD9028674 Si02
#       7
#     2   2   2   2   2   2   2
#     4  10  23  41  69  97 124 175 217 269 332 382
#     4  11  21  42  65  94 130 172 215 269 328 381
#     4  11  24  41  63  95 132 173 213 266 329 391
#     4  10  22  43  64  99 132 168 215 267 332 385
#     4  11  23  46  64  98 138 162 221 273 323 392
#     4   9  23  41  69  97 126 177 217 267 331 386
#     4  10  22  42  64  92 131 171 219 268 318 390
#
# _framework density 28.601800999999998
#
# number of rings (size 3 to 8) (size 9 to 14) (size 15 to 20)
#    0.000    1.714    1.429    1.714    2.000    6.286 
#    5.143    0.714    0.000    0.000    0.000    0.000 
#    0.000    0.000    0.000    0.000    0.000    0.000 
#
# Total GULP energy -78295.459364 kJ/mol
# GULP energy per Si atom -5592.532812 kJ/mol
# Density = 2.853670 g / cm^3
# Si number density = 28.601801 Si / 1000 Ang^3
#
#
#
# Elastic Constant Matrix: (Units=GPa)
#
#
# Indices 1 2 3 4 5 6 
#
# 1 92.8060 29.2651 54.1721 -15.1786 -16.8774 7.8748
# 2 29.2651 98.7473 44.0624 -26.3767 -2.0253 -20.5613
# 3 54.1721 44.0624 189.0502 -24.6896 -18.9906 -14.4586
# 4 -15.1786 -26.3767 -24.6896 47.7522 0.3962 6.5550
# 5 -16.8774 -2.0253 -18.9906 0.3962 51.0773 -21.2094
# 6 7.8748 -20.5613 -14.4586 6.5550 -21.2094 38.6715
#
#
#
# Elastic Compliance Matrix: (Units=1/GPa)
#
#
# Indices 1 2 3 4 5 6 
#
# 1 0.014989 -0.003629 -0.003599 0.001731 0.000917 -0.006118
# 2 -0.003629 0.014928 -0.000757 0.005440 0.002811 0.009013
# 3 -0.003599 -0.000757 0.007421 0.001593 0.003502 0.004756
# 4 0.001731 0.005440 0.001593 0.025406 0.000902 -0.000676
# 5 0.000917 0.002811 0.003502 0.000902 0.028891 0.018310
# 6 -0.006118 0.009013 0.004756 -0.000676 0.018310 0.043831
#
#
# Mechanical properties :
#
#
# Convention : Reuss Voigt Hill
#
# Bulk Modulus (GPa) = 46.79999 70.62252 58.71126
# Shear Modulus (GPa) = 31.53416 44.37379 37.95398
#
# Velocity S-wave (km/s) = 3.32403 3.94310 3.64672
# Velocity P-wave (km/s) = 5.57946 6.74358 6.18895
#
# Compressibility (1/GPa) = 0.02136752
#
# Stress axis : x y z
#
# Youngs Moduli (GPa) = 66.71384 66.99002 134.75418
#
# Poissons Ratio (x) = 0.24310 0.48499
# Poissons Ratio (y) = 0.24210 0.10203
# Poissons Ratio (z) = 0.24011 0.05072
#
# Static dielectric constant tensor:
#      x y z
#    x 2.435490 0.057120 0.070080 
#    y 0.057120 2.319880 0.029940 
#    z 0.070080 0.029940 2.269400 
# 
# From -- ./inp_files/325674.got.cif
#   From: 2010.05.17/outbox.cif.g08.bks.cpg/sg2_163_cif.got.tgz:325674.got - 2010.06.03 11:33:40.
