data_PCOD9028104
_publ_section_title
;
Structure prediction by ZEFSAII (Michael W. Deem and Ramdas Pophale) SiO2 
 PCOD9028104
Probable space group: P -1
;
_chemical_formula_sum "Si O2"
_cell_formula_units_Z 16
_cell_length_a 6.807023
_cell_length_b 11.571375
_cell_length_c 22.340782
_cell_angle_alpha 24.252163
_cell_angle_beta 49.326070
_cell_angle_gamma 58.063992
_cell_volume 536.034123
_symmetry_space_group_name_H-M "P -1"
_symmetry_group_IT_number 2
_symmetry_cell_setting 'triclinic'
loop_
_space_group_symop_operation_xyz
x,y,z
-x,-y,-z
loop_
_atom_site_type_symbol
_atom_site_label
_atom_site_fract_x
_atom_site_fract_y
_atom_site_fract_z
Si Si1 0.672099 0.138593 0.735322
Si Si2 0.480301 0.871535 0.499049
Si Si3 0.993356 0.697384 0.591441
Si Si4 0.721588 0.185834 0.933724
Si Si5 0.189864 0.360229 0.849295
Si Si6 0.737779 0.244012 0.164261
Si Si7 0.179903 0.239802 0.220511
Si Si8 0.820753 0.665284 0.375924
O O1 0.630409 0.404246 0.574725
O O2 0.917390 0.272799 0.664855
O O3 0.746816 0.895962 0.791552
O O4 0.463462 0.963082 0.906223
O O5 0.200313 0.836765 0.535878
O O6 0.456112 0.541910 0.679301
O O7 0.500000 0.000000 0.500000
O O8 0.678634 0.058939 0.324988
O O9 0.110200 0.470225 0.635529
O O10 0.712536 0.504308 0.760745
O O11 0.011069 0.958009 0.419352
O O12 0.002156 0.278274 0.868031
O O13 0.744558 0.934155 0.000505
O O14 0.006013 0.523959 0.849155
O O15 0.463507 0.332481 0.155372
O O16 0.756754 0.983486 0.237424
O O17 0.000000 0.500000 0.000000
#
# Coordination Sequence:
#
# PCOD9028104 Si02
#       8
#     2   2   2   2   2   2   2   2
#     4  10  23  44  75 105 140 192 248 301 359 440
#     4  10  23  42  68 100 140 188 237 289 359 432
#     4   9  22  45  71 102 141 191 239 301 363 431
#     4  10  22  41  71 108 138 188 246 297 364 427
#     4  10  23  43  71 105 143 190 237 300 362 439
#     4  11  26  43  70 107 148 190 239 305 366 429
#     4  10  24  46  74 104 146 193 244 299 368 436
#     4  10  23  46  70 100 149 191 240 295 370 444
#
# _framework density 29.848846999999999
#
# number of rings (size 3 to 8) (size 9 to 14) (size 15 to 20)
#    0.000    2.000    0.000    0.750    3.500   17.000 
#    2.250    0.000    0.000    0.000    0.000    0.000 
#    0.000    0.000    0.000    0.000    0.000    0.000 
#
# Total GULP energy -89541.886825 kJ/mol
# GULP energy per Si atom -5596.367927 kJ/mol
# Density = 2.978091 g / cm^3
# Si number density = 29.848847 Si / 1000 Ang^3
#
#
#
# Elastic Constant Matrix: (Units=GPa)
#
#
# Indices 1 2 3 4 5 6 
#
# 1 93.5573 50.6738 48.4010 4.2664 0.1847 -12.7358
# 2 50.6738 227.3092 83.6021 -2.4676 -3.8157 4.2475
# 3 48.4010 83.6021 314.5763 6.7270 -13.6855 -11.2571
# 4 4.2664 -2.4676 6.7270 49.9345 3.1549 8.6834
# 5 0.1847 -3.8157 -13.6855 3.1549 54.2842 -5.4148
# 6 -12.7358 4.2475 -11.2571 8.6834 -5.4148 56.1653
#
#
#
# Elastic Compliance Matrix: (Units=1/GPa)
#
#
# Indices 1 2 3 4 5 6 
#
# 1 0.013221 -0.002584 -0.001203 -0.001644 -0.000116 0.003195
# 2 -0.002584 0.005419 -0.001113 0.000880 -0.000078 -0.001363
# 3 -0.001203 -0.001113 0.003744 -0.000650 0.000983 0.000757
# 4 -0.001644 0.000880 -0.000650 0.021102 -0.001722 -0.003998
# 5 -0.000116 -0.000078 0.000983 -0.001722 0.018991 0.002274
# 6 0.003195 -0.001363 0.000757 -0.003998 0.002274 0.019621
#
#
# Mechanical properties :
#
#
# Convention : Reuss Voigt Hill
#
# Bulk Modulus (GPa) = 79.48028 111.19963 95.33995
# Shear Modulus (GPa) = 52.03312 62.26118 57.14715
#
# Velocity S-wave (km/s) = 4.17972 4.57210 4.38031
# Velocity P-wave (km/s) = 7.06957 8.07510 7.58901
#
# Compressibility (1/GPa) = 0.01258174
#
# Stress axis : x y z
#
# Youngs Moduli (GPa) = 75.63798 184.54805 267.12113
#
# Poissons Ratio (x) = 0.47695 0.32132
# Poissons Ratio (y) = 0.19548 0.29742
# Poissons Ratio (z) = 0.09098 0.20548
#
# Static dielectric constant tensor:
#      x y z
#    x 2.451280 -0.094430 0.089760 
#    y -0.094430 2.347210 -0.057810 
#    z 0.089760 -0.057810 2.465650 
# 
# From -- ./inp_files/607463.got.cif
#   From: 2010.05.17/outbox.cif.g08.bks.cpg/sg2_304_cif.got.tgz:607463.got - 2010.06.03 11:33:40.
