data_PCOD9028243
_publ_section_title
;
Structure prediction by ZEFSAII (Michael W. Deem and Ramdas Pophale) SiO2 
 PCOD9028243
Probable space group: P -1
;
_chemical_formula_sum "Si O2"
_cell_formula_units_Z 14
_cell_length_a 5.237415
_cell_length_b 17.752905
_cell_length_c 8.474030
_cell_angle_alpha 113.238983
_cell_angle_beta 107.579533
_cell_angle_gamma 104.413431
_cell_volume 626.280651
_symmetry_space_group_name_H-M "P -1"
_symmetry_group_IT_number 2
_symmetry_cell_setting 'triclinic'
loop_
_space_group_symop_operation_xyz
x,y,z
-x,-y,-z
loop_
_atom_site_type_symbol
_atom_site_label
_atom_site_fract_x
_atom_site_fract_y
_atom_site_fract_z
Si Si1 0.869627 0.702766 0.631663
Si Si2 0.778516 0.196019 0.498234
Si Si3 0.711943 0.379120 0.702575
Si Si4 0.466307 0.696472 0.840474
Si Si5 0.292321 0.037508 0.401172
Si Si6 0.159327 0.141469 0.749011
Si Si7 0.300373 0.541774 0.910501
O O1 0.600574 0.627180 0.421945
O O2 0.705296 0.721589 0.765702
O O3 0.020012 0.784605 0.603232
O O4 0.136296 0.677779 0.710163
O O5 0.718332 0.284168 0.584794
O O6 0.481728 0.104314 0.355670
O O7 0.947884 0.185384 0.676522
O O8 0.985672 0.461870 0.745870
O O9 0.746704 0.396499 0.910030
O O10 0.454484 0.607259 0.850090
O O11 0.574103 0.780556 0.049979
O O12 0.230168 0.099439 0.569961
O O13 0.500000 0.000000 0.500000
O O14 0.004411 0.945611 0.240925
O O15 0.500000 0.500000 0.000000
#
# Coordination Sequence:
#
# PCOD9028243 Si02
#       7
#     2   2   2   2   2   2   2
#     4  12  27  45  66 101 144 187 217 276 357 405
#     4  11  21  45  71  97 138 183 228 279 342 411
#     4  11  24  46  71 100 133 184 229 279 344 407
#     4  12  28  44  70 101 143 178 228 282 340 415
#     4   9  20  38  72 102 131 175 235 286 333 392
#     4  10  22  41  73 102 132 177 238 284 333 399
#     4  11  26  45  74 102 131 177 241 284 334 398
#
# _framework density 22.354192999999999
#
# number of rings (size 3 to 8) (size 9 to 14) (size 15 to 20)
#    0.000    1.143    1.429    4.286   10.000    1.143 
#    0.000    1.429    0.000    0.000    0.000    0.000 
#    0.000    0.000    0.000    0.000    0.000    0.000 
#
# Total GULP energy -78253.916316 kJ/mol
# GULP energy per Si atom -5589.565451 kJ/mol
# Density = 2.230331 g / cm^3
# Si number density = 22.354193 Si / 1000 Ang^3
#
#
#
# Elastic Constant Matrix: (Units=GPa)
#
#
# Indices 1 2 3 4 5 6 
#
# 1 110.3343 59.7458 34.0743 5.4038 15.2743 9.5068
# 2 59.7458 152.1953 67.0680 18.9750 10.2688 32.0255
# 3 34.0743 67.0680 62.7031 3.0469 24.2187 2.7790
# 4 5.4038 18.9750 3.0469 15.2996 4.8107 3.9989
# 5 15.2743 10.2688 24.2187 4.8107 35.4185 3.1419
# 6 9.5068 32.0255 2.7790 3.9989 3.1419 47.5267
#
#
#
# Elastic Compliance Matrix: (Units=1/GPa)
#
#
# Indices 1 2 3 4 5 6 
#
# 1 0.012196 -0.005776 0.001272 0.003843 -0.005100 0.001392
# 2 -0.005776 0.031542 -0.038033 -0.033088 0.025334 -0.016766
# 3 0.001272 -0.038033 0.070448 0.041468 -0.045166 0.020751
# 4 0.003843 -0.033088 0.041468 0.104721 -0.035766 0.012656
# 5 -0.005100 0.025334 -0.045166 -0.035766 0.060105 -0.014374
# 6 0.001392 -0.016766 0.020751 0.012656 -0.014374 0.030732
#
#
# Mechanical properties :
#
#
# Convention : Reuss Voigt Hill
#
# Bulk Modulus (GPa) = 34.35021 71.88988 53.12004
# Shear Modulus (GPa) = 12.36030 30.60527 21.48279
#
# Velocity S-wave (km/s) = 2.35400 3.70416 3.10339
# Velocity P-wave (km/s) = 4.77369 7.10800 6.05441
#
# Compressibility (1/GPa) = 0.02911191
#
# Stress axis : x y z
#
# Youngs Moduli (GPa) = 81.99261 31.70385 14.19495
#
# Poissons Ratio (x) = 0.18313 -0.01806
# Poissons Ratio (y) = 0.47361 0.53987
# Poissons Ratio (z) = -0.10431 1.20579
#
# Static dielectric constant tensor:
#      x y z
#    x 1.927270 0.001530 0.004400 
#    y 0.001530 1.851560 -0.005480 
#    z 0.004400 -0.005480 1.813810 
# 
# From -- ./inp_files/39500.got.cif
#   From: 2010.05.17/outbox.cif.g08.bks.cpg/sg2_20_cif.got.tgz:39500.got - 2010.06.03 11:33:40.
