data_PCOD9028315
_publ_section_title
;
Structure prediction by ZEFSAII (Michael W. Deem and Ramdas Pophale) SiO2 
 PCOD9028315
Probable space group: P -1
;
_chemical_formula_sum "Si O2"
_cell_formula_units_Z 16
_cell_length_a 11.496312
_cell_length_b 21.264706
_cell_length_c 9.242155
_cell_angle_alpha 150.487024
_cell_angle_beta 45.029329
_cell_angle_gamma 143.703642
_cell_volume 658.755534
_symmetry_space_group_name_H-M "P -1"
_symmetry_group_IT_number 2
_symmetry_cell_setting 'triclinic'
loop_
_space_group_symop_operation_xyz
x,y,z
-x,-y,-z
loop_
_atom_site_type_symbol
_atom_site_label
_atom_site_fract_x
_atom_site_fract_y
_atom_site_fract_z
Si Si1 0.934478 0.392933 0.943143
Si Si2 0.045185 0.165182 0.536734
Si Si3 0.055988 0.647573 0.591977
Si Si4 0.662079 0.833558 0.232026
Si Si5 0.681432 0.134276 0.427384
Si Si6 0.306622 0.607400 0.522569
Si Si7 0.668804 0.623725 0.042150
Si Si8 0.389159 0.187855 0.094421
O O1 0.745405 0.247729 0.730526
O O2 0.971311 0.265797 0.741246
O O3 0.796716 0.336290 0.377699
O O4 0.882716 0.522713 0.165464
O O5 0.199732 0.166254 0.296048
O O6 0.171172 0.252477 0.743546
O O7 0.872541 0.991662 0.375301
O O8 0.152008 0.792684 0.698625
O O9 0.837623 0.583059 0.725044
O O10 0.011760 0.505311 0.742291
O O11 0.503914 0.873161 0.495927
O O12 0.636023 0.700869 0.091117
O O13 0.624838 0.777858 0.989377
O O14 0.632391 0.973226 0.198434
O O15 0.453651 0.573356 0.230314
O O16 0.426132 0.696536 0.733560
#
# Coordination Sequence:
#
# PCOD9028315 Si02
#       8
#     2   2   2   2   2   2   2   2
#     4  10  22  41  75  99 134 182 235 286 351 408
#     4  12  26  48  73 106 147 188 233 295 356 427
#     4  10  23  43  70 104 137 188 240 295 344 423
#     4  12  28  45  75 105 142 192 237 291 362 424
#     4  11  25  45  72 102 144 186 239 291 358 416
#     4  11  24  42  70 100 143 184 239 294 354 414
#     4  12  26  50  72  99 145 189 241 292 355 423
#     4  12  27  45  71 108 150 181 237 296 358 423
#
# _framework density 24.288219999999999
#
# number of rings (size 3 to 8) (size 9 to 14) (size 15 to 20)
#    0.000    0.750    3.750    2.625    5.250    2.000 
#    0.000    0.000    0.000    0.000    0.000    0.000 
#    0.000    0.000    0.000    0.000    0.000    0.000 
#
# Total GULP energy -89158.397309 kJ/mol
# GULP energy per Si atom -5572.399832 kJ/mol
# Density = 2.423294 g / cm^3
# Si number density = 24.288220 Si / 1000 Ang^3
#
#
#
# Elastic Constant Matrix: (Units=GPa)
#
#
# Indices 1 2 3 4 5 6 
#
# 1 154.6886 100.2728 50.8590 9.3754 26.6177 -16.2452
# 2 100.2728 149.7651 59.4916 7.7100 28.7713 -21.4561
# 3 50.8590 59.4916 107.6223 4.7512 27.0617 -10.8800
# 4 9.3754 7.7100 4.7512 23.8835 -0.1071 -0.0381
# 5 26.6177 28.7713 27.0617 -0.1071 41.7368 6.1512
# 6 -16.2452 -21.4561 -10.8800 -0.0381 6.1512 48.1007
#
#
#
# Elastic Compliance Matrix: (Units=1/GPa)
#
#
# Indices 1 2 3 4 5 6 
#
# 1 0.011882 -0.006823 -0.001048 -0.002262 -0.002353 0.001032
# 2 -0.006823 0.013732 -0.003022 -0.001164 -0.003690 0.003608
# 3 -0.001048 -0.003022 0.013276 -0.001278 -0.006168 0.002089
# 4 -0.002262 -0.001164 -0.001278 0.043400 0.003478 -0.001983
# 5 -0.002353 -0.003690 -0.006168 0.003478 0.033202 -0.008079
# 6 0.001032 0.003608 0.002089 -0.001983 -0.008079 0.024252
#
#
# Mechanical properties :
#
#
# Convention : Reuss Voigt Hill
#
# Bulk Modulus (GPa) = 58.46717 92.59142 75.52929
# Shear Modulus (GPa) = 29.89864 36.17437 33.03651
#
# Velocity S-wave (km/s) = 3.51236 3.86343 3.69207
# Velocity P-wave (km/s) = 6.36972 7.62274 7.02423
#
# Compressibility (1/GPa) = 0.01710362
#
# Stress axis : x y z
#
# Youngs Moduli (GPa) = 84.15861 72.82436 75.32425
#
# Poissons Ratio (x) = 0.49689 0.07892
# Poissons Ratio (y) = 0.57423 0.22765
# Poissons Ratio (z) = 0.08817 0.22010
#
# Static dielectric constant tensor:
#      x y z
#    x 2.084750 0.285470 -0.144460 
#    y 0.285470 3.354900 -0.839330 
#    z -0.144460 -0.839330 2.384930 
# 
# From -- ./inp_files/283481.got.cif
#   From: 2010.05.17/outbox.cif.g08.bks.cpg/sg2_142_cif.got.tgz:283481.got - 2010.06.03 11:33:40.
