data_PCOD9028231
_publ_section_title
;
Structure prediction by ZEFSAII (Michael W. Deem and Ramdas Pophale) SiO2 
 PCOD9028231
Probable space group: P -1
;
_chemical_formula_sum "Si O2"
_cell_formula_units_Z 14
_cell_length_a 15.100120
_cell_length_b 10.244084
_cell_length_c 13.336208
_cell_angle_alpha 147.420189
_cell_angle_beta 36.762825
_cell_angle_gamma 123.460686
_cell_volume 613.922819
_symmetry_space_group_name_H-M "P -1"
_symmetry_group_IT_number 2
_symmetry_cell_setting 'triclinic'
loop_
_space_group_symop_operation_xyz
x,y,z
-x,-y,-z
loop_
_atom_site_type_symbol
_atom_site_label
_atom_site_fract_x
_atom_site_fract_y
_atom_site_fract_z
Si Si1 0.198341 0.891891 0.329073
Si Si2 0.114163 0.486680 0.792774
Si Si3 0.955359 0.747742 0.896043
Si Si4 0.387012 0.089797 0.777085
Si Si5 0.519333 0.406759 0.736349
Si Si6 0.854748 0.102227 0.843533
Si Si7 0.235296 0.334557 0.282172
O O1 0.160453 0.803723 0.196648
O O2 0.210054 0.176112 0.492041
O O3 0.362104 0.665472 0.063357
O O4 0.047687 0.935603 0.567152
O O5 0.021154 0.615534 0.858692
O O6 0.200172 0.672782 0.877349
O O7 0.000000 0.500000 0.000000
O O8 0.052763 0.537890 0.587708
O O9 0.766772 0.824517 0.102869
O O10 0.000000 0.000000 0.000000
O O11 0.510868 0.216577 0.710713
O O12 0.470308 0.775189 0.487802
O O13 0.310301 0.212445 0.030103
O O14 0.664671 0.501013 0.661959
O O15 0.760370 0.913106 0.817945
#
# Coordination Sequence:
#
# PCOD9028231 Si02
#       7
#     2   2   2   2   2   2   2
#     4  10  22  45  68  97 135 179 222 278 339 406
#     4  10  23  42  70 105 133 176 232 283 335 403
#     4  12  23  44  74 102 136 172 235 290 331 399
#     4  11  26  46  67  99 136 183 224 275 348 407
#     4  11  26  45  66  96 144 176 224 278 344 418
#     4  10  22  41  72  99 129 171 233 278 332 396
#     4  12  24  44  68 100 134 177 226 282 343 395
#
# _framework density 22.804169000000002
#
# number of rings (size 3 to 8) (size 9 to 14) (size 15 to 20)
#    0.000    1.143    2.857    2.571    4.000    4.000 
#    7.714    1.429    0.000    0.000    0.000    0.000 
#    0.000    0.000    0.000    0.000    0.000    0.000 
#
# Total GULP energy -78194.865812 kJ/mol
# GULP energy per Si atom -5585.347558 kJ/mol
# Density = 2.275227 g / cm^3
# Si number density = 22.804169 Si / 1000 Ang^3
#
#
#
# Elastic Constant Matrix: (Units=GPa)
#
#
# Indices 1 2 3 4 5 6 
#
# 1 43.6893 37.9943 33.2006 7.7418 28.3630 0.2028
# 2 37.9943 154.0748 41.5438 11.2920 13.8720 13.4519
# 3 33.2006 41.5438 127.2272 11.0064 29.4814 -8.2190
# 4 7.7418 11.2920 11.0064 42.5692 1.9947 6.9039
# 5 28.3630 13.8720 29.4814 1.9947 45.8318 -8.2622
# 6 0.2028 13.4519 -8.2190 6.9039 -8.2622 29.3248
#
#
#
# Elastic Compliance Matrix: (Units=1/GPa)
#
#
# Indices 1 2 3 4 5 6 
#
# 1 0.052321 -0.008537 -0.004409 -0.004089 -0.027591 -0.004492
# 2 -0.008537 0.009110 -0.001671 0.000044 0.002918 -0.003776
# 3 -0.004409 -0.001671 0.010613 -0.001916 -0.002895 0.003407
# 4 -0.004089 0.000044 -0.001916 0.025642 0.001528 -0.006135
# 5 -0.027591 0.002918 -0.002895 0.001528 0.041496 0.009372
# 6 -0.004492 -0.003776 0.003407 -0.006135 0.009372 0.040904
#
#
# Mechanical properties :
#
#
# Convention : Reuss Voigt Hill
#
# Bulk Modulus (GPa) = 23.35912 61.16320 42.26116
# Shear Modulus (GPa) = 22.36245 37.69533 30.02889
#
# Velocity S-wave (km/s) = 3.13490 4.07012 3.63273
# Velocity P-wave (km/s) = 4.83415 6.99765 6.01399
#
# Compressibility (1/GPa) = 0.04280984
#
# Stress axis : x y z
#
# Youngs Moduli (GPa) = 19.11274 109.77076 94.22714
#
# Poissons Ratio (x) = 0.93716 0.41542
# Poissons Ratio (y) = 0.16317 0.15743
# Poissons Ratio (z) = 0.08426 0.18340
#
# Static dielectric constant tensor:
#      x y z
#    x 1.884280 0.038370 -0.000700 
#    y 0.038370 1.897050 0.021520 
#    z -0.000700 0.021520 1.878180 
# 
# From -- ./inp_files/538336.got.cif
#   From: 2010.05.17/outbox.cif.g08.bks.cpg/sg2_270_cif.got.tgz:538336.got - 2010.06.03 11:33:40.
