data_PCOD9028030
_publ_section_title
;
Structure prediction by ZEFSAII (Michael W. Deem and Ramdas Pophale) SiO2 
 PCOD9028030
Probable space group: P -1
;
_chemical_formula_sum "Si O2"
_cell_formula_units_Z 16
_cell_length_a 18.603194
_cell_length_b 12.616434
_cell_length_c 8.631105
_cell_angle_alpha 55.585021
_cell_angle_beta 65.502285
_cell_angle_gamma 26.340482
_cell_volume 717.794154
_symmetry_space_group_name_H-M "P -1"
_symmetry_group_IT_number 2
_symmetry_cell_setting 'triclinic'
loop_
_space_group_symop_operation_xyz
x,y,z
-x,-y,-z
loop_
_atom_site_type_symbol
_atom_site_label
_atom_site_fract_x
_atom_site_fract_y
_atom_site_fract_z
Si Si1 0.564526 0.588430 0.111943
Si Si2 0.222168 0.954043 0.656734
Si Si3 0.161881 0.614581 0.983651
Si Si4 0.279921 0.093937 0.715497
Si Si5 0.022724 0.364635 0.956626
Si Si6 0.697563 0.189445 0.655250
Si Si7 0.127569 0.825746 0.385261
Si Si8 0.829968 0.470247 0.611434
O O1 0.679152 0.315058 0.153286
O O2 0.470625 0.642356 0.285576
O O3 0.688228 0.521666 0.116781
O O4 0.426347 0.847089 0.908631
O O5 0.243190 0.923720 0.477823
O O6 0.292042 0.980601 0.653552
O O7 0.027104 0.221575 0.648229
O O8 0.208029 0.544067 0.181083
O O9 0.129465 0.514037 0.042792
O O10 0.990849 0.938625 0.835123
O O11 0.101801 0.318465 0.773796
O O12 0.274881 0.249917 0.547112
O O13 0.000000 0.500000 0.000000
O O14 0.165798 0.068699 0.140328
O O15 0.718454 0.306828 0.590706
O O16 0.186584 0.604411 0.453677
O O17 0.000000 0.000000 0.500000
#
# Coordination Sequence:
#
# PCOD9028030 Si02
#       8
#     2   2   2   2   2   2   2   2
#     4  11  25  46  66  99 141 182 222 274 344 408
#     4  12  22  43  74  99 134 178 233 279 330 409
#     4  11  24  42  70  99 136 173 231 270 337 401
#     4  11  26  43  67 104 137 180 223 278 354 390
#     4  10  22  41  70  98 135 177 225 281 335 401
#     4  10  23  41  70 102 132 178 229 278 338 398
#     4  11  22  42  70 104 129 174 233 281 325 397
#     4  12  24  41  73 102 135 172 233 289 326 400
#
# _framework density 22.290514999999999
#
# number of rings (size 3 to 8) (size 9 to 14) (size 15 to 20)
#    0.000    1.000    3.750    2.250    3.500    1.500 
#    0.000    2.500    0.000    0.000    0.000    0.000 
#    0.000    0.000    0.000    0.000    0.000    0.000 
#
# Total GULP energy -89467.603775 kJ/mol
# GULP energy per Si atom -5591.725236 kJ/mol
# Density = 2.223978 g / cm^3
# Si number density = 22.290515 Si / 1000 Ang^3
#
#
#
# Elastic Constant Matrix: (Units=GPa)
#
#
# Indices 1 2 3 4 5 6 
#
# 1 160.3541 35.0652 22.7074 3.3634 -6.8088 2.8822
# 2 35.0652 41.6946 14.7205 -1.6902 -7.2469 -6.0294
# 3 22.7074 14.7205 92.7733 -2.1018 -15.3029 2.3897
# 4 3.3634 -1.6902 -2.1018 31.3683 5.3210 -2.2194
# 5 -6.8088 -7.2469 -15.3029 5.3210 24.7750 -1.6110
# 6 2.8822 -6.0294 2.3897 -2.2194 -1.6110 45.3277
#
#
#
# Elastic Compliance Matrix: (Units=1/GPa)
#
#
# Indices 1 2 3 4 5 6 
#
# 1 0.007845 -0.006558 -0.000893 -0.001333 -0.000119 -0.001394
# 2 -0.006558 0.032278 -0.002621 0.001611 0.006008 0.005141
# 3 -0.000893 -0.002621 0.012540 -0.000406 0.006773 -0.000732
# 4 -0.001333 0.001611 -0.000406 0.033426 -0.007214 0.001701
# 5 -0.000119 0.006008 0.006773 -0.007214 0.047938 0.001800
# 6 -0.001394 0.005141 -0.000732 0.001701 0.001800 0.023020
#
#
# Mechanical properties :
#
#
# Convention : Reuss Voigt Hill
#
# Bulk Modulus (GPa) = 30.75262 48.86759 39.81010
# Shear Modulus (GPa) = 26.59119 35.11613 30.85366
#
# Velocity S-wave (km/s) = 3.45764 3.97342 3.72447
# Velocity P-wave (km/s) = 5.45588 6.55907 6.03274
#
# Compressibility (1/GPa) = 0.03251755
#
# Stress axis : x y z
#
# Youngs Moduli (GPa) = 127.47303 30.98087 79.74208
#
# Poissons Ratio (x) = 0.20318 0.07124
# Poissons Ratio (y) = 0.83600 0.20902
# Poissons Ratio (z) = 0.11388 0.08121
#
# Static dielectric constant tensor:
#      x y z
#    x 1.879660 -0.015330 -0.002930 
#    y -0.015330 1.851260 0.006420 
#    z -0.002930 0.006420 1.852250 
# 
# From -- ./inp_files/331704.got.cif
#   From: 2010.05.17/outbox.cif.g08.bks.cpg/sg2_166_cif.got.tgz:331704.got - 2010.06.03 11:33:40.
