data_PCOD9028099
_publ_section_title
;
Structure prediction by ZEFSAII (Michael W. Deem and Ramdas Pophale) SiO2 
 PCOD9028099
Probable space group: P -1
;
_chemical_formula_sum "Si O2"
_cell_formula_units_Z 10
_cell_length_a 9.477594
_cell_length_b 13.177382
_cell_length_c 9.286713
_cell_angle_alpha 50.720939
_cell_angle_beta 133.273138
_cell_angle_gamma 150.112157
_cell_volume 418.383809
_symmetry_space_group_name_H-M "P -1"
_symmetry_group_IT_number 2
_symmetry_cell_setting 'triclinic'
loop_
_space_group_symop_operation_xyz
x,y,z
-x,-y,-z
loop_
_atom_site_type_symbol
_atom_site_label
_atom_site_fract_x
_atom_site_fract_y
_atom_site_fract_z
Si Si1 0.155982 0.871556 0.877655
Si Si2 0.671908 0.307055 0.509412
Si Si3 0.937393 0.986740 0.801627
Si Si4 0.008724 0.483640 0.850577
Si Si5 0.224737 0.863573 0.609855
O O1 0.082560 0.835521 0.688593
O O2 0.144422 0.001197 0.836145
O O3 0.957930 0.655553 0.012694
O O4 0.440353 0.902000 0.379366
O O5 0.398963 0.228637 0.299671
O O6 0.763104 0.286091 0.251892
O O7 0.712274 0.364925 0.653915
O O8 0.961178 0.152102 0.624976
O O9 0.000000 0.000000 0.000000
O O10 0.000000 0.500000 0.500000
O O11 0.000000 0.500000 0.000000
O O12 0.500000 0.000000 0.000000
#
# Coordination Sequence:
#
# PCOD9028099 Si02
#       5
#     2   2   2   2   2
#     4  11  20  43  74 103 142 183 237 297 357 426
#     4  10  23  45  68 100 147 186 238 292 354 421
#     4  10  24  45  73 104 147 192 238 294 355 427
#     4  10  22  41  71 107 135 187 233 296 361 424
#     4   9  22  43  71 102 143 185 242 291 358 424
#
# _framework density 23.901496999999999
#
# number of rings (size 3 to 8) (size 9 to 14) (size 15 to 20)
#    1.200    0.800    2.000    0.600    0.000    5.600 
#    0.000   15.000    0.000    1.200    0.000    0.000 
#    0.000    0.000    0.000    0.000    0.000    0.000 
#
# Total GULP energy -55737.630135 kJ/mol
# GULP energy per Si atom -5573.763013 kJ/mol
# Density = 2.384710 g / cm^3
# Si number density = 23.901497 Si / 1000 Ang^3
#
#
#
# Elastic Constant Matrix: (Units=GPa)
#
#
# Indices 1 2 3 4 5 6 
#
# 1 103.5436 12.0707 42.8009 -3.7024 -8.7144 4.9242
# 2 12.0707 131.8084 34.3348 -27.8250 12.5706 -2.9601
# 3 42.8009 34.3348 207.1692 7.8889 -22.6786 1.9737
# 4 -3.7024 -27.8250 7.8889 57.4888 -10.7638 7.1845
# 5 -8.7144 12.5706 -22.6786 -10.7638 27.2003 3.8308
# 6 4.9242 -2.9601 1.9737 7.1845 3.8308 24.6674
#
#
#
# Elastic Compliance Matrix: (Units=1/GPa)
#
#
# Indices 1 2 3 4 5 6 
#
# 1 0.010977 -0.000554 -0.001844 0.001711 0.003353 -0.003129
# 2 -0.000554 0.009505 -0.002167 0.003781 -0.005036 0.001105
# 3 -0.001844 -0.002167 0.006197 -0.000895 0.005358 -0.000959
# 4 0.001711 0.003781 -0.000895 0.021827 0.007730 -0.007374
# 5 0.003353 -0.005036 0.005358 0.007730 0.049328 -0.011614
# 6 -0.003129 0.001105 -0.000959 -0.007374 -0.011614 0.045325
#
#
# Mechanical properties :
#
#
# Convention : Reuss Voigt Hill
#
# Bulk Modulus (GPa) = 56.98206 68.99267 62.98736
# Shear Modulus (GPa) = 31.61796 45.42561 38.52178
#
# Velocity S-wave (km/s) = 3.64104 4.36424 4.01894
# Velocity P-wave (km/s) = 6.44735 7.37045 6.92430
#
# Compressibility (1/GPa) = 0.01754938
#
# Stress axis : x y z
#
# Youngs Moduli (GPa) = 91.10096 105.20520 161.37111
#
# Poissons Ratio (x) = 0.05824 0.29763
# Poissons Ratio (y) = 0.05044 0.34965
# Poissons Ratio (z) = 0.16803 0.22796
#
# Static dielectric constant tensor:
#      x y z
#    x 1.890120 0.003510 -0.041410 
#    y 0.003510 1.989870 -0.008320 
#    z -0.041410 -0.008320 2.002150 
# 
# From -- ./inp_files/43966.got.cif
#   From: 2010.05.17/outbox.cif.g08.bks.cpg/sg2_22_cif.got.tgz:43966.got - 2010.06.03 11:33:40.
