data_PCOD9028576
_publ_section_title
;
Structure prediction by ZEFSAII (Michael W. Deem and Ramdas Pophale) SiO2 
 PCOD9028576
Probable space group: P -1
;
_chemical_formula_sum "Si O2"
_cell_formula_units_Z 14
_cell_length_a 12.302080
_cell_length_b 10.443527
_cell_length_c 13.718876
_cell_angle_alpha 146.592992
_cell_angle_beta 126.325657
_cell_angle_gamma 37.987144
_cell_volume 586.005170
_symmetry_space_group_name_H-M "P -1"
_symmetry_group_IT_number 2
_symmetry_cell_setting 'triclinic'
loop_
_space_group_symop_operation_xyz
x,y,z
-x,-y,-z
loop_
_atom_site_type_symbol
_atom_site_label
_atom_site_fract_x
_atom_site_fract_y
_atom_site_fract_z
Si Si1 0.953790 0.455645 0.090252
Si Si2 0.597551 0.679484 0.081677
Si Si3 0.212288 0.305345 0.472426
Si Si4 0.534312 0.794027 0.793788
Si Si5 0.548652 0.624820 0.246070
Si Si6 0.808694 0.028978 0.237079
Si Si7 0.144779 0.539158 0.380876
O O1 0.805709 0.425027 0.999943
O O2 0.885184 0.734907 0.158693
O O3 0.986142 0.555113 0.270403
O O4 0.132420 0.129677 0.937763
O O5 0.591581 0.656270 0.178817
O O6 0.542869 0.987647 0.203553
O O7 0.478979 0.618103 0.928253
O O8 0.296044 0.450313 0.650741
O O9 0.236844 0.288850 0.358060
O O10 0.000000 0.500000 0.500000
O O11 0.350834 0.962034 0.375143
O O12 0.738628 0.532276 0.700164
O O13 0.406861 0.719326 0.700513
O O14 0.500000 0.000000 0.000000
O O15 0.897538 0.167280 0.405173
#
# Coordination Sequence:
#
# PCOD9028576 Si02
#       7
#     2   2   2   2   2   2   2
#     4  10  22  42  63  95 135 169 224 272 329 409
#     4  10  22  44  67  88 129 184 211 278 347 387
#     4  11  25  43  66 102 132 170 229 285 328 402
#     4  11  22  41  63  94 136 168 221 274 328 405
#     4  10  23  46  67  94 134 176 227 274 342 395
#     4  10  23  40  62  96 131 178 218 268 337 400
#     4  12  23  41  67  97 133 174 222 278 338 397
#
# _framework density 23.890574000000001
#
# number of rings (size 3 to 8) (size 9 to 14) (size 15 to 20)
#    0.000    1.429    2.857    1.714    4.000    0.000 
#    0.000    2.143    0.000    0.000    0.000    0.000 
#    0.000    0.000    0.000    0.000    0.000    0.000 
#
# Total GULP energy -78162.161109 kJ/mol
# GULP energy per Si atom -5583.011508 kJ/mol
# Density = 2.383620 g / cm^3
# Si number density = 23.890574 Si / 1000 Ang^3
#
#
#
# Elastic Constant Matrix: (Units=GPa)
#
#
# Indices 1 2 3 4 5 6 
#
# 1 70.0298 30.1230 10.5757 -6.2399 1.2331 -19.0297
# 2 30.1230 75.2004 6.7725 -20.6553 -2.0134 -20.3751
# 3 10.5757 6.7725 77.5890 -21.7210 8.5679 -13.1412
# 4 -6.2399 -20.6553 -21.7210 42.6171 -5.6884 2.1332
# 5 1.2331 -2.0134 8.5679 -5.6884 27.4984 -4.2178
# 6 -19.0297 -20.3751 -13.1412 2.1332 -4.2178 30.1387
#
#
#
# Elastic Compliance Matrix: (Units=1/GPa)
#
#
# Indices 1 2 3 4 5 6 
#
# 1 0.018872 -0.005595 -0.001014 -0.000844 0.000076 0.007762
# 2 -0.005595 0.022094 0.003775 0.011851 0.005127 0.012929
# 3 -0.001014 0.003775 0.017027 0.009714 -0.001684 0.008413
# 4 -0.000844 0.011851 0.009714 0.034401 0.006559 0.010197
# 5 0.000076 0.005127 -0.001684 0.006559 0.039829 0.007890
# 6 0.007762 0.012929 0.008413 0.010197 0.007890 0.050872
#
#
# Mechanical properties :
#
#
# Convention : Reuss Voigt Hill
#
# Bulk Modulus (GPa) = 19.11085 35.30685 27.20885
# Shear Modulus (GPa) = 24.24771 31.74072 27.99422
#
# Velocity S-wave (km/s) = 3.18928 3.64893 3.42682
# Velocity P-wave (km/s) = 4.64529 5.70645 5.20300
#
# Compressibility (1/GPa) = 0.05232630
#
# Stress axis : x y z
#
# Youngs Moduli (GPa) = 52.98850 45.26068 58.72897
#
# Poissons Ratio (x) = 0.25323 0.05955
# Poissons Ratio (y) = 0.29647 -0.22172
# Poissons Ratio (z) = 0.05373 -0.17087
#
# Static dielectric constant tensor:
#      x y z
#    x 1.949440 -0.072170 -0.027190 
#    y -0.072170 1.963210 0.039150 
#    z -0.027190 0.039150 1.904090 
# 
# From -- ./inp_files/425815.got.cif
#   From: 2010.05.17/outbox.cif.g08.bks.cpg/sg2_213_cif.got.tgz:425815.got - 2010.06.03 11:33:40.
