data_PCOD9028725
_publ_section_title
;
Structure prediction by ZEFSAII (Michael W. Deem and Ramdas Pophale) SiO2 
 PCOD9028725
Probable space group: P -1
;
_chemical_formula_sum "Si O2"
_cell_formula_units_Z 15
_cell_length_a 17.322526
_cell_length_b 7.987285
_cell_length_c 6.704946
_cell_angle_alpha 112.029847
_cell_angle_beta 114.801399
_cell_angle_gamma 99.629837
_cell_volume 720.220409
_symmetry_space_group_name_H-M "P -1"
_symmetry_group_IT_number 2
_symmetry_cell_setting 'triclinic'
loop_
_space_group_symop_operation_xyz
x,y,z
-x,-y,-z
loop_
_atom_site_type_symbol
_atom_site_label
_atom_site_fract_x
_atom_site_fract_y
_atom_site_fract_z
Si Si1 0.500000 0.000000 0.000000
Si Si2 0.030543 0.194287 0.987008
Si Si3 0.446050 0.189194 0.398102
Si Si4 0.841762 0.207211 0.619018
Si Si5 0.900607 0.476995 0.460046
Si Si6 0.816359 0.552131 0.001681
Si Si7 0.651480 0.882937 0.336616
Si Si8 0.617706 0.551674 0.860261
O O1 0.591324 0.973282 0.182408
O O2 0.469758 0.045208 0.213486
O O3 0.939621 0.210883 0.801177
O O4 0.107827 0.248186 0.921060
O O5 0.077890 0.364005 0.273184
O O6 0.000000 0.000000 0.000000
O O7 0.371943 0.103058 0.452371
O O8 0.539194 0.335732 0.672685
O O9 0.412044 0.323167 0.277825
O O10 0.850368 0.271966 0.426375
O O11 0.759155 0.000986 0.467359
O O12 0.818998 0.368371 0.795112
O O13 0.845305 0.519770 0.240473
O O14 0.000000 0.500000 0.500000
O O15 0.715287 0.552089 0.900460
O O16 0.624225 0.661012 0.127629
#
# Coordination Sequence:
#
# PCOD9028725 Si02
#       8
#     1   2   2   2   2   2   2   2
#     4  10  22  42  64  96 122 168 216 258 324 388
#     4  11  25  40  63  94 131 167 218 277 321 385
#     4  10  22  44  65  91 137 164 213 275 325 390
#     4  11  24  41  62  96 129 170 222 269 322 392
#     4  11  21  43  63  85 126 175 214 265 324 383
#     4  11  23  42  65  91 128 176 218 265 331 388
#     4  11  24  39  66  96 130 168 217 271 326 388
#     4  10  24  40  63  96 126 172 218 264 331 390
#
# _framework density 20.82696
#
# number of rings (size 3 to 8) (size 9 to 14) (size 15 to 20)
#    0.000    1.333    2.667    2.400    3.733    5.867 
#    0.000    0.000    0.000    0.000    0.000    0.000 
#    0.000    0.000    0.000    0.000    0.000    0.000 
#
# Total GULP energy -83548.095496 kJ/mol
# GULP energy per Si atom -5569.873033 kJ/mol
# Density = 2.077956 g / cm^3
# Si number density = 20.826960 Si / 1000 Ang^3
#
#
#
# Elastic Constant Matrix: (Units=GPa)
#
#
# Indices 1 2 3 4 5 6 
#
# 1 121.5915 20.0587 22.6946 -5.9443 5.3871 11.9527
# 2 20.0587 68.5159 20.4989 -12.6430 -7.8728 22.9707
# 3 22.6946 20.4989 74.3384 -12.2612 -15.8693 14.7919
# 4 -5.9443 -12.6430 -12.2612 17.6680 2.0413 0.9006
# 5 5.3871 -7.8728 -15.8693 2.0413 31.2777 -11.9419
# 6 11.9527 22.9707 14.7919 0.9006 -11.9419 34.2975
#
#
#
# Elastic Compliance Matrix: (Units=1/GPa)
#
#
# Indices 1 2 3 4 5 6 
#
# 1 0.009487 -0.001348 -0.002770 0.000970 -0.004513 -0.002806
# 2 -0.001348 0.023447 -0.000328 0.017055 -0.001244 -0.015974
# 3 -0.002770 -0.000328 0.018737 0.011215 0.007409 -0.004611
# 4 0.000970 0.017055 0.011215 0.078235 -0.002781 -0.019620
# 5 -0.004513 -0.001244 0.007409 -0.002781 0.041638 0.013782
# 6 -0.002806 -0.015974 -0.004611 -0.019620 0.013782 0.048135
#
#
# Mechanical properties :
#
#
# Convention : Reuss Voigt Hill
#
# Bulk Modulus (GPa) = 23.37556 43.43890 33.40723
# Shear Modulus (GPa) = 20.59054 30.06157 25.32605
#
# Velocity S-wave (km/s) = 3.14769 3.80333 3.49093
# Velocity P-wave (km/s) = 4.94557 6.33951 5.68542
#
# Compressibility (1/GPa) = 0.04277973
#
# Stress axis : x y z
#
# Youngs Moduli (GPa) = 105.41077 42.64851 53.37060
#
# Poissons Ratio (x) = 0.05747 0.14782
# Poissons Ratio (y) = 0.14205 0.01752
# Poissons Ratio (z) = 0.29196 0.01400
#
# Static dielectric constant tensor:
#      x y z
#    x 1.704290 0.023050 -0.014300 
#    y 0.023050 1.794830 0.037660 
#    z -0.014300 0.037660 1.789790 
# 
# From -- ./inp_files/39494.got.cif
#   From: 2010.05.17/outbox.cif.g08.bks.cpg/sg2_20_cif.got.tgz:39494.got - 2010.06.03 11:33:40.
