data_PCOD9028667
_publ_section_title
;
Structure prediction by ZEFSAII (Michael W. Deem and Ramdas Pophale) SiO2 
 PCOD9028667
Probable space group: P -1
;
_chemical_formula_sum "Si O2"
_cell_formula_units_Z 16
_cell_length_a 9.253267
_cell_length_b 14.871546
_cell_length_c 12.007132
_cell_angle_alpha 97.563671
_cell_angle_beta 84.649547
_cell_angle_gamma 156.217047
_cell_volume 659.001881
_symmetry_space_group_name_H-M "P -1"
_symmetry_group_IT_number 2
_symmetry_cell_setting 'triclinic'
loop_
_space_group_symop_operation_xyz
x,y,z
-x,-y,-z
loop_
_atom_site_type_symbol
_atom_site_label
_atom_site_fract_x
_atom_site_fract_y
_atom_site_fract_z
Si Si1 0.928733 0.481159 0.872474
Si Si2 0.747600 0.690079 0.865745
Si Si3 0.296270 0.250757 0.887617
Si Si4 0.711338 0.461160 0.303848
Si Si5 0.022900 0.977481 0.350177
Si Si6 0.255796 0.007513 0.529671
Si Si7 0.414056 0.956074 0.357804
Si Si8 0.631205 0.087085 0.129912
O O1 0.528184 0.291818 0.867122
O O2 0.059791 0.475697 0.782262
O O3 0.152058 0.696288 0.853192
O O4 0.000000 0.500000 0.000000
O O5 0.512961 0.466964 0.878079
O O6 0.548651 0.627042 0.770145
O O7 0.130832 0.863735 0.848516
O O8 0.793868 0.783680 0.982898
O O9 0.009909 0.077294 0.781813
O O10 0.430453 0.249303 0.369686
O O11 0.018811 0.695287 0.380354
O O12 0.744740 0.899661 0.385551
O O13 0.962022 0.868678 0.433863
O O14 0.518755 0.108977 0.437090
O O15 0.291060 0.949603 0.611037
O O16 0.363424 0.940750 0.227694
O O17 0.500000 0.000000 0.000000
#
# Coordination Sequence:
#
# PCOD9028667 Si02
#       8
#     2   2   2   2   2   2   2   2
#     4  11  22  39  60  98 137 171 211 265 330 395
#     4  10  23  39  64  98 131 179 210 262 331 404
#     4  10  22  42  64  91 139 172 218 264 327 400
#     4  12  24  39  67  99 135 169 218 277 331 394
#     4  11  24  42  66  98 125 174 225 280 328 379
#     4  10  24  46  69  89 128 177 227 276 329 382
#     4  11  24  45  67  95 133 175 221 273 325 399
#     4  11  25  41  68  96 134 178 215 263 335 401
#
# _framework density 24.279142
#
# number of rings (size 3 to 8) (size 9 to 14) (size 15 to 20)
#    0.000    1.250    1.250    3.750    7.000    2.500 
#    0.000   10.000    0.000    0.000    0.000    0.000 
#    0.000    0.000    0.000    0.000    0.000    0.000 
#
# Total GULP energy -89200.290633 kJ/mol
# GULP energy per Si atom -5575.018165 kJ/mol
# Density = 2.422388 g / cm^3
# Si number density = 24.279142 Si / 1000 Ang^3
#
#
#
# Elastic Constant Matrix: (Units=GPa)
#
#
# Indices 1 2 3 4 5 6 
#
# 1 192.3887 13.1200 36.9014 -0.5166 8.8971 1.6639
# 2 13.1200 64.8313 27.4617 -0.9223 -5.8389 -4.1668
# 3 36.9014 27.4617 134.3142 -0.1482 11.9638 3.8168
# 4 -0.5166 -0.9223 -0.1482 18.5917 1.7811 -0.0011
# 5 8.8971 -5.8389 11.9638 1.7811 33.4304 1.4211
# 6 1.6639 -4.1668 3.8168 -0.0011 1.4211 25.6158
#
#
#
# Elastic Compliance Matrix: (Units=1/GPa)
#
#
# Indices 1 2 3 4 5 6 
#
# 1 0.005545 -0.000697 -0.001272 0.000219 -0.001144 -0.000221
# 2 -0.000697 0.017872 -0.003962 0.000399 0.004564 0.003290
# 3 -0.001272 -0.003962 0.008965 0.000175 -0.003499 -0.001704
# 4 0.000219 0.000399 0.000175 0.054097 -0.002941 0.000190
# 5 -0.001144 0.004564 -0.003499 -0.002941 0.032443 -0.000462
# 6 -0.000221 0.003290 -0.001704 0.000190 -0.000462 0.039867
#
#
# Mechanical properties :
#
#
# Convention : Reuss Voigt Hill
#
# Bulk Modulus (GPa) = 48.73624 60.72226 54.72925
# Shear Modulus (GPa) = 28.17029 36.46433 32.31731
#
# Velocity S-wave (km/s) = 3.40996 3.87961 3.65235
# Velocity P-wave (km/s) = 5.96831 6.71810 6.35427
#
# Compressibility (1/GPa) = 0.02051861
#
# Stress axis : x y z
#
# Youngs Moduli (GPa) = 180.34814 55.95284 111.54333
#
# Poissons Ratio (x) = 0.03901 0.14192
# Poissons Ratio (y) = 0.12575 0.44195
# Poissons Ratio (z) = 0.22947 0.22169
#
# Static dielectric constant tensor:
#      x y z
#    x 1.967460 0.001580 -0.008420 
#    y 0.001580 1.990570 -0.008050 
#    z -0.008420 -0.008050 1.919490 
# 
# From -- ./inp_files/225863.got.cif
#   From: 2010.05.17/outbox.cif.g08.bks.cpg/sg2_113_cif.got.tgz:225863.got - 2010.06.03 11:33:40.
