data_PCOD9028912
_publ_section_title
;
Structure prediction by ZEFSAII (Michael W. Deem and Ramdas Pophale) SiO2 
 PCOD9028912
Probable space group: P -1
;
_chemical_formula_sum "Si O2"
_cell_formula_units_Z 16
_cell_length_a 23.170180
_cell_length_b 13.509538
_cell_length_c 8.611566
_cell_angle_alpha 42.072221
_cell_angle_beta 38.212459
_cell_angle_gamma 23.612194
_cell_volume 665.153328
_symmetry_space_group_name_H-M "P -1"
_symmetry_group_IT_number 2
_symmetry_cell_setting 'triclinic'
loop_
_space_group_symop_operation_xyz
x,y,z
-x,-y,-z
loop_
_atom_site_type_symbol
_atom_site_label
_atom_site_fract_x
_atom_site_fract_y
_atom_site_fract_z
Si Si1 0.473929 0.886064 0.909193
Si Si2 0.826802 0.878901 0.837762
Si Si3 0.050696 0.563025 0.439279
Si Si4 0.165301 0.793443 0.547986
Si Si5 0.370677 0.533736 0.727224
Si Si6 0.264327 0.091211 0.683508
Si Si7 0.610877 0.702355 0.500172
Si Si8 0.109299 0.010842 0.931861
O O1 0.587113 0.760456 0.666168
O O2 0.377073 0.162544 0.783814
O O3 0.555159 0.717188 0.085899
O O4 0.347258 0.921340 0.094420
O O5 0.943301 0.695641 0.665159
O O6 0.850162 0.016462 0.681687
O O7 0.824640 0.785485 0.106867
O O8 0.000000 0.500000 0.500000
O O9 0.223249 0.291617 0.441646
O O10 0.009639 0.767139 0.203211
O O11 0.285390 0.634781 0.624958
O O12 0.246015 0.587692 0.490495
O O13 0.999906 0.939318 0.779550
O O14 0.500000 0.500000 0.500000
O O15 0.238038 0.747683 0.882679
O O16 0.446792 0.842387 0.624231
O O17 0.198186 0.034637 0.797387
#
# Coordination Sequence:
#
# PCOD9028912 Si02
#       8
#     2   2   2   2   2   2   2   2
#     4  10  24  44  71  96 132 173 223 279 322 403
#     4  11  23  43  68 102 132 172 224 273 333 392
#     4  10  22  42  65  94 135 172 214 274 327 393
#     4  12  26  42  67 100 138 173 217 280 328 399
#     4  12  23  44  70  98 133 178 218 273 334 393
#     4  10  24  42  70  94 130 180 221 273 326 397
#     4  10  25  46  67  99 131 172 227 271 334 386
#     4  11  25  43  63 101 138 172 219 272 335 392
#
# _framework density 24.054606
#
# number of rings (size 3 to 8) (size 9 to 14) (size 15 to 20)
#    0.000    1.250    2.500    1.500    7.000    3.000 
#    2.250    0.000    0.000    0.000    0.000    0.000 
#    0.000    0.000    0.000    0.000    0.000    0.000 
#
# Total GULP energy -89564.161590 kJ/mol
# GULP energy per Si atom -5597.760099 kJ/mol
# Density = 2.399986 g / cm^3
# Si number density = 24.054606 Si / 1000 Ang^3
#
#
#
# Elastic Constant Matrix: (Units=GPa)
#
#
# Indices 1 2 3 4 5 6 
#
# 1 77.0355 0.8063 14.3900 -10.7055 -0.5308 -5.9885
# 2 0.8063 98.5145 24.7820 5.4076 -3.1710 8.6335
# 3 14.3900 24.7820 91.9381 -17.9903 -16.5239 -14.7177
# 4 -10.7055 5.4076 -17.9903 29.8823 -7.0552 8.7975
# 5 -0.5308 -3.1710 -16.5239 -7.0552 40.5249 -3.3900
# 6 -5.9885 8.6335 -14.7177 8.7975 -3.3900 29.9023
#
#
#
# Elastic Compliance Matrix: (Units=1/GPa)
#
#
# Indices 1 2 3 4 5 6 
#
# 1 0.013847 -0.000170 -0.001015 0.004176 0.000578 0.001160
# 2 -0.000170 0.012135 -0.005412 -0.004591 -0.002488 -0.005133
# 3 -0.001015 -0.005412 0.017594 0.011111 0.009325 0.007807
# 4 0.004176 -0.004591 0.011111 0.046704 0.011959 -0.004754
# 5 0.000578 -0.002488 0.009325 0.011959 0.030825 0.005400
# 6 0.001160 -0.005133 0.007807 -0.004754 0.005400 0.041010
#
#
# Mechanical properties :
#
#
# Convention : Reuss Voigt Hill
#
# Bulk Modulus (GPa) = 32.91292 38.60496 35.75894
# Shear Modulus (GPa) = 26.96338 35.22921 31.09630
#
# Velocity S-wave (km/s) = 3.35165 3.83110 3.59937
# Velocity P-wave (km/s) = 5.35634 5.97105 5.67203
#
# Compressibility (1/GPa) = 0.03038321
#
# Stress axis : x y z
#
# Youngs Moduli (GPa) = 72.21887 82.40439 56.83626
#
# Poissons Ratio (x) = 0.01404 0.05767
# Poissons Ratio (y) = 0.01230 0.30758
# Poissons Ratio (z) = 0.07328 0.44594
#
# Static dielectric constant tensor:
#      x y z
#    x 1.930470 -0.009370 0.008750 
#    y -0.009370 1.911650 -0.026960 
#    z 0.008750 -0.026960 1.908770 
# 
# From -- ./inp_files/353382.got.cif
#   From: 2010.05.17/outbox.cif.g08.bks.cpg/sg2_177_cif.got.tgz:353382.got - 2010.06.03 11:33:40.
