data_PCOD9028939
_publ_section_title
;
Structure prediction by ZEFSAII (Michael W. Deem and Ramdas Pophale) SiO2 
 PCOD9028939
Probable space group: P -1
;
_chemical_formula_sum "Si O2"
_cell_formula_units_Z 16
_cell_length_a 8.852019
_cell_length_b 8.960202
_cell_length_c 12.740899
_cell_angle_alpha 54.064609
_cell_angle_beta 80.925778
_cell_angle_gamma 113.566582
_cell_volume 636.604543
_symmetry_space_group_name_H-M "P -1"
_symmetry_group_IT_number 2
_symmetry_cell_setting 'triclinic'
loop_
_space_group_symop_operation_xyz
x,y,z
-x,-y,-z
loop_
_atom_site_type_symbol
_atom_site_label
_atom_site_fract_x
_atom_site_fract_y
_atom_site_fract_z
Si Si1 0.673893 0.308505 0.633326
Si Si2 0.693068 0.958989 0.885222
Si Si3 0.104805 0.849560 0.807167
Si Si4 0.283852 0.174963 0.828009
Si Si5 0.255504 0.884000 0.503253
Si Si6 0.651877 0.383598 0.283443
Si Si7 0.702604 0.379909 0.050763
Si Si8 0.976311 0.856310 0.395335
O O1 0.473406 0.258388 0.705477
O O2 0.675181 0.183459 0.579902
O O3 0.839436 0.584336 0.492965
O O4 0.714977 0.195826 0.769988
O O5 0.477273 0.751385 0.952668
O O6 0.848162 0.995856 0.769287
O O7 0.713576 0.911048 0.021567
O O8 0.249818 0.791250 0.843514
O O9 0.103793 0.957416 0.874269
O O10 0.142520 0.042093 0.641938
O O11 0.902630 0.610316 0.893574
O O12 0.291330 0.400244 0.743015
O O13 0.213492 0.690987 0.670464
O O14 0.079635 0.876182 0.483855
O O15 0.435533 0.140345 0.416427
O O16 0.659285 0.452364 0.133780
#
# Coordination Sequence:
#
# PCOD9028939 Si02
#       8
#     2   2   2   2   2   2   2   2
#     4  11  23  45  69 102 140 187 222 292 348 413
#     4  11  23  46  76  99 142 186 233 282 354 413
#     4  11  26  44  69 106 138 185 234 290 344 414
#     4  12  26  42  72 108 139 180 242 287 343 412
#     4  10  22  42  65  95 141 183 227 274 358 408
#     4  11  23  41  69 100 135 187 231 285 341 424
#     4  11  24  47  72  96 148 186 229 286 357 408
#     4  11  24  43  73 103 137 181 236 285 346 414
#
# _framework density 25.133341000000001
#
# number of rings (size 3 to 8) (size 9 to 14) (size 15 to 20)
#    0.000    1.000    3.750    3.375    1.750    9.000 
#    2.250    1.250    0.000    0.000    0.000    0.000 
#    0.000    0.000    0.000    0.000    0.000    0.000 
#
# Total GULP energy -89590.620936 kJ/mol
# GULP energy per Si atom -5599.413809 kJ/mol
# Density = 2.507614 g / cm^3
# Si number density = 25.133341 Si / 1000 Ang^3
#
#
#
# Elastic Constant Matrix: (Units=GPa)
#
#
# Indices 1 2 3 4 5 6 
#
# 1 108.5071 40.9750 44.4391 -8.1463 14.4333 18.7382
# 2 40.9750 105.1092 60.7656 -8.0486 4.8683 16.1418
# 3 44.4391 60.7656 90.5453 -5.5668 3.7631 18.0061
# 4 -8.1463 -8.0486 -5.5668 41.7832 3.2687 8.6948
# 5 14.4333 4.8683 3.7631 3.2687 47.2263 2.6537
# 6 18.7382 16.1418 18.0061 8.6948 2.6537 43.5410
#
#
#
# Elastic Compliance Matrix: (Units=1/GPa)
#
#
# Indices 1 2 3 4 5 6 
#
# 1 0.012806 -0.001702 -0.004150 0.002605 -0.003392 -0.003477
# 2 -0.001702 0.016086 -0.009498 0.001878 -0.000418 -0.001652
# 3 -0.004150 -0.009498 0.020094 0.000639 0.000781 -0.003178
# 4 0.002605 0.001878 0.000639 0.026588 -0.002474 -0.007240
# 5 -0.003392 -0.000418 0.000781 -0.002474 0.022340 0.000425
# 6 -0.003477 -0.001652 -0.003178 -0.007240 0.000425 0.027810
#
#
# Mechanical properties :
#
#
# Convention : Reuss Voigt Hill
#
# Bulk Modulus (GPa) = 54.69172 66.28013 60.48592
# Shear Modulus (GPa) = 30.76578 37.04221 33.90399
#
# Velocity S-wave (km/s) = 3.50251 3.84321 3.67681
# Velocity P-wave (km/s) = 6.17776 6.79134 6.49180
#
# Compressibility (1/GPa) = 0.01828430
#
# Stress axis : x y z
#
# Youngs Moduli (GPa) = 78.09013 62.16766 49.76613
#
# Poissons Ratio (x) = 0.10583 0.20652
# Poissons Ratio (y) = 0.13294 0.47269
# Poissons Ratio (z) = 0.32406 0.59048
#
# Static dielectric constant tensor:
#      x y z
#    x 2.003760 -0.053860 -0.001060 
#    y -0.053860 2.004640 0.030890 
#    z -0.001060 0.030890 1.983160 
# 
# From -- ./inp_files/494387.got.cif
#   From: 2010.05.17/outbox.cif.g08.bks.cpg/sg2_248_cif.got.tgz:494387.got - 2010.06.03 11:33:40.
