data_PCOD9028675
_publ_section_title
;
Structure prediction by ZEFSAII (Michael W. Deem and Ramdas Pophale) SiO2 
 PCOD9028675
Probable space group: P -1
;
_chemical_formula_sum "Si O2"
_cell_formula_units_Z 10
_cell_length_a 6.288843
_cell_length_b 10.949964
_cell_length_c 10.019314
_cell_angle_alpha 123.841639
_cell_angle_beta 62.592838
_cell_angle_gamma 80.609549
_cell_volume 418.379440
_symmetry_space_group_name_H-M "P -1"
_symmetry_group_IT_number 2
_symmetry_cell_setting 'triclinic'
loop_
_space_group_symop_operation_xyz
x,y,z
-x,-y,-z
loop_
_atom_site_type_symbol
_atom_site_label
_atom_site_fract_x
_atom_site_fract_y
_atom_site_fract_z
Si Si1 0.626923 0.060903 0.843635
Si Si2 0.433316 0.665229 0.795279
Si Si3 0.772867 0.311318 0.854921
Si Si4 0.411286 0.132973 0.483949
Si Si5 0.789735 0.265084 0.393252
O O1 0.720153 0.154124 0.765476
O O2 0.482782 0.983167 0.753191
O O3 0.464994 0.216347 0.095744
O O4 0.906943 0.898466 0.738546
O O5 0.702018 0.461936 0.572837
O O6 0.261260 0.737584 0.751424
O O7 0.219254 0.675405 0.978151
O O8 0.061956 0.258820 0.664818
O O9 0.500000 0.500000 0.000000
O O10 0.550104 0.243687 0.518656
O O11 0.500000 0.000000 0.500000
#
# Coordination Sequence:
#
# PCOD9028675 Si02
#       5
#     2   2   2   2   2
#     4  10  23  42  66  89 137 167 207 268 327 370
#     4   9  23  41  67  89 134 173 205 263 326 381
#     4  10  22  42  64  92 131 172 206 262 325 375
#     4  12  24  39  69  99 125 167 223 265 314 384
#     4  11  22  45  64  98 126 171 217 262 318 385
#
# _framework density 23.901748999999999
#
# number of rings (size 3 to 8) (size 9 to 14) (size 15 to 20)
#    1.200    0.400    2.000    2.400    2.800    1.600 
#    3.600    9.000    0.000    0.000    0.000    0.000 
#    0.000    0.000    0.000    0.000    0.000    0.000 
#
# Total GULP energy -55915.238380 kJ/mol
# GULP energy per Si atom -5591.523838 kJ/mol
# Density = 2.384735 g / cm^3
# Si number density = 23.901749 Si / 1000 Ang^3
#
#
#
# Elastic Constant Matrix: (Units=GPa)
#
#
# Indices 1 2 3 4 5 6 
#
# 1 49.7331 36.3585 41.8294 20.8411 7.1697 -0.2949
# 2 36.3585 120.3095 40.8216 11.6322 -8.6306 -20.9464
# 3 41.8294 40.8216 111.7391 22.1364 21.6472 -2.5501
# 4 20.8411 11.6322 22.1364 48.8462 -7.4922 -4.2640
# 5 7.1697 -8.6306 21.6472 -7.4922 29.0095 -9.3366
# 6 -0.2949 -20.9464 -2.5501 -4.2640 -9.3366 34.5228
#
#
#
# Elastic Compliance Matrix: (Units=1/GPa)
#
#
# Indices 1 2 3 4 5 6 
#
# 1 0.046489 -0.016222 -0.002988 -0.020179 -0.025425 -0.019035
# 2 -0.016222 0.020004 -0.007877 0.011281 0.025056 0.019586
# 3 -0.002988 -0.007877 0.018741 -0.009530 -0.021393 -0.010383
# 4 -0.020179 0.011281 -0.009530 0.037152 0.031160 0.018984
# 5 -0.025425 0.025056 -0.021393 0.031160 0.085189 0.040293
# 6 -0.019035 0.019586 -0.010383 0.018984 0.040293 0.053162
#
#
# Mechanical properties :
#
#
# Convention : Reuss Voigt Hill
#
# Bulk Modulus (GPa) = 32.19617 57.75563 44.97590
# Shear Modulus (GPa) = 15.37211 33.32721 24.34966
#
# Velocity S-wave (km/s) = 2.53877 3.73814 3.19523
# Velocity P-wave (km/s) = 4.70035 6.54582 5.69829
#
# Compressibility (1/GPa) = 0.03105959
#
# Stress axis : x y z
#
# Youngs Moduli (GPa) = 21.51057 49.98998 53.35861
#
# Poissons Ratio (x) = 0.81096 0.15942
# Poissons Ratio (y) = 0.34895 0.42031
# Poissons Ratio (z) = 0.06427 0.39377
#
# Static dielectric constant tensor:
#      x y z
#    x 1.880050 0.016270 0.026250 
#    y 0.016270 1.902800 -0.038850 
#    z 0.026250 -0.038850 1.943760 
# 
# From -- ./inp_files/35147.got.cif
#   From: 2010.05.17/outbox.cif.g08.bks.cpg/sg2_18_cif.got.tgz:35147.got - 2010.06.03 11:33:40.
