data_PCOD9028439
_publ_section_title
;
Structure prediction by ZEFSAII (Michael W. Deem and Ramdas Pophale) SiO2 
 PCOD9028439
Probable space group: P -1
;
_chemical_formula_sum "Si O2"
_cell_formula_units_Z 16
_cell_length_a 17.275515
_cell_length_b 6.916325
_cell_length_c 10.099639
_cell_angle_alpha 124.626324
_cell_angle_beta 52.101960
_cell_angle_gamma 104.078229
_cell_volume 773.107182
_symmetry_space_group_name_H-M "P -1"
_symmetry_group_IT_number 2
_symmetry_cell_setting 'triclinic'
loop_
_space_group_symop_operation_xyz
x,y,z
-x,-y,-z
loop_
_atom_site_type_symbol
_atom_site_label
_atom_site_fract_x
_atom_site_fract_y
_atom_site_fract_z
Si Si1 0.245420 0.303036 0.771956
Si Si2 0.874366 0.122142 0.286715
Si Si3 0.415704 0.027664 0.988843
Si Si4 0.331731 0.559840 0.291405
Si Si5 0.550638 0.047327 0.602467
Si Si6 0.713950 0.329670 0.914955
Si Si7 0.907102 0.482037 0.185729
Si Si8 0.912939 0.986649 0.483616
O O1 0.191797 0.485747 0.788884
O O2 0.169780 0.114676 0.797860
O O3 0.349825 0.148620 0.556683
O O4 0.262692 0.444505 0.940969
O O5 0.776199 0.313902 0.499350
O O6 0.924250 0.244330 0.162706
O O7 0.931941 0.070281 0.345453
O O8 0.470808 0.034177 0.794817
O O9 0.347948 0.280106 0.187097
O O10 0.500000 0.000000 0.000000
O O11 0.353498 0.814649 0.982648
O O12 0.411861 0.697750 0.330926
O O13 0.339118 0.602908 0.142921
O O14 0.500000 0.000000 0.500000
O O15 0.815029 0.154690 0.704006
O O16 0.896086 0.715014 0.380525
O O17 0.000000 0.500000 0.000000
O O18 0.000000 0.000000 0.500000
#
# Coordination Sequence:
#
# PCOD9028439 Si02
#       8
#     2   2   2   2   2   2   2   2
#     4  10  24  41  63  91 130 169 222 272 321 395
#     4   9  22  42  67  91 129 175 207 268 333 380
#     4  12  25  38  67  94 125 177 216 269 334 380
#     4  10  22  42  62  89 129 166 219 265 318 392
#     4  11  24  42  62  91 132 173 218 274 327 388
#     4  11  23  43  65  95 129 171 219 272 324 389
#     4  11  23  42  67  96 130 169 215 272 330 396
#     4  10  22  42  67  99 130 167 218 269 325 397
#
# _framework density 20.695706999999999
#
# number of rings (size 3 to 8) (size 9 to 14) (size 15 to 20)
#    0.000    1.500    1.250    3.375    3.500    6.000 
#    0.000    5.000    0.000    0.000    0.000    0.000 
#    0.000    0.000    0.000    0.000    0.000    0.000 
#
# Total GULP energy -89489.841150 kJ/mol
# GULP energy per Si atom -5593.115072 kJ/mol
# Density = 2.064860 g / cm^3
# Si number density = 20.695707 Si / 1000 Ang^3
#
#
#
# Elastic Constant Matrix: (Units=GPa)
#
#
# Indices 1 2 3 4 5 6 
#
# 1 110.8612 32.0975 22.6452 -4.1866 21.2897 -3.8814
# 2 32.0975 105.7383 26.8167 -6.6168 7.0283 -4.6819
# 3 22.6452 26.8167 82.4262 6.9989 13.7858 13.1840
# 4 -4.1866 -6.6168 6.9989 38.7875 -0.3220 -3.0313
# 5 21.2897 7.0283 13.7858 -0.3220 39.5273 5.5363
# 6 -3.8814 -4.6819 13.1840 -3.0313 5.5363 20.8380
#
#
#
# Elastic Compliance Matrix: (Units=1/GPa)
#
#
# Indices 1 2 3 4 5 6 
#
# 1 0.011456 -0.002168 -0.002429 0.001642 -0.005613 0.004913
# 2 -0.002168 0.011631 -0.004275 0.002941 -0.000139 0.005379
# 3 -0.002429 -0.004275 0.016944 -0.005027 -0.002161 -0.012291
# 4 0.001642 0.002941 -0.005027 0.028018 -0.000600 0.008383
# 5 -0.005613 -0.000139 -0.002161 -0.000600 0.030190 -0.007818
# 6 0.004913 0.005379 -0.012291 0.008383 -0.007818 0.061185
#
#
# Mechanical properties :
#
#
# Convention : Reuss Voigt Hill
#
# Bulk Modulus (GPa) = 44.86848 51.34941 48.10895
# Shear Modulus (GPa) = 27.08583 34.32833 30.70708
#
# Velocity S-wave (km/s) = 3.62161 4.07715 3.85612
# Velocity P-wave (km/s) = 6.26221 6.85782 6.56677
#
# Compressibility (1/GPa) = 0.02228736
#
# Stress axis : x y z
#
# Youngs Moduli (GPa) = 87.29058 85.97575 59.01666
#
# Poissons Ratio (x) = 0.18642 0.14332
# Poissons Ratio (y) = 0.18927 0.25231
# Poissons Ratio (z) = 0.21199 0.36757
#
# Static dielectric constant tensor:
#      x y z
#    x 1.723770 -0.022840 -0.027370 
#    y -0.022840 1.730460 0.005060 
#    z -0.027370 0.005060 1.732600 
# 
# From -- ./inp_files/90339.got.cif
#   From: 2010.05.17/outbox.cif.g08.bks.cpg/sg2_46_cif.got.tgz:90339.got - 2010.06.03 11:33:40.
