data_PCOD9028429
_publ_section_title
;
Structure prediction by ZEFSAII (Michael W. Deem and Ramdas Pophale) SiO2 
 PCOD9028429
Probable space group: P -1
;
_chemical_formula_sum "Si O2"
_cell_formula_units_Z 16
_cell_length_a 8.828464
_cell_length_b 10.550532
_cell_length_c 11.267463
_cell_angle_alpha 78.931810
_cell_angle_beta 55.744189
_cell_angle_gamma 59.451160
_cell_volume 740.486756
_symmetry_space_group_name_H-M "P -1"
_symmetry_group_IT_number 2
_symmetry_cell_setting 'triclinic'
loop_
_space_group_symop_operation_xyz
x,y,z
-x,-y,-z
loop_
_atom_site_type_symbol
_atom_site_label
_atom_site_fract_x
_atom_site_fract_y
_atom_site_fract_z
Si Si1 0.281835 0.155544 0.075896
Si Si2 0.336867 0.437186 0.594581
Si Si3 0.285503 0.078363 0.350246
Si Si4 0.950059 0.076738 0.134782
Si Si5 0.055825 0.806989 0.315275
Si Si6 0.528774 0.734122 0.679242
Si Si7 0.923924 0.496881 0.668103
Si Si8 0.502415 0.746783 0.210887
O O1 0.225075 0.166131 0.236855
O O2 0.108948 0.135718 0.084942
O O3 0.343865 0.264626 0.961769
O O4 0.500000 0.000000 0.000000
O O5 0.500000 0.500000 0.500000
O O6 0.403418 0.324723 0.473584
O O7 0.378154 0.369928 0.718728
O O8 0.083083 0.526990 0.672085
O O9 0.440166 0.124057 0.339293
O O10 0.084809 0.133407 0.514066
O O11 0.401192 0.906879 0.293706
O O12 0.714760 0.212230 0.212560
O O13 0.981924 0.949473 0.238104
O O14 0.000000 0.000000 0.000000
O O15 0.036923 0.668836 0.296020
O O16 0.300209 0.742265 0.250999
O O17 0.676287 0.614595 0.735746
O O18 0.000000 0.500000 0.500000
#
# Coordination Sequence:
#
# PCOD9028429 Si02
#       8
#     2   2   2   2   2   2   2   2
#     4  10  22  42  62 100 143 180 217 283 352 402
#     4  11  24  42  73  99 138 180 236 283 338 411
#     4  11  22  39  68 102 140 172 227 290 343 409
#     4  12  26  42  70 103 141 183 230 286 343 411
#     4  12  23  41  73 101 136 179 234 279 349 404
#     4  11  25  42  69 102 139 180 227 285 348 400
#     4  10  22  45  63  98 138 176 221 286 339 402
#     4  11  23  39  69 103 137 182 225 285 348 403
#
# _framework density 21.607406999999998
#
# number of rings (size 3 to 8) (size 9 to 14) (size 15 to 20)
#    0.000    1.000    5.000    4.125    5.250    1.000 
#    0.000    0.625    2.750    2.250    0.000    0.000 
#    0.000    0.000    0.000    0.000    0.000    0.000 
#
# Total GULP energy -89350.129861 kJ/mol
# GULP energy per Si atom -5584.383116 kJ/mol
# Density = 2.155823 g / cm^3
# Si number density = 21.607407 Si / 1000 Ang^3
#
#
#
# Elastic Constant Matrix: (Units=GPa)
#
#
# Indices 1 2 3 4 5 6 
#
# 1 159.8481 19.4914 44.9138 -8.1403 -25.0419 -20.3396
# 2 19.4914 50.0253 5.4198 -7.6231 -11.6106 -23.4740
# 3 44.9138 5.4198 126.4880 -19.5099 -0.7249 -28.3394
# 4 -8.1403 -7.6231 -19.5099 32.0922 -5.0258 -2.5508
# 5 -25.0419 -11.6106 -0.7249 -5.0258 44.3036 0.5552
# 6 -20.3396 -23.4740 -28.3394 -2.5508 0.5552 49.4894
#
#
#
# Elastic Compliance Matrix: (Units=1/GPa)
#
#
# Indices 1 2 3 4 5 6 
#
# 1 0.007930 -0.000912 -0.002204 0.001259 0.004330 0.001581
# 2 -0.000912 0.032978 0.005344 0.013851 0.009548 0.018935
# 3 -0.002204 0.005344 0.011797 0.008777 0.001233 0.008823
# 4 0.001259 0.013851 0.008777 0.042667 0.009147 0.014210
# 5 0.004330 0.009548 0.001233 0.009147 0.028489 0.007167
# 6 0.001581 0.018935 0.008823 0.014210 0.007167 0.035542
#
#
# Mechanical properties :
#
#
# Convention : Reuss Voigt Hill
#
# Bulk Modulus (GPa) = 17.49411 52.89015 35.19213
# Shear Modulus (GPa) = 28.73550 42.94612 35.84081
#
# Velocity S-wave (km/s) = 3.65072 4.46305 4.07717
# Velocity P-wave (km/s) = 5.08766 7.14768 6.20377
#
# Compressibility (1/GPa) = 0.05716210
#
# Stress axis : x y z
#
# Youngs Moduli (GPa) = 126.10407 30.32306 84.76746
#
# Poissons Ratio (x) = 0.02767 0.18679
# Poissons Ratio (y) = 0.11506 -0.45303
# Poissons Ratio (z) = 0.27787 -0.16206
#
# Static dielectric constant tensor:
#      x y z
#    x 1.814600 -0.003840 -0.034020 
#    y -0.003840 1.877590 0.021330 
#    z -0.034020 0.021330 1.773690 
# 
# From -- ./inp_files/392458.got.cif
#   From: 2010.05.17/outbox.cif.g08.bks.cpg/sg2_197_cif.got.tgz:392458.got - 2010.06.03 11:33:40.
