data_PCOD9028612
_publ_section_title
;
Structure prediction by ZEFSAII (Michael W. Deem and Ramdas Pophale) SiO2 
 PCOD9028612
Probable space group: P -1
;
_chemical_formula_sum "Si O2"
_cell_formula_units_Z 15
_cell_length_a 12.144620
_cell_length_b 11.200984
_cell_length_c 12.125223
_cell_angle_alpha 32.648533
_cell_angle_beta 109.719152
_cell_angle_gamma 88.642175
_cell_volume 666.273868
_symmetry_space_group_name_H-M "P -1"
_symmetry_group_IT_number 2
_symmetry_cell_setting 'triclinic'
loop_
_space_group_symop_operation_xyz
x,y,z
-x,-y,-z
loop_
_atom_site_type_symbol
_atom_site_label
_atom_site_fract_x
_atom_site_fract_y
_atom_site_fract_z
Si Si1 0.325070 0.221225 0.777949
Si Si2 0.500000 0.000000 0.500000
Si Si3 0.397485 0.595561 0.588436
Si Si4 0.125609 0.439879 0.338429
Si Si5 0.798092 0.782298 0.029014
Si Si6 0.651988 0.515026 0.105300
Si Si7 0.146367 0.970939 0.595389
Si Si8 0.686578 0.464365 0.814196
O O1 0.309236 0.504953 0.566828
O O2 0.241113 0.240195 0.626978
O O3 0.260877 0.172968 0.901140
O O4 0.500000 0.000000 0.000000
O O5 0.599599 0.756160 0.625701
O O6 0.546594 0.749957 0.798531
O O7 0.421352 0.475040 0.813630
O O8 0.559978 0.474891 0.697827
O O9 0.300227 0.927601 0.295145
O O10 0.194639 0.571152 0.200401
O O11 0.967466 0.651242 0.176505
O O12 0.112250 0.263765 0.379530
O O13 0.768054 0.576560 0.125857
O O14 0.741489 0.206062 0.327954
O O15 0.226358 0.780647 0.877592
O O16 0.000000 0.000000 0.500000
#
# Coordination Sequence:
#
# PCOD9028612 Si02
#       8
#     2   1   2   2   2   2   2   2
#     4  11  26  47  74 101 134 180 234 293 341 406
#     4  10  22  42  64 100 138 176 232 284 330 396
#     4  11  25  45  74  98 139 185 229 286 345 410
#     4  12  27  44  70 103 143 179 232 287 340 414
#     4  11  24  46  70 101 140 179 230 287 345 408
#     4  10  23  43  68 103 138 182 233 280 342 407
#     4  11  25  43  66 101 142 186 222 280 348 413
#     4  11  26  40  67 104 136 183 229 280 341 410
#
# _framework density 22.513263999999999
#
# number of rings (size 3 to 8) (size 9 to 14) (size 15 to 20)
#    0.000    1.067    2.667    2.000    7.467    5.333 
#    0.000    0.000    0.000    0.000    0.000    0.000 
#    0.000    0.000    0.000    0.000    0.000    0.000 
#
# Total GULP energy -83688.597557 kJ/mol
# GULP energy per Si atom -5579.239837 kJ/mol
# Density = 2.246202 g / cm^3
# Si number density = 22.513264 Si / 1000 Ang^3
#
#
#
# Elastic Constant Matrix: (Units=GPa)
#
#
# Indices 1 2 3 4 5 6 
#
# 1 150.7221 23.8768 16.2607 1.1675 12.3296 -0.4868
# 2 23.8768 58.6425 -12.2250 3.5414 -3.8286 3.1751
# 3 16.2607 -12.2250 23.8634 -1.5800 13.4697 11.6940
# 4 1.1675 3.5414 -1.5800 22.5984 1.1928 8.9603
# 5 12.3296 -3.8286 13.4697 1.1928 32.4585 5.8016
# 6 -0.4868 3.1751 11.6940 8.9603 5.8016 25.7238
#
#
#
# Elastic Compliance Matrix: (Units=1/GPa)
#
#
# Indices 1 2 3 4 5 6 
#
# 1 0.009461 -0.007260 -0.015223 -0.004146 0.000346 0.009362
# 2 -0.007260 0.026643 0.029821 0.005676 -0.003433 -0.018185
# 3 -0.015223 0.029821 0.115293 0.029553 -0.028877 -0.060162
# 4 -0.004146 0.005676 0.029553 0.059230 -0.006219 -0.033443
# 5 0.000346 -0.003433 -0.028877 -0.006219 0.041340 0.006400
# 6 0.009362 -0.018185 -0.060162 -0.033443 0.006400 0.078851
#
#
# Mechanical properties :
#
#
# Convention : Reuss Voigt Hill
#
# Bulk Modulus (GPa) = 6.02150 32.11701 19.06925
# Shear Modulus (GPa) = 13.45892 29.84384 21.65138
#
# Velocity S-wave (km/s) = 2.44769 3.64484 3.10452
# Velocity P-wave (km/s) = 3.26630 5.65774 4.61945
#
# Compressibility (1/GPa) = 0.16607171
#
# Stress axis : x y z
#
# Youngs Moduli (GPa) = 105.69499 37.53389 8.67354
#
# Poissons Ratio (x) = 0.27248 0.13204
# Poissons Ratio (y) = 0.76731 -0.25865
# Poissons Ratio (z) = 1.60904 -1.11928
#
# Static dielectric constant tensor:
#      x y z
#    x 1.827870 0.039440 0.001580 
#    y 0.039440 1.898170 -0.019850 
#    z 0.001580 -0.019850 1.784840 
# 
# From -- ./inp_files/61028.got.cif
#   From: 2010.05.17/outbox.cif.g08.bks.cpg/sg2_31_cif.got.tgz:61028.got - 2010.06.03 11:33:40.
