data_PCOD9028204
_publ_section_title
;
Structure prediction by ZEFSAII (Michael W. Deem and Ramdas Pophale) SiO2 
 PCOD9028204
Probable space group: P -1
;
_chemical_formula_sum "Si O2"
_cell_formula_units_Z 16
_cell_length_a 5.433276
_cell_length_b 24.379747
_cell_length_c 10.896963
_cell_angle_alpha 30.729405
_cell_angle_beta 115.183905
_cell_angle_gamma 122.189424
_cell_volume 622.446121
_symmetry_space_group_name_H-M "P -1"
_symmetry_group_IT_number 2
_symmetry_cell_setting 'triclinic'
loop_
_space_group_symop_operation_xyz
x,y,z
-x,-y,-z
loop_
_atom_site_type_symbol
_atom_site_label
_atom_site_fract_x
_atom_site_fract_y
_atom_site_fract_z
Si Si1 0.532115 0.396233 0.122015
Si Si2 0.429036 0.932537 0.990647
Si Si3 0.653756 0.083471 0.547495
Si Si4 0.921364 0.657779 0.073298
Si Si5 0.143612 0.281649 0.681290
Si Si6 0.284500 0.540516 0.228614
Si Si7 0.234112 0.208269 0.588718
Si Si8 0.475168 0.835215 0.875907
O O1 0.512895 0.290911 0.410871
O O2 0.500000 0.500000 0.000000
O O3 0.748165 0.433376 0.976739
O O4 0.231462 0.334634 0.102059
O O5 0.692362 0.884736 0.132916
O O6 0.146630 0.821654 0.148176
O O7 0.500000 0.000000 0.000000
O O8 0.413445 0.023682 0.713279
O O9 0.550240 0.161688 0.283508
O O10 0.951654 0.145269 0.566376
O O11 0.643565 0.967416 0.697043
O O12 0.132013 0.593615 0.194151
O O13 0.636432 0.586788 0.226918
O O14 0.127618 0.778393 0.942297
O O15 0.149383 0.405510 0.478935
O O16 0.179903 0.287314 0.530612
O O17 0.386962 0.246109 0.870968
#
# Coordination Sequence:
#
# PCOD9028204 Si02
#       8
#     2   2   2   2   2   2   2   2
#     4  10  22  41  72 108 136 197 235 308 364 440
#     4  12  26  41  72 107 141 192 243 309 369 431
#     4  11  23  46  73 101 145 192 244 305 369 440
#     4  10  24  48  68 109 146 196 238 306 366 445
#     4  12  26  43  71 108 138 194 238 307 366 443
#     4  10  25  44  73 106 149 189 245 300 372 443
#     4  12  22  47  70 103 148 183 245 307 362 440
#     4  11  25  45  73 102 147 193 247 300 371 442
#
# _framework density 25.705036
#
# number of rings (size 3 to 8) (size 9 to 14) (size 15 to 20)
#    0.750    0.250    5.000    1.125    3.500    5.000 
#    0.000    0.000    0.000    0.000    0.000    0.000 
#    0.000    0.000    0.000    0.000    0.000    0.000 
#
# Total GULP energy -89343.013172 kJ/mol
# GULP energy per Si atom -5583.938323 kJ/mol
# Density = 2.564653 g / cm^3
# Si number density = 25.705036 Si / 1000 Ang^3
#
#
#
# Elastic Constant Matrix: (Units=GPa)
#
#
# Indices 1 2 3 4 5 6 
#
# 1 72.4067 9.8908 1.7480 2.2817 -8.0007 0.7166
# 2 9.8908 97.1234 16.7275 21.8282 2.5634 6.6162
# 3 1.7480 16.7275 82.5345 -3.7362 -22.0836 9.6022
# 4 2.2817 21.8282 -3.7362 34.9563 -3.1777 -5.2247
# 5 -8.0007 2.5634 -22.0836 -3.1777 32.9553 -5.8272
# 6 0.7166 6.6162 9.6022 -5.2247 -5.8272 44.0914
#
#
#
# Elastic Compliance Matrix: (Units=1/GPa)
#
#
# Indices 1 2 3 4 5 6 
#
# 1 0.014563 -0.002124 0.001400 0.001045 0.004835 0.000540
# 2 -0.002124 0.013921 -0.004516 -0.010055 -0.006138 -0.003074
# 3 0.001400 -0.004516 0.016603 0.005511 0.012226 -0.000692
# 4 0.001045 -0.010055 0.005511 0.037143 0.009359 0.005930
# 5 0.004835 -0.006138 0.012226 0.009359 0.041945 0.004832
# 6 0.000540 -0.003074 -0.000692 0.005930 0.004832 0.024625
#
#
# Mechanical properties :
#
#
# Convention : Reuss Voigt Hill
#
# Bulk Modulus (GPa) = 28.89477 34.31078 31.60277
# Shear Modulus (GPa) = 29.27116 37.31383 33.29250
#
# Velocity S-wave (km/s) = 3.37817 3.81414 3.60276
# Velocity P-wave (km/s) = 5.14600 5.72484 5.44312
#
# Compressibility (1/GPa) = 0.03460834
#
# Stress axis : x y z
#
# Youngs Moduli (GPa) = 68.66642 71.83199 60.22944
#
# Poissons Ratio (x) = 0.15254 -0.08434
# Poissons Ratio (y) = 0.14582 0.27202
# Poissons Ratio (z) = -0.09615 0.32442
#
# Static dielectric constant tensor:
#      x y z
#    x 1.995810 0.125940 -0.299320 
#    y 0.125940 1.806000 0.465220 
#    z -0.299320 0.465220 1.338770 
# 
# From -- ./inp_files/371420.got.cif
#   From: 2010.05.17/outbox.cif.g08.bks.cpg/sg2_186_cif.got.tgz:371420.got - 2010.06.03 11:33:40.
