data_PCOD9028376
_publ_section_title
;
Structure prediction by ZEFSAII (Michael W. Deem and Ramdas Pophale) SiO2 
 PCOD9028376
Probable space group: P -1
;
_chemical_formula_sum "Si O2"
_cell_formula_units_Z 14
_cell_length_a 6.678174
_cell_length_b 8.893946
_cell_length_c 15.727407
_cell_angle_alpha 48.663979
_cell_angle_beta 62.376221
_cell_angle_gamma 58.067165
_cell_volume 585.592948
_symmetry_space_group_name_H-M "P -1"
_symmetry_group_IT_number 2
_symmetry_cell_setting 'triclinic'
loop_
_space_group_symop_operation_xyz
x,y,z
-x,-y,-z
loop_
_atom_site_type_symbol
_atom_site_label
_atom_site_fract_x
_atom_site_fract_y
_atom_site_fract_z
Si Si1 0.440836 0.288182 0.330196
Si Si2 0.908252 0.320267 0.181695
Si Si3 0.478177 0.190489 0.554798
Si Si4 0.298321 0.009000 0.889125
Si Si5 0.752041 0.108027 0.693262
Si Si6 0.011150 0.664785 0.311086
Si Si7 0.972536 0.280230 0.984270
O O1 0.621607 0.397632 0.215111
O O2 0.510778 0.248489 0.430647
O O3 0.166115 0.438928 0.327031
O O4 0.487260 0.061878 0.360265
O O5 0.020620 0.491186 0.129500
O O6 0.012457 0.095029 0.291709
O O7 0.979668 0.275807 0.085983
O O8 0.655890 0.217916 0.581798
O O9 0.212078 0.322857 0.589497
O O10 0.550015 0.020394 0.804930
O O11 0.207589 0.109147 0.960915
O O12 0.105792 0.165592 0.803139
O O13 0.254602 0.785121 0.974755
O O14 0.811456 0.257263 0.694761
#
# Coordination Sequence:
#
# PCOD9028376 Si02
#       7
#     2   2   2   2   2   2   2
#     4  11  23  44  68  94 131 169 211 264 319 380
#     4  11  22  41  63  96 128 169 214 260 316 377
#     4  10  24  44  66  98 128 166 214 261 321 382
#     4  10  22  42  62  95 125 170 214 257 317 377
#     4  11  22  41  68  92 134 165 207 273 311 380
#     4  11  22  44  66  96 131 167 209 268 312 383
#     4  10  22  42  60  91 132 163 220 259 309 380
#
# _framework density 23.907392000000002
#
# number of rings (size 3 to 8) (size 9 to 14) (size 15 to 20)
#    0.000    1.429    2.857    2.143    2.000    2.286 
#   10.286    0.000    0.000    0.000    0.000    0.000 
#    0.000    0.000    0.000    0.000    0.000    0.000 
#
# Total GULP energy -78389.918406 kJ/mol
# GULP energy per Si atom -5599.279886 kJ/mol
# Density = 2.385298 g / cm^3
# Si number density = 23.907392 Si / 1000 Ang^3
#
#
#
# Elastic Constant Matrix: (Units=GPa)
#
#
# Indices 1 2 3 4 5 6 
#
# 1 72.4062 45.6106 12.4455 7.0906 2.5752 2.1481
# 2 45.6106 118.3375 31.0709 5.9634 -9.8813 -3.5248
# 3 12.4455 31.0709 54.5083 12.1772 1.6504 10.2430
# 4 7.0906 5.9634 12.1772 40.4957 9.8057 -0.0045
# 5 2.5752 -9.8813 1.6504 9.8057 16.0347 -3.6247
# 6 2.1481 -3.5248 10.2430 -0.0045 -3.6247 29.7267
#
#
#
# Elastic Compliance Matrix: (Units=1/GPa)
#
#
# Indices 1 2 3 4 5 6 
#
# 1 0.019646 -0.008955 0.001786 -0.000329 -0.009622 -0.004270
# 2 -0.008955 0.015577 -0.008211 -0.001786 0.014580 0.007101
# 3 0.001786 -0.008211 0.026057 -0.005159 -0.007356 -0.010979
# 4 -0.000329 -0.001786 -0.005159 0.031384 -0.019897 -0.000832
# 5 -0.009622 0.014580 -0.007356 -0.019897 0.089405 0.015857
# 6 -0.004270 0.007101 -0.010979 -0.000832 0.015857 0.040507
#
#
# Mechanical properties :
#
#
# Convention : Reuss Voigt Hill
#
# Bulk Modulus (GPa) = 32.76585 47.05622 39.91104
# Shear Modulus (GPa) = 18.97469 27.65976 23.31723
#
# Velocity S-wave (km/s) = 2.82028 3.40509 3.12639
# Velocity P-wave (km/s) = 4.93360 5.93169 5.45552
#
# Compressibility (1/GPa) = 0.03051958
#
# Stress axis : x y z
#
# Youngs Moduli (GPa) = 50.90039 64.19734 38.37752
#
# Poissons Ratio (x) = 0.57490 -0.06855
# Poissons Ratio (y) = 0.45583 0.31513
# Poissons Ratio (z) = -0.09092 0.52714
#
# Static dielectric constant tensor:
#      x y z
#    x 1.883150 -0.001730 0.013340 
#    y -0.001730 1.896790 -0.024850 
#    z 0.013340 -0.024850 1.915180 
# 
# From -- ./inp_files/38414.got.cif
#   From: 2010.05.17/outbox.cif.g08.bks.cpg/sg2_20_cif.got.tgz:38414.got - 2010.06.03 11:33:40.
