data_PCOD9028409
_publ_section_title
;
Structure prediction by ZEFSAII (Michael W. Deem and Ramdas Pophale) SiO2 
 PCOD9028409
Probable space group: P -1
;
_chemical_formula_sum "Si O2"
_cell_formula_units_Z 16
_cell_length_a 24.687948
_cell_length_b 16.598749
_cell_length_c 12.889814
_cell_angle_alpha 36.998846
_cell_angle_beta 26.744745
_cell_angle_gamma 19.276764
_cell_volume 749.025966
_symmetry_space_group_name_H-M "P -1"
_symmetry_group_IT_number 2
_symmetry_cell_setting 'triclinic'
loop_
_space_group_symop_operation_xyz
x,y,z
-x,-y,-z
loop_
_atom_site_type_symbol
_atom_site_label
_atom_site_fract_x
_atom_site_fract_y
_atom_site_fract_z
Si Si1 0.008036 0.363948 0.553665
Si Si2 0.493069 0.531117 0.658046
Si Si3 0.303069 0.298790 0.548999
Si Si4 0.707487 0.491156 0.819065
Si Si5 0.426722 0.254444 0.601257
Si Si6 0.064429 0.188384 0.845230
Si Si7 0.858462 0.101394 0.308725
Si Si8 0.831191 0.645896 0.892590
O O1 0.044445 0.214148 0.728656
O O2 0.191892 0.222719 0.294530
O O3 0.000000 0.500000 0.500000
O O4 0.757408 0.574764 0.717604
O O5 0.578734 0.591625 0.496796
O O6 0.678962 0.282245 0.523346
O O7 0.283164 0.755597 0.704500
O O8 0.429868 0.490443 0.901822
O O9 0.371971 0.369933 0.295511
O O10 0.268298 0.372859 0.652080
O O11 0.060005 0.474818 0.739268
O O12 0.500000 0.000000 0.500000
O O13 0.966144 0.186445 0.682091
O O14 0.678973 0.005507 0.376229
O O15 0.370560 0.199867 0.842499
O O16 0.892914 0.449946 0.928100
O O17 0.014933 0.085172 0.066991
#
# Coordination Sequence:
#
# PCOD9028409 Si02
#       8
#     2   2   2   2   2   2   2   2
#     4   9  20  36  62  92 127 166 202 259 313 379
#     4  11  23  39  69 100 131 163 207 261 321 389
#     4  11  25  47  66  87 127 175 217 272 315 368
#     4  11  22  43  63  91 131 167 212 260 323 371
#     4  12  23  39  68  91 120 177 215 258 321 368
#     4  11  19  38  66  91 132 164 204 261 325 380
#     4  11  22  40  65 100 135 164 200 262 324 387
#     4  10  22  42  61  92 127 164 218 262 312 381
#
# _framework density 21.361076000000001
#
# number of rings (size 3 to 8) (size 9 to 14) (size 15 to 20)
#    0.000    1.250    5.000    1.500    0.000    1.000 
#    6.750    0.625    0.000    0.000    0.000    0.000 
#    0.000    0.000    0.000    0.000    0.000    0.000 
#
# Total GULP energy -89243.598921 kJ/mol
# GULP energy per Si atom -5577.724933 kJ/mol
# Density = 2.131246 g / cm^3
# Si number density = 21.361076 Si / 1000 Ang^3
#
#
#
# Elastic Constant Matrix: (Units=GPa)
#
#
# Indices 1 2 3 4 5 6 
#
# 1 89.2126 8.1048 25.5449 -6.6990 7.3351 -2.4675
# 2 8.1048 64.3009 29.2147 -4.4957 17.7681 3.9067
# 3 25.5449 29.2147 127.3436 -20.7341 17.5544 6.6730
# 4 -6.6990 -4.4957 -20.7341 27.4175 -7.1171 2.1217
# 5 7.3351 17.7681 17.5544 -7.1171 28.3750 -3.2163
# 6 -2.4675 3.9067 6.6730 2.1217 -3.2163 28.2999
#
#
#
# Elastic Compliance Matrix: (Units=1/GPa)
#
#
# Indices 1 2 3 4 5 6 
#
# 1 0.012045 -0.000221 -0.002118 0.000863 -0.001293 0.001369
# 2 -0.000221 0.020259 -0.003148 -0.001850 -0.011513 -0.003244
# 3 -0.002118 -0.003148 0.010598 0.006502 -0.002753 -0.003049
# 4 0.000863 -0.001850 0.006502 0.043502 0.007414 -0.003621
# 5 -0.001293 -0.011513 -0.002753 0.007414 0.047133 0.006927
# 6 0.001369 -0.003244 -0.003049 -0.003621 0.006927 0.037681
#
#
# Mechanical properties :
#
#
# Convention : Reuss Voigt Hill
#
# Bulk Modulus (GPa) = 31.32117 45.17621 38.24869
# Shear Modulus (GPa) = 25.92896 31.35134 28.64015
#
# Velocity S-wave (km/s) = 3.48780 3.83519 3.66562
# Velocity P-wave (km/s) = 5.56006 6.38799 5.98835
#
# Compressibility (1/GPa) = 0.03192729
#
# Stress axis : x y z
#
# Youngs Moduli (GPa) = 83.02325 49.36086 94.36000
#
# Poissons Ratio (x) = 0.01092 0.19989
# Poissons Ratio (y) = 0.01837 0.29700
# Poissons Ratio (z) = 0.17587 0.15536
#
# Static dielectric constant tensor:
#      x y z
#    x 1.852850 -0.041220 -0.019110 
#    y -0.041220 1.855010 0.003500 
#    z -0.019110 0.003500 1.798350 
# 
# From -- ./inp_files/458383.got.cif
#   From: 2010.05.17/outbox.cif.g08.bks.cpg/sg2_230_cif.got.tgz:458383.got - 2010.06.03 11:33:40.
