data_PCOD9028432
_publ_section_title
;
Structure prediction by ZEFSAII (Michael W. Deem and Ramdas Pophale) SiO2 
 PCOD9028432
Probable space group: P -1
;
_chemical_formula_sum "Si O2"
_cell_formula_units_Z 16
_cell_length_a 11.223003
_cell_length_b 12.092122
_cell_length_c 4.965944
_cell_angle_alpha 105.364607
_cell_angle_beta 81.957488
_cell_angle_gamma 91.534237
_cell_volume 643.412287
_symmetry_space_group_name_H-M "P -1"
_symmetry_group_IT_number 2
_symmetry_cell_setting 'triclinic'
loop_
_space_group_symop_operation_xyz
x,y,z
-x,-y,-z
loop_
_atom_site_type_symbol
_atom_site_label
_atom_site_fract_x
_atom_site_fract_y
_atom_site_fract_z
Si Si1 0.497957 0.114562 0.902887
Si Si2 0.255193 0.920833 0.423386
Si Si3 0.539533 0.362294 0.128055
Si Si4 0.228476 0.072037 0.004830
Si Si5 0.113084 0.289997 0.462525
Si Si6 0.764976 0.335706 0.747712
Si Si7 0.693350 0.528829 0.563391
Si Si8 0.023952 0.626380 0.953748
O O1 0.597673 0.093183 0.624181
O O2 0.355780 0.127911 0.904525
O O3 0.534945 0.228956 0.129995
O O4 0.500000 0.000000 0.000000
O O5 0.208929 0.794219 0.423763
O O6 0.192103 0.008609 0.703049
O O7 0.239111 0.970352 0.159169
O O8 0.614197 0.451499 0.339681
O O9 0.405153 0.409521 0.172746
O O10 0.620558 0.348870 0.829655
O O11 0.152596 0.171216 0.236856
O O12 0.229765 0.369492 0.522274
O O13 0.046578 0.286868 0.765963
O O14 0.025616 0.351358 0.311825
O O15 0.787655 0.445932 0.631218
O O16 0.836220 0.350602 0.014139
O O17 0.000000 0.500000 0.000000
#
# Coordination Sequence:
#
# PCOD9028432 Si02
#       8
#     2   2   2   2   2   2   2   2
#     4   9  19  37  63  96 134 177 222 270 331 407
#     4  10  24  40  69  96 135 174 228 270 345 395
#     4  10  22  42  62 104 136 176 218 274 354 409
#     4  11  22  46  64  99 134 179 222 282 328 406
#     4  12  26  46  72 101 135 184 229 283 335 399
#     4  11  25  42  68  96 138 175 226 283 337 405
#     4  11  23  40  68  99 140 175 220 279 350 408
#     4  12  26  46  71 102 136 180 237 275 335 400
#
# _framework density 24.867415000000001
#
# number of rings (size 3 to 8) (size 9 to 14) (size 15 to 20)
#    0.000    1.250    2.500    2.625    7.000    0.000 
#    2.250    3.750    0.000    0.000    0.000    0.000 
#    0.000    0.000    0.000    0.000    0.000    0.000 
#
# Total GULP energy -89353.416604 kJ/mol
# GULP energy per Si atom -5584.588538 kJ/mol
# Density = 2.481082 g / cm^3
# Si number density = 24.867415 Si / 1000 Ang^3
#
#
#
# Elastic Constant Matrix: (Units=GPa)
#
#
# Indices 1 2 3 4 5 6 
#
# 1 76.5390 9.9734 11.4821 11.2948 -18.1996 -6.5107
# 2 9.9734 104.6959 22.1956 29.8249 -2.1597 -7.3767
# 3 11.4821 22.1956 91.9072 17.4105 -7.5188 -2.9692
# 4 11.2948 29.8249 17.4105 43.6001 -11.0569 -1.5946
# 5 -18.1996 -2.1597 -7.5188 -11.0569 34.9778 1.9079
# 6 -6.5107 -7.3767 -2.9692 -1.5946 1.9079 22.5449
#
#
#
# Elastic Compliance Matrix: (Units=1/GPa)
#
#
# Indices 1 2 3 4 5 6 
#
# 1 0.015472 -0.000512 -0.000849 -0.001362 0.007216 0.003482
# 2 -0.000512 0.012477 -0.001472 -0.008361 -0.002639 0.003373
# 3 -0.000849 -0.001472 0.012070 -0.003324 0.000982 0.000545
# 4 -0.001362 -0.008361 -0.003324 0.032395 0.008409 -0.001987
# 5 0.007216 -0.002639 0.000982 0.008409 0.035107 -0.001027
# 6 0.003482 0.003373 0.000545 -0.001987 -0.001027 0.046483
#
#
# Mechanical properties :
#
#
# Convention : Reuss Voigt Hill
#
# Bulk Modulus (GPa) = 29.10920 40.04939 34.57930
# Shear Modulus (GPa) = 29.21915 35.52396 32.37155
#
# Velocity S-wave (km/s) = 3.43154 3.78370 3.61191
# Velocity P-wave (km/s) = 5.23754 5.93537 5.59734
#
# Compressibility (1/GPa) = 0.03435340
#
# Stress axis : x y z
#
# Youngs Moduli (GPa) = 64.63192 80.14574 82.85212
#
# Poissons Ratio (x) = 0.04102 0.07030
# Poissons Ratio (y) = 0.03308 0.12200
# Poissons Ratio (z) = 0.05484 0.11801
#
# Static dielectric constant tensor:
#      x y z
#    x 2.060180 0.037560 -0.033740 
#    y 0.037560 2.012980 0.001880 
#    z -0.033740 0.001880 1.980790 
# 
# From -- ./inp_files/72284.got.cif
#   From: 2010.05.17/outbox.cif.g08.bks.cpg/sg2_37_cif.got.tgz:72284.got - 2010.06.03 11:33:40.
