data_PCOD9028120
_publ_section_title
;
Structure prediction by ZEFSAII (Michael W. Deem and Ramdas Pophale) SiO2 
 PCOD9028120
Probable space group: P -1
;
_chemical_formula_sum "Si O2"
_cell_formula_units_Z 16
_cell_length_a 12.685565
_cell_length_b 8.178850
_cell_length_c 11.001505
_cell_angle_alpha 116.841821
_cell_angle_beta 120.227892
_cell_angle_gamma 49.354629
_cell_volume 734.896029
_symmetry_space_group_name_H-M "P -1"
_symmetry_group_IT_number 2
_symmetry_cell_setting 'triclinic'
loop_
_space_group_symop_operation_xyz
x,y,z
-x,-y,-z
loop_
_atom_site_type_symbol
_atom_site_label
_atom_site_fract_x
_atom_site_fract_y
_atom_site_fract_z
Si Si1 0.650741 0.088468 0.665387
Si Si2 0.183908 0.373864 0.258383
Si Si3 0.485990 0.298414 0.398370
Si Si4 0.962556 0.991212 0.833407
Si Si5 0.658202 0.890079 0.195696
Si Si6 0.058341 0.497366 0.665032
Si Si7 0.164811 0.130519 0.943350
Si Si8 0.548959 0.258795 0.916347
O O1 0.562313 0.143437 0.508697
O O2 0.541953 0.233842 0.759482
O O3 0.730175 0.840906 0.676586
O O4 0.789369 0.112505 0.748730
O O5 0.313866 0.404936 0.317397
O O6 0.040207 0.533652 0.305322
O O7 0.135813 0.312693 0.086415
O O8 0.500000 0.500000 0.500000
O O9 0.573968 0.136072 0.282764
O O10 0.036108 0.733000 0.757940
O O11 0.028483 0.108678 0.837287
O O12 0.000000 0.000000 0.000000
O O13 0.777069 0.707300 0.295477
O O14 0.750770 0.860838 0.120423
O O15 0.540069 0.825510 0.093700
O O16 0.000000 0.500000 0.500000
O O17 0.283389 0.904660 0.004353
O O18 0.500000 0.500000 0.000000
#
# Coordination Sequence:
#
# PCOD9028120 Si02
#       8
#     2   2   2   2   2   2   2   2
#     4  10  22  41  71  92 131 178 232 271 327 413
#     4  10  22  45  67  95 133 185 222 280 341 406
#     4  12  27  44  65  97 140 185 225 276 352 411
#     4  11  20  45  70 102 131 178 236 271 340 418
#     4  12  26  42  66 105 139 174 224 292 343 396
#     4  11  25  43  71 100 137 182 235 281 336 411
#     4  11  23  42  69 100 145 170 223 291 343 407
#     4  11  23  38  68  98 128 173 224 279 335 399
#
# _framework density 21.771788000000001
#
# number of rings (size 3 to 8) (size 9 to 14) (size 15 to 20)
#    0.000    1.000    6.250    3.000    3.500    2.500 
#    0.000    1.875    0.000    0.000    0.000    0.000 
#    0.000    0.000    0.000    0.000    0.000    0.000 
#
# Total GULP energy -89425.220948 kJ/mol
# GULP energy per Si atom -5589.076309 kJ/mol
# Density = 2.172223 g / cm^3
# Si number density = 21.771788 Si / 1000 Ang^3
#
#
#
# Elastic Constant Matrix: (Units=GPa)
#
#
# Indices 1 2 3 4 5 6 
#
# 1 155.5478 13.1992 37.3644 13.5209 14.0404 -10.9387
# 2 13.1992 64.5468 23.6970 10.3823 8.8834 -6.6536
# 3 37.3644 23.6970 81.3142 8.2969 2.3976 -3.2560
# 4 13.5209 10.3823 8.2969 34.9822 -2.6264 3.5034
# 5 14.0404 8.8834 2.3976 -2.6264 44.1911 -2.6066
# 6 -10.9387 -6.6536 -3.2560 3.5034 -2.6066 28.3470
#
#
#
# Elastic Compliance Matrix: (Units=1/GPa)
#
#
# Indices 1 2 3 4 5 6 
#
# 1 0.007853 0.000734 -0.003331 -0.002944 -0.002462 0.002958
# 2 0.000734 0.019071 -0.005041 -0.005489 -0.003854 0.004505
# 3 -0.003331 -0.005041 0.015315 -0.000710 0.001168 -0.000514
# 4 -0.002944 -0.005489 -0.000710 0.032413 0.003639 -0.006177
# 5 -0.002462 -0.003854 0.001168 0.003639 0.024343 0.000068
# 6 0.002958 0.004505 -0.000514 -0.006177 0.000068 0.038186
#
#
# Mechanical properties :
#
#
# Convention : Reuss Voigt Hill
#
# Bulk Modulus (GPa) = 37.08748 49.99223 43.53986
# Shear Modulus (GPa) = 30.97041 36.64728 33.80884
#
# Velocity S-wave (km/s) = 3.77570 4.10719 3.94493
# Velocity P-wave (km/s) = 6.00662 6.74565 6.38683
#
# Compressibility (1/GPa) = 0.02696328
#
# Stress axis : x y z
#
# Youngs Moduli (GPa) = 127.34134 52.43612 65.29514
#
# Poissons Ratio (x) = -0.03851 0.21750
# Poissons Ratio (y) = -0.09352 0.32916
# Poissons Ratio (z) = 0.42418 0.26434
#
# Static dielectric constant tensor:
#      x y z
#    x 1.834290 -0.016390 -0.037330 
#    y -0.016390 1.801200 -0.097490 
#    z -0.037330 -0.097490 1.676790 
# 
# From -- ./inp_files/263319.got.cif
#   From: 2010.05.17/outbox.cif.g08.bks.cpg/sg2_132_cif.got.tgz:263319.got - 2010.06.03 11:33:40.
