data_PCOD9028946
_publ_section_title
;
Structure prediction by ZEFSAII (Michael W. Deem and Ramdas Pophale) SiO2 
 PCOD9028946
Probable space group: P -1
;
_chemical_formula_sum "Si O2"
_cell_formula_units_Z 16
_cell_length_a 9.568428
_cell_length_b 10.567628
_cell_length_c 9.842079
_cell_angle_alpha 53.683123
_cell_angle_beta 66.682172
_cell_angle_gamma 75.426657
_cell_volume 736.182927
_symmetry_space_group_name_H-M "P -1"
_symmetry_group_IT_number 2
_symmetry_cell_setting 'triclinic'
loop_
_space_group_symop_operation_xyz
x,y,z
-x,-y,-z
loop_
_atom_site_type_symbol
_atom_site_label
_atom_site_fract_x
_atom_site_fract_y
_atom_site_fract_z
Si Si1 0.392548 0.231791 0.427721
Si Si2 0.977360 0.847170 0.703171
Si Si3 0.681849 0.807869 0.021487
Si Si4 0.636923 0.116077 0.010847
Si Si5 0.335592 0.424046 0.593811
Si Si6 0.886132 0.615613 0.663140
Si Si7 0.129265 0.661400 0.346955
Si Si8 0.292258 0.880064 0.704258
O O1 0.356358 0.290631 0.555444
O O2 0.292996 0.344610 0.296957
O O3 0.572241 0.229493 0.337506
O O4 0.332725 0.057697 0.532656
O O5 0.957311 0.688971 0.722435
O O6 0.128053 0.836364 0.742668
O O7 0.825628 0.859221 0.845418
O O8 0.000000 0.000000 0.500000
O O9 0.529437 0.802157 0.992797
O O10 0.713006 0.651178 0.197035
O O11 0.636030 0.940489 0.065724
O O12 0.758373 0.203172 0.816618
O O13 0.692290 0.122664 0.138628
O O14 0.500000 0.500000 0.500000
O O15 0.217291 0.549367 0.493584
O O16 0.902318 0.438096 0.714617
O O17 0.971152 0.709023 0.448504
#
# Coordination Sequence:
#
# PCOD9028946 Si02
#       8
#     2   2   2   2   2   2   2   2
#     4  10  22  42  65  96 130 176 219 272 329 398
#     4  12  25  41  66  99 135 175 220 278 337 387
#     4  11  25  42  69  99 135 172 227 278 323 398
#     4  11  23  43  66 101 131 173 230 273 327 396
#     4  11  22  43  68 100 132 179 218 272 333 396
#     4  10  22  44  65  94 132 175 221 267 332 399
#     4  10  23  42  72  94 134 180 218 272 338 393
#     4  11  24  39  67  97 134 173 222 276 332 389
#
# _framework density 21.733729
#
# number of rings (size 3 to 8) (size 9 to 14) (size 15 to 20)
#    0.000    1.250    3.750    1.500    3.500    3.500 
#    2.250    3.125    0.000    0.000    0.000    0.000 
#    0.000    0.000    0.000    0.000    0.000    0.000 
#
# Total GULP energy -89401.552746 kJ/mol
# GULP energy per Si atom -5587.597047 kJ/mol
# Density = 2.168426 g / cm^3
# Si number density = 21.733729 Si / 1000 Ang^3
#
#
#
# Elastic Constant Matrix: (Units=GPa)
#
#
# Indices 1 2 3 4 5 6 
#
# 1 124.7767 11.9622 4.3821 14.2773 6.1119 22.2434
# 2 11.9622 30.7565 -7.6996 14.9434 15.4144 2.8920
# 3 4.3821 -7.6996 63.6708 0.6180 2.2841 -1.8931
# 4 14.2773 14.9434 0.6180 30.1024 2.5009 -5.0836
# 5 6.1119 15.4144 2.2841 2.5009 38.0835 10.0822
# 6 22.2434 2.8920 -1.8931 -5.0836 10.0822 24.6384
#
#
#
# Elastic Compliance Matrix: (Units=1/GPa)
#
#
# Indices 1 2 3 4 5 6 
#
# 1 0.011062 -0.001496 -0.001339 -0.006789 0.002637 -0.012394
# 2 -0.001496 0.059937 0.008370 -0.027641 -0.022275 -0.001630
# 3 -0.001339 0.008370 0.017095 -0.002990 -0.004762 0.002872
# 4 -0.006789 -0.027641 -0.002990 0.052988 0.004107 0.018396
# 5 0.002637 -0.022275 -0.004762 0.004107 0.038890 -0.015199
# 6 -0.012394 -0.001630 0.002872 0.018396 -0.015199 0.062203
#
#
# Mechanical properties :
#
#
# Convention : Reuss Voigt Hill
#
# Bulk Modulus (GPa) = 10.08431 26.27704 18.18068
# Shear Modulus (GPa) = 18.92786 32.60216 25.76501
#
# Velocity S-wave (km/s) = 2.95430 3.87728 3.44682
# Velocity P-wave (km/s) = 4.03574 5.67107 4.92180
#
# Compressibility (1/GPa) = 0.09916394
#
# Stress axis : x y z
#
# Youngs Moduli (GPa) = 90.40190 16.68418 58.49537
#
# Poissons Ratio (x) = 0.02495 0.07835
# Poissons Ratio (y) = 0.13521 -0.48960
# Poissons Ratio (z) = 0.12108 -0.13965
#
# Static dielectric constant tensor:
#      x y z
#    x 1.790920 -0.008390 0.006310 
#    y -0.008390 1.804040 -0.005910 
#    z 0.006310 -0.005910 1.793450 
# 
# From -- ./inp_files/184801.got.cif
#   From: 2010.05.17/outbox.cif.g08.bks.cpg/sg2_93_cif.got.tgz:184801.got - 2010.06.03 11:33:40.
