data_PCOD9028467
_publ_section_title
;
Structure prediction by ZEFSAII (Michael W. Deem and Ramdas Pophale) SiO2 
 PCOD9028467
Probable space group: P -1
;
_chemical_formula_sum "Si O2"
_cell_formula_units_Z 14
_cell_length_a 5.791089
_cell_length_b 20.420554
_cell_length_c 6.198519
_cell_angle_alpha 126.188862
_cell_angle_beta 77.889384
_cell_angle_gamma 86.457587
_cell_volume 562.197347
_symmetry_space_group_name_H-M "P -1"
_symmetry_group_IT_number 2
_symmetry_cell_setting 'triclinic'
loop_
_space_group_symop_operation_xyz
x,y,z
-x,-y,-z
loop_
_atom_site_type_symbol
_atom_site_label
_atom_site_fract_x
_atom_site_fract_y
_atom_site_fract_z
Si Si1 0.677135 0.256586 0.027485
Si Si2 0.782841 0.756052 0.151209
Si Si3 0.979807 0.075773 0.322485
Si Si4 0.597255 0.185655 0.315444
Si Si5 0.092849 0.437409 0.162281
Si Si6 0.594443 0.435868 0.160584
Si Si7 0.675252 0.027403 0.684442
O O1 0.643760 0.258938 0.295889
O O2 0.637353 0.343018 0.074441
O O3 0.448616 0.219735 0.917419
O O4 0.967719 0.213928 0.867431
O O5 0.656946 0.781744 0.454396
O O6 0.866298 0.656040 0.932678
O O7 0.819165 0.154790 0.381578
O O8 0.848532 0.055878 0.527072
O O9 0.248841 0.052645 0.325389
O O10 0.000000 0.000000 0.000000
O O11 0.599032 0.106190 0.009953
O O12 0.364505 0.445136 0.063814
O O13 0.000000 0.500000 0.500000
O O14 0.862917 0.445942 0.063557
O O15 0.500000 0.500000 0.500000
O O16 0.500000 0.000000 0.500000
#
# Coordination Sequence:
#
# PCOD9028467 Si02
#       7
#     2   2   2   2   2   2   2
#     4  10  22  42  62  95 136 174 224 272 334 400
#     4  10  22  42  62  93 136 176 220 272 336 397
#     4   9  21  44  64  93 123 160 216 266 335 400
#     4  11  23  43  65 100 130 177 217 279 339 400
#     4   8  14  28  56  84 116 168 217 258 319 380
#     4   8  14  28  56  84 118 170 215 259 321 379
#     4  10  22  46  68  94 123 164 222 272 331 406
#
# _framework density 24.902287000000001
#
# number of rings (size 3 to 8) (size 9 to 14) (size 15 to 20)
#    0.000    2.571    0.000    0.857    0.000    3.429 
#   33.429    0.000    0.000   27.429    0.000    0.000 
#    0.000    0.000    0.000    0.000    0.000    0.000 
#
# Total GULP energy -77990.541111 kJ/mol
# GULP energy per Si atom -5570.752936 kJ/mol
# Density = 2.484561 g / cm^3
# Si number density = 24.902287 Si / 1000 Ang^3
#
#
#
# Elastic Constant Matrix: (Units=GPa)
#
#
# Indices 1 2 3 4 5 6 
#
# 1 241.9596 54.8251 21.8603 -23.0950 10.1123 -21.4627
# 2 54.8251 97.6387 40.4517 -9.0603 -0.6495 -18.2468
# 3 21.8603 40.4517 90.0873 -1.6747 -11.5280 -5.2468
# 4 -23.0950 -9.0603 -1.6747 34.0103 0.9849 0.7968
# 5 10.1123 -0.6495 -11.5280 0.9849 44.1203 -6.6406
# 6 -21.4627 -18.2468 -5.2468 0.7968 -6.6406 46.2549
#
#
#
# Elastic Compliance Matrix: (Units=1/GPa)
#
#
# Indices 1 2 3 4 5 6 
#
# 1 0.005099 -0.002280 -0.000236 0.002848 -0.001143 0.001227
# 2 -0.002280 0.014918 -0.005899 0.002047 -0.000229 0.004090
# 3 -0.000236 -0.005899 0.014239 -0.001130 0.003672 -0.000274
# 4 0.002848 0.002047 -0.001130 0.031839 -0.001441 0.001245
# 5 -0.001143 -0.000229 0.003672 -0.001441 0.024416 0.003326
# 6 0.001227 0.004090 -0.000274 0.001245 0.003326 0.024227
#
#
# Mechanical properties :
#
#
# Convention : Reuss Voigt Hill
#
# Bulk Modulus (GPa) = 57.37623 73.77329 65.57476
# Shear Modulus (GPa) = 36.39646 45.71368 41.05507
#
# Velocity S-wave (km/s) = 3.82720 4.28918 4.06476
# Velocity P-wave (km/s) = 6.52844 7.36335 6.95842
#
# Compressibility (1/GPa) = 0.01742882
#
# Stress axis : x y z
#
# Youngs Moduli (GPa) = 196.10942 67.03102 70.22958
#
# Poissons Ratio (x) = 0.15281 0.01654
# Poissons Ratio (y) = 0.44707 0.41426
# Poissons Ratio (z) = 0.04619 0.39540
#
# Static dielectric constant tensor:
#      x y z
#    x 2.123120 -0.161780 0.047210 
#    y -0.161780 1.892790 0.134930 
#    z 0.047210 0.134930 1.939930 
# 
# From -- ./inp_files/7962.got.cif
#   From: 2010.05.17/outbox.cif.g08.bks.cpg/sg2_4_cif.got.tgz:7962.got - 2010.06.03 11:33:40.
