data_PCOD9028993
_publ_section_title
;
Structure prediction by ZEFSAII (Michael W. Deem and Ramdas Pophale) SiO2 
 PCOD9028993
Probable space group: P -1
;
_chemical_formula_sum "Si O2"
_cell_formula_units_Z 15
_cell_length_a 7.783286
_cell_length_b 19.729495
_cell_length_c 6.627463
_cell_angle_alpha 129.409825
_cell_angle_beta 121.693156
_cell_angle_gamma 59.507253
_cell_volume 645.222389
_symmetry_space_group_name_H-M "P -1"
_symmetry_group_IT_number 2
_symmetry_cell_setting 'triclinic'
loop_
_space_group_symop_operation_xyz
x,y,z
-x,-y,-z
loop_
_atom_site_type_symbol
_atom_site_label
_atom_site_fract_x
_atom_site_fract_y
_atom_site_fract_z
Si Si1 0.145523 0.373650 0.260206
Si Si2 0.210244 0.661418 0.282204
Si Si3 0.569194 0.790128 0.128030
Si Si4 0.390801 0.334484 0.719413
Si Si5 0.231044 0.493441 0.216885
Si Si6 0.888770 0.161320 0.233737
Si Si7 0.500000 0.000000 0.500000
Si Si8 0.978182 0.007469 0.736049
O O1 0.188739 0.363474 0.504101
O O2 0.221680 0.457358 0.369416
O O3 0.286473 0.282775 0.069368
O O4 0.916625 0.378014 0.040889
O O5 0.410488 0.679375 0.330138
O O6 0.273101 0.588368 0.363279
O O7 0.064571 0.754156 0.462894
O O8 0.601016 0.753240 0.306512
O O9 0.600113 0.890059 0.319455
O O10 0.332469 0.795030 0.924859
O O11 0.381234 0.414628 0.025962
O O12 0.000000 0.500000 0.000000
O O13 0.881655 0.083840 0.247620
O O14 0.032107 0.097246 0.031995
O O15 0.735747 0.016739 0.654020
O O16 0.000000 0.000000 0.500000
#
# Coordination Sequence:
#
# PCOD9028993 Si02
#       8
#     2   2   2   2   2   2   1   2
#     4  10  22  44  65  94 135 171 223 278 329 406
#     4  11  22  41  68  97 132 177 222 275 349 389
#     4  10  22  44  62  92 135 170 218 287 330 398
#     4  11  23  43  66  96 133 173 230 274 331 409
#     4   9  22  43  63  96 136 172 220 282 327 402
#     4  10  22  42  65  98 140 169 224 288 325 412
#     4  10  22  42  66  94 132 170 224 278 332 402
#     4  10  23  44  70  97 138 179 228 281 344 409
#
# _framework density 23.247799000000001
#
# number of rings (size 3 to 8) (size 9 to 14) (size 15 to 20)
#    0.000    1.867    1.333    1.200    3.733    2.667 
#   12.000   10.667    0.000    0.000    0.000    0.000 
#    0.000    0.000    0.000    0.000    0.000    0.000 
#
# Total GULP energy -83585.311447 kJ/mol
# GULP energy per Si atom -5572.354096 kJ/mol
# Density = 2.319489 g / cm^3
# Si number density = 23.247799 Si / 1000 Ang^3
#
#
#
# Elastic Constant Matrix: (Units=GPa)
#
#
# Indices 1 2 3 4 5 6 
#
# 1 51.1822 3.3390 17.7762 0.4507 7.0157 -2.0114
# 2 3.3390 82.9416 36.0101 8.9465 -10.8064 -7.4092
# 3 17.7762 36.0101 105.5195 -7.2076 -8.8945 14.2153
# 4 0.4507 8.9465 -7.2076 56.3675 -3.1762 0.3565
# 5 7.0157 -10.8064 -8.8945 -3.1762 25.6429 -5.9850
# 6 -2.0114 -7.4092 14.2153 0.3565 -5.9850 15.6873
#
#
#
# Elastic Compliance Matrix: (Units=1/GPa)
#
#
# Indices 1 2 3 4 5 6 
#
# 1 0.022600 0.001601 -0.005880 -0.001578 -0.006189 0.006657
# 2 0.001601 0.019580 -0.009349 -0.003939 0.009097 0.021485
# 3 -0.005880 -0.009349 0.016619 0.003734 -0.000928 -0.020668
# 4 -0.001578 -0.003939 0.003734 0.018955 0.001145 -0.005441
# 5 -0.006189 0.009097 -0.000928 0.001145 0.049785 0.023312
# 6 0.006657 0.021485 -0.020668 -0.005441 0.023312 0.102492
#
#
# Mechanical properties :
#
#
# Convention : Reuss Voigt Hill
#
# Bulk Modulus (GPa) = 31.70078 39.32155 35.51117
# Shear Modulus (GPa) = 18.67058 31.70741 25.18899
#
# Velocity S-wave (km/s) = 2.83700 3.69709 3.29523
# Velocity P-wave (km/s) = 4.93934 5.93089 5.45768
#
# Compressibility (1/GPa) = 0.03154496
#
# Stress axis : x y z
#
# Youngs Moduli (GPa) = 44.24839 51.07133 60.17222
#
# Poissons Ratio (x) = -0.08179 0.35381
# Poissons Ratio (y) = -0.07086 0.56252
# Poissons Ratio (z) = 0.26018 0.47744
#
# Static dielectric constant tensor:
#      x y z
#    x 1.865640 -0.022670 0.032510 
#    y -0.022670 1.892010 -0.011420 
#    z 0.032510 -0.011420 1.910750 
# 
# From -- ./inp_files/52123.got.cif
#   From: 2010.05.17/outbox.cif.g08.bks.cpg/sg2_27_cif.got.tgz:52123.got - 2010.06.03 11:33:40.
