data_PCOD9028917
_publ_section_title
;
Structure prediction by ZEFSAII (Michael W. Deem and Ramdas Pophale) SiO2 
 PCOD9028917
Probable space group: P -1
;
_chemical_formula_sum "Si O2"
_cell_formula_units_Z 12
_cell_length_a 12.325562
_cell_length_b 18.622892
_cell_length_c 14.876821
_cell_angle_alpha 20.572031
_cell_angle_beta 150.734131
_cell_angle_gamma 152.009114
_cell_volume 541.149900
_symmetry_space_group_name_H-M "P -1"
_symmetry_group_IT_number 2
_symmetry_cell_setting 'triclinic'
loop_
_space_group_symop_operation_xyz
x,y,z
-x,-y,-z
loop_
_atom_site_type_symbol
_atom_site_label
_atom_site_fract_x
_atom_site_fract_y
_atom_site_fract_z
Si Si1 0.282068 0.567293 0.147626
Si Si2 0.511621 0.955951 0.342820
Si Si3 0.109800 0.866060 0.300754
Si Si4 0.446109 0.212302 0.743335
Si Si5 0.890244 0.401114 0.633120
Si Si6 0.067949 0.054235 0.237234
O O1 0.381808 0.370910 0.440541
O O2 0.340281 0.642702 0.205658
O O3 0.000000 0.500000 0.000000
O O4 0.429416 0.789068 0.937726
O O5 0.347970 0.883483 0.398971
O O6 0.362628 0.792753 0.347342
O O7 0.759569 0.932859 0.570826
O O8 0.918308 0.614162 0.461319
O O9 0.154411 0.969687 0.309474
O O10 0.000000 0.000000 0.000000
O O11 0.199814 0.113354 0.737953
O O12 0.500000 0.000000 0.000000
O O13 0.000000 0.500000 0.500000
O O14 0.051406 0.285971 0.930624
#
# Coordination Sequence:
#
# PCOD9028917 Si02
#       6
#     2   2   2   2   2   2
#     4  11  23  48  72  98 138 180 232 281 337 406
#     4  11  23  44  68 103 135 177 224 279 336 410
#     4  11  22  43  70  97 135 178 217 276 343 399
#     4  11  26  46  71  99 136 181 232 287 336 399
#     4  10  22  42  65  94 138 174 217 274 338 397
#     4  12  23  45  67 100 137 173 231 274 344 404
#
# _framework density 22.175001000000002
#
# number of rings (size 3 to 8) (size 9 to 14) (size 15 to 20)
#    0.000    1.000    6.667    0.500    0.000    7.333 
#    3.000    0.000    0.000    0.000    0.000    0.000 
#    0.000    0.000    0.000    0.000    0.000    0.000 
#
# Total GULP energy -67065.176023 kJ/mol
# GULP energy per Si atom -5588.764669 kJ/mol
# Density = 2.212453 g / cm^3
# Si number density = 22.175001 Si / 1000 Ang^3
#
#
#
# Elastic Constant Matrix: (Units=GPa)
#
#
# Indices 1 2 3 4 5 6 
#
# 1 51.7708 22.0489 21.7488 -5.6443 0.9922 9.3245
# 2 22.0489 134.0113 81.9102 8.7020 11.4320 4.1448
# 3 21.7488 81.9102 192.4146 -7.4889 -7.4388 -11.7024
# 4 -5.6443 8.7020 -7.4889 48.8753 -1.1637 -2.6895
# 5 0.9922 11.4320 -7.4388 -1.1637 33.3307 -9.6897
# 6 9.3245 4.1448 -11.7024 -2.6895 -9.6897 26.6967
#
#
#
# Elastic Compliance Matrix: (Units=1/GPa)
#
#
# Indices 1 2 3 4 5 6 
#
# 1 0.023228 -0.001802 -0.002524 0.001984 -0.003474 -0.010000
# 2 -0.001802 0.012623 -0.006070 -0.003972 -0.007877 -0.007250
# 3 -0.002524 -0.006070 0.008949 0.002786 0.006712 0.008463
# 4 0.001984 -0.003972 0.002786 0.022190 0.004117 0.004875
# 5 -0.003474 -0.007877 0.006712 0.004117 0.040396 0.020455
# 6 -0.010000 -0.007250 0.008463 0.004875 0.020455 0.053701
#
#
# Mechanical properties :
#
#
# Convention : Reuss Voigt Hill
#
# Bulk Modulus (GPa) = 41.65285 69.95692 55.80489
# Shear Modulus (GPa) = 26.33246 38.61311 32.47279
#
# Velocity S-wave (km/s) = 3.44973 4.17740 3.83088
# Velocity P-wave (km/s) = 5.88999 7.40836 6.69237
#
# Compressibility (1/GPa) = 0.02400796
#
# Stress axis : x y z
#
# Youngs Moduli (GPa) = 43.05207 79.22303 111.74648
#
# Poissons Ratio (x) = 0.14279 0.28200
# Poissons Ratio (y) = 0.07759 0.67827
# Poissons Ratio (z) = 0.10864 0.48086
#
# Static dielectric constant tensor:
#      x y z
#    x 7.108160 -4.358070 1.363510 
#    y -4.358070 5.489200 -1.146690 
#    z 1.363510 -1.146690 2.177180 
# 
# From -- ./inp_files/317969.got.cif
#   From: 2010.05.17/outbox.cif.g08.bks.cpg/sg2_159_cif.got.tgz:317969.got - 2010.06.03 11:33:40.
