data_PCOD9028840
_publ_section_title
;
Structure prediction by ZEFSAII (Michael W. Deem and Ramdas Pophale) SiO2 
 PCOD9028840
Probable space group: P -1
;
_chemical_formula_sum "Si O2"
_cell_formula_units_Z 14
_cell_length_a 14.636916
_cell_length_b 10.435663
_cell_length_c 13.299788
_cell_angle_alpha 33.951341
_cell_angle_beta 139.637518
_cell_angle_gamma 138.123503
_cell_volume 698.301333
_symmetry_space_group_name_H-M "P -1"
_symmetry_group_IT_number 2
_symmetry_cell_setting 'triclinic'
loop_
_space_group_symop_operation_xyz
x,y,z
-x,-y,-z
loop_
_atom_site_type_symbol
_atom_site_label
_atom_site_fract_x
_atom_site_fract_y
_atom_site_fract_z
Si Si1 0.865765 0.146191 0.891203
Si Si2 0.174299 0.029237 0.624204
Si Si3 0.686024 0.943033 0.071438
Si Si4 0.574981 0.953830 0.489420
Si Si5 0.364399 0.785316 0.827767
Si Si6 0.692829 0.494225 0.477715
Si Si7 0.799263 0.764460 0.907077
O O1 0.775600 0.070942 0.967101
O O2 0.825064 0.915876 0.933607
O O3 0.040950 0.237471 0.994931
O O4 0.812659 0.354427 0.659521
O O5 0.234339 0.899722 0.670900
O O6 0.231360 0.936160 0.836027
O O7 0.261211 0.315956 0.515908
O O8 0.000000 0.000000 0.500000
O O9 0.690322 0.667754 0.268690
O O10 0.513542 0.918811 0.929046
O O11 0.463253 0.709476 0.508512
O O12 0.725788 0.904340 0.677384
O O13 0.500000 0.000000 0.500000
O O14 0.595394 0.162928 0.289184
O O15 0.308189 0.504173 0.989759
#
# Coordination Sequence:
#
# PCOD9028840 Si02
#       7
#     2   2   2   2   2   2   2
#     4  11  23  43  63  97 129 170 211 267 329 376
#     4  10  24  43  64  94 131 171 215 265 320 376
#     4  10  23  41  69  89 128 170 211 267 318 373
#     4  12  24  41  68 101 127 169 218 261 322 387
#     4  12  24  43  66  96 131 171 214 265 317 382
#     4  10  22  42  65  90 132 161 219 265 311 380
#     4  11  25  39  65  98 132 164 216 264 324 387
#
# _framework density 20.048652000000001
#
# number of rings (size 3 to 8) (size 9 to 14) (size 15 to 20)
#    0.857    0.286    4.286    1.286    4.000    1.714 
#    2.571    4.286    0.000    0.000    0.000    0.000 
#    0.000    0.000    0.000    0.000    0.000    0.000 
#
# Total GULP energy -78120.459989 kJ/mol
# GULP energy per Si atom -5580.032856 kJ/mol
# Density = 2.000302 g / cm^3
# Si number density = 20.048652 Si / 1000 Ang^3
#
#
#
# Elastic Constant Matrix: (Units=GPa)
#
#
# Indices 1 2 3 4 5 6 
#
# 1 60.9841 1.2748 24.1905 7.2459 4.1719 5.4537
# 2 1.2748 52.4339 13.6235 12.4158 -8.0526 6.0523
# 3 24.1905 13.6235 77.4193 17.8056 4.4066 19.1101
# 4 7.2459 12.4158 17.8056 40.8265 7.1666 12.0704
# 5 4.1719 -8.0526 4.4066 7.1666 26.7763 1.0800
# 6 5.4537 6.0523 19.1101 12.0704 1.0800 21.5532
#
#
#
# Elastic Compliance Matrix: (Units=1/GPa)
#
#
# Indices 1 2 3 4 5 6 
#
# 1 0.018891 0.001031 -0.005980 -0.001082 -0.001396 0.000908
# 2 0.001031 0.023067 -0.003143 -0.007370 0.009278 -0.000289
# 3 -0.005980 -0.003143 0.019238 -0.002040 -0.002092 -0.013414
# 4 -0.001082 -0.007370 -0.002040 0.033828 -0.010190 -0.014282
# 5 -0.001396 0.009278 -0.002092 -0.010190 0.043299 0.003140
# 6 0.000908 -0.000289 -0.013414 -0.014282 0.003140 0.065982
#
#
# Mechanical properties :
#
#
# Convention : Reuss Voigt Hill
#
# Bulk Modulus (GPa) = 22.21642 29.89055 26.05348
# Shear Modulus (GPa) = 21.23209 27.94777 24.58993
#
# Velocity S-wave (km/s) = 3.25780 3.73768 3.50596
# Velocity P-wave (km/s) = 5.02557 5.79382 5.42332
#
# Compressibility (1/GPa) = 0.04501175
#
# Stress axis : x y z
#
# Youngs Moduli (GPa) = 52.93495 43.35284 51.98146
#
# Poissons Ratio (x) = -0.04471 0.31086
# Poissons Ratio (y) = -0.05460 0.16338
# Poissons Ratio (z) = 0.31656 0.13626
#
# Static dielectric constant tensor:
#      x y z
#    x 1.695400 -0.018580 0.004710 
#    y -0.018580 1.725900 0.016700 
#    z 0.004710 0.016700 1.710440 
# 
# From -- ./inp_files/530900.got.cif
#   From: 2010.05.17/outbox.cif.g08.bks.cpg/sg2_266_cif.got.tgz:530900.got - 2010.06.03 11:33:40.
