data_PCOD9028441
_publ_section_title
;
Structure prediction by ZEFSAII (Michael W. Deem and Ramdas Pophale) SiO2 
 PCOD9028441
Probable space group: P -1
;
_chemical_formula_sum "Si O2"
_cell_formula_units_Z 14
_cell_length_a 6.968554
_cell_length_b 12.603271
_cell_length_c 22.827554
_cell_angle_alpha 154.057646
_cell_angle_beta 68.118613
_cell_angle_gamma 120.723315
_cell_volume 733.638580
_symmetry_space_group_name_H-M "P -1"
_symmetry_group_IT_number 2
_symmetry_cell_setting 'triclinic'
loop_
_space_group_symop_operation_xyz
x,y,z
-x,-y,-z
loop_
_atom_site_type_symbol
_atom_site_label
_atom_site_fract_x
_atom_site_fract_y
_atom_site_fract_z
Si Si1 0.250676 0.663995 0.580646
Si Si2 0.156536 0.994467 0.032842
Si Si3 0.629112 0.421891 0.227424
Si Si4 0.669138 0.586046 0.438774
Si Si5 0.942659 0.812333 0.291534
Si Si6 0.841308 0.601819 0.966353
Si Si7 0.322565 0.248363 0.827306
O O1 0.432046 0.584577 0.487145
O O2 0.261749 0.587585 0.609082
O O3 0.000000 0.500000 0.500000
O O4 0.324364 0.978927 0.719753
O O5 0.366880 0.279531 0.164499
O O6 0.265691 0.790572 0.902020
O O7 0.002266 0.868221 0.044980
O O8 0.000000 0.000000 0.000000
O O9 0.642182 0.482132 0.324358
O O10 0.780385 0.683105 0.301599
O O11 0.864254 0.890865 0.571081
O O12 0.790966 0.812676 0.253452
O O13 0.060762 0.616496 0.164145
O O14 0.581673 0.478386 0.910290
O O15 0.821750 0.661105 0.066054
#
# Coordination Sequence:
#
# PCOD9028441 Si02
#       7
#     2   2   2   2   2   2   2
#     4  11  24  41  62  92 124 161 206 251 299 368
#     4  10  22  42  62  90 125 158 207 253 294 371
#     4  10  24  40  63  92 120 163 203 247 313 355
#     4  11  24  41  64  89 128 161 199 255 307 360
#     4  11  21  43  61  89 127 157 202 255 298 368
#     4  10  23  38  62  92 120 160 202 252 309 352
#     4  11  22  40  63  91 122 160 206 249 304 361
#
# _framework density 19.082965000000002
#
# number of rings (size 3 to 8) (size 9 to 14) (size 15 to 20)
#    0.000    1.429    2.857    1.714    4.000    0.000 
#    5.143    0.714    0.000    0.000    0.000    0.000 
#    0.000    0.000    0.000    0.000    0.000    0.000 
#
# Total GULP energy -78255.279671 kJ/mol
# GULP energy per Si atom -5589.662834 kJ/mol
# Density = 1.903953 g / cm^3
# Si number density = 19.082965 Si / 1000 Ang^3
#
#
#
# Elastic Constant Matrix: (Units=GPa)
#
#
# Indices 1 2 3 4 5 6 
#
# 1 101.2373 64.2887 24.2012 -3.4058 29.0034 -3.6838
# 2 64.2887 134.8375 36.3546 -11.9127 14.6156 -0.4707
# 3 24.2012 36.3546 38.2611 -19.0899 17.7635 -0.7578
# 4 -3.4058 -11.9127 -19.0899 28.9319 -3.2548 8.6579
# 5 29.0034 14.6156 17.7635 -3.2548 29.5260 -0.3336
# 6 -3.6838 -0.4707 -0.7578 8.6579 -0.3336 28.8968
#
#
#
# Elastic Compliance Matrix: (Units=1/GPa)
#
#
# Indices 1 2 3 4 5 6 
#
# 1 0.019301 -0.008164 0.001911 -0.002548 -0.016315 0.002953
# 2 -0.008164 0.013749 -0.013851 -0.003390 0.009172 -0.000059
# 3 0.001911 -0.013851 0.077341 0.044968 -0.036728 -0.011851
# 4 -0.002548 -0.003390 0.044968 0.066549 -0.015755 -0.019322
# 5 -0.016315 0.009172 -0.036728 -0.015755 0.065743 0.002586
# 6 0.002953 -0.000059 -0.011851 -0.019322 0.002586 0.040490
#
#
# Mechanical properties :
#
#
# Convention : Reuss Voigt Hill
#
# Bulk Modulus (GPa) = 14.24840 58.22498 36.23669
# Shear Modulus (GPa) = 14.41848 27.43703 20.92775
#
# Velocity S-wave (km/s) = 2.75174 3.79591 3.31520
# Velocity P-wave (km/s) = 4.19272 7.05618 5.80382
#
# Compressibility (1/GPa) = 0.07018332
#
# Stress axis : x y z
#
# Youngs Moduli (GPa) = 51.80972 72.73005 12.92968
#
# Poissons Ratio (x) = 0.59377 -0.02470
# Poissons Ratio (y) = 0.42298 0.17909
# Poissons Ratio (z) = -0.09899 1.00739
#
# Static dielectric constant tensor:
#      x y z
#    x 1.641430 0.010830 -0.008850 
#    y 0.010830 1.650630 0.008660 
#    z -0.008850 0.008660 1.635360 
# 
# From -- ./inp_files/65566.got.cif
#   From: 2010.05.17/outbox.cif.g08.bks.cpg/sg2_33_cif.got.tgz:65566.got - 2010.06.03 11:33:40.
