data_PCOD9028487
_publ_section_title
;
Structure prediction by ZEFSAII (Michael W. Deem and Ramdas Pophale) SiO2 
 PCOD9028487
Probable space group: P -1
;
_chemical_formula_sum "Si O2"
_cell_formula_units_Z 12
_cell_length_a 14.408417
_cell_length_b 8.480994
_cell_length_c 5.338156
_cell_angle_alpha 122.433151
_cell_angle_beta 81.045685
_cell_angle_gamma 117.227668
_cell_volume 486.045057
_symmetry_space_group_name_H-M "P -1"
_symmetry_group_IT_number 2
_symmetry_cell_setting 'triclinic'
loop_
_space_group_symop_operation_xyz
x,y,z
-x,-y,-z
loop_
_atom_site_type_symbol
_atom_site_label
_atom_site_fract_x
_atom_site_fract_y
_atom_site_fract_z
Si Si1 0.699123 0.839162 0.862175
Si Si2 0.169934 0.691178 0.694096
Si Si3 0.950809 0.684536 0.882103
Si Si4 0.530323 0.238007 0.239866
Si Si5 0.603370 0.465777 0.907580
Si Si6 0.859842 0.726108 0.457815
O O1 0.581821 0.751946 0.723520
O O2 0.694158 0.684822 0.960355
O O3 0.778805 0.820886 0.614018
O O4 0.739863 0.074518 0.142336
O O5 0.130376 0.563126 0.340250
O O6 0.192892 0.526443 0.703615
O O7 0.066067 0.699101 0.854429
O O8 0.936033 0.788008 0.720975
O O9 0.920597 0.771588 0.212402
O O10 0.582336 0.310503 0.550248
O O11 0.603716 0.369431 0.092518
O O12 0.500000 0.000000 0.000000
O O13 0.500000 0.500000 0.000000
#
# Coordination Sequence:
#
# PCOD9028487 Si02
#       6
#     2   2   2   2   2   2
#     4  11  24  43  68 105 129 176 224 279 321 400
#     4   9  22  43  65  98 132 177 223 263 332 388
#     4   9  21  44  64  91 141 176 212 274 325 389
#     4  11  25  47  71  94 134 179 215 273 341 393
#     4  10  23  47  65  95 135 168 217 275 333 395
#     4  10  22  42  62  96 135 173 218 275 321 388
#
# _framework density 24.689069
#
# number of rings (size 3 to 8) (size 9 to 14) (size 15 to 20)
#    1.000    1.000    0.000    3.000    2.333    5.333 
#   12.000    0.000    0.000    0.000    0.000    0.000 
#    0.000    0.000    0.000    0.000    0.000    0.000 
#
# Total GULP energy -67132.251860 kJ/mol
# GULP energy per Si atom -5594.354322 kJ/mol
# Density = 2.463288 g / cm^3
# Si number density = 24.689069 Si / 1000 Ang^3
#
#
#
# Elastic Constant Matrix: (Units=GPa)
#
#
# Indices 1 2 3 4 5 6 
#
# 1 108.8564 10.8107 44.9827 -7.8219 3.8260 -9.0961
# 2 10.8107 87.4554 69.6840 18.8661 1.4860 5.7657
# 3 44.9827 69.6840 175.4313 -16.4152 -9.7766 11.3919
# 4 -7.8219 18.8661 -16.4152 44.6286 11.6285 6.2391
# 5 3.8260 1.4860 -9.7766 11.6285 36.0823 7.1664
# 6 -9.0961 5.7657 11.3919 6.2391 7.1664 20.3212
#
#
#
# Elastic Compliance Matrix: (Units=1/GPa)
#
#
# Indices 1 2 3 4 5 6 
#
# 1 0.011766 0.001820 -0.004609 -0.000571 -0.004171 0.008980
# 2 0.001820 0.022850 -0.011229 -0.014015 -0.000687 0.005171
# 3 -0.004609 -0.011229 0.013076 0.009263 0.003556 -0.010306
# 4 -0.000571 -0.014015 0.009263 0.034602 -0.006023 -0.009971
# 5 -0.004171 -0.000687 0.003556 -0.006023 0.033819 -0.013743
# 6 0.008980 0.005171 -0.010306 -0.009971 -0.013743 0.065447
#
#
# Mechanical properties :
#
#
# Convention : Reuss Voigt Hill
#
# Bulk Modulus (GPa) = 50.87085 69.18866 60.02975
# Shear Modulus (GPa) = 23.13216 36.62413 29.87815
#
# Velocity S-wave (km/s) = 3.06427 3.85569 3.48253
# Velocity P-wave (km/s) = 5.75925 6.92146 6.36693
#
# Compressibility (1/GPa) = 0.01965762
#
# Stress axis : x y z
#
# Youngs Moduli (GPa) = 84.98932 43.76300 76.47437
#
# Poissons Ratio (x) = -0.07964 0.35246
# Poissons Ratio (y) = -0.15467 0.85870
# Poissons Ratio (z) = 0.39171 0.49140
#
# Static dielectric constant tensor:
#      x y z
#    x 1.979020 0.002500 0.034370 
#    y 0.002500 1.984990 0.005590 
#    z 0.034370 0.005590 1.944890 
# 
# From -- ./inp_files/105770.got.cif
#   From: 2010.05.17/outbox.cif.g08.bks.cpg/sg2_53_cif.got.tgz:105770.got - 2010.06.03 11:33:40.
