data_PCOD9028740
_publ_section_title
;
Structure prediction by ZEFSAII (Michael W. Deem and Ramdas Pophale) SiO2 
 PCOD9028740
Probable space group: P -1
;
_chemical_formula_sum "Si O2"
_cell_formula_units_Z 16
_cell_length_a 8.086284
_cell_length_b 6.584880
_cell_length_c 17.511345
_cell_angle_alpha 115.182776
_cell_angle_beta 58.636934
_cell_angle_gamma 107.713690
_cell_volume 716.367290
_symmetry_space_group_name_H-M "P -1"
_symmetry_group_IT_number 2
_symmetry_cell_setting 'triclinic'
loop_
_space_group_symop_operation_xyz
x,y,z
-x,-y,-z
loop_
_atom_site_type_symbol
_atom_site_label
_atom_site_fract_x
_atom_site_fract_y
_atom_site_fract_z
Si Si1 0.192941 0.350045 0.495964
Si Si2 0.923653 0.236988 0.070267
Si Si3 0.890658 0.402151 0.689161
Si Si4 0.365243 0.284629 0.290705
Si Si5 0.257865 0.692694 0.717860
Si Si6 0.427407 0.803016 0.542410
Si Si7 0.709177 0.434814 0.016196
Si Si8 0.407909 0.795658 0.147240
O O1 0.217331 0.237662 0.390012
O O2 0.261117 0.621166 0.516484
O O3 0.369356 0.289319 0.497667
O O4 0.982425 0.289716 0.575125
O O5 0.843835 0.212219 0.170474
O O6 0.769590 0.303908 0.055288
O O7 0.100984 0.433124 0.048421
O O8 0.000000 0.000000 0.000000
O O9 0.744093 0.573186 0.720086
O O10 0.777335 0.273515 0.764849
O O11 0.089957 0.523634 0.694903
O O12 0.556046 0.411166 0.307012
O O13 0.438312 0.061258 0.200386
O O14 0.339028 0.857062 0.655845
O O15 0.500000 0.000000 0.500000
O O16 0.571774 0.629528 0.101759
O O17 0.622029 0.261408 0.944320
#
# Coordination Sequence:
#
# PCOD9028740 Si02
#       8
#     2   2   2   2   2   2   2   2
#     4   9  21  40  61  99 135 170 229 273 322 413
#     4  11  22  42  69  98 129 176 225 279 341 402
#     4  11  23  42  67  95 138 174 222 281 329 400
#     4  11  24  41  65  97 134 179 223 272 343 394
#     4  10  22  42  64  97 131 171 229 264 332 407
#     4   9  19  39  67  96 134 180 216 278 338 392
#     4  10  24  43  66  96 136 170 225 286 335 399
#     4  11  24  43  64  99 133 176 225 276 341 403
#
# _framework density 22.334911000000002
#
# number of rings (size 3 to 8) (size 9 to 14) (size 15 to 20)
#    0.000    1.750    1.250    2.625    1.750    4.500 
#    0.000   10.625    0.000    0.000    0.000    0.000 
#    0.000    0.000    0.000    0.000    0.000    0.000 
#
# Total GULP energy -89263.326264 kJ/mol
# GULP energy per Si atom -5578.957892 kJ/mol
# Density = 2.228408 g / cm^3
# Si number density = 22.334911 Si / 1000 Ang^3
#
#
#
# Elastic Constant Matrix: (Units=GPa)
#
#
# Indices 1 2 3 4 5 6 
#
# 1 83.5099 20.0334 17.0181 1.8315 2.4649 -6.4522
# 2 20.0334 75.3313 33.0565 -19.9420 2.3789 -0.1722
# 3 17.0181 33.0565 158.1189 -17.0552 -5.2965 -5.8332
# 4 1.8315 -19.9420 -17.0552 32.6441 9.9970 -12.1263
# 5 2.4649 2.3789 -5.2965 9.9970 28.5237 -8.8259
# 6 -6.4522 -0.1722 -5.8332 -12.1263 -8.8259 19.0691
#
#
#
# Elastic Compliance Matrix: (Units=1/GPa)
#
#
# Indices 1 2 3 4 5 6 
#
# 1 0.013341 -0.003967 -0.000769 -0.002774 0.000904 0.002898
# 2 -0.003967 0.019169 -0.002032 0.014261 -0.005112 0.004912
# 3 -0.000769 -0.002032 0.007562 0.004262 0.001884 0.005617
# 4 -0.002774 0.014261 0.004262 0.056662 -0.010172 0.031818
# 5 0.000904 -0.005112 0.001884 -0.010172 0.043860 0.014668
# 6 0.002898 0.004912 0.005617 0.031818 0.014668 0.082206
#
#
# Mechanical properties :
#
#
# Convention : Reuss Voigt Hill
#
# Bulk Modulus (GPa) = 37.68347 50.79732 44.24039
# Shear Modulus (GPa) = 20.39297 32.50420 26.44858
#
# Velocity S-wave (km/s) = 3.02496 3.81899 3.44493
# Velocity P-wave (km/s) = 5.39529 6.49916 5.97278
#
# Compressibility (1/GPa) = 0.02653684
#
# Stress axis : x y z
#
# Youngs Moduli (GPa) = 74.95755 52.16644 132.23973
#
# Poissons Ratio (x) = 0.20693 0.10164
# Poissons Ratio (y) = 0.29734 0.26876
# Poissons Ratio (z) = 0.05761 0.10602
#
# Static dielectric constant tensor:
#      x y z
#    x 1.871340 0.008740 0.035130 
#    y 0.008740 1.870210 -0.046960 
#    z 0.035130 -0.046960 1.978210 
# 
# From -- ./inp_files/553811.got.cif
#   From: 2010.05.17/outbox.cif.g08.bks.cpg/sg2_277_cif.got.tgz:553811.got - 2010.06.03 11:33:40.
