data_PCOD9028882
_publ_section_title
;
Structure prediction by ZEFSAII (Michael W. Deem and Ramdas Pophale) SiO2 
 PCOD9028882
Probable space group: P -1
;
_chemical_formula_sum "Si O2"
_cell_formula_units_Z 15
_cell_length_a 8.785624
_cell_length_b 11.886074
_cell_length_c 17.869964
_cell_angle_alpha 145.523917
_cell_angle_beta 127.528700
_cell_angle_gamma 78.399979
_cell_volume 621.356508
_symmetry_space_group_name_H-M "P -1"
_symmetry_group_IT_number 2
_symmetry_cell_setting 'triclinic'
loop_
_space_group_symop_operation_xyz
x,y,z
-x,-y,-z
loop_
_atom_site_type_symbol
_atom_site_label
_atom_site_fract_x
_atom_site_fract_y
_atom_site_fract_z
Si Si1 0.746244 0.373043 0.568544
Si Si2 0.535621 0.559856 0.698150
Si Si3 0.500000 0.500000 0.000000
Si Si4 0.009866 0.936033 0.684933
Si Si5 0.209039 0.462116 0.096436
Si Si6 0.344201 0.792998 0.186468
Si Si7 0.880839 0.731055 0.364077
Si Si8 0.273392 0.738173 0.672807
O O1 0.718015 0.579075 0.702024
O O2 0.728655 0.342000 0.456966
O O3 0.978468 0.384360 0.666949
O O4 0.500207 0.098069 0.383251
O O5 0.642965 0.557562 0.807731
O O6 0.505605 0.777373 0.802040
O O7 0.234294 0.279377 0.452531
O O8 0.456392 0.702284 0.117643
O O9 0.601444 0.529625 0.133537
O O10 0.253651 0.962512 0.789996
O O11 0.919860 0.817658 0.509297
O O12 0.082646 0.216021 0.866193
O O13 0.368073 0.734657 0.247214
O O14 0.960353 0.394169 0.021057
O O15 0.000000 0.000000 0.500000
O O16 0.000000 0.500000 0.500000
#
# Coordination Sequence:
#
# PCOD9028882 Si02
#       8
#     2   2   1   2   2   2   2   2
#     4  11  22  42  67  96 130 174 217 268 330 385
#     4  11  22  41  69  91 128 175 221 271 325 375
#     4  12  22  40  60  90 130 166 216 254 310 388
#     4  10  22  42  65  93 131 170 217 268 328 384
#     4  11  24  42  63  98 135 176 214 262 326 397
#     4  11  24  40  62  96 137 170 214 265 318 401
#     4  11  22  37  61  92 128 170 210 262 317 385
#     4   9  22  43  69  95 123 172 220 276 328 384
#
# _framework density 24.140730999999999
#
# number of rings (size 3 to 8) (size 9 to 14) (size 15 to 20)
#    0.000    1.333    2.667    2.800    1.867    2.133 
#    0.000    0.667    5.867    0.000    0.000    0.000 
#    0.000    0.000    0.000    0.000    0.000    0.000 
#
# Total GULP energy -83564.029451 kJ/mol
# GULP energy per Si atom -5570.935297 kJ/mol
# Density = 2.408579 g / cm^3
# Si number density = 24.140731 Si / 1000 Ang^3
#
#
#
# Elastic Constant Matrix: (Units=GPa)
#
#
# Indices 1 2 3 4 5 6 
#
# 1 119.1901 31.3765 17.3045 -14.5058 -6.1647 -28.9009
# 2 31.3765 120.7305 14.5837 -30.4249 6.2489 -17.7922
# 3 17.3045 14.5837 19.1845 -9.9227 0.8042 -0.0789
# 4 -14.5058 -30.4249 -9.9227 35.2257 -3.7864 7.0627
# 5 -6.1647 6.2489 0.8042 -3.7864 26.2760 -1.1164
# 6 -28.9009 -17.7922 -0.0789 7.0627 -1.1164 49.9394
#
#
#
# Elastic Compliance Matrix: (Units=1/GPa)
#
#
# Indices 1 2 3 4 5 6 
#
# 1 0.011922 -0.001051 -0.009934 0.000284 0.003670 0.006551
# 2 -0.001051 0.011364 -0.003616 0.007727 -0.001627 0.002306
# 3 -0.009934 -0.003616 0.071374 0.014489 -0.001950 -0.009018
# 4 0.000284 0.007727 0.014489 0.040166 0.003461 -0.002663
# 5 0.003670 -0.001627 -0.001950 0.003461 0.039947 0.001945
# 6 0.006551 0.002306 -0.009018 -0.002663 0.001945 0.025043
#
#
# Mechanical properties :
#
#
# Convention : Reuss Voigt Hill
#
# Bulk Modulus (GPa) = 15.27751 42.84829 29.06290
# Shear Modulus (GPa) = 19.93313 35.34425 27.63869
#
# Velocity S-wave (km/s) = 2.87663 3.83050 3.38731
# Velocity P-wave (km/s) = 4.16840 6.11159 5.23102
#
# Compressibility (1/GPa) = 0.06545570
#
# Stress axis : x y z
#
# Youngs Moduli (GPa) = 83.87917 87.99634 14.01067
#
# Poissons Ratio (x) = 0.09251 0.13919
# Poissons Ratio (y) = 0.08818 0.05067
# Poissons Ratio (z) = 0.83329 0.31824
#
# Static dielectric constant tensor:
#      x y z
#    x 1.871120 0.033320 0.064830 
#    y 0.033320 1.949900 0.002360 
#    z 0.064830 0.002360 1.996600 
# 
# From -- ./inp_files/559336.got.cif
#   From: 2010.05.17/outbox.cif.g08.bks.cpg/sg2_280_cif.got.tgz:559336.got - 2010.06.03 11:33:40.
