data_PCOD9028112
_publ_section_title
;
Structure prediction by ZEFSAII (Michael W. Deem and Ramdas Pophale) SiO2 
 PCOD9028112
Probable space group: P -1
;
_chemical_formula_sum "Si O2"
_cell_formula_units_Z 14
_cell_length_a 5.468765
_cell_length_b 23.273000
_cell_length_c 10.649198
_cell_angle_alpha 145.699152
_cell_angle_beta 88.750618
_cell_angle_gamma 68.010011
_cell_volume 547.882430
_symmetry_space_group_name_H-M "P -1"
_symmetry_group_IT_number 2
_symmetry_cell_setting 'triclinic'
loop_
_space_group_symop_operation_xyz
x,y,z
-x,-y,-z
loop_
_atom_site_type_symbol
_atom_site_label
_atom_site_fract_x
_atom_site_fract_y
_atom_site_fract_z
Si Si1 0.519728 0.616957 0.708432
Si Si2 0.738583 0.389641 0.908196
Si Si3 0.796158 0.058562 0.338940
Si Si4 0.294598 0.355562 0.995975
Si Si5 0.229808 0.121026 0.818847
Si Si6 0.336195 0.156800 0.311472
Si Si7 0.436922 0.222788 0.177148
O O1 0.500000 0.500000 0.500000
O O2 0.531320 0.667979 0.662965
O O3 0.771581 0.588590 0.760895
O O4 0.148629 0.767987 0.030846
O O5 0.482664 0.397588 0.008137
O O6 0.969994 0.402667 0.009442
O O7 0.022332 0.240287 0.561712
O O8 0.500000 0.500000 0.000000
O O9 0.589070 0.183841 0.668912
O O10 0.625272 0.133254 0.343437
O O11 0.734727 0.960532 0.206669
O O12 0.200084 0.940672 0.113249
O O13 0.500000 0.000000 0.500000
O O14 0.280102 0.218491 0.047442
O O15 0.249201 0.246517 0.349891
O O16 0.500000 0.000000 0.000000
#
# Coordination Sequence:
#
# PCOD9028112 Si02
#       7
#     2   2   2   2   2   2   2
#     4  11  28  49  70 108 153 206 258 318 383 455
#     4  11  27  51  78 111 150 206 258 318 383 464
#     4  10  22  41  71 111 145 197 248 318 383 458
#     4  11  25  49  80 107 154 205 260 315 385 464
#     4  11  23  41  73 106 146 193 255 310 380 456
#     4  11  22  43  76 110 150 189 251 319 393 459
#     4  11  23  43  72 108 153 195 252 321 386 455
#
# _framework density 25.552928999999999
#
# number of rings (size 3 to 8) (size 9 to 14) (size 15 to 20)
#    0.000    1.143    1.429    3.429    8.000    5.143 
#    7.714    0.000    0.000    0.000    0.000    0.000 
#    0.000    0.000    0.000    0.000    0.000    0.000 
#
# Total GULP energy -78310.438987 kJ/mol
# GULP energy per Si atom -5593.602785 kJ/mol
# Density = 2.549477 g / cm^3
# Si number density = 25.552929 Si / 1000 Ang^3
#
#
#
# Elastic Constant Matrix: (Units=GPa)
#
#
# Indices 1 2 3 4 5 6 
#
# 1 116.7342 59.5791 24.8602 -3.6995 13.1836 -3.8056
# 2 59.5791 140.5940 53.1146 -2.3760 22.1983 15.7200
# 3 24.8602 53.1146 124.0213 -11.4786 -6.2216 -13.5284
# 4 -3.6995 -2.3760 -11.4786 39.6013 -7.1795 -1.4101
# 5 13.1836 22.1983 -6.2216 -7.1795 42.0222 8.1552
# 6 -3.8056 15.7200 -13.5284 -1.4101 8.1552 49.9712
#
#
#
# Elastic Compliance Matrix: (Units=1/GPa)
#
#
# Indices 1 2 3 4 5 6 
#
# 1 0.011308 -0.004915 0.000123 0.000649 -0.001342 0.002678
# 2 -0.004915 0.012631 -0.005468 -0.002441 -0.005383 -0.005018
# 3 0.000123 -0.005468 0.011425 0.003942 0.004396 0.004216
# 4 0.000649 -0.002441 0.003942 0.027463 0.006036 0.001674
# 5 -0.001342 -0.005383 0.004396 0.006036 0.029092 -0.001796
# 6 0.002678 -0.005018 0.004216 0.001674 -0.001796 0.023276
#
#
# Mechanical properties :
#
#
# Convention : Reuss Voigt Hill
#
# Bulk Modulus (GPa) = 67.36068 72.93971 70.15019
# Shear Modulus (GPa) = 35.54598 42.57199 39.05898
#
# Velocity S-wave (km/s) = 3.73375 4.08613 3.91391
# Velocity P-wave (km/s) = 6.70868 7.13222 6.92369
#
# Compressibility (1/GPa) = 0.01484546
#
# Stress axis : x y z
#
# Youngs Moduli (GPa) = 88.43050 79.17080 87.52468
#
# Poissons Ratio (x) = 0.38914 -0.01078
# Poissons Ratio (y) = 0.43466 0.47854
# Poissons Ratio (z) = -0.01089 0.43287
#
# Static dielectric constant tensor:
#      x y z
#    x 2.160060 0.022980 -0.003630 
#    y 0.022980 2.091580 -0.008010 
#    z -0.003630 -0.008010 2.023270 
# 
# From -- ./inp_files/371120.got.cif
#   From: 2010.05.17/outbox.cif.g08.bks.cpg/sg2_186_cif.got.tgz:371120.got - 2010.06.03 11:33:40.
