data_PCOD9028666
_publ_section_title
;
Structure prediction by ZEFSAII (Michael W. Deem and Ramdas Pophale) SiO2 
 PCOD9028666
Probable space group: P -1
;
_chemical_formula_sum "Si O2"
_cell_formula_units_Z 16
_cell_length_a 9.614261
_cell_length_b 17.637743
_cell_length_c 11.712870
_cell_angle_alpha 152.223456
_cell_angle_beta 126.563578
_cell_angle_gamma 61.065134
_cell_volume 738.470537
_symmetry_space_group_name_H-M "P -1"
_symmetry_group_IT_number 2
_symmetry_cell_setting 'triclinic'
loop_
_space_group_symop_operation_xyz
x,y,z
-x,-y,-z
loop_
_atom_site_type_symbol
_atom_site_label
_atom_site_fract_x
_atom_site_fract_y
_atom_site_fract_z
Si Si1 0.549292 0.105447 0.341249
Si Si2 0.081965 0.686998 0.784277
Si Si3 0.635601 0.748667 0.890215
Si Si4 0.669134 0.095265 0.648689
Si Si5 0.099342 0.133376 0.638744
Si Si6 0.175829 0.733851 0.464749
Si Si7 0.248369 0.574318 0.499716
Si Si8 0.141075 0.041107 0.022684
O O1 0.622535 0.126414 0.534690
O O2 0.641215 0.241874 0.482091
O O3 0.340767 0.093527 0.229153
O O4 0.611421 0.935305 0.094091
O O5 0.166810 0.687626 0.701304
O O6 0.000000 0.500000 0.500000
O O7 0.935907 0.809793 0.879940
O O8 0.236562 0.746507 0.028421
O O9 0.442630 0.660929 0.692092
O O10 0.739655 0.610882 0.699177
O O11 0.737946 0.773451 0.092092
O O12 0.500000 0.000000 0.500000
O O13 0.815759 0.970793 0.554253
O O14 0.970247 0.251526 0.682042
O O15 0.000000 0.000000 0.500000
O O16 0.159211 0.584713 0.346386
O O17 0.156301 0.889180 0.743971
O O18 0.000000 0.000000 0.000000
#
# Coordination Sequence:
#
# PCOD9028666 Si02
#       8
#     2   2   2   2   2   2   2   2
#     4  11  24  41  71  97 124 179 234 276 328 396
#     4  12  27  42  68 101 138 181 223 279 346 403
#     4  10  22  42  64  91 137 170 219 269 335 401
#     4  11  23  43  68  97 134 180 230 273 330 413
#     4  11  22  39  67  97 125 173 227 273 322 398
#     4  12  23  39  67 102 131 168 229 280 333 398
#     4  11  25  41  63 100 138 172 213 281 346 395
#     4  12  23  43  65  99 134 175 231 277 338 409
#
# _framework density 21.666404
#
# number of rings (size 3 to 8) (size 9 to 14) (size 15 to 20)
#    0.000    0.750    6.250    2.625    3.500    1.500 
#    0.000    0.625    0.000    0.000    0.000    0.000 
#    0.000    0.000    0.000    0.000    0.000    0.000 
#
# Total GULP energy -89292.604482 kJ/mol
# GULP energy per Si atom -5580.787780 kJ/mol
# Density = 2.161709 g / cm^3
# Si number density = 21.666404 Si / 1000 Ang^3
#
#
#
# Elastic Constant Matrix: (Units=GPa)
#
#
# Indices 1 2 3 4 5 6 
#
# 1 111.4414 44.5573 12.6286 1.8355 -3.2198 -0.2052
# 2 44.5573 82.5719 29.5889 -13.9073 12.0268 -14.9361
# 3 12.6286 29.5889 87.3836 -9.7358 -11.0546 -5.9497
# 4 1.8355 -13.9073 -9.7358 34.1046 -10.8143 1.4136
# 5 -3.2198 12.0268 -11.0546 -10.8143 16.9882 -3.7496
# 6 -0.2052 -14.9361 -5.9497 1.4136 -3.7496 35.4244
#
#
#
# Elastic Compliance Matrix: (Units=1/GPa)
#
#
# Indices 1 2 3 4 5 6 
#
# 1 0.012975 -0.009975 0.002525 -0.000726 0.010128 -0.002606
# 2 -0.009975 0.026021 -0.010180 -0.000143 -0.025593 0.006500
# 3 0.002525 -0.010180 0.019001 0.009438 0.026351 0.001326
# 4 -0.000726 -0.000143 0.009438 0.042636 0.034000 0.003418
# 5 0.010128 -0.025593 0.026351 0.034000 0.118777 0.004909
# 6 -0.002606 0.006500 0.001326 0.003418 0.004909 0.031561
#
#
# Mechanical properties :
#
#
# Convention : Reuss Voigt Hill
#
# Bulk Modulus (GPa) = 43.98093 50.54962 47.26528
# Shear Modulus (GPa) = 17.01775 30.27826 23.64800
#
# Velocity S-wave (km/s) = 2.80562 3.74234 3.30731
# Velocity P-wave (km/s) = 5.55324 6.48498 6.03711
#
# Compressibility (1/GPa) = 0.02273713
#
# Stress axis : x y z
#
# Youngs Moduli (GPa) = 77.06939 38.43049 52.62782
#
# Poissons Ratio (x) = 0.38336 -0.13291
# Poissons Ratio (y) = 0.76880 0.53577
# Poissons Ratio (z) = -0.19464 0.39124
#
# Static dielectric constant tensor:
#      x y z
#    x 1.844110 0.211020 0.020770 
#    y 0.211020 2.352550 0.046550 
#    z 0.020770 0.046550 1.830580 
# 
# From -- ./inp_files/402542.got.cif
#   From: 2010.05.17/outbox.cif.g08.bks.cpg/sg2_202_cif.got.tgz:402542.got - 2010.06.03 11:33:40.
