data_PCOD9028751
_publ_section_title
;
Structure prediction by ZEFSAII (Michael W. Deem and Ramdas Pophale) SiO2 
 PCOD9028751
Probable space group: P -1
;
_chemical_formula_sum "Si O2"
_cell_formula_units_Z 16
_cell_length_a 7.059314
_cell_length_b 15.651873
_cell_length_c 9.789004
_cell_angle_alpha 78.087219
_cell_angle_beta 45.031444
_cell_angle_gamma 81.656555
_cell_volume 748.746236
_symmetry_space_group_name_H-M "P -1"
_symmetry_group_IT_number 2
_symmetry_cell_setting 'triclinic'
loop_
_space_group_symop_operation_xyz
x,y,z
-x,-y,-z
loop_
_atom_site_type_symbol
_atom_site_label
_atom_site_fract_x
_atom_site_fract_y
_atom_site_fract_z
Si Si1 0.264644 0.208843 0.693192
Si Si2 0.318438 0.555606 0.173124
Si Si3 0.552965 0.914712 0.592708
Si Si4 0.763845 0.476763 0.458031
Si Si5 0.239693 0.125963 0.216090
Si Si6 0.037759 0.081060 0.056332
Si Si7 0.823271 0.275754 0.468515
Si Si8 0.712283 0.251411 0.851258
O O1 0.296237 0.150929 0.560887
O O2 0.529241 0.265224 0.555903
O O3 0.978484 0.252142 0.806734
O O4 0.240313 0.146247 0.857477
O O5 0.319142 0.523791 0.340099
O O6 0.419898 0.654810 0.087507
O O7 0.007901 0.543884 0.291617
O O8 0.500000 0.500000 0.000000
O O9 0.707518 0.925105 0.652967
O O10 0.257718 0.879131 0.790146
O O11 0.500000 0.000000 0.500000
O O12 0.500000 0.500000 0.500000
O O13 0.880119 0.379421 0.398643
O O14 0.141053 0.065135 0.162146
O O15 0.027307 0.205239 0.322750
O O16 0.515500 0.173046 0.015793
O O17 0.000000 0.000000 0.000000
O O18 0.796212 0.251002 0.650121
#
# Coordination Sequence:
#
# PCOD9028751 Si02
#       8
#     2   2   2   2   2   2   2   2
#     4  12  23  44  66  95 134 166 224 276 328 391
#     4  10  22  42  64  97 137 173 221 269 326 392
#     4  12  26  45  68  98 131 172 221 278 340 396
#     4  10  22  42  64  98 135 176 220 267 328 389
#     4  12  25  44  70  99 130 176 227 272 333 400
#     4  12  26  45  66  99 134 169 218 277 337 404
#     4  11  23  41  69  97 133 175 222 273 325 391
#     4  11  23  41  69  97 132 178 217 276 328 384
#
# _framework density 21.369054999999999
#
# number of rings (size 3 to 8) (size 9 to 14) (size 15 to 20)
#    0.000    0.750    6.250    1.500    0.000    1.500 
#    6.750    0.000    0.000    0.000    0.000    0.000 
#    0.000    0.000    0.000    0.000    0.000    0.000 
#
# Total GULP energy -89409.976316 kJ/mol
# GULP energy per Si atom -5588.123520 kJ/mol
# Density = 2.132042 g / cm^3
# Si number density = 21.369055 Si / 1000 Ang^3
#
#
#
# Elastic Constant Matrix: (Units=GPa)
#
#
# Indices 1 2 3 4 5 6 
#
# 1 148.5870 16.9202 26.9472 -1.4995 17.3076 -0.7528
# 2 16.9202 63.4889 24.9296 2.2656 13.5060 6.2637
# 3 26.9472 24.9296 62.2408 5.6240 9.3477 -2.6986
# 4 -1.4995 2.2656 5.6240 24.8611 5.6906 -4.9108
# 5 17.3076 13.5060 9.3477 5.6906 38.5241 4.7840
# 6 -0.7528 6.2637 -2.6986 -4.9108 4.7840 24.0521
#
#
#
# Elastic Compliance Matrix: (Units=1/GPa)
#
#
# Indices 1 2 3 4 5 6 
#
# 1 0.007674 -0.000472 -0.002816 0.002049 -0.003034 0.001069
# 2 -0.000472 0.020274 -0.007466 -0.000230 -0.004391 -0.005306
# 3 -0.002816 -0.007466 0.020908 -0.003200 -0.001188 0.003785
# 4 0.002049 -0.000230 -0.003200 0.045012 -0.008023 0.010551
# 5 -0.003034 -0.004391 -0.001188 -0.008023 0.031194 -0.006927
# 6 0.001069 -0.005306 0.003785 0.010551 -0.006927 0.046948
#
#
# Mechanical properties :
#
#
# Convention : Reuss Voigt Hill
#
# Bulk Modulus (GPa) = 36.56707 45.76786 41.16747
# Shear Modulus (GPa) = 24.67486 31.18877 27.93181
#
# Velocity S-wave (km/s) = 3.40178 3.82452 3.61933
# Velocity P-wave (km/s) = 5.70778 6.40054 6.06406
#
# Compressibility (1/GPa) = 0.02734701
#
# Stress axis : x y z
#
# Youngs Moduli (GPa) = 130.30780 49.32424 47.82882
#
# Poissons Ratio (x) = 0.02330 0.13470
# Poissons Ratio (y) = 0.06156 0.35707
# Poissons Ratio (z) = 0.36700 0.36824
#
# Static dielectric constant tensor:
#      x y z
#    x 1.774900 0.008090 -0.054970 
#    y 0.008090 1.758330 0.036710 
#    z -0.054970 0.036710 1.666470 
# 
# From -- ./inp_files/48084.got.cif
#   From: 2010.05.17/outbox.cif.g08.bks.cpg/sg2_25_cif.got.tgz:48084.got - 2010.06.03 11:33:40.
