data_PCOD9028170
_publ_section_title
;
Structure prediction by ZEFSAII (Michael W. Deem and Ramdas Pophale) SiO2 
 PCOD9028170
Probable space group: P -1
;
_chemical_formula_sum "Si O2"
_cell_formula_units_Z 16
_cell_length_a 17.031121
_cell_length_b 8.740517
_cell_length_c 9.801778
_cell_angle_alpha 79.023180
_cell_angle_beta 142.401330
_cell_angle_gamma 78.095431
_cell_volume 701.589985
_symmetry_space_group_name_H-M "P -1"
_symmetry_group_IT_number 2
_symmetry_cell_setting 'triclinic'
loop_
_space_group_symop_operation_xyz
x,y,z
-x,-y,-z
loop_
_atom_site_type_symbol
_atom_site_label
_atom_site_fract_x
_atom_site_fract_y
_atom_site_fract_z
Si Si1 0.974994 0.699602 0.897561
Si Si2 0.745811 0.409269 0.902222
Si Si3 0.661432 0.095419 0.454390
Si Si4 0.146341 0.822682 0.650354
Si Si5 0.647907 0.028924 0.044721
Si Si6 0.408516 0.812268 0.351406
Si Si7 0.631668 0.733354 0.180187
Si Si8 0.158138 0.717508 0.389811
O O1 0.092833 0.657988 0.942245
O O2 0.034236 0.761296 0.096197
O O3 0.000000 0.500000 0.000000
O O4 0.790772 0.884329 0.602820
O O5 0.597378 0.632589 0.635941
O O6 0.685593 0.284349 0.783930
O O7 0.777866 0.362750 0.115624
O O8 0.632485 0.086376 0.575988
O O9 0.496972 0.210243 0.124790
O O10 0.734002 0.216435 0.520876
O O11 0.088493 0.812611 0.424798
O O12 0.273330 0.871063 0.805677
O O13 0.000000 0.000000 0.500000
O O14 0.471611 0.152131 0.847127
O O15 0.728717 0.812036 0.244516
O O16 0.638581 0.049655 0.866274
O O17 0.735313 0.510483 0.396464
#
# Coordination Sequence:
#
# PCOD9028170 Si02
#       8
#     2   2   2   2   2   2   2   2
#     4  12  29  47  70 103 147 186 230 290 361 417
#     4  10  22  42  68 101 136 180 231 285 347 412
#     4  12  25  44  72 105 139 183 239 286 346 425
#     4  11  24  42  70  98 138 184 233 282 344 419
#     4  10  24  42  69  97 143 176 226 286 355 397
#     4  10  22  41  72 100 134 180 233 287 338 413
#     4  11  25  43  71 103 138 184 231 290 348 412
#     4  12  25  45  73 101 137 185 238 281 346 426
#
# _framework density 22.805344000000002
#
# number of rings (size 3 to 8) (size 9 to 14) (size 15 to 20)
#    0.000    1.000    2.500    3.000   12.250    0.500 
#    2.250    1.250    0.000    0.000    0.000    0.000 
#    0.000    0.000    0.000    0.000    0.000    0.000 
#
# Total GULP energy -89619.230304 kJ/mol
# GULP energy per Si atom -5601.201894 kJ/mol
# Density = 2.275344 g / cm^3
# Si number density = 22.805344 Si / 1000 Ang^3
#
#
#
# Elastic Constant Matrix: (Units=GPa)
#
#
# Indices 1 2 3 4 5 6 
#
# 1 122.6299 33.8173 21.8095 0.8204 -15.7182 -5.2276
# 2 33.8173 58.6616 18.4418 -4.5114 -7.8292 8.0825
# 3 21.8095 18.4418 65.1481 7.8092 -9.0408 2.2964
# 4 0.8204 -4.5114 7.8092 53.8732 -6.0821 -8.9738
# 5 -15.7182 -7.8292 -9.0408 -6.0821 35.8317 -1.1635
# 6 -5.2276 8.0825 2.2964 -8.9738 -1.1635 34.2094
#
#
#
# Elastic Compliance Matrix: (Units=1/GPa)
#
#
# Indices 1 2 3 4 5 6 
#
# 1 0.010521 -0.005518 -0.001698 0.000528 0.003177 0.003272
# 2 -0.005518 0.022708 -0.004401 0.001910 0.001581 -0.005358
# 3 -0.001698 -0.004401 0.017861 -0.002856 0.002280 -0.001090
# 4 0.000528 0.001910 -0.002856 0.020413 0.003565 0.005297
# 5 0.003177 0.001581 0.002280 0.003565 0.030891 0.001945
# 6 0.003272 -0.005358 -0.001090 0.005297 0.001945 0.032527
#
#
# Mechanical properties :
#
#
# Convention : Reuss Voigt Hill
#
# Bulk Modulus (GPa) = 35.89915 43.84187 39.87051
# Shear Modulus (GPa) = 29.86144 36.27424 33.06784
#
# Velocity S-wave (km/s) = 3.62250 3.99256 3.81202
# Velocity P-wave (km/s) = 5.76822 6.36555 6.07423
#
# Compressibility (1/GPa) = 0.02785581
#
# Stress axis : x y z
#
# Youngs Moduli (GPa) = 95.04437 44.03804 55.98737
#
# Poissons Ratio (x) = 0.24299 0.09506
# Poissons Ratio (y) = 0.52444 0.24643
# Poissons Ratio (z) = 0.16138 0.19383
#
# Static dielectric constant tensor:
#      x y z
#    x 1.879130 0.032870 -0.002260 
#    y 0.032870 1.876550 0.009610 
#    z -0.002260 0.009610 1.863600 
# 
# From -- ./inp_files/297997.got.cif
#   From: 2010.05.17/outbox.cif.g08.bks.cpg/sg2_149_cif.got.tgz:297997.got - 2010.06.03 11:33:40.
