data_PCOD9028645
_publ_section_title
;
Structure prediction by ZEFSAII (Michael W. Deem and Ramdas Pophale) SiO2 
 PCOD9028645
Probable space group: P -1
;
_chemical_formula_sum "Si O2"
_cell_formula_units_Z 12
_cell_length_a 25.275816
_cell_length_b 5.519288
_cell_length_c 10.116424
_cell_angle_alpha 59.156876
_cell_angle_beta 155.978496
_cell_angle_gamma 111.907779
_cell_volume 474.616269
_symmetry_space_group_name_H-M "P -1"
_symmetry_group_IT_number 2
_symmetry_cell_setting 'triclinic'
loop_
_space_group_symop_operation_xyz
x,y,z
-x,-y,-z
loop_
_atom_site_type_symbol
_atom_site_label
_atom_site_fract_x
_atom_site_fract_y
_atom_site_fract_z
Si Si1 0.989753 0.982295 0.639293
Si Si2 0.866978 0.037404 0.773768
Si Si3 0.430924 0.624809 0.650657
Si Si4 0.683158 0.307213 0.896599
Si Si5 0.510307 0.146300 0.777640
Si Si6 0.202498 0.482727 0.341495
O O1 0.087295 0.088745 0.937654
O O2 0.045802 0.637344 0.898568
O O3 0.000000 0.000000 0.500000
O O4 0.839818 0.148134 0.294096
O O5 0.795274 0.379095 0.547119
O O6 0.777691 0.854609 0.550450
O O7 0.000000 0.000000 0.000000
O O8 0.386644 0.790222 0.364343
O O9 0.511955 0.300378 0.879058
O O10 0.513511 0.809341 0.866627
O O11 0.297328 0.608243 0.426682
O O12 0.611615 0.235984 0.882851
O O13 0.639080 0.657869 0.671060
#
# Coordination Sequence:
#
# PCOD9028645 Si02
#       6
#     2   2   2   2   2   2
#     4  10  20  34  54  85 114 138 171 225 272 318
#     4  10  22  39  54  78 110 144 181 213 269 329
#     4  10  17  32  47  73 105 134 178 214 257 312
#     4   9  18  30  47  73 112 142 173 211 265 314
#     4   9  19  29  47  70 111 146 172 207 264 316
#     4  10  21  34  57  78 106 142 178 221 266 321
#
# _framework density 25.283581000000002
#
# number of rings (size 3 to 8) (size 9 to 14) (size 15 to 20)
#    2.000    0.333    1.667    2.000    0.000    2.000 
#    0.000    0.000    0.000    0.000    0.000    7.000 
#    0.000    0.000    0.000    0.000    0.000    0.000 
#
# Total GULP energy -66955.332963 kJ/mol
# GULP energy per Si atom -5579.611080 kJ/mol
# Density = 2.522603 g / cm^3
# Si number density = 25.283581 Si / 1000 Ang^3
#
#
#
# Elastic Constant Matrix: (Units=GPa)
#
#
# Indices 1 2 3 4 5 6 
#
# 1 131.1290 58.2696 27.8369 6.9057 14.5603 -33.8081
# 2 58.2696 179.3885 28.0175 18.1133 11.1653 -46.7809
# 3 27.8369 28.0175 72.1573 -12.2522 0.1465 -12.5522
# 4 6.9057 18.1133 -12.2522 55.3148 -3.2987 -2.0817
# 5 14.5603 11.1653 0.1465 -3.2987 58.1108 -11.8868
# 6 -33.8081 -46.7809 -12.5522 -2.0817 -11.8868 39.4052
#
#
#
# Elastic Compliance Matrix: (Units=1/GPa)
#
#
# Indices 1 2 3 4 5 6 
#
# 1 0.010571 -0.001107 -0.002763 -0.001398 -0.001191 0.006443
# 2 -0.001107 0.008805 -0.001941 -0.002830 0.000231 0.008805
# 3 -0.002763 -0.001941 0.016737 0.004834 0.001582 0.001390
# 4 -0.001398 -0.002830 0.004834 0.020301 0.001744 -0.001420
# 5 -0.001191 0.000231 0.001582 0.001744 0.018679 0.005483
# 6 0.006443 0.008805 0.001390 -0.001420 0.005483 0.043379
#
#
# Mechanical properties :
#
#
# Convention : Reuss Voigt Hill
#
# Bulk Modulus (GPa) = 40.82912 67.88032 54.35472
# Shear Modulus (GPa) = 36.16431 48.46954 42.31693
#
# Velocity S-wave (km/s) = 3.78610 4.38315 4.09552
# Velocity P-wave (km/s) = 5.94106 7.24720 6.62639
#
# Compressibility (1/GPa) = 0.02449232
#
# Stress axis : x y z
#
# Youngs Moduli (GPa) = 94.59567 113.57572 59.74647
#
# Poissons Ratio (x) = 0.12573 0.16505
# Poissons Ratio (y) = 0.10472 0.11596
# Poissons Ratio (z) = 0.26133 0.22044
#
# Static dielectric constant tensor:
#      x y z
#    x 1.918110 -0.038080 -0.033500 
#    y -0.038080 2.074400 -0.014290 
#    z -0.033500 -0.014290 2.053280 
# 
# From -- ./inp_files/75098.got.cif
#   From: 2010.05.17/outbox.cif.g08.bks.cpg/sg2_38_cif.got.tgz:75098.got - 2010.06.03 11:33:40.
