data_PCOD9028845
_publ_section_title
;
Structure prediction by ZEFSAII (Michael W. Deem and Ramdas Pophale) SiO2 
 PCOD9028845
Probable space group: P -1
;
_chemical_formula_sum "Si O2"
_cell_formula_units_Z 10
_cell_length_a 8.981841
_cell_length_b 9.210169
_cell_length_c 24.634143
_cell_angle_alpha 149.027967
_cell_angle_beta 149.982915
_cell_angle_gamma 50.576892
_cell_volume 476.816040
_symmetry_space_group_name_H-M "P -1"
_symmetry_group_IT_number 2
_symmetry_cell_setting 'triclinic'
loop_
_space_group_symop_operation_xyz
x,y,z
-x,-y,-z
loop_
_atom_site_type_symbol
_atom_site_label
_atom_site_fract_x
_atom_site_fract_y
_atom_site_fract_z
Si Si1 0.731613 0.794826 0.203478
Si Si2 0.114048 0.899474 0.841171
Si Si3 0.886484 0.115715 0.947418
Si Si4 0.833213 0.142273 0.732584
Si Si5 0.090338 0.780590 0.418647
O O1 0.501238 0.969484 0.199318
O O2 0.047823 0.959600 0.318079
O O3 0.842902 0.693783 0.261742
O O4 0.500000 0.500000 0.000000
O O5 0.946334 0.529744 0.661860
O O6 0.978084 0.976289 0.878583
O O7 0.031550 0.076671 0.823159
O O8 0.500000 0.000000 0.000000
O O9 0.071630 0.490351 0.122703
O O10 0.000000 0.000000 0.000000
O O11 0.453548 0.958119 0.566842
O O12 0.000000 0.000000 0.500000
#
# Coordination Sequence:
#
# PCOD9028845 Si02
#       5
#     2   2   2   2   2
#     4  10  22  42  65  91 126 170 214 257 313 385
#     4  12  23  41  66  95 130 174 215 260 320 390
#     4  11  22  41  66  94 127 172 217 260 315 388
#     4  11  23  41  64  97 130 166 213 270 320 375
#     4  12  25  43  65  97 133 168 212 271 325 374
#
# _framework density 20.972449000000001
#
# number of rings (size 3 to 8) (size 9 to 14) (size 15 to 20)
#    0.000    0.800    0.000   10.200    0.000    0.000 
#    0.000    3.000    0.000    0.000    0.000    0.000 
#    0.000    0.000    0.000    0.000    0.000    0.000 
#
# Total GULP energy -55967.710335 kJ/mol
# GULP energy per Si atom -5596.771034 kJ/mol
# Density = 2.092472 g / cm^3
# Si number density = 20.972449 Si / 1000 Ang^3
#
#
#
# Elastic Constant Matrix: (Units=GPa)
#
#
# Indices 1 2 3 4 5 6 
#
# 1 136.5783 40.9477 23.2775 8.4192 7.7804 -23.0492
# 2 40.9477 162.1395 40.1398 6.6633 1.9606 16.6307
# 3 23.2775 40.1398 74.9992 7.3474 16.7839 -4.7493
# 4 8.4192 6.6633 7.3474 45.0853 3.0673 -0.0592
# 5 7.7804 1.9606 16.7839 3.0673 43.6345 -12.2597
# 6 -23.0492 16.6307 -4.7493 -0.0592 -12.2597 54.5528
#
#
#
# Elastic Compliance Matrix: (Units=1/GPa)
#
#
# Indices 1 2 3 4 5 6 
#
# 1 0.009068 -0.002417 -0.001189 -0.001157 0.000303 0.004531
# 2 -0.002417 0.008137 -0.003949 -0.000150 0.000549 -0.003722
# 3 -0.001189 -0.003949 0.017356 -0.001619 -0.005926 0.000879
# 4 -0.001157 -0.000150 -0.001619 0.022748 -0.000983 -0.000780
# 5 0.000303 0.000549 -0.005926 -0.000983 0.026718 0.005448
# 6 0.004531 -0.003722 0.000879 -0.000780 0.005448 0.022680
#
#
# Mechanical properties :
#
#
# Convention : Reuss Voigt Hill
#
# Bulk Modulus (GPa) = 51.40624 64.71633 58.06128
# Shear Modulus (GPa) = 38.97161 46.61134 42.79147
#
# Velocity S-wave (km/s) = 4.31539 4.71946 4.52194
# Velocity P-wave (km/s) = 7.02814 7.78604 7.41678
#
# Compressibility (1/GPa) = 0.01945289
#
# Stress axis : x y z
#
# Youngs Moduli (GPa) = 110.28170 122.90025 57.61692
#
# Poissons Ratio (x) = 0.29701 0.06848
# Poissons Ratio (y) = 0.26652 0.22750
# Poissons Ratio (z) = 0.13107 0.48528
#
# Static dielectric constant tensor:
#      x y z
#    x 1.756980 -0.016010 0.017420 
#    y -0.016010 1.733880 -0.001170 
#    z 0.017420 -0.001170 1.767170 
# 
# From -- ./inp_files/15624.got.cif
#   From: 2010.05.17/outbox.cif.g08.bks.cpg/sg2_8_cif.got.tgz:15624.got - 2010.06.03 11:33:40.
