data_PCOD9028928
_publ_section_title
;
Structure prediction by ZEFSAII (Michael W. Deem and Ramdas Pophale) SiO2 
 PCOD9028928
Probable space group: P -1
;
_chemical_formula_sum "Si O2"
_cell_formula_units_Z 16
_cell_length_a 11.329949
_cell_length_b 10.143512
_cell_length_c 9.493499
_cell_angle_alpha 135.042285
_cell_angle_beta 125.456977
_cell_angle_gamma 56.174524
_cell_volume 607.360191
_symmetry_space_group_name_H-M "P -1"
_symmetry_group_IT_number 2
_symmetry_cell_setting 'triclinic'
loop_
_space_group_symop_operation_xyz
x,y,z
-x,-y,-z
loop_
_atom_site_type_symbol
_atom_site_label
_atom_site_fract_x
_atom_site_fract_y
_atom_site_fract_z
Si Si1 0.063798 0.268243 0.295348
Si Si2 0.965484 0.654140 0.374123
Si Si3 0.237287 0.187279 0.082043
Si Si4 0.565321 0.023994 0.289974
Si Si5 0.465382 0.703995 0.272834
Si Si6 0.280322 0.410484 0.033971
Si Si7 0.285380 0.669288 0.858404
Si Si8 0.794812 0.144054 0.353348
O O1 0.119041 0.219934 0.456938
O O2 0.162910 0.157303 0.155502
O O3 0.069410 0.482545 0.409255
O O4 0.888900 0.267166 0.167664
O O5 0.873028 0.552041 0.131710
O O6 0.063837 0.774743 0.457179
O O7 0.411447 0.088343 0.147224
O O8 0.242384 0.383437 0.151535
O O9 0.157485 0.075026 0.833513
O O10 0.535532 0.114405 0.493023
O O11 0.681184 0.137410 0.392357
O O12 0.634607 0.799551 0.131366
O O13 0.630706 0.559967 0.254781
O O14 0.373487 0.564133 0.179562
O O15 0.382389 0.752386 0.102336
O O16 0.287315 0.740305 0.753064
#
# Coordination Sequence:
#
# PCOD9028928 Si02
#       8
#     2   2   2   2   2   2   2   2
#     4  10  23  41  65  94 134 168 218 261 327 392
#     4  10  23  41  66  93 131 174 210 271 322 385
#     4  11  25  42  66  97 130 174 215 270 329 385
#     4  11  26  43  67  99 131 174 219 268 329 384
#     4  11  24  41  70  97 128 176 217 268 330 379
#     4  11  24  46  66  99 137 163 222 276 316 392
#     4  10  22  42  65  95 133 169 220 270 316 393
#     4  10  23  44  65  93 134 169 215 272 324 388
#
# _framework density 26.343509999999998
#
# number of rings (size 3 to 8) (size 9 to 14) (size 15 to 20)
#    0.000    1.500    1.250    3.000    7.000    8.500 
#    0.000    3.750    0.000    0.000    0.000    0.000 
#    0.000    0.000    0.000    0.000    0.000    0.000 
#
# Total GULP energy -89518.756646 kJ/mol
# GULP energy per Si atom -5594.922290 kJ/mol
# Density = 2.628355 g / cm^3
# Si number density = 26.343510 Si / 1000 Ang^3
#
#
#
# Elastic Constant Matrix: (Units=GPa)
#
#
# Indices 1 2 3 4 5 6 
#
# 1 147.5854 19.7739 26.1848 9.0717 4.3221 27.0665
# 2 19.7739 68.7156 13.1687 -9.9312 -1.1486 25.0518
# 3 26.1848 13.1687 86.1122 5.5832 -6.5167 1.7859
# 4 9.0717 -9.9312 5.5832 36.2753 2.6199 2.1960
# 5 4.3221 -1.1486 -6.5167 2.6199 50.4083 6.7437
# 6 27.0665 25.0518 1.7859 2.1960 6.7437 34.0899
#
#
#
# Elastic Compliance Matrix: (Units=1/GPa)
#
#
# Indices 1 2 3 4 5 6 
#
# 1 0.008476 0.000290 -0.002406 -0.001258 -0.000066 -0.006722
# 2 0.000290 0.022701 -0.003537 0.007609 0.001996 -0.017612
# 3 -0.002406 -0.003537 0.013095 -0.002712 0.001463 0.003708
# 4 -0.001258 0.007609 -0.002712 0.030822 -0.000832 -0.006271
# 5 -0.000066 0.001996 0.001463 -0.000832 0.020866 -0.005565
# 6 -0.006722 -0.017612 0.003708 -0.006271 -0.005565 0.048925
#
#
# Mechanical properties :
#
#
# Convention : Reuss Voigt Hill
#
# Bulk Modulus (GPa) = 30.33368 46.74086 38.53727
# Shear Modulus (GPa) = 29.90811 40.37374 35.14093
#
# Velocity S-wave (km/s) = 3.37309 3.91908 3.65629
# Velocity P-wave (km/s) = 5.16817 6.18548 5.69957
#
# Compressibility (1/GPa) = 0.03296665
#
# Stress axis : x y z
#
# Youngs Moduli (GPa) = 117.98195 44.05075 76.36622
#
# Poissons Ratio (x) = -0.01277 0.18371
# Poissons Ratio (y) = -0.03419 0.27008
# Poissons Ratio (z) = 0.28382 0.15579
#
# Static dielectric constant tensor:
#      x y z
#    x 2.123920 -0.025190 -0.131910 
#    y -0.025190 2.134830 0.100730 
#    z -0.131910 0.100730 2.273030 
# 
# From -- ./inp_files/260747.got.cif
#   From: 2010.05.17/outbox.cif.g08.bks.cpg/sg2_131_cif.got.tgz:260747.got - 2010.06.03 11:33:40.
