data_PCOD9028620
_publ_section_title
;
Structure prediction by ZEFSAII (Michael W. Deem and Ramdas Pophale) SiO2 
 PCOD9028620
Probable space group: P -1
;
_chemical_formula_sum "Si O2"
_cell_formula_units_Z 14
_cell_length_a 5.484995
_cell_length_b 13.061009
_cell_length_c 11.993418
_cell_angle_alpha 72.257033
_cell_angle_beta 110.564490
_cell_angle_gamma 134.266958
_cell_volume 573.786857
_symmetry_space_group_name_H-M "P -1"
_symmetry_group_IT_number 2
_symmetry_cell_setting 'triclinic'
loop_
_space_group_symop_operation_xyz
x,y,z
-x,-y,-z
loop_
_atom_site_type_symbol
_atom_site_label
_atom_site_fract_x
_atom_site_fract_y
_atom_site_fract_z
Si Si1 0.897164 0.569006 0.544209
Si Si2 0.007235 0.839706 0.471922
Si Si3 0.486080 0.957523 0.687750
Si Si4 0.471036 0.821614 0.252138
Si Si5 0.077282 0.075153 0.104272
Si Si6 0.125737 0.536681 0.182909
Si Si7 0.469711 0.373253 0.991054
O O1 0.500000 0.500000 0.500000
O O2 0.943260 0.544859 0.686903
O O3 0.000000 0.500000 0.500000
O O4 0.076759 0.732723 0.494139
O O5 0.097613 0.872553 0.607495
O O6 0.648642 0.785332 0.379869
O O7 0.279719 0.990156 0.402118
O O8 0.572598 0.881260 0.803381
O O9 0.644632 0.104963 0.724890
O O10 0.184014 0.676122 0.186611
O O11 0.764016 0.952798 0.174304
O O12 0.148180 0.218684 0.040431
O O13 0.000000 0.000000 0.000000
O O14 0.815647 0.419743 0.089791
O O15 0.470934 0.612407 0.137484
O O16 0.500000 0.500000 0.000000
#
# Coordination Sequence:
#
# PCOD9028620 Si02
#       7
#     2   2   2   2   2   2   2
#     4  12  26  44  73 106 147 192 243 298 371 448
#     4  10  22  42  64 103 135 177 234 291 360 432
#     4  10  23  41  67  95 138 176 231 295 360 429
#     4  11  22  41  73  97 133 179 233 296 359 435
#     4  11  24  43  65  98 131 174 239 285 351 428
#     4  11  25  45  67 104 139 188 246 295 371 436
#     4  11  27  46  70  98 144 189 239 308 363 438
#
# _framework density 24.399307
#
# number of rings (size 3 to 8) (size 9 to 14) (size 15 to 20)
#    0.000    1.143    2.857    2.143    4.000    4.000 
#    0.000    0.000    0.000    0.000    0.000    0.000 
#    0.000    0.000    0.000    0.000    0.000    0.000 
#
# Total GULP energy -78131.331843 kJ/mol
# GULP energy per Si atom -5580.809417 kJ/mol
# Density = 2.434377 g / cm^3
# Si number density = 24.399307 Si / 1000 Ang^3
#
#
#
# Elastic Constant Matrix: (Units=GPa)
#
#
# Indices 1 2 3 4 5 6 
#
# 1 53.7675 12.8386 25.6778 -10.2289 -6.5569 -10.5918
# 2 12.8386 136.0572 23.3096 -26.4581 -2.3633 -11.9767
# 3 25.6778 23.3096 139.6710 -22.4893 -12.6362 0.9075
# 4 -10.2289 -26.4581 -22.4893 47.4110 -3.4456 4.6870
# 5 -6.5569 -2.3633 -12.6362 -3.4456 20.7461 -2.2633
# 6 -10.5918 -11.9767 0.9075 4.6870 -2.2633 40.2980
#
#
#
# Elastic Compliance Matrix: (Units=1/GPa)
#
#
# Indices 1 2 3 4 5 6 
#
# 1 0.022695 -0.000378 -0.003065 0.003113 0.006426 0.005920
# 2 -0.000378 0.008522 -0.000537 0.004326 0.001464 0.002025
# 3 -0.003065 -0.000537 0.008859 0.003724 0.004840 -0.001326
# 4 0.003113 0.004326 0.003724 0.026594 0.008094 -0.000618
# 5 0.006426 0.001464 0.004840 0.008094 0.055147 0.004171
# 6 0.005920 0.002025 -0.001326 -0.000618 0.004171 0.027309
#
#
# Mechanical properties :
#
#
# Convention : Reuss Voigt Hill
#
# Bulk Modulus (GPa) = 31.13752 50.34976 40.74364
# Shear Modulus (GPa) = 29.79893 39.53568 34.66731
#
# Velocity S-wave (km/s) = 3.49850 4.02974 3.77348
# Velocity P-wave (km/s) = 5.39525 6.50632 5.97666
#
# Compressibility (1/GPa) = 0.03211560
#
# Stress axis : x y z
#
# Youngs Moduli (GPa) = 44.06284 117.33779 112.88069
#
# Poissons Ratio (x) = 0.04438 0.34599
# Poissons Ratio (y) = 0.01667 0.06061
# Poissons Ratio (z) = 0.13506 0.06301
#
# Static dielectric constant tensor:
#      x y z
#    x 2.239120 0.217670 0.034460 
#    y 0.217670 2.093680 0.031580 
#    z 0.034460 0.031580 2.010010 
# 
# From -- ./inp_files/60663.got.cif
#   From: 2010.05.17/outbox.cif.g08.bks.cpg/sg2_31_cif.got.tgz:60663.got - 2010.06.03 11:33:40.
