data_PCOD9028181
_publ_section_title
;
Structure prediction by ZEFSAII (Michael W. Deem and Ramdas Pophale) SiO2 
 PCOD9028181
Probable space group: P -1
;
_chemical_formula_sum "Si O2"
_cell_formula_units_Z 14
_cell_length_a 7.845672
_cell_length_b 11.386616
_cell_length_c 8.281385
_cell_angle_alpha 111.324080
_cell_angle_beta 58.145502
_cell_angle_gamma 76.109187
_cell_volume 490.434092
_symmetry_space_group_name_H-M "P -1"
_symmetry_group_IT_number 2
_symmetry_cell_setting 'triclinic'
loop_
_space_group_symop_operation_xyz
x,y,z
-x,-y,-z
loop_
_atom_site_type_symbol
_atom_site_label
_atom_site_fract_x
_atom_site_fract_y
_atom_site_fract_z
Si Si1 0.199812 0.028384 0.535102
Si Si2 0.250000 0.250000 0.382192
Si Si3 0.300190 0.471615 0.706526
Si Si4 0.229454 0.945814 0.061625
Si Si5 0.729457 0.445813 0.654735
Si Si6 0.528858 0.682574 0.131523
Si Si7 0.971142 0.817426 0.977807
O O1 0.945051 0.039371 0.699506
O O2 0.211627 0.140115 0.460760
O O3 0.212803 0.083827 0.737656
O O4 0.412012 0.856913 0.309229
O O5 0.288372 0.359885 0.532272
O O6 0.489800 0.142170 0.107973
O O7 0.010201 0.357830 0.455601
O O8 0.554951 0.460628 0.605185
O O9 0.287198 0.416173 0.866631
O O10 0.087990 0.643087 0.864326
O O11 0.634220 0.602897 0.869051
O O12 0.184111 0.846577 0.909555
O O13 0.134217 0.102900 0.099631
O O14 0.684113 0.346575 0.752909
#
# Coordination Sequence:
#
# PCOD9028181 Si02
#       7
#     2   2   2   2   2   2   2
#     4  10  22  41  72 101 146 186 231 302 348 419
#     4  12  24  44  78 104 138 196 236 282 370 424
#     4  10  22  41  72 101 146 186 231 302 348 419
#     4   9  23  43  64 112 142 176 249 289 348 436
#     4   9  23  43  64 112 142 176 249 289 348 436
#     4   9  20  43  64 101 151 173 235 303 340 418
#     4   9  20  43  64 101 151 173 235 303 340 418
#
# _framework density 28.546142
#
# number of rings (size 3 to 8) (size 9 to 14) (size 15 to 20)
#    1.714    0.571    0.000    1.714    0.000    6.857 
#    0.000    1.429    0.000    1.714    0.000    0.000 
#    0.000    0.000    0.000    0.000    0.000    0.000 
#
# Total GULP energy -78423.446585 kJ/mol
# GULP energy per Si atom -5601.674756 kJ/mol
# Density = 2.848117 g / cm^3
# Si number density = 28.546142 Si / 1000 Ang^3
#
#
#
# Elastic Constant Matrix: (Units=GPa)
#
#
# Indices 1 2 3 4 5 6 
#
# 1 194.0113 88.8373 111.1919 14.4838 -9.4356 8.1047
# 2 88.8373 240.2241 114.7705 36.9778 -5.9711 8.2214
# 3 111.1919 114.7705 219.7634 16.6392 11.9596 9.0437
# 4 14.4838 36.9778 16.6392 60.0308 16.6935 10.2371
# 5 -9.4356 -5.9711 11.9596 16.6935 53.5902 1.6996
# 6 8.1047 8.2214 9.0437 10.2371 1.6996 59.1500
#
#
#
# Elastic Compliance Matrix: (Units=1/GPa)
#
#
# Indices 1 2 3 4 5 6 
#
# 1 0.007796 -0.001030 -0.003453 -0.000879 0.002312 -0.000311
# 2 -0.001030 0.006443 -0.002701 -0.003640 0.002266 0.000223
# 3 -0.003453 -0.002701 0.007797 0.001258 -0.003026 -0.000474
# 4 -0.000879 -0.003640 0.001258 0.021339 -0.007392 -0.003047
# 5 0.002312 0.002266 -0.003026 -0.007392 0.022283 0.000470
# 6 -0.000311 0.000223 -0.000474 -0.003047 0.000470 0.017504
#
#
# Mechanical properties :
#
#
# Convention : Reuss Voigt Hill
#
# Bulk Modulus (GPa) = 130.40139 142.62201 136.51170
# Shear Modulus (GPa) = 49.95776 57.16747 53.56261
#
# Velocity S-wave (km/s) = 4.18792 4.47993 4.33639
# Velocity P-wave (km/s) = 8.31655 8.76528 8.54386
#
# Compressibility (1/GPa) = 0.00766863
#
# Stress axis : x y z
#
# Youngs Moduli (GPa) = 128.26983 155.21118 128.25668
#
# Poissons Ratio (x) = 0.15983 0.44289
# Poissons Ratio (y) = 0.13209 0.34638
# Poissons Ratio (z) = 0.44294 0.41917
#
# Static dielectric constant tensor:
#      x y z
#    x 2.254810 0.022350 0.038040 
#    y 0.022350 2.238800 -0.055470 
#    z 0.038040 -0.055470 2.161410 
# 
# From -- ./inp_files/387981.got.cif
#   From: 2010.05.17/outbox.cif.g08.bks.cpg/sg2_194_cif.got.tgz:387981.got - 2010.06.03 11:33:40.
