data_PCOD9028102
_publ_section_title
;
Structure prediction by ZEFSAII (Michael W. Deem and Ramdas Pophale) SiO2 
 PCOD9028102
Probable space group: P -1
;
_chemical_formula_sum "Si O2"
_cell_formula_units_Z 16
_cell_length_a 11.372913
_cell_length_b 11.624163
_cell_length_c 5.524469
_cell_angle_alpha 91.371874
_cell_angle_beta 60.797893
_cell_angle_gamma 88.765832
_cell_volume 636.870451
_symmetry_space_group_name_H-M "P -1"
_symmetry_group_IT_number 2
_symmetry_cell_setting 'triclinic'
loop_
_space_group_symop_operation_xyz
x,y,z
-x,-y,-z
loop_
_atom_site_type_symbol
_atom_site_label
_atom_site_fract_x
_atom_site_fract_y
_atom_site_fract_z
Si Si1 0.362960 0.902209 0.390397
Si Si2 0.860386 0.934849 0.628488
Si Si3 0.423685 0.322553 0.466577
Si Si4 0.613998 0.477433 0.088741
Si Si5 0.808375 0.539028 0.533095
Si Si6 0.824048 0.293276 0.333036
Si Si7 0.017578 0.724042 0.318587
Si Si8 0.644611 0.904750 0.205342
O O1 0.308318 0.776445 0.480669
O O2 0.517631 0.898185 0.148861
O O3 0.254678 0.975228 0.345686
O O4 0.360496 0.973197 0.648357
O O5 0.900428 0.824136 0.424101
O O6 0.790753 0.888370 0.938812
O O7 0.000000 0.000000 0.500000
O O8 0.571075 0.352963 0.221445
O O9 0.404885 0.416486 0.704541
O O10 0.308226 0.364678 0.398226
O O11 0.392802 0.196534 0.578717
O O12 0.500000 0.500000 0.000000
O O13 0.761443 0.483391 0.828780
O O14 0.800849 0.430787 0.357551
O O15 0.946291 0.602157 0.379633
O O16 0.917379 0.266591 0.476975
O O17 0.889508 0.258516 0.008392
#
# Coordination Sequence:
#
# PCOD9028102 Si02
#       8
#     2   2   2   2   2   2   2   2
#     4  11  27  48  73 110 149 202 255 324 387 457
#     4  12  25  48  77 107 150 199 258 320 383 461
#     4  10  22  41  71 107 147 197 247 314 384 464
#     4   9  21  39  63 105 142 194 242 298 382 447
#     4  11  25  43  72 106 152 195 248 316 381 463
#     4  12  29  49  74 113 155 203 254 317 386 457
#     4  12  28  48  78 110 151 205 258 316 384 462
#     4  11  26  47  76 110 149 196 262 319 387 461
#
# _framework density 25.122848000000001
#
# number of rings (size 3 to 8) (size 9 to 14) (size 15 to 20)
#    0.000    1.000    1.250    3.375   12.250    2.000 
#    2.250    0.000    0.000    0.000    0.000    0.000 
#    0.000    0.000    0.000    0.000    0.000    0.000 
#
# Total GULP energy -89518.477716 kJ/mol
# GULP energy per Si atom -5594.904857 kJ/mol
# Density = 2.506567 g / cm^3
# Si number density = 25.122848 Si / 1000 Ang^3
#
#
#
# Elastic Constant Matrix: (Units=GPa)
#
#
# Indices 1 2 3 4 5 6 
#
# 1 108.4159 33.3558 26.8724 -30.0080 -14.3292 13.8902
# 2 33.3558 128.1732 19.8154 -23.6761 -14.8067 12.6353
# 3 26.8724 19.8154 121.8475 -18.6534 -22.9057 11.6889
# 4 -30.0080 -23.6761 -18.6534 35.2270 0.2198 -4.9004
# 5 -14.3292 -14.8067 -22.9057 0.2198 40.7663 -13.7829
# 6 13.8902 12.6353 11.6889 -4.9004 -13.7829 55.6669
#
#
#
# Elastic Compliance Matrix: (Units=1/GPa)
#
#
# Indices 1 2 3 4 5 6 
#
# 1 0.013018 -0.000940 -0.000395 0.010060 0.003557 -0.001185
# 2 -0.000940 0.009449 0.000127 0.005496 0.002894 -0.000736
# 3 -0.000395 0.000127 0.010095 0.005024 0.005466 -0.000254
# 4 0.010060 0.005496 0.005024 0.043414 0.008498 0.001113
# 5 0.003557 0.002894 0.005466 0.008498 0.031867 0.005946
# 6 -0.001185 -0.000736 -0.000254 0.001113 0.005946 0.020050
#
#
# Mechanical properties :
#
#
# Convention : Reuss Voigt Hill
#
# Bulk Modulus (GPa) = 33.17474 57.61377 45.39425
# Shear Modulus (GPa) = 35.62295 44.89158 40.25726
#
# Velocity S-wave (km/s) = 3.76965 4.23174 4.00736
# Velocity P-wave (km/s) = 5.67281 6.84539 6.28650
#
# Compressibility (1/GPa) = 0.03014342
#
# Stress axis : x y z
#
# Youngs Moduli (GPa) = 76.81848 105.82795 99.06257
#
# Poissons Ratio (x) = 0.09953 0.03918
# Poissons Ratio (y) = 0.07225 -0.01257
# Poissons Ratio (z) = 0.03038 -0.01343
#
# Static dielectric constant tensor:
#      x y z
#    x 2.077020 -0.068360 0.049220 
#    y -0.068360 1.976750 -0.036880 
#    z 0.049220 -0.036880 2.012100 
# 
# From -- ./inp_files/70317.got.cif
#   From: 2010.05.17/outbox.cif.g08.bks.cpg/sg2_36_cif.got.tgz:70317.got - 2010.06.03 11:33:40.
