data_PCOD9028288
_publ_section_title
;
Structure prediction by ZEFSAII (Michael W. Deem and Ramdas Pophale) SiO2 
 PCOD9028288
Probable space group: P -1
;
_chemical_formula_sum "Si O2"
_cell_formula_units_Z 14
_cell_length_a 5.814627
_cell_length_b 8.078381
_cell_length_c 25.999344
_cell_angle_alpha 29.533865
_cell_angle_beta 109.017022
_cell_angle_gamma 114.792220
_cell_volume 544.442985
_symmetry_space_group_name_H-M "P -1"
_symmetry_group_IT_number 2
_symmetry_cell_setting 'triclinic'
loop_
_space_group_symop_operation_xyz
x,y,z
-x,-y,-z
loop_
_atom_site_type_symbol
_atom_site_label
_atom_site_fract_x
_atom_site_fract_y
_atom_site_fract_z
Si Si1 0.598485 0.773060 0.027774
Si Si2 0.604098 0.891822 0.426642
Si Si3 0.905150 0.782675 0.885285
Si Si4 0.219217 0.719104 0.760070
Si Si5 0.113740 0.731580 0.497293
Si Si6 0.272232 0.217593 0.716343
Si Si7 0.743799 0.298706 0.801142
O O1 0.384302 0.417357 0.093780
O O2 0.792962 0.625770 0.114209
O O3 0.500000 0.000000 0.000000
O O4 0.658418 0.005522 0.918440
O O5 0.500000 0.500000 0.500000
O O6 0.408467 0.905968 0.453899
O O7 0.903663 0.922181 0.448106
O O8 0.616525 0.195576 0.302948
O O9 0.921307 0.134652 0.822444
O O10 0.067822 0.895149 0.815993
O O11 0.000000 0.500000 0.000000
O O12 0.924037 0.656574 0.741024
O O13 0.337766 0.058868 0.711076
O O14 0.140405 0.501383 0.611030
O O15 0.000000 0.500000 0.500000
O O16 0.509729 0.324675 0.742819
#
# Coordination Sequence:
#
# PCOD9028288 Si02
#       7
#     2   2   2   2   2   2   2
#     4  12  25  45  73 106 150 194 242 300 370 451
#     4  10  22  44  71 111 141 189 256 308 367 448
#     4  12  24  43  70 101 148 190 238 307 365 440
#     4  12  25  45  77 101 146 198 240 307 374 441
#     4  10  22  41  74 104 146 185 254 308 367 445
#     4  12  25  45  74 101 142 197 237 308 376 432
#     4  12  27  47  65 112 145 184 253 296 368 455
#
# _framework density 25.714352000000002
#
# number of rings (size 3 to 8) (size 9 to 14) (size 15 to 20)
#    0.000    0.571    5.714    3.429    6.000    1.143 
#    0.000    1.429    0.000    0.000    0.000    0.000 
#    0.000    0.000    0.000    0.000    0.000    0.000 
#
# Total GULP energy -78332.853864 kJ/mol
# GULP energy per Si atom -5595.203847 kJ/mol
# Density = 2.565583 g / cm^3
# Si number density = 25.714352 Si / 1000 Ang^3
#
#
#
# Elastic Constant Matrix: (Units=GPa)
#
#
# Indices 1 2 3 4 5 6 
#
# 1 117.4515 19.5940 42.4118 20.0459 0.1350 13.0069
# 2 19.5940 101.3837 36.6093 7.8306 4.1351 22.9890
# 3 42.4118 36.6093 153.2827 31.5158 -3.6664 17.3947
# 4 20.0459 7.8306 31.5158 42.2232 0.7878 8.3698
# 5 0.1350 4.1351 -3.6664 0.7878 47.5917 2.4380
# 6 13.0069 22.9890 17.3947 8.3698 2.4380 44.0218
#
#
#
# Elastic Compliance Matrix: (Units=1/GPa)
#
#
# Indices 1 2 3 4 5 6 
#
# 1 0.009943 -0.000750 -0.001817 -0.002975 0.000011 -0.001263
# 2 -0.000750 0.011989 -0.002264 0.000883 -0.000959 -0.005260
# 3 -0.001817 -0.002264 0.008731 -0.005091 0.001001 -0.000819
# 4 -0.002975 0.000883 -0.005091 0.029363 -0.000787 -0.003109
# 5 0.000011 -0.000959 0.001001 -0.000787 0.021233 -0.000924
# 6 -0.001263 -0.005260 -0.000819 -0.003109 -0.000924 0.026802
#
#
# Mechanical properties :
#
#
# Convention : Reuss Voigt Hill
#
# Bulk Modulus (GPa) = 47.61231 63.26091 55.43661
# Shear Modulus (GPa) = 40.08912 45.00086 42.54499
#
# Velocity S-wave (km/s) = 3.95272 4.18787 4.07200
# Velocity P-wave (km/s) = 6.27599 6.93103 6.61163
#
# Compressibility (1/GPa) = 0.02100297
#
# Stress axis : x y z
#
# Youngs Moduli (GPa) = 100.57392 83.40684 114.53871
#
# Poissons Ratio (x) = 0.06254 0.20808
# Poissons Ratio (y) = 0.07541 0.25926
# Poissons Ratio (z) = 0.18271 0.18879
#
# Static dielectric constant tensor:
#      x y z
#    x 1.979540 -0.139610 0.098460 
#    y -0.139610 1.971760 0.068710 
#    z 0.098460 0.068710 2.075240 
# 
# From -- ./inp_files/40106.got.cif
#   From: 2010.05.17/outbox.cif.g08.bks.cpg/sg2_21_cif.got.tgz:40106.got - 2010.06.03 11:33:40.
