data_PCOD9028103
_publ_section_title
;
Structure prediction by ZEFSAII (Michael W. Deem and Ramdas Pophale) SiO2 
 PCOD9028103
Probable space group: P -1
;
_chemical_formula_sum "Si O2"
_cell_formula_units_Z 12
_cell_length_a 8.391093
_cell_length_b 4.797978
_cell_length_c 12.053791
_cell_angle_alpha 109.891147
_cell_angle_beta 80.365714
_cell_angle_gamma 83.988357
_cell_volume 443.006992
_symmetry_space_group_name_H-M "P -1"
_symmetry_group_IT_number 2
_symmetry_cell_setting 'triclinic'
loop_
_space_group_symop_operation_xyz
x,y,z
-x,-y,-z
loop_
_atom_site_type_symbol
_atom_site_label
_atom_site_fract_x
_atom_site_fract_y
_atom_site_fract_z
Si Si1 0.430859 0.276261 0.123425
Si Si2 0.587702 0.837662 0.211442
Si Si3 0.175365 0.787287 0.477387
Si Si4 0.956048 0.838366 0.094247
Si Si5 0.088668 0.352245 0.246481
Si Si6 0.260947 0.354946 0.610144
O O1 0.524043 0.550684 0.128510
O O2 0.235687 0.369292 0.146570
O O3 0.466979 0.132752 0.223207
O O4 0.500000 0.000000 0.000000
O O5 0.605001 0.733808 0.323057
O O6 0.764379 0.893618 0.155503
O O7 0.157098 0.499805 0.366734
O O8 0.235503 0.639328 0.569169
O O9 0.278266 0.055506 0.492584
O O10 0.000000 0.000000 0.500000
O O11 0.053361 0.010521 0.198078
O O12 0.000000 0.500000 0.000000
O O13 0.000000 0.000000 0.000000
O O14 0.908416 0.557126 0.284630
#
# Coordination Sequence:
#
# PCOD9028103 Si02
#       6
#     2   2   2   2   2   2
#     4  12  27  46  68 101 146 189 232 291 358 425
#     4  12  26  46  67 100 145 186 228 295 362 417
#     4  10  22  41  71 108 138 176 239 303 351 410
#     4  12  25  43  70 101 133 183 244 293 343 416
#     4  11  24  44  73 104 137 187 241 290 349 423
#     4  11  23  44  73 104 138 183 239 298 351 419
#
# _framework density 27.087606999999998
#
# number of rings (size 3 to 8) (size 9 to 14) (size 15 to 20)
#    0.000    0.667    0.000    9.500    0.000   10.667 
#    0.000    5.000    0.000    0.000    0.000    0.000 
#    0.000    0.000    0.000    0.000    0.000    0.000 
#
# Total GULP energy -66995.475018 kJ/mol
# GULP energy per Si atom -5582.956251 kJ/mol
# Density = 2.702595 g / cm^3
# Si number density = 27.087607 Si / 1000 Ang^3
#
#
#
# Elastic Constant Matrix: (Units=GPa)
#
#
# Indices 1 2 3 4 5 6 
#
# 1 104.6598 57.7366 51.0495 29.9728 -15.9779 -2.4797
# 2 57.7366 225.6961 58.6381 9.1367 12.8805 11.0013
# 3 51.0495 58.6381 88.9915 23.3685 10.0038 -8.8528
# 4 29.9728 9.1367 23.3685 56.5578 1.4857 27.1881
# 5 -15.9779 12.8805 10.0038 1.4857 46.6201 0.0055
# 6 -2.4797 11.0013 -8.8528 27.1881 0.0055 60.9947
#
#
#
# Elastic Compliance Matrix: (Units=1/GPa)
#
#
# Indices 1 2 3 4 5 6 
#
# 1 0.018816 -0.003428 -0.006766 -0.008978 0.009133 0.004402
# 2 -0.003428 0.006311 -0.003303 0.003904 -0.002334 -0.003497
# 3 -0.006766 -0.003303 0.020514 -0.007376 -0.005574 0.006587
# 4 -0.008978 0.003904 -0.007376 0.033065 -0.003625 -0.016878
# 5 0.009133 -0.002334 -0.005574 -0.003625 0.026536 0.001597
# 6 0.004402 -0.003497 0.006587 -0.016878 0.001597 0.025684
#
#
# Mechanical properties :
#
#
# Convention : Reuss Voigt Hill
#
# Bulk Modulus (GPa) = 53.62842 83.79952 68.71397
# Shear Modulus (GPa) = 30.46263 49.62939 40.04601
#
# Velocity S-wave (km/s) = 3.35714 4.28504 3.84915
# Velocity P-wave (km/s) = 5.90494 7.44888 6.72139
#
# Compressibility (1/GPa) = 0.01864683
#
# Stress axis : x y z
#
# Youngs Moduli (GPa) = 53.14641 158.44271 48.74818
#
# Poissons Ratio (x) = 0.54312 0.32983
# Poissons Ratio (y) = 0.18218 0.16102
# Poissons Ratio (z) = 0.35959 0.52335
#
# Static dielectric constant tensor:
#      x y z
#    x 2.133850 0.007780 0.075260 
#    y 0.007780 2.084430 -0.083420 
#    z 0.075260 -0.083420 2.283420 
# 
# From -- ./inp_files/371956.got.cif
#   From: 2010.05.17/outbox.cif.g08.bks.cpg/sg2_186_cif.got.tgz:371956.got - 2010.06.03 11:33:40.
