data_PCOD9028282
_publ_section_title
;
Structure prediction by ZEFSAII (Michael W. Deem and Ramdas Pophale) SiO2 
 PCOD9028282
Probable space group: P -1
;
_chemical_formula_sum "Si O2"
_cell_formula_units_Z 14
_cell_length_a 11.833227
_cell_length_b 10.247937
_cell_length_c 9.399162
_cell_angle_alpha 124.923144
_cell_angle_beta 79.781340
_cell_angle_gamma 56.587461
_cell_volume 541.514149
_symmetry_space_group_name_H-M "P -1"
_symmetry_group_IT_number 2
_symmetry_cell_setting 'triclinic'
loop_
_space_group_symop_operation_xyz
x,y,z
-x,-y,-z
loop_
_atom_site_type_symbol
_atom_site_label
_atom_site_fract_x
_atom_site_fract_y
_atom_site_fract_z
Si Si1 0.146466 0.524145 0.691937
Si Si2 0.776590 0.374090 0.525097
Si Si3 0.705031 0.552716 0.959721
Si Si4 0.426495 0.947544 0.642720
Si Si5 0.228880 0.829362 0.129485
Si Si6 0.263876 0.866087 0.818858
Si Si7 0.142172 0.183172 0.594645
O O1 0.193613 0.503511 0.503239
O O2 0.092737 0.405952 0.670223
O O3 0.345886 0.338411 0.613324
O O4 0.968097 0.839175 0.962137
O O5 0.670666 0.535819 0.794613
O O6 0.689086 0.333655 0.420252
O O7 0.993349 0.073094 0.330234
O O8 0.935933 0.339827 0.785050
O O9 0.594268 0.840519 0.196122
O O10 0.365962 0.912141 0.771106
O O11 0.279793 0.058922 0.621304
O O12 0.674883 0.433669 0.989906
O O13 0.248120 0.953778 0.312653
O O14 0.291635 0.796022 0.934162
#
# Coordination Sequence:
#
# PCOD9028282 Si02
#       7
#     2   2   2   2   2   2   2
#     4  11  25  43  72 107 139 178 241 283 350 412
#     4  10  23  42  74  99 140 181 236 283 346 411
#     4  11  23  43  75 104 137 188 229 284 355 413
#     4  12  26  43  75 102 142 185 229 288 350 412
#     4  10  22  41  74 102 135 185 235 280 352 411
#     4  11  24  47  76 100 136 189 230 292 344 410
#     4  11  23  43  69 103 144 179 234 289 342 415
#
# _framework density 25.853435999999999
#
# number of rings (size 3 to 8) (size 9 to 14) (size 15 to 20)
#    0.000    1.143    1.429    6.000    6.000    2.857 
#    0.000    0.714    6.286    0.000    0.000    0.000 
#    0.000    0.000    0.000    0.000    0.000    0.000 
#
# Total GULP energy -78630.366673 kJ/mol
# GULP energy per Si atom -5616.454762 kJ/mol
# Density = 2.579459 g / cm^3
# Si number density = 25.853436 Si / 1000 Ang^3
#
#
#
# Elastic Constant Matrix: (Units=GPa)
#
#
# Indices 1 2 3 4 5 6 
#
# 1 106.7098 60.9438 43.9035 -0.6893 17.7738 5.9903
# 2 60.9438 159.2618 56.2432 -3.9658 18.5953 35.6993
# 3 43.9035 56.2432 125.8460 -3.8625 20.1142 -1.8024
# 4 -0.6893 -3.9658 -3.8625 37.1450 -11.6185 -10.8789
# 5 17.7738 18.5953 20.1142 -11.6185 48.9821 2.2108
# 6 5.9903 35.6993 -1.8024 -10.8789 2.2108 56.9023
#
#
#
# Elastic Compliance Matrix: (Units=1/GPa)
#
#
# Indices 1 2 3 4 5 6 
#
# 1 0.013036 -0.004149 -0.002311 -0.000896 -0.002468 0.001082
# 2 -0.004149 0.010585 -0.003223 -0.001602 -0.001273 -0.006563
# 3 -0.002311 -0.003223 0.010615 0.000857 -0.002222 0.002852
# 4 -0.000896 -0.001602 0.000857 0.031215 0.007679 0.006796
# 5 -0.002468 -0.001273 -0.002222 0.007679 0.024461 0.001506
# 6 0.001082 -0.006563 0.002852 0.006796 0.001506 0.022909
#
#
# Mechanical properties :
#
#
# Convention : Reuss Voigt Hill
#
# Bulk Modulus (GPa) = 67.24916 79.33319 73.29118
# Shear Modulus (GPa) = 36.45835 43.98767 40.22301
#
# Velocity S-wave (km/s) = 3.75933 4.12931 3.94865
# Velocity P-wave (km/s) = 6.70161 7.31350 7.01423
#
# Compressibility (1/GPa) = 0.01487007
#
# Stress axis : x y z
#
# Youngs Moduli (GPa) = 76.70977 94.47732 94.20474
#
# Poissons Ratio (x) = 0.39198 0.21773
# Poissons Ratio (y) = 0.31827 0.30359
# Poissons Ratio (z) = 0.17729 0.30447
#
# Static dielectric constant tensor:
#      x y z
#    x 2.017860 -0.033480 -0.038840 
#    y -0.033480 1.993540 -0.002960 
#    z -0.038840 -0.002960 2.006480 
# 
# From -- ./inp_files/305682.got.cif
#   From: 2010.05.17/outbox.cif.g08.bks.cpg/sg2_153_cif.got.tgz:305682.got - 2010.06.03 11:33:40.
