data_PCOD9028446
_publ_section_title
;
Structure prediction by ZEFSAII (Michael W. Deem and Ramdas Pophale) SiO2 
 PCOD9028446
Probable space group: P -1
;
_chemical_formula_sum "Si O2"
_cell_formula_units_Z 16
_cell_length_a 16.946150
_cell_length_b 7.957053
_cell_length_c 11.356508
_cell_angle_alpha 55.138164
_cell_angle_beta 127.759875
_cell_angle_gamma 85.345886
_cell_volume 742.199316
_symmetry_space_group_name_H-M "P -1"
_symmetry_group_IT_number 2
_symmetry_cell_setting 'triclinic'
loop_
_space_group_symop_operation_xyz
x,y,z
-x,-y,-z
loop_
_atom_site_type_symbol
_atom_site_label
_atom_site_fract_x
_atom_site_fract_y
_atom_site_fract_z
Si Si1 0.996604 0.762823 0.603108
Si Si2 0.228974 0.398332 0.799496
Si Si3 0.768384 0.202324 0.497766
Si Si4 0.950306 0.340109 0.041048
Si Si5 0.690356 0.840927 0.508053
Si Si6 0.534702 0.118443 0.644299
Si Si7 0.293082 0.037453 0.775954
Si Si8 0.536605 0.515149 0.337287
O O1 0.081979 0.564609 0.651187
O O2 0.067291 0.635297 0.844493
O O3 0.846558 0.880812 0.419201
O O4 0.000000 0.000000 0.500000
O O5 0.252537 0.603022 0.702752
O O6 0.257465 0.233047 0.773634
O O7 0.327985 0.178245 0.077380
O O8 0.672683 0.385453 0.445733
O O9 0.726967 0.025893 0.498739
O O10 0.928557 0.975956 0.756038
O O11 0.813979 0.518265 0.773073
O O12 0.000000 0.500000 0.000000
O O13 0.573616 0.912098 0.453303
O O14 0.655823 0.904934 0.312976
O O15 0.542736 0.275175 0.487049
O O16 0.487711 0.309501 0.641296
O O17 0.410294 0.726742 0.051138
#
# Coordination Sequence:
#
# PCOD9028446 Si02
#       8
#     2   2   2   2   2   2   2   2
#     4  12  23  42  66  91 128 160 207 261 305 364
#     4  11  24  41  67  91 125 167 207 251 314 368
#     4  11  22  42  63  92 125 164 207 252 309 366
#     4  10  22  42  62  91 126 161 204 257 308 363
#     4  11  23  41  67  90 128 164 208 256 306 367
#     4  10  24  43  61  95 124 165 206 259 309 366
#     4  11  23  43  64  93 125 167 206 251 312 373
#     4  10  24  42  64  89 131 160 208 258 308 371
#
# _framework density 21.557552000000001
#
# number of rings (size 3 to 8) (size 9 to 14) (size 15 to 20)
#    0.000    1.250    3.750    1.875    5.250    5.500 
#    0.000    2.500    0.000    0.000    0.000    0.000 
#    0.000    0.000    0.000    0.000    0.000    0.000 
#
# Total GULP energy -89365.745443 kJ/mol
# GULP energy per Si atom -5585.359090 kJ/mol
# Density = 2.150849 g / cm^3
# Si number density = 21.557552 Si / 1000 Ang^3
#
#
#
# Elastic Constant Matrix: (Units=GPa)
#
#
# Indices 1 2 3 4 5 6 
#
# 1 93.6023 18.9381 27.3270 -5.5163 -24.0591 0.6270
# 2 18.9381 38.7471 35.2768 -11.9652 -0.5538 -7.4461
# 3 27.3270 35.2768 126.1362 -5.4844 -26.9461 3.4914
# 4 -5.5163 -11.9652 -5.4844 24.5494 -3.1195 -1.6146
# 5 -24.0591 -0.5538 -26.9461 -3.1195 43.2348 -2.4573
# 6 0.6270 -7.4461 3.4914 -1.6146 -2.4573 36.7363
#
#
#
# Elastic Compliance Matrix: (Units=1/GPa)
#
#
# Indices 1 2 3 4 5 6 
#
# 1 0.014158 -0.007716 0.000933 0.000601 0.008330 -0.001311
# 2 -0.007716 0.050559 -0.014191 0.019194 -0.010431 0.011874
# 3 0.000933 -0.014191 0.013444 -0.002896 0.008295 -0.003742
# 4 0.000601 0.019194 -0.002896 0.050362 0.002782 0.006555
# 5 0.008330 -0.010431 0.008295 0.002782 0.032961 -0.000718
# 6 -0.001311 0.011874 -0.003742 0.006555 -0.000718 0.030246
#
#
# Mechanical properties :
#
#
# Convention : Reuss Voigt Hill
#
# Bulk Modulus (GPa) = 27.61445 46.84106 37.22776
# Shear Modulus (GPa) = 20.34592 32.70034 26.52313
#
# Velocity S-wave (km/s) = 3.07546 3.89895 3.51143
# Velocity P-wave (km/s) = 5.04467 6.48418 5.80919
#
# Compressibility (1/GPa) = 0.03621292
#
# Stress axis : x y z
#
# Youngs Moduli (GPa) = 70.63359 19.77870 74.38053
#
# Poissons Ratio (x) = 0.15261 -0.06937
# Poissons Ratio (y) = 0.54500 1.05553
# Poissons Ratio (z) = -0.06587 0.28068
#
# Static dielectric constant tensor:
#      x y z
#    x 1.754800 -0.009470 0.041580 
#    y -0.009470 1.816080 -0.005680 
#    z 0.041580 -0.005680 1.791620 
# 
# From -- ./inp_files/298714.got.cif
#   From: 2010.05.17/outbox.cif.g08.bks.cpg/sg2_150_cif.got.tgz:298714.got - 2010.06.03 11:33:40.
