data_PCOD9028158
_publ_section_title
;
Structure prediction by ZEFSAII (Michael W. Deem and Ramdas Pophale) SiO2 
 PCOD9028158
Probable space group: P -1
;
_chemical_formula_sum "Si O2"
_cell_formula_units_Z 16
_cell_length_a 14.120443
_cell_length_b 13.519212
_cell_length_c 13.664143
_cell_angle_alpha 33.434414
_cell_angle_beta 137.304278
_cell_angle_gamma 149.645634
_cell_volume 725.254924
_symmetry_space_group_name_H-M "P -1"
_symmetry_group_IT_number 2
_symmetry_cell_setting 'triclinic'
loop_
_space_group_symop_operation_xyz
x,y,z
-x,-y,-z
loop_
_atom_site_type_symbol
_atom_site_label
_atom_site_fract_x
_atom_site_fract_y
_atom_site_fract_z
Si Si1 0.677357 0.766161 0.951411
Si Si2 0.233099 0.491093 0.140452
Si Si3 0.422155 0.701127 0.308285
Si Si4 0.467955 0.112771 0.092440
Si Si5 0.003837 0.098887 0.776563
Si Si6 0.053289 0.375923 0.398368
Si Si7 0.190806 0.084598 0.529555
Si Si8 0.084540 0.795211 0.988972
O O1 0.599037 0.863784 0.875982
O O2 0.500000 0.500000 0.000000
O O3 0.816465 0.767843 0.125131
O O4 0.814275 0.952946 0.815751
O O5 0.323379 0.663781 0.160755
O O6 0.262528 0.305584 0.331801
O O7 0.337981 0.641649 0.998789
O O8 0.013694 0.329753 0.085516
O O9 0.247780 0.460934 0.431411
O O10 0.624734 0.790028 0.369179
O O11 0.472472 0.905394 0.251476
O O12 0.304202 0.027191 0.961980
O O13 0.029797 0.279980 0.568584
O O14 0.994423 0.897715 0.880415
O O15 0.063912 0.599524 0.202975
O O16 0.883094 0.150199 0.391689
O O17 0.000000 0.000000 0.500000
#
# Coordination Sequence:
#
# PCOD9028158 Si02
#       8
#     2   2   2   2   2   2   2   2
#     4  10  22  41  71  99 128 175 225 274 347 400
#     4  12  23  39  68  92 136 187 219 276 329 394
#     4  11  26  42  63 100 138 179 229 276 330 400
#     4  10  24  42  65  96 133 173 226 277 330 402
#     4  10  22  43  69 100 135 174 222 281 336 400
#     4  11  24  43  68 100 138 180 225 278 334 400
#     4  12  26  40  63  98 139 180 233 274 331 400
#     4  10  23  42  68  99 137 178 229 270 333 394
#
# _framework density 22.061208000000001
#
# number of rings (size 3 to 8) (size 9 to 14) (size 15 to 20)
#    0.000    1.250    2.500    2.250    5.250    2.000 
#    0.000   10.000    0.000    9.000    0.000    0.000 
#    0.000    0.000    0.000    0.000    0.000    0.000 
#
# Total GULP energy -89293.215126 kJ/mol
# GULP energy per Si atom -5580.825945 kJ/mol
# Density = 2.201100 g / cm^3
# Si number density = 22.061208 Si / 1000 Ang^3
#
#
#
# Elastic Constant Matrix: (Units=GPa)
#
#
# Indices 1 2 3 4 5 6 
#
# 1 75.8217 34.2052 13.5816 7.7407 -4.2476 8.7844
# 2 34.2052 151.7959 13.0504 14.7322 5.8228 2.9362
# 3 13.5816 13.0504 78.0782 1.5331 -4.4396 -3.4010
# 4 7.7407 14.7322 1.5331 37.0540 -5.7971 5.0026
# 5 -4.2476 5.8228 -4.4396 -5.7971 27.9333 -5.5786
# 6 8.7844 2.9362 -3.4010 5.0026 -5.5786 28.8109
#
#
#
# Elastic Compliance Matrix: (Units=1/GPa)
#
#
# Indices 1 2 3 4 5 6 
#
# 1 0.015745 -0.003228 -0.002269 -0.001084 0.001636 -0.004234
# 2 -0.003228 0.007769 -0.000840 -0.002827 -0.002823 0.000037
# 3 -0.002269 -0.000840 0.013610 0.000271 0.002617 0.002844
# 4 -0.001084 -0.002827 0.000271 0.029713 0.005964 -0.003354
# 5 0.001636 -0.002823 0.002617 0.005964 0.039636 0.006737
# 6 -0.004234 0.000037 0.002844 -0.003354 0.006737 0.038219
#
#
# Mechanical properties :
#
#
# Convention : Reuss Voigt Hill
#
# Bulk Modulus (GPa) = 40.90298 47.48558 44.19428
# Shear Modulus (GPa) = 30.20831 35.08356 32.64593
#
# Velocity S-wave (km/s) = 3.70441 3.99216 3.85098
# Velocity P-wave (km/s) = 6.07271 6.54378 6.31264
#
# Compressibility (1/GPa) = 0.02444810
#
# Stress axis : x y z
#
# Youngs Moduli (GPa) = 63.51374 128.70975 73.47383
#
# Poissons Ratio (x) = 0.41552 0.16673
# Poissons Ratio (y) = 0.20505 0.06175
# Poissons Ratio (z) = 0.14413 0.10817
#
# Static dielectric constant tensor:
#      x y z
#    x 1.838990 -0.012260 0.043530 
#    y -0.012260 1.837910 0.016970 
#    z 0.043530 0.016970 1.845050 
# 
# From -- ./inp_files/533617.got.cif
#   From: 2010.05.17/outbox.cif.g08.bks.cpg/sg2_267_cif.got.tgz:533617.got - 2010.06.03 11:33:40.
