data_PCOD9028884
_publ_section_title
;
Structure prediction by ZEFSAII (Michael W. Deem and Ramdas Pophale) SiO2 
 PCOD9028884
Probable space group: P -1
;
_chemical_formula_sum "Si O2"
_cell_formula_units_Z 14
_cell_length_a 6.354178
_cell_length_b 13.597323
_cell_length_c 15.871914
_cell_angle_alpha 35.296531
_cell_angle_beta 125.333950
_cell_angle_gamma 109.073006
_cell_volume 614.952605
_symmetry_space_group_name_H-M "P -1"
_symmetry_group_IT_number 2
_symmetry_cell_setting 'triclinic'
loop_
_space_group_symop_operation_xyz
x,y,z
-x,-y,-z
loop_
_atom_site_type_symbol
_atom_site_label
_atom_site_fract_x
_atom_site_fract_y
_atom_site_fract_z
Si Si1 0.220623 0.104752 0.744321
Si Si2 0.193625 0.643894 0.821274
Si Si3 0.492625 0.817920 0.668491
Si Si4 0.667747 0.538495 0.753704
Si Si5 0.093118 0.520043 0.601190
Si Si6 0.183862 0.120908 0.929147
Si Si7 0.024274 0.802552 0.857000
O O1 0.190571 0.114795 0.832372
O O2 0.134191 0.300616 0.546055
O O3 0.030622 0.000475 0.732784
O O4 0.527612 0.981761 0.890528
O O5 0.225946 0.805057 0.659427
O O6 0.106760 0.719923 0.841322
O O7 0.949203 0.581036 0.768819
O O8 0.500000 0.500000 0.000000
O O9 0.576826 0.657376 0.733614
O O10 0.727603 0.787850 0.813548
O O11 0.500000 0.000000 0.500000
O O12 0.378137 0.564392 0.625220
O O13 0.767909 0.326864 0.941405
O O14 0.111523 0.334250 0.782815
O O15 0.000000 0.500000 0.500000
O O16 0.000000 0.000000 0.000000
#
# Coordination Sequence:
#
# PCOD9028884 Si02
#       7
#     2   2   2   2   2   2   2
#     4  10  22  42  65  93 132 172 212 278 328 377
#     4  11  21  40  67  94 127 179 218 262 332 396
#     4  11  23  40  62  95 133 165 213 274 325 390
#     4  11  21  40  65  94 129 171 225 271 322 392
#     4  10  22  44  68  92 132 172 217 275 325 385
#     4  10  22  42  68  95 126 172 223 268 331 393
#     4  11  21  38  66  94 131 171 222 265 327 397
#
# _framework density 22.765979000000002
#
# number of rings (size 3 to 8) (size 9 to 14) (size 15 to 20)
#    0.000    1.429    4.286    1.714    0.000    4.000 
#    2.571    5.714    0.000    0.000    0.000    0.000 
#    0.000    0.000    0.000    0.000    0.000    0.000 
#
# Total GULP energy -78040.571904 kJ/mol
# GULP energy per Si atom -5574.326565 kJ/mol
# Density = 2.271416 g / cm^3
# Si number density = 22.765979 Si / 1000 Ang^3
#
#
#
# Elastic Constant Matrix: (Units=GPa)
#
#
# Indices 1 2 3 4 5 6 
#
# 1 56.6690 18.6980 33.7258 -10.7542 -8.3684 39.9407
# 2 18.6980 128.0643 40.7385 -5.7637 12.7110 37.0230
# 3 33.7258 40.7385 142.6181 -28.0466 11.3813 23.0094
# 4 -10.7542 -5.7637 -28.0466 50.4973 6.0150 1.8750
# 5 -8.3684 12.7110 11.3813 6.0150 22.4564 -4.3491
# 6 39.9407 37.0230 23.0094 1.8750 -4.3491 38.9409
#
#
#
# Elastic Compliance Matrix: (Units=1/GPa)
#
#
# Indices 1 2 3 4 5 6 
#
# 1 0.138337 0.034570 -0.006628 0.037148 -0.008218 -0.173546
# 2 0.034570 0.021655 -0.001627 0.012599 -0.012992 -0.057142
# 3 -0.006628 -0.001627 0.010560 0.005199 -0.008110 0.000949
# 4 0.037148 0.012599 0.005199 0.036123 -0.016588 -0.056745
# 5 -0.008218 -0.012992 -0.008110 -0.016588 0.063864 0.033504
# 6 -0.173546 -0.057142 0.000949 -0.056745 0.033504 0.263923
#
#
# Mechanical properties :
#
#
# Convention : Reuss Voigt Hill
#
# Bulk Modulus (GPa) = 4.48064 57.07509 30.77787
# Shear Modulus (GPa) = 8.98914 37.99151 23.49033
#
# Velocity S-wave (km/s) = 1.98924 4.08951 3.21568
# Velocity P-wave (km/s) = 2.69230 6.88647 5.22839
#
# Compressibility (1/GPa) = 0.22318239
#
# Stress axis : x y z
#
# Youngs Moduli (GPa) = 7.22871 46.17890 94.69455
#
# Poissons Ratio (x) = -1.59639 0.62761
# Poissons Ratio (y) = -0.24989 0.15407
# Poissons Ratio (z) = 0.04791 0.07514
#
# Static dielectric constant tensor:
#      x y z
#    x 1.892330 0.025980 0.000470 
#    y 0.025980 1.854060 -0.006350 
#    z 0.000470 -0.006350 1.973330 
# 
# From -- ./inp_files/40355.got.cif
#   From: 2010.05.17/outbox.cif.g08.bks.cpg/sg2_21_cif.got.tgz:40355.got - 2010.06.03 11:33:40.
