data_PCOD9028027
_publ_section_title
;
Structure prediction by ZEFSAII (Michael W. Deem and Ramdas Pophale) SiO2 
 PCOD9028027
Probable space group: P -1
;
_chemical_formula_sum "Si O2"
_cell_formula_units_Z 16
_cell_length_a 18.803138
_cell_length_b 16.107992
_cell_length_c 11.671992
_cell_angle_alpha 34.263455
_cell_angle_beta 136.371612
_cell_angle_gamma 158.451555
_cell_volume 713.609611
_symmetry_space_group_name_H-M "P -1"
_symmetry_group_IT_number 2
_symmetry_cell_setting 'triclinic'
loop_
_space_group_symop_operation_xyz
x,y,z
-x,-y,-z
loop_
_atom_site_type_symbol
_atom_site_label
_atom_site_fract_x
_atom_site_fract_y
_atom_site_fract_z
Si Si1 0.556943 0.237669 0.801315
Si Si2 0.852180 0.704722 0.225777
Si Si3 0.564824 0.439790 0.372673
Si Si4 0.132363 0.023397 0.396115
Si Si5 0.692814 0.438723 0.978359
Si Si6 0.261581 0.040584 0.967223
Si Si7 0.114314 0.789274 0.843236
Si Si8 0.929980 0.567635 0.286915
O O1 0.615120 0.365529 0.598866
O O2 0.695045 0.425290 0.858793
O O3 0.351112 0.067132 0.783029
O O4 0.500000 0.000000 0.000000
O O5 0.650108 0.523695 0.248880
O O6 0.831532 0.546533 0.294449
O O7 0.968104 0.796313 0.369036
O O8 0.000000 0.000000 0.000000
O O9 0.331879 0.188630 0.393633
O O10 0.667059 0.704568 0.251414
O O11 0.183933 0.260664 0.193810
O O12 0.064929 0.866462 0.615483
O O13 0.462715 0.189417 0.029298
O O14 0.777716 0.405109 0.188262
O O15 0.114586 0.815284 0.949797
O O16 0.136728 0.881834 0.118828
O O17 0.000000 0.500000 0.000000
O O18 0.000000 0.500000 0.500000
#
# Coordination Sequence:
#
# PCOD9028027 Si02
#       8
#     2   2   2   2   2   2   2   2
#     4  10  23  39  64 101 132 168 215 268 343 405
#     4  12  24  43  65  99 128 174 241 265 320 396
#     4  10  22  42  70  97 132 172 220 281 323 392
#     4  10  22  41  70  98 128 177 219 275 331 391
#     4  10  22  44  68  93 133 171 224 271 330 405
#     4  10  22  43  68  95 131 175 221 270 337 394
#     4  10  23  39  64 101 136 169 210 274 343 401
#     4  12  28  43  65  96 136 177 226 281 325 389
#
# _framework density 22.421222
#
# number of rings (size 3 to 8) (size 9 to 14) (size 15 to 20)
#    0.000    1.500    2.500    0.750    5.250    7.000 
#    0.000    2.500    0.000    0.000    0.000    0.000 
#    0.000    0.000    0.000    0.000    0.000    0.000 
#
# Total GULP energy -89355.409049 kJ/mol
# GULP energy per Si atom -5584.713066 kJ/mol
# Density = 2.237019 g / cm^3
# Si number density = 22.421222 Si / 1000 Ang^3
#
#
#
# Elastic Constant Matrix: (Units=GPa)
#
#
# Indices 1 2 3 4 5 6 
#
# 1 90.1020 -0.6614 19.1108 -6.0094 -25.4728 8.4576
# 2 -0.6614 65.7148 22.0103 3.7104 -14.0402 11.5188
# 3 19.1108 22.0103 107.1430 19.8400 -3.9630 11.4478
# 4 -6.0094 3.7104 19.8400 28.8223 4.3913 -0.3913
# 5 -25.4728 -14.0402 -3.9630 4.3913 27.3692 0.9005
# 6 8.4576 11.5188 11.4478 -0.3913 0.9005 31.9154
#
#
#
# Elastic Compliance Matrix: (Units=1/GPa)
#
#
# Indices 1 2 3 4 5 6 
#
# 1 0.018239 0.006596 -0.003632 0.002370 0.019664 -0.006437
# 2 0.006596 0.021899 -0.003797 -0.001596 0.017369 -0.008799
# 3 -0.003632 -0.003797 0.012512 -0.008596 -0.002065 -0.002202
# 4 0.002370 -0.001596 -0.008596 0.042397 -0.006783 0.003743
# 5 0.019664 0.017369 -0.002065 -0.006783 0.064955 -0.012655
# 6 -0.006437 -0.008799 -0.002202 0.003743 -0.012655 0.037407
#
#
# Mechanical properties :
#
#
# Convention : Reuss Voigt Hill
#
# Bulk Modulus (GPa) = 19.61426 38.20881 28.91153
# Shear Modulus (GPa) = 23.14071 32.45471 27.79771
#
# Velocity S-wave (km/s) = 3.21610 3.80873 3.52489
# Velocity P-wave (km/s) = 4.74954 6.03492 5.43040
#
# Compressibility (1/GPa) = 0.05098332
#
# Stress axis : x y z
#
# Youngs Moduli (GPa) = 54.82768 45.66468 79.92372
#
# Poissons Ratio (x) = -0.30120 0.29029
# Poissons Ratio (y) = -0.36164 0.30347
# Poissons Ratio (z) = 0.19914 0.17339
#
# Static dielectric constant tensor:
#      x y z
#    x 2.161040 -0.031120 -0.054490 
#    y -0.031120 1.840920 0.013130 
#    z -0.054490 0.013130 1.824630 
# 
# From -- ./inp_files/472338.got.cif
#   From: 2010.05.17/outbox.cif.g08.bks.cpg/sg2_237_cif.got.tgz:472338.got - 2010.06.03 11:33:40.
