data_PCOD9028111
_publ_section_title
;
Structure prediction by ZEFSAII (Michael W. Deem and Ramdas Pophale) SiO2 
 PCOD9028111
Probable space group: P -1
;
_chemical_formula_sum "Si O2"
_cell_formula_units_Z 16
_cell_length_a 13.679849
_cell_length_b 11.911572
_cell_length_c 9.850519
_cell_angle_alpha 101.302141
_cell_angle_beta 136.851758
_cell_angle_gamma 47.304950
_cell_volume 648.830251
_symmetry_space_group_name_H-M "P -1"
_symmetry_group_IT_number 2
_symmetry_cell_setting 'triclinic'
loop_
_space_group_symop_operation_xyz
x,y,z
-x,-y,-z
loop_
_atom_site_type_symbol
_atom_site_label
_atom_site_fract_x
_atom_site_fract_y
_atom_site_fract_z
Si Si1 0.218367 0.189280 0.295880
Si Si2 0.610463 0.337661 0.174986
Si Si3 0.390530 0.919009 0.949570
Si Si4 0.423482 0.655481 0.553667
Si Si5 0.063727 0.693003 0.412030
Si Si6 0.203389 0.189486 0.592800
Si Si7 0.389198 0.323018 0.487763
Si Si8 0.077836 0.052141 0.987749
O O1 0.166715 0.190160 0.399710
O O2 0.203381 0.336167 0.299907
O O3 0.500000 0.000000 0.500000
O O4 0.067619 0.190804 0.062594
O O5 0.489169 0.406625 0.217463
O O6 0.863599 0.231334 0.436381
O O7 0.500000 0.500000 0.000000
O O8 0.630273 0.201632 0.099244
O O9 0.637021 0.801218 0.229376
O O10 0.363886 0.853323 0.220001
O O11 0.349865 0.994530 0.772767
O O12 0.500000 0.500000 0.500000
O O13 0.522457 0.700154 0.579477
O O14 0.135192 0.833183 0.307107
O O15 0.254616 0.512824 0.469305
O O16 0.811472 0.877767 0.130294
O O17 0.017622 0.651807 0.493552
O O18 0.000000 0.000000 0.000000
#
# Coordination Sequence:
#
# PCOD9028111 Si02
#       8
#     2   2   2   2   2   2   2   2
#     4  10  22  41  71 111 142 189 251 295 372 444
#     4  12  27  46  74 106 146 193 255 307 370 444
#     4   9  23  47  72 100 143 199 241 296 375 442
#     4  11  24  48  71 105 149 191 248 309 372 439
#     4  10  22  45  68 104 144 193 241 304 368 435
#     4   9  22  44  71 101 148 194 241 297 373 440
#     4  10  22  44  71 109 147 187 248 305 365 449
#     4   9  22  43  73 103 145 195 234 305 373 439
#
# _framework density 24.659763000000002
#
# number of rings (size 3 to 8) (size 9 to 14) (size 15 to 20)
#    0.750    1.250    1.250    0.375    7.000    3.500 
#    4.500    0.625    0.000    0.000    0.000    0.000 
#    0.000    0.000    0.000    0.000    0.000    0.000 
#
# Total GULP energy -89295.843815 kJ/mol
# GULP energy per Si atom -5580.990238 kJ/mol
# Density = 2.460364 g / cm^3
# Si number density = 24.659763 Si / 1000 Ang^3
#
#
#
# Elastic Constant Matrix: (Units=GPa)
#
#
# Indices 1 2 3 4 5 6 
#
# 1 127.4724 40.6272 61.6675 11.6461 -9.0487 -12.4398
# 2 40.6272 105.2712 34.0881 1.4000 2.8938 11.9082
# 3 61.6675 34.0881 86.4948 7.0198 -17.5485 3.8567
# 4 11.6461 1.4000 7.0198 29.2953 7.7016 5.8870
# 5 -9.0487 2.8938 -17.5485 7.7016 53.8228 10.6711
# 6 -12.4398 11.9082 3.8567 5.8870 10.6711 42.5524
#
#
#
# Elastic Compliance Matrix: (Units=1/GPa)
#
#
# Indices 1 2 3 4 5 6 
#
# 1 0.014238 -0.003246 -0.009037 -0.004415 -0.001089 0.006774
# 2 -0.003246 0.012144 -0.002854 0.002653 -0.001711 -0.004027
# 3 -0.009037 -0.002854 0.020893 -0.002019 0.006757 -0.005152
# 4 -0.004415 0.002653 -0.002019 0.038974 -0.005981 -0.005742
# 5 -0.001089 -0.001711 0.006757 -0.005981 0.022596 -0.005291
# 6 0.006774 -0.004027 -0.005152 -0.005742 -0.005291 0.029196
#
#
# Mechanical properties :
#
#
# Convention : Reuss Voigt Hill
#
# Bulk Modulus (GPa) = 58.82053 65.77822 62.29938
# Shear Modulus (GPa) = 28.73862 37.32447 33.03154
#
# Velocity S-wave (km/s) = 3.41751 3.89469 3.66388
# Velocity P-wave (km/s) = 6.28308 6.85252 6.57397
#
# Compressibility (1/GPa) = 0.01700087
#
# Stress axis : x y z
#
# Youngs Moduli (GPa) = 70.23350 82.34800 47.86208
#
# Poissons Ratio (x) = 0.26733 0.43251
# Poissons Ratio (y) = 0.22800 0.13660
# Poissons Ratio (z) = 0.63468 0.23503
#
# Static dielectric constant tensor:
#      x y z
#    x 2.082270 0.029340 -0.036910 
#    y 0.029340 1.991880 -0.066680 
#    z -0.036910 -0.066680 2.003760 
# 
# From -- ./inp_files/262620.got.cif
#   From: 2010.05.17/outbox.cif.g08.bks.cpg/sg2_132_cif.got.tgz:262620.got - 2010.06.03 11:33:40.
