data_PCOD9028627
_publ_section_title
;
Structure prediction by ZEFSAII (Michael W. Deem and Ramdas Pophale) SiO2 
 PCOD9028627
Probable space group: P -1
;
_chemical_formula_sum "Si O2"
_cell_formula_units_Z 15
_cell_length_a 11.169988
_cell_length_b 24.683360
_cell_length_c 5.114353
_cell_angle_alpha 51.116553
_cell_angle_beta 115.010006
_cell_angle_gamma 147.653397
_cell_volume 567.366548
_symmetry_space_group_name_H-M "P -1"
_symmetry_group_IT_number 2
_symmetry_cell_setting 'triclinic'
loop_
_space_group_symop_operation_xyz
x,y,z
-x,-y,-z
loop_
_atom_site_type_symbol
_atom_site_label
_atom_site_fract_x
_atom_site_fract_y
_atom_site_fract_z
Si Si1 0.340689 0.658679 0.517312
Si Si2 0.500000 0.000000 0.000000
Si Si3 0.869674 0.838525 0.423162
Si Si4 0.289616 0.356982 0.467660
Si Si5 0.765654 0.530277 0.236558
Si Si6 0.654109 0.252666 0.259462
Si Si7 0.096770 0.759409 0.188665
Si Si8 0.169674 0.982816 0.781877
O O1 0.610904 0.754268 0.484049
O O2 0.207093 0.532134 0.681744
O O3 0.259788 0.653786 0.733562
O O4 0.327226 0.710812 0.122712
O O5 0.302212 0.968493 0.016471
O O6 0.681918 0.100181 0.109006
O O7 0.828253 0.742843 0.556516
O O8 0.009860 0.905928 0.614294
O O9 0.014592 0.937340 0.022960
O O10 0.541986 0.433223 0.517505
O O11 0.118408 0.289790 0.754212
O O12 0.308744 0.444402 0.121511
O O13 0.984828 0.656656 0.200442
O O14 0.781444 0.233686 0.485070
O O15 0.385786 0.124724 0.474373
#
# Coordination Sequence:
#
# PCOD9028627 Si02
#       8
#     2   1   2   2   2   2   2   2
#     4  11  26  47  65 100 135 184 235 288 320 414
#     4  10  22  42  64 106 144 170 222 272 354 418
#     4  11  23  42  73  97 137 177 233 282 348 389
#     4  10  22  42  68 106 128 176 230 290 343 409
#     4  10  24  42  71  96 136 177 235 285 342 395
#     4  11  27  44  66  99 141 179 237 270 348 401
#     4  11  23  43  69  97 138 182 217 291 339 422
#     4  11  23  42  67 103 134 188 216 289 337 416
#
# _framework density 26.437933999999998
#
# number of rings (size 3 to 8) (size 9 to 14) (size 15 to 20)
#    0.000    1.333    1.333    2.800    3.733    4.800 
#    2.400    0.000    0.000    0.000    0.000    0.000 
#    0.000    0.000    0.000    0.000    0.000    0.000 
#
# Total GULP energy -83840.246273 kJ/mol
# GULP energy per Si atom -5589.349752 kJ/mol
# Density = 2.637776 g / cm^3
# Si number density = 26.437934 Si / 1000 Ang^3
#
#
#
# Elastic Constant Matrix: (Units=GPa)
#
#
# Indices 1 2 3 4 5 6 
#
# 1 127.4619 27.2822 23.9851 5.9209 -18.4646 5.9305
# 2 27.2822 135.4043 21.1499 -7.9183 -37.2961 -0.7381
# 3 23.9851 21.1499 58.4659 5.9505 -5.4340 -0.7172
# 4 5.9209 -7.9183 5.9505 39.0719 -2.7649 -4.2653
# 5 -18.4646 -37.2961 -5.4340 -2.7649 33.1909 -1.2979
# 6 5.9305 -0.7381 -0.7172 -4.2653 -1.2979 29.1186
#
#
#
# Elastic Compliance Matrix: (Units=1/GPa)
#
#
# Indices 1 2 3 4 5 6 
#
# 1 0.009246 -0.000273 -0.003242 -0.000877 0.004158 -0.001913
# 2 -0.000273 0.011756 -0.003331 0.004001 0.012902 0.001433
# 3 -0.003242 -0.003331 0.019744 -0.003322 -0.002573 0.000461
# 4 -0.000877 0.004001 -0.003322 0.027964 0.005971 0.004561
# 5 0.004158 0.012902 -0.002573 0.005971 0.047110 0.002391
# 6 -0.001913 0.001433 0.000461 0.004561 0.002391 0.035554
#
#
# Mechanical properties :
#
#
# Convention : Reuss Voigt Hill
#
# Bulk Modulus (GPa) = 36.96362 51.79628 44.37995
# Shear Modulus (GPa) = 28.72167 36.87062 32.79615
#
# Velocity S-wave (km/s) = 3.29961 3.73850 3.52589
# Velocity P-wave (km/s) = 5.34118 6.18622 5.77917
#
# Compressibility (1/GPa) = 0.02705362
#
# Stress axis : x y z
#
# Youngs Moduli (GPa) = 108.15320 85.06131 50.64895
#
# Poissons Ratio (x) = 0.02321 0.16421
# Poissons Ratio (y) = 0.02951 0.16872
# Poissons Ratio (z) = 0.35065 0.28336
#
# Static dielectric constant tensor:
#      x y z
#    x 2.089380 0.020850 -0.006760 
#    y 0.020850 2.186000 -0.154480 
#    z -0.006760 -0.154480 2.414230 
# 
# From -- ./inp_files/70031.got.cif
#   From: 2010.05.17/outbox.cif.g08.bks.cpg/sg2_36_cif.got.tgz:70031.got - 2010.06.03 11:33:40.
