data_PCOD9028496
_publ_section_title
;
Structure prediction by ZEFSAII (Michael W. Deem and Ramdas Pophale) SiO2 
 PCOD9028496
Probable space group: P -1
;
_chemical_formula_sum "Si O2"
_cell_formula_units_Z 15
_cell_length_a 7.583771
_cell_length_b 9.151921
_cell_length_c 12.098458
_cell_angle_alpha 67.512788
_cell_angle_beta 128.470074
_cell_angle_gamma 107.327024
_cell_volume 605.361121
_symmetry_space_group_name_H-M "P -1"
_symmetry_group_IT_number 2
_symmetry_cell_setting 'triclinic'
loop_
_space_group_symop_operation_xyz
x,y,z
-x,-y,-z
loop_
_atom_site_type_symbol
_atom_site_label
_atom_site_fract_x
_atom_site_fract_y
_atom_site_fract_z
Si Si1 0.190487 0.015071 0.761933
Si Si2 0.000000 0.500000 0.500000
Si Si3 0.759500 0.522204 0.138932
Si Si4 0.749660 0.168150 0.581750
Si Si5 0.137510 0.168537 0.025056
Si Si6 0.377770 0.366411 0.733903
Si Si7 0.823516 0.304524 0.036239
Si Si8 0.454053 0.972422 0.672840
O O1 0.328338 0.181250 0.793059
O O2 0.236901 0.991201 0.657246
O O3 0.933586 0.037030 0.688314
O O4 0.267541 0.866972 0.902564
O O5 0.885129 0.333241 0.560842
O O6 0.779003 0.598706 0.439306
O O7 0.751120 0.505556 0.273628
O O8 0.880702 0.407730 0.138641
O O9 0.500000 0.500000 0.000000
O O10 0.853618 0.703598 0.105745
O O11 0.598059 0.134314 0.642183
O O12 0.594295 0.127214 0.427112
O O13 0.032413 0.265112 0.054842
O O14 0.386219 0.125061 0.161083
O O15 0.000000 0.000000 0.000000
O O16 0.640668 0.387317 0.864106
#
# Coordination Sequence:
#
# PCOD9028496 Si02
#       8
#     2   1   2   2   2   2   2   2
#     4  11  21  42  69 101 131 179 220 279 336 402
#     4  10  24  42  72  86 138 178 216 276 330 400
#     4  10  23  40  65  94 131 175 218 278 335 386
#     4  10  24  44  66  99 135 176 227 274 329 407
#     4  12  24  41  67  99 138 177 221 281 329 403
#     4  10  22  42  62  97 132 173 221 270 340 396
#     4  11  22  39  67 101 130 171 230 277 334 397
#     4  11  23  42  68  99 136 175 228 271 336 393
#
# _framework density 24.778597999999999
#
# number of rings (size 3 to 8) (size 9 to 14) (size 15 to 20)
#    0.000    1.333    1.333    4.400    7.467    0.000 
#    0.000    2.667    0.000    0.000    0.000    0.000 
#    0.000    0.000    0.000    0.000    0.000    0.000 
#
# Total GULP energy -83534.377756 kJ/mol
# GULP energy per Si atom -5568.958517 kJ/mol
# Density = 2.472220 g / cm^3
# Si number density = 24.778598 Si / 1000 Ang^3
#
#
#
# Elastic Constant Matrix: (Units=GPa)
#
#
# Indices 1 2 3 4 5 6 
#
# 1 79.4726 6.2053 10.3394 -11.8537 -9.7332 0.1661
# 2 6.2053 82.9457 23.6674 -24.6179 6.3270 2.6294
# 3 10.3394 23.6674 81.0975 -31.3010 10.0747 11.0573
# 4 -11.8537 -24.6179 -31.3010 36.8671 5.5402 -3.1634
# 5 -9.7332 6.3270 10.0747 5.5402 34.9976 0.6185
# 6 0.1661 2.6294 11.0573 -3.1634 0.6185 35.8057
#
#
#
# Elastic Compliance Matrix: (Units=1/GPa)
#
#
# Indices 1 2 3 4 5 6 
#
# 1 0.013611 -0.000163 -0.001135 0.002790 0.003691 0.000482
# 2 -0.000163 0.015748 0.000562 0.011658 -0.004896 -0.000215
# 3 -0.001135 0.000562 0.021678 0.019450 -0.009651 -0.004845
# 4 0.002790 0.011658 0.019450 0.054499 -0.015526 -0.001792
# 5 0.003691 -0.004896 -0.009651 -0.015526 0.035697 0.001334
# 6 0.000482 -0.000215 -0.004845 -0.001792 0.001334 0.029257
#
#
# Mechanical properties :
#
#
# Convention : Reuss Voigt Hill
#
# Bulk Modulus (GPa) = 20.17572 35.99333 28.08453
# Shear Modulus (GPa) = 26.52737 35.08766 30.80752
#
# Velocity S-wave (km/s) = 3.27552 3.76712 3.52989
# Velocity P-wave (km/s) = 4.73977 5.78611 5.28888
#
# Compressibility (1/GPa) = 0.04956452
#
# Stress axis : x y z
#
# Youngs Moduli (GPa) = 73.47213 63.49956 46.12896
#
# Poissons Ratio (x) = 0.01036 0.05236
# Poissons Ratio (y) = 0.01198 -0.02591
# Poissons Ratio (z) = 0.08339 -0.03567
#
# Static dielectric constant tensor:
#      x y z
#    x 2.029200 0.003640 -0.031390 
#    y 0.003640 1.900800 -0.218880 
#    z -0.031390 -0.218880 1.340090 
# 
# From -- ./inp_files/490685.got.cif
#   From: 2010.05.17/outbox.cif.g08.bks.cpg/sg2_246_cif.got.tgz:490685.got - 2010.06.03 11:33:40.
