data_PCOD9028701
_publ_section_title
;
Structure prediction by ZEFSAII (Michael W. Deem and Ramdas Pophale) SiO2 
 PCOD9028701
Probable space group: P -1
;
_chemical_formula_sum "Si O2"
_cell_formula_units_Z 15
_cell_length_a 12.339571
_cell_length_b 6.292632
_cell_length_c 10.133795
_cell_angle_alpha 95.642308
_cell_angle_beta 88.444888
_cell_angle_gamma 125.424982
_cell_volume 637.664023
_symmetry_space_group_name_H-M "P -1"
_symmetry_group_IT_number 2
_symmetry_cell_setting 'triclinic'
loop_
_space_group_symop_operation_xyz
x,y,z
-x,-y,-z
loop_
_atom_site_type_symbol
_atom_site_label
_atom_site_fract_x
_atom_site_fract_y
_atom_site_fract_z
Si Si1 0.106226 0.460190 0.557265
Si Si2 0.849326 0.406762 0.018835
Si Si3 0.550595 0.234787 0.795814
Si Si4 0.500000 0.500000 0.000000
Si Si5 0.068214 0.131545 0.789247
Si Si6 0.796004 0.728417 0.684157
Si Si7 0.340169 0.049666 0.194115
Si Si8 0.258041 0.953116 0.739001
O O1 0.055656 0.292068 0.682836
O O2 0.143792 0.312811 0.448991
O O3 0.229039 0.750033 0.613636
O O4 0.000000 0.500000 0.500000
O O5 0.866003 0.671410 0.078255
O O6 0.782599 0.206676 0.132180
O O7 0.765460 0.232820 0.885998
O O8 0.000000 0.500000 0.000000
O O9 0.672781 0.445254 0.716129
O O10 0.541609 0.970386 0.766163
O O11 0.412055 0.191444 0.758291
O O12 0.559771 0.327748 0.951163
O O13 0.395265 0.275477 0.096966
O O14 0.163947 0.050505 0.736383
O O15 0.917868 0.876080 0.793719
O O16 0.733998 0.894761 0.690026
#
# Coordination Sequence:
#
# PCOD9028701 Si02
#       8
#     2   2   2   1   2   2   2   2
#     4  11  25  45  75  98 130 178 233 288 346 402
#     4  11  24  40  65 103 138 179 227 282 336 401
#     4  11  26  42  68 101 143 181 226 276 340 412
#     4  10  22  42  64  94 132 192 212 262 336 406
#     4  11  25  43  71  98 136 175 231 282 343 406
#     4  11  25  42  70 104 128 181 229 283 339 406
#     4  11  24  43  69 100 143 177 228 277 340 405
#     4  11  26  45  66 101 135 182 226 281 343 404
#
# _framework density 23.52336
#
# number of rings (size 3 to 8) (size 9 to 14) (size 15 to 20)
#    0.000    1.067    4.000    0.800    5.600    4.267 
#    0.000    1.333    0.000    0.000    0.000    0.000 
#    0.000    0.000    0.000    0.000    0.000    0.000 
#
# Total GULP energy -83630.242662 kJ/mol
# GULP energy per Si atom -5575.349511 kJ/mol
# Density = 2.346982 g / cm^3
# Si number density = 23.523360 Si / 1000 Ang^3
#
#
#
# Elastic Constant Matrix: (Units=GPa)
#
#
# Indices 1 2 3 4 5 6 
#
# 1 110.0563 25.3871 10.1472 -2.8606 -22.2487 -8.8511
# 2 25.3871 89.4598 14.8299 9.0766 -8.2927 10.1986
# 3 10.1472 14.8299 69.8291 11.9127 -23.1216 -8.6940
# 4 -2.8606 9.0766 11.9127 30.3125 -13.5879 -15.6223
# 5 -22.2487 -8.2927 -23.1216 -13.5879 31.9537 10.5524
# 6 -8.8511 10.1986 -8.6940 -15.6223 10.5524 54.6324
#
#
#
# Elastic Compliance Matrix: (Units=1/GPa)
#
#
# Indices 1 2 3 4 5 6 
#
# 1 0.012721 -0.004088 0.001832 0.008671 0.011708 0.003334
# 2 -0.004088 0.013887 -0.002584 -0.007377 -0.002502 -0.005292
# 3 0.001832 -0.002584 0.019476 0.000396 0.014472 0.001197
# 4 0.008671 -0.007377 0.000396 0.052947 0.022415 0.013656
# 5 0.011708 -0.002502 0.014472 0.022415 0.058901 -0.000301
# 6 0.003334 -0.005292 0.001197 0.013656 -0.000301 0.023986
#
#
# Mechanical properties :
#
#
# Convention : Reuss Voigt Hill
#
# Bulk Modulus (GPa) = 27.46902 41.11930 34.29416
# Shear Modulus (GPa) = 24.54221 37.97846 31.26034
#
# Velocity S-wave (km/s) = 3.23354 4.02244 3.64937
# Velocity P-wave (km/s) = 5.06396 6.25232 5.68926
#
# Compressibility (1/GPa) = 0.03640464
#
# Stress axis : x y z
#
# Youngs Moduli (GPa) = 78.61166 72.01197 51.34442
#
# Poissons Ratio (x) = 0.29439 -0.09408
# Poissons Ratio (y) = 0.32137 0.13266
# Poissons Ratio (z) = -0.14405 0.18606
#
# Static dielectric constant tensor:
#      x y z
#    x 1.901880 0.023060 0.000310 
#    y 0.023060 1.947410 0.109750 
#    z 0.000310 0.109750 1.892360 
# 
# From -- ./inp_files/76255.got.cif
#   From: 2010.05.17/outbox.cif.g08.bks.cpg/sg2_39_cif.got.tgz:76255.got - 2010.06.03 11:33:40.
