data_PCOD9028972
_publ_section_title
;
Structure prediction by ZEFSAII (Michael W. Deem and Ramdas Pophale) SiO2 
 PCOD9028972
Probable space group: P -1
;
_chemical_formula_sum "Si O2"
_cell_formula_units_Z 16
_cell_length_a 25.701091
_cell_length_b 8.463919
_cell_length_c 6.000782
_cell_angle_alpha 69.058518
_cell_angle_beta 85.517247
_cell_angle_gamma 35.200800
_cell_volume 644.916450
_symmetry_space_group_name_H-M "P -1"
_symmetry_group_IT_number 2
_symmetry_cell_setting 'triclinic'
loop_
_space_group_symop_operation_xyz
x,y,z
-x,-y,-z
loop_
_atom_site_type_symbol
_atom_site_label
_atom_site_fract_x
_atom_site_fract_y
_atom_site_fract_z
Si Si1 0.067800 0.677153 0.917401
Si Si2 0.045574 0.402418 0.286224
Si Si3 0.773550 0.840930 0.235398
Si Si4 0.744674 0.243921 0.349350
Si Si5 0.151788 0.667454 0.245870
Si Si6 0.412292 0.837083 0.978714
Si Si7 0.337720 0.365783 0.450188
Si Si8 0.576688 0.902554 0.887552
O O1 0.130913 0.424928 0.822536
O O2 0.069470 0.535501 0.188166
O O3 0.117808 0.708026 0.987242
O O4 0.951685 0.024350 0.742384
O O5 0.000000 0.500000 0.500000
O O6 0.146217 0.024614 0.467671
O O7 0.000000 0.500000 0.000000
O O8 0.792389 0.644698 0.510073
O O9 0.749632 0.078700 0.254899
O O10 0.679810 0.034139 0.030669
O O11 0.680200 0.414412 0.511612
O O12 0.688693 0.553903 0.102974
O O13 0.229640 0.604282 0.276643
O O14 0.379851 0.088213 0.712229
O O15 0.500000 0.500000 0.000000
O O16 0.443167 0.846401 0.190740
O O17 0.414356 0.179677 0.323881
O O18 0.500000 0.000000 0.000000
#
# Coordination Sequence:
#
# PCOD9028972 Si02
#       8
#     2   2   2   2   2   2   2   2
#     4  11  23  40  68  97 139 188 237 295 353 423
#     4  12  27  45  69 108 151 197 252 302 366 439
#     4  11  22  43  68 102 141 182 248 292 363 434
#     4  11  25  42  69 100 140 188 234 300 363 431
#     4  10  22  42  65  97 135 186 233 292 357 426
#     4  10  23  45  69 102 135 183 232 297 362 438
#     4  10  24  44  69  99 138 178 233 290 365 427
#     4  11  25  46  70 103 138 182 239 300 371 441
#
# _framework density 24.809415000000001
#
# number of rings (size 3 to 8) (size 9 to 14) (size 15 to 20)
#    0.000    1.250    1.250    3.375    5.250    2.500 
#    6.750    0.000    0.000    0.000    0.000    0.000 
#    0.000    0.000    0.000    0.000    0.000    0.000 
#
# Total GULP energy -89292.970806 kJ/mol
# GULP energy per Si atom -5580.810675 kJ/mol
# Density = 2.475295 g / cm^3
# Si number density = 24.809415 Si / 1000 Ang^3
#
#
#
# Elastic Constant Matrix: (Units=GPa)
#
#
# Indices 1 2 3 4 5 6 
#
# 1 84.2181 54.2590 26.7520 14.2977 28.9858 6.4744
# 2 54.2590 224.9817 45.3161 37.3419 14.0833 18.4075
# 3 26.7520 45.3161 62.0017 14.0014 14.1459 -6.0323
# 4 14.2977 37.3419 14.0014 57.1075 -3.9355 8.1305
# 5 28.9858 14.0833 14.1459 -3.9355 39.2884 2.6972
# 6 6.4744 18.4075 -6.0323 8.1305 2.6972 32.0717
#
#
#
# Elastic Compliance Matrix: (Units=1/GPa)
#
#
# Indices 1 2 3 4 5 6 
#
# 1 0.019507 -0.002716 -0.002969 -0.003091 -0.012583 -0.001096
# 2 -0.002716 0.006373 -0.003581 -0.002061 0.001032 -0.003347
# 3 -0.002969 -0.003581 0.023154 -0.004217 -0.005873 0.008573
# 4 -0.003091 -0.002061 -0.004217 0.021885 0.007082 -0.005130
# 5 -0.012583 0.001032 -0.005873 0.007082 0.037472 -0.004104
# 6 -0.001096 -0.003347 0.008573 -0.005130 -0.004104 0.036580
#
#
# Mechanical properties :
#
#
# Convention : Reuss Voigt Hill
#
# Bulk Modulus (GPa) = 32.78729 69.31729 51.05229
# Shear Modulus (GPa) = 28.79024 42.01846 35.40435
#
# Velocity S-wave (km/s) = 3.41024 4.11986 3.78173
# Velocity P-wave (km/s) = 5.36197 7.11559 6.30009
#
# Compressibility (1/GPa) = 0.03049962
#
# Stress axis : x y z
#
# Youngs Moduli (GPa) = 51.26408 156.92290 43.18992
#
# Poissons Ratio (x) = 0.42621 0.12824
# Poissons Ratio (y) = 0.13924 0.15468
# Poissons Ratio (z) = 0.15221 0.56201
#
# Static dielectric constant tensor:
#      x y z
#    x 2.031180 0.000810 0.084140 
#    y 0.000810 1.962830 0.065550 
#    z 0.084140 0.065550 2.177460 
# 
# From -- ./inp_files/128253.got.cif
#   From: 2010.05.17/outbox.cif.g08.bks.cpg/sg2_65_cif.got.tgz:128253.got - 2010.06.03 11:33:40.
