data_PCOD9028930
_publ_section_title
;
Structure prediction by ZEFSAII (Michael W. Deem and Ramdas Pophale) SiO2 
 PCOD9028930
Probable space group: P -1
;
_chemical_formula_sum "Si O2"
_cell_formula_units_Z 16
_cell_length_a 8.394820
_cell_length_b 17.201066
_cell_length_c 6.739320
_cell_angle_alpha 128.416767
_cell_angle_beta 99.235938
_cell_angle_gamma 95.090351
_cell_volume 729.906626
_symmetry_space_group_name_H-M "P -1"
_symmetry_group_IT_number 2
_symmetry_cell_setting 'triclinic'
loop_
_space_group_symop_operation_xyz
x,y,z
-x,-y,-z
loop_
_atom_site_type_symbol
_atom_site_label
_atom_site_fract_x
_atom_site_fract_y
_atom_site_fract_z
Si Si1 0.485503 0.380480 0.303196
Si Si2 0.770734 0.432592 0.718385
Si Si3 0.600650 0.057067 0.799064
Si Si4 0.065264 0.343702 0.814109
Si Si5 0.577947 0.314624 0.819397
Si Si6 0.611782 0.872667 0.794428
Si Si7 0.873696 0.234628 0.942864
Si Si8 0.178868 0.269373 0.331280
O O1 0.500000 0.500000 0.500000
O O2 0.660847 0.374129 0.425502
O O3 0.333619 0.328959 0.328801
O O4 0.464908 0.334414 0.007456
O O5 0.645548 0.413118 0.850740
O O6 0.916786 0.380220 0.728703
O O7 0.844061 0.552909 0.887092
O O8 0.762294 0.131202 0.851017
O O9 0.500000 0.000000 0.500000
O O10 0.639062 0.974583 0.830188
O O11 0.489067 0.115376 0.004983
O O12 0.178682 0.314372 0.621073
O O13 0.990205 0.247607 0.789165
O O14 0.496821 0.219164 0.510108
O O15 0.738197 0.292380 0.927508
O O16 0.784451 0.842665 0.827225
O O17 0.009422 0.276917 0.204783
#
# Coordination Sequence:
#
# PCOD9028930 Si02
#       8
#     2   2   2   2   2   2   2   2
#     4  12  25  38  66 100 138 180 229 269 326 384
#     4  10  22  42  65  95 134 189 225 267 319 396
#     4  11  25  48  76  98 126 170 229 274 337 413
#     4  10  24  42  65  97 140 180 224 270 330 388
#     4  11  23  43  71  95 133 183 226 266 325 401
#     4  11  26  44  74 101 127 173 223 279 339 396
#     4  11  25  42  71  97 132 175 218 277 335 397
#     4  12  26  40  66 101 143 168 219 282 335 385
#
# _framework density 21.920612999999999
#
# number of rings (size 3 to 8) (size 9 to 14) (size 15 to 20)
#    0.000    1.000    2.500    3.000    7.000    1.500 
#    0.000    6.250    0.000    0.000    0.000    0.000 
#    0.000    0.000    0.000    0.000    0.000    0.000 
#
# Total GULP energy -89374.414744 kJ/mol
# GULP energy per Si atom -5585.900922 kJ/mol
# Density = 2.187072 g / cm^3
# Si number density = 21.920613 Si / 1000 Ang^3
#
#
#
# Elastic Constant Matrix: (Units=GPa)
#
#
# Indices 1 2 3 4 5 6 
#
# 1 66.0449 23.8732 53.1996 -10.7899 5.0117 15.0337
# 2 23.8732 101.8463 31.4741 -6.8433 -13.2317 19.9534
# 3 53.1996 31.4741 144.5669 -25.0038 -11.2196 18.0976
# 4 -10.7899 -6.8433 -25.0038 26.1949 1.1139 -0.5242
# 5 5.0117 -13.2317 -11.2196 1.1139 48.2201 -13.7892
# 6 15.0337 19.9534 18.0976 -0.5242 -13.7892 41.7360
#
#
#
# Elastic Compliance Matrix: (Units=1/GPa)
#
#
# Indices 1 2 3 4 5 6 
#
# 1 0.024937 -0.002912 -0.007916 0.002128 -0.007137 -0.006489
# 2 -0.002912 0.011775 -0.000691 0.001047 0.002350 -0.003491
# 3 -0.007916 -0.000691 0.011603 0.007494 0.002935 -0.000785
# 4 0.002128 0.001047 0.007494 0.046415 -0.000428 -0.004075
# 5 -0.007137 0.002350 0.002935 -0.000428 0.025252 0.008512
# 6 -0.006489 -0.003491 -0.000785 -0.004075 0.008512 0.031068
#
#
# Mechanical properties :
#
#
# Convention : Reuss Voigt Hill
#
# Bulk Modulus (GPa) = 39.56405 58.83910 49.20158
# Shear Modulus (GPa) = 27.39527 36.82427 32.10977
#
# Velocity S-wave (km/s) = 3.53901 4.10310 3.83145
# Velocity P-wave (km/s) = 5.89809 7.02477 6.48594
#
# Compressibility (1/GPa) = 0.02527547
#
# Stress axis : x y z
#
# Youngs Moduli (GPa) = 40.10174 84.92889 86.18506
#
# Poissons Ratio (x) = 0.24730 0.68224
# Poissons Ratio (y) = 0.11677 0.05960
# Poissons Ratio (z) = 0.31744 0.05873
#
# Static dielectric constant tensor:
#      x y z
#    x 1.863580 -0.030550 0.011810 
#    y -0.030550 1.886480 0.020830 
#    z 0.011810 0.020830 1.816510 
# 
# From -- ./inp_files/49354.got.cif
#   From: 2010.05.17/outbox.cif.g08.bks.cpg/sg2_25_cif.got.tgz:49354.got - 2010.06.03 11:33:40.
