data_PCOD9028743
_publ_section_title
;
Structure prediction by ZEFSAII (Michael W. Deem and Ramdas Pophale) SiO2 
 PCOD9028743
Probable space group: P -1
;
_chemical_formula_sum "Si O2"
_cell_formula_units_Z 16
_cell_length_a 4.984175
_cell_length_b 8.820347
_cell_length_c 15.348439
_cell_angle_alpha 89.759309
_cell_angle_beta 85.945039
_cell_angle_gamma 59.885798
_cell_volume 581.833621
_symmetry_space_group_name_H-M "P -1"
_symmetry_group_IT_number 2
_symmetry_cell_setting 'triclinic'
loop_
_space_group_symop_operation_xyz
x,y,z
-x,-y,-z
loop_
_atom_site_type_symbol
_atom_site_label
_atom_site_fract_x
_atom_site_fract_y
_atom_site_fract_z
Si Si1 0.903861 0.537907 0.897539
Si Si2 0.569806 0.590994 0.264446
Si Si3 0.912102 0.918759 0.242011
Si Si4 0.872157 0.219387 0.916878
Si Si5 0.228442 0.093592 0.074622
Si Si6 0.911056 0.824815 0.571317
Si Si7 0.635445 0.797521 0.402320
Si Si8 0.535856 0.271509 0.324538
O O1 0.726909 0.424466 0.897041
O O2 0.746491 0.746640 0.884707
O O3 0.174874 0.462809 0.817734
O O4 0.000000 0.500000 0.000000
O O5 0.268771 0.777465 0.252125
O O6 0.671185 0.625121 0.357075
O O7 0.455602 0.452493 0.282659
O O8 0.822807 0.865760 0.152650
O O9 0.745415 0.879634 0.324250
O O10 0.788096 0.122314 0.255046
O O11 0.786263 0.072947 0.889908
O O12 0.922054 0.196242 0.018464
O O13 0.500000 0.000000 0.000000
O O14 0.850968 0.761028 0.481063
O O15 0.746862 0.760246 0.646655
O O16 0.261439 0.757241 0.592589
O O17 0.711260 0.038535 0.570927
#
# Coordination Sequence:
#
# PCOD9028743 Si02
#       8
#     2   2   2   2   2   2   2   2
#     4  10  23  45  65  98 138 178 242 294 365 440
#     4  12  25  44  69 103 137 189 243 301 363 446
#     4  11  24  44  68 100 139 191 229 304 365 439
#     4  10  22  42  64  97 134 174 236 289 364 426
#     4  10  23  43  67  98 132 182 233 301 364 443
#     4  10  24  46  71 108 146 194 240 303 367 439
#     4  10  23  43  73  99 145 187 244 290 368 441
#     4  11  26  45  73 106 148 191 244 302 369 439
#
# _framework density 27.499274
#
# number of rings (size 3 to 8) (size 9 to 14) (size 15 to 20)
#    0.000    1.500    2.500    0.750    7.000    3.000 
#   11.250    0.000    0.000    0.000    0.000    0.000 
#    0.000    0.000    0.000    0.000    0.000    0.000 
#
# Total GULP energy -89394.206826 kJ/mol
# GULP energy per Si atom -5587.137927 kJ/mol
# Density = 2.743668 g / cm^3
# Si number density = 27.499274 Si / 1000 Ang^3
#
#
#
# Elastic Constant Matrix: (Units=GPa)
#
#
# Indices 1 2 3 4 5 6 
#
# 1 79.9407 46.9865 4.9278 0.8491 -2.7879 9.9503
# 2 46.9865 202.6230 19.0514 6.9115 -4.6761 44.8809
# 3 4.9278 19.0514 104.2110 9.9583 7.7733 -1.1474
# 4 0.8491 6.9115 9.9583 47.1929 -4.2541 -0.4995
# 5 -2.7879 -4.6761 7.7733 -4.2541 34.4893 -3.3442
# 6 9.9503 44.8809 -1.1474 -0.4995 -3.3442 38.5889
#
#
#
# Elastic Compliance Matrix: (Units=1/GPa)
#
#
# Indices 1 2 3 4 5 6 
#
# 1 0.014510 -0.003408 -0.000154 0.000347 0.000817 0.000293
# 2 -0.003408 0.007665 -0.001258 -0.000867 0.000158 -0.008071
# 3 -0.000154 -0.001258 0.010255 -0.002196 -0.002615 0.001553
# 4 0.000347 -0.000867 -0.002196 0.022083 0.003267 0.001422
# 5 0.000817 0.000158 -0.002615 0.003267 0.030287 0.002195
# 6 0.000293 -0.008071 0.001553 0.001422 0.002195 0.035480
#
#
# Mechanical properties :
#
#
# Convention : Reuss Voigt Hill
#
# Bulk Modulus (GPa) = 43.87875 58.74512 51.31194
# Shear Modulus (GPa) = 36.35902 45.10816 40.73359
#
# Velocity S-wave (km/s) = 3.64013 4.05450 3.85289
# Velocity P-wave (km/s) = 5.80158 6.58236 6.20426
#
# Compressibility (1/GPa) = 0.02279008
#
# Stress axis : x y z
#
# Youngs Moduli (GPa) = 68.91634 130.46770 97.51202
#
# Poissons Ratio (x) = 0.44467 0.01501
# Poissons Ratio (y) = 0.23489 0.12265
# Poissons Ratio (z) = 0.01061 0.16411
#
# Static dielectric constant tensor:
#      x y z
#    x 1.199110 -0.495800 2.733320 
#    y -0.495800 1.973910 1.128980 
#    z 2.733320 1.128980 -3.926690 
# 
# From -- ./inp_files/480525.got.cif
#   From: 2010.05.17/outbox.cif.g08.bks.cpg/sg2_241_cif.got.tgz:480525.got - 2010.06.03 11:33:40.
