data_PCOD9028088
_publ_section_title
;
Structure prediction by ZEFSAII (Michael W. Deem and Ramdas Pophale) SiO2 
 PCOD9028088
Probable space group: P -1
;
_chemical_formula_sum "Si O2"
_cell_formula_units_Z 16
_cell_length_a 8.938556
_cell_length_b 8.799596
_cell_length_c 11.996228
_cell_angle_alpha 122.290266
_cell_angle_beta 55.981743
_cell_angle_gamma 113.048952
_cell_volume 655.334749
_symmetry_space_group_name_H-M "P -1"
_symmetry_group_IT_number 2
_symmetry_cell_setting 'triclinic'
loop_
_space_group_symop_operation_xyz
x,y,z
-x,-y,-z
loop_
_atom_site_type_symbol
_atom_site_label
_atom_site_fract_x
_atom_site_fract_y
_atom_site_fract_z
Si Si1 0.807366 0.742057 0.678597
Si Si2 0.210789 0.076462 0.460372
Si Si3 0.228292 0.891340 0.589995
Si Si4 0.842714 0.565395 0.241979
Si Si5 0.241294 0.530945 0.000946
Si Si6 0.447557 0.146994 0.991290
Si Si7 0.668190 0.418403 0.454565
Si Si8 0.818185 0.892742 0.091589
O O1 0.730162 0.875555 0.671109
O O2 0.710057 0.763212 0.843058
O O3 0.752418 0.549943 0.568525
O O4 0.024111 0.784319 0.618041
O O5 0.208310 0.259333 0.604652
O O6 0.292806 0.943861 0.458914
O O7 0.000000 0.000000 0.500000
O O8 0.363225 0.774793 0.550618
O O9 0.193621 0.050366 0.752157
O O10 0.727207 0.496866 0.155312
O O11 0.812419 0.414800 0.292545
O O12 0.048883 0.603940 0.129413
O O13 0.395632 0.688372 0.038448
O O14 0.209785 0.327704 0.984343
O O15 0.352224 0.054289 0.886100
O O16 0.500000 0.000000 0.000000
O O17 0.500000 0.500000 0.500000
O O18 0.000000 0.000000 0.000000
#
# Coordination Sequence:
#
# PCOD9028088 Si02
#       8
#     2   2   2   2   2   2   2   2
#     4  10  23  45  70 101 147 189 242 292 369 439
#     4   9  20  40  69 101 137 181 248 292 349 442
#     4  11  22  43  74 105 137 192 246 296 368 441
#     4  10  22  41  71 103 142 193 233 292 379 431
#     4  11  25  44  73 106 151 189 243 303 364 433
#     4  12  29  45  73 112 149 192 243 312 366 429
#     4  11  24  43  70 107 144 186 243 309 368 435
#     4  12  25  46  75 105 149 192 248 300 366 448
#
# _framework density 24.415001
#
# number of rings (size 3 to 8) (size 9 to 14) (size 15 to 20)
#    0.000    1.250    2.500    2.250   10.500    0.000 
#    0.000    5.000    0.000    0.000    0.000    0.000 
#    0.000    0.000    0.000    0.000    0.000    0.000 
#
# Total GULP energy -89458.011933 kJ/mol
# GULP energy per Si atom -5591.125746 kJ/mol
# Density = 2.435943 g / cm^3
# Si number density = 24.415001 Si / 1000 Ang^3
#
#
#
# Elastic Constant Matrix: (Units=GPa)
#
#
# Indices 1 2 3 4 5 6 
#
# 1 115.1939 47.0601 23.0520 7.7932 9.2575 9.3859
# 2 47.0601 119.8307 8.6311 -4.3367 1.4774 2.0095
# 3 23.0520 8.6311 68.0670 -13.0013 15.0622 2.5650
# 4 7.7932 -4.3367 -13.0013 31.6426 -3.1300 9.2976
# 5 9.2575 1.4774 15.0622 -3.1300 33.9317 -2.9397
# 6 9.3859 2.0095 2.5650 9.2976 -2.9397 56.3042
#
#
#
# Elastic Compliance Matrix: (Units=1/GPa)
#
#
# Indices 1 2 3 4 5 6 
#
# 1 0.011896 -0.004532 -0.003993 -0.005110 -0.001824 -0.000891
# 2 -0.004532 0.010175 0.000622 0.002863 0.000775 -0.000068
# 3 -0.003993 0.000622 0.019259 0.008911 -0.006843 -0.002063
# 4 -0.005110 0.002863 0.008911 0.038724 0.000363 -0.006032
# 5 -0.001824 0.000775 -0.006843 0.000363 0.033202 0.002262
# 6 -0.000891 -0.000068 -0.002063 -0.006032 0.002262 0.019120
#
#
# Mechanical properties :
#
#
# Convention : Reuss Voigt Hill
#
# Bulk Modulus (GPa) = 39.17639 51.17533 45.17586
# Shear Modulus (GPa) = 31.91017 39.33226 35.62121
#
# Velocity S-wave (km/s) = 3.61915 4.01807 3.82382
# Velocity P-wave (km/s) = 5.79182 6.52170 6.16757
#
# Compressibility (1/GPa) = 0.02552558
#
# Stress axis : x y z
#
# Youngs Moduli (GPa) = 84.05865 98.27761 51.92384
#
# Poissons Ratio (x) = 0.44538 0.20734
# Poissons Ratio (y) = 0.38095 -0.03232
# Poissons Ratio (z) = 0.33566 -0.06118
#
# Static dielectric constant tensor:
#      x y z
#    x 2.198880 0.224140 -0.191210 
#    y 0.224140 2.272540 -0.160010 
#    z -0.191210 -0.160010 2.016270 
# 
# From -- ./inp_files/383133.got.cif
#   From: 2010.05.17/outbox.cif.g08.bks.cpg/sg2_192_cif.got.tgz:383133.got - 2010.06.03 11:33:40.
