data_PCOD9028425
_publ_section_title
;
Structure prediction by ZEFSAII (Michael W. Deem and Ramdas Pophale) SiO2 
 PCOD9028425
Probable space group: P -1
;
_chemical_formula_sum "Si O2"
_cell_formula_units_Z 14
_cell_length_a 16.603226
_cell_length_b 9.736306
_cell_length_c 17.120946
_cell_angle_alpha 117.937756
_cell_angle_beta 156.587054
_cell_angle_gamma 47.483176
_cell_volume 693.475047
_symmetry_space_group_name_H-M "P -1"
_symmetry_group_IT_number 2
_symmetry_cell_setting 'triclinic'
loop_
_space_group_symop_operation_xyz
x,y,z
-x,-y,-z
loop_
_atom_site_type_symbol
_atom_site_label
_atom_site_fract_x
_atom_site_fract_y
_atom_site_fract_z
Si Si1 0.646806 0.153657 0.433049
Si Si2 0.734489 0.040530 0.300807
Si Si3 0.873303 0.800139 0.656794
Si Si4 0.269269 0.247345 0.248194
Si Si5 0.746989 0.444000 0.573557
Si Si6 0.159979 0.325503 0.780572
Si Si7 0.854108 0.241770 0.952648
O O1 0.651306 0.125650 0.337640
O O2 0.347885 0.262092 0.234956
O O3 0.724334 0.290769 0.555582
O O4 0.870792 0.921620 0.614979
O O5 0.810752 0.817965 0.298778
O O6 0.470127 0.213024 0.054107
O O7 0.000000 0.000000 0.500000
O O8 0.964934 0.578293 0.656576
O O9 0.069246 0.748282 0.888977
O O10 0.546274 0.991085 0.445689
O O11 0.271129 0.398681 0.344074
O O12 0.995656 0.292716 0.034703
O O13 0.023051 0.312365 0.730295
O O14 0.476600 0.591864 0.314822
O O15 0.000000 0.000000 0.000000
#
# Coordination Sequence:
#
# PCOD9028425 Si02
#       7
#     2   2   2   2   2   2   2
#     4  10  24  42  63  98 132 168 214 271 319 370
#     4  11  24  48  70  90 120 169 228 263 325 381
#     4  10  22  42  61  96 135 162 212 263 314 378
#     4  10  23  40  62  95 145 158 217 256 312 387
#     4  12  22  41  67  97 132 175 213 249 330 385
#     4  11  24  43  73  89 122 174 215 271 314 387
#     4  12  21  37  66  95 131 183 205 248 318 393
#
# _framework density 20.188181
#
# number of rings (size 3 to 8) (size 9 to 14) (size 15 to 20)
#    0.857    0.286    4.286    2.571    0.000    1.143 
#    5.143    0.714    0.000    0.000    0.000    0.000 
#    0.000    0.000    0.000    0.000    0.000    0.000 
#
# Total GULP energy -78214.981833 kJ/mol
# GULP energy per Si atom -5586.784417 kJ/mol
# Density = 2.014223 g / cm^3
# Si number density = 20.188181 Si / 1000 Ang^3
#
#
#
# Elastic Constant Matrix: (Units=GPa)
#
#
# Indices 1 2 3 4 5 6 
#
# 1 53.4965 8.5916 28.1421 13.0096 -1.8873 -2.1555
# 2 8.5916 139.7659 9.9942 6.1319 -3.0436 2.8959
# 3 28.1421 9.9942 79.8775 12.2068 21.1364 1.8434
# 4 13.0096 6.1319 12.2068 23.2371 4.6800 -3.0646
# 5 -1.8873 -3.0436 21.1364 4.6800 17.9768 1.3519
# 6 -2.1555 2.8959 1.8434 -3.0646 1.3519 39.9684
#
#
#
# Elastic Compliance Matrix: (Units=1/GPa)
#
#
# Indices 1 2 3 4 5 6 
#
# 1 0.031262 0.000372 -0.015579 -0.014479 0.025400 0.000408
# 2 0.000372 0.007456 -0.001780 -0.002146 0.004008 -0.000738
# 3 -0.015579 -0.001780 0.026993 0.001790 -0.034090 -0.000666
# 4 -0.014479 -0.002146 0.001790 0.055067 -0.018635 0.004145
# 5 0.025400 0.004008 -0.034090 -0.018635 0.104077 -0.002297
# 6 0.000408 -0.000738 -0.000666 0.004145 -0.002297 0.025521
#
#
# Mechanical properties :
#
#
# Convention : Reuss Voigt Hill
#
# Bulk Modulus (GPa) = 31.50754 40.73286 36.12020
# Shear Modulus (GPa) = 16.95334 31.33059 24.14197
#
# Velocity S-wave (km/s) = 2.90101 3.94372 3.46185
# Velocity P-wave (km/s) = 5.18285 6.39982 5.82321
#
# Compressibility (1/GPa) = 0.03173844
#
# Stress axis : x y z
#
# Youngs Moduli (GPa) = 31.98795 134.12197 37.04707
#
# Poissons Ratio (x) = -0.04991 0.57714
# Poissons Ratio (y) = -0.01190 0.06593
# Poissons Ratio (z) = 0.49832 0.23868
#
# Static dielectric constant tensor:
#      x y z
#    x 1.704890 0.011780 -0.002510 
#    y 0.011780 1.729760 -0.028710 
#    z -0.002510 -0.028710 1.710500 
# 
# From -- ./inp_files/297112.got.cif
#   From: 2010.05.17/outbox.cif.g08.bks.cpg/sg2_149_cif.got.tgz:297112.got - 2010.06.03 11:33:40.
