data_PCOD9028130
_publ_section_title
;
Structure prediction by ZEFSAII (Michael W. Deem and Ramdas Pophale) SiO2 
 PCOD9028130
Probable space group: P -1
;
_chemical_formula_sum "Si O2"
_cell_formula_units_Z 12
_cell_length_a 12.400125
_cell_length_b 9.657822
_cell_length_c 9.648906
_cell_angle_alpha 67.397610
_cell_angle_beta 44.225440
_cell_angle_gamma 49.244872
_cell_volume 602.855696
_symmetry_space_group_name_H-M "P -1"
_symmetry_group_IT_number 2
_symmetry_cell_setting 'triclinic'
loop_
_space_group_symop_operation_xyz
x,y,z
-x,-y,-z
loop_
_atom_site_type_symbol
_atom_site_label
_atom_site_fract_x
_atom_site_fract_y
_atom_site_fract_z
Si Si1 0.992004 0.363755 0.959648
Si Si2 0.726298 0.959790 0.974028
Si Si3 0.154058 0.324019 0.518050
Si Si4 0.342160 0.974654 0.301422
Si Si5 0.493451 0.648535 0.851040
Si Si6 0.451854 0.460681 0.706947
O O1 0.088329 0.339786 0.731112
O O2 0.769317 0.458556 0.106470
O O3 0.109693 0.180138 0.016094
O O4 0.000000 0.500000 0.000000
O O5 0.542085 0.952301 0.148426
O O6 0.665719 0.156928 0.007934
O O7 0.762385 0.939518 0.783395
O O8 0.207401 0.129895 0.480323
O O9 0.332943 0.333806 0.332182
O O10 0.000000 0.500000 0.500000
O O11 0.410838 0.762723 0.316703
O O12 0.473943 0.583583 0.745941
O O13 0.500000 0.500000 0.000000
O O14 0.500000 0.500000 0.500000
#
# Coordination Sequence:
#
# PCOD9028130 Si02
#       6
#     2   2   2   2   2   2
#     4  12  24  44  71  97 133 173 234 270 319 405
#     4  10  22  41  71  95 130 182 223 266 326 403
#     4  11  25  43  72 100 131 178 229 267 324 403
#     4  10  22  44  69  95 133 178 223 265 334 400
#     4  11  23  43  67 100 138 174 213 277 340 384
#     4  12  26  44  67 100 137 172 217 283 341 381
#
# _framework density 19.905260999999999
#
# number of rings (size 3 to 8) (size 9 to 14) (size 15 to 20)
#    0.000    1.000    3.333    3.000    4.667    2.000 
#    3.000    1.667    0.000    0.000    0.000    0.000 
#    0.000    0.000    0.000    0.000    0.000    0.000 
#
# Total GULP energy -66884.057501 kJ/mol
# GULP energy per Si atom -5573.671458 kJ/mol
# Density = 1.985996 g / cm^3
# Si number density = 19.905261 Si / 1000 Ang^3
#
#
#
# Elastic Constant Matrix: (Units=GPa)
#
#
# Indices 1 2 3 4 5 6 
#
# 1 87.5807 45.0463 34.3038 15.3976 28.2213 9.3806
# 2 45.0463 136.6774 38.6049 12.2383 15.0392 9.3310
# 3 34.3038 38.6049 126.4314 10.6116 34.9500 -2.7424
# 4 15.3976 12.2383 10.6116 28.8558 5.6982 11.1861
# 5 28.2213 15.0392 34.9500 5.6982 39.8541 3.3426
# 6 9.3806 9.3310 -2.7424 11.1861 3.3426 42.5459
#
#
#
# Elastic Compliance Matrix: (Units=1/GPa)
#
#
# Indices 1 2 3 4 5 6 
#
# 1 0.017967 -0.004168 -0.000425 -0.005358 -0.009937 -0.000885
# 2 -0.004168 0.009260 -0.002063 -0.000789 0.001476 -0.001153
# 3 -0.000425 -0.002063 0.011320 -0.002336 -0.008730 0.002576
# 4 -0.005358 -0.000789 -0.002336 0.042410 0.000917 -0.010019
# 5 -0.009937 0.001476 -0.008730 0.000917 0.039265 -0.002021
# 6 -0.000885 -0.001153 0.002576 -0.010019 -0.002021 0.026911
#
#
# Mechanical properties :
#
#
# Convention : Reuss Voigt Hill
#
# Bulk Modulus (GPa) = 39.62849 65.17772 52.40311
# Shear Modulus (GPa) = 29.61080 37.76678 33.68879
#
# Velocity S-wave (km/s) = 3.86111 4.36056 4.11841
# Velocity P-wave (km/s) = 6.31105 7.62677 6.99989
#
# Compressibility (1/GPa) = 0.02523437
#
# Stress axis : x y z
#
# Youngs Moduli (GPa) = 55.65743 107.99161 88.34081
#
# Poissons Ratio (x) = 0.45011 0.03752
# Poissons Ratio (y) = 0.23198 0.18229
# Poissons Ratio (z) = 0.02364 0.22284
#
# Static dielectric constant tensor:
#      x y z
#    x 1.622220 -0.022070 -0.015250 
#    y -0.022070 1.592090 -0.031690 
#    z -0.015250 -0.031690 1.678810 
# 
# From -- ./inp_files/148826.got.cif
#   From: 2010.05.17/outbox.cif.g08.bks.cpg/sg2_75_cif.got.tgz:148826.got - 2010.06.03 11:33:40.
