data_PCOD9028531
_publ_section_title
;
Structure prediction by ZEFSAII (Michael W. Deem and Ramdas Pophale) SiO2 
 PCOD9028531
Probable space group: P -1
;
_chemical_formula_sum "Si O2"
_cell_formula_units_Z 13
_cell_length_a 8.365753
_cell_length_b 12.300577
_cell_length_c 11.804376
_cell_angle_alpha 86.537231
_cell_angle_beta 81.036880
_cell_angle_gamma 26.634325
_cell_volume 529.299918
_symmetry_space_group_name_H-M "P -1"
_symmetry_group_IT_number 2
_symmetry_cell_setting 'triclinic'
loop_
_space_group_symop_operation_xyz
x,y,z
-x,-y,-z
loop_
_atom_site_type_symbol
_atom_site_label
_atom_site_fract_x
_atom_site_fract_y
_atom_site_fract_z
Si Si1 0.680338 0.737690 0.180258
Si Si2 0.398364 0.583452 0.779105
Si Si3 0.500000 0.500000 0.000000
Si Si4 0.521561 0.650523 0.380361
Si Si5 0.727847 0.949629 0.223508
Si Si6 0.511248 0.239098 0.030776
Si Si7 0.328756 0.833688 0.626406
O O1 0.660428 0.669015 0.292455
O O2 0.577550 0.920769 0.219826
O O3 0.087458 0.497462 0.100978
O O4 0.447544 0.829606 0.097019
O O5 0.254349 0.612790 0.906425
O O6 0.324763 0.551147 0.681255
O O7 0.321264 0.750209 0.732720
O O8 0.831454 0.323297 0.787869
O O9 0.378411 0.701616 0.978115
O O10 0.568714 0.642895 0.508693
O O11 0.085458 0.904083 0.388684
O O12 0.680810 0.051630 0.112038
O O13 0.559460 0.118052 0.336143
#
# Coordination Sequence:
#
# PCOD9028531 Si02
#       7
#     2   2   1   2   2   2   2
#     4  11  23  41  59  92 125 159 194 248 310 357
#     4  11  22  40  63  91 121 157 206 250 298 349
#     4  12  20  40  66  90 114 162 202 250 296 362
#     4  10  23  40  65  89 119 163 201 249 306 341
#     4  11  22  40  61  87 126 159 195 249 301 356
#     4  11  24  41  61  92 126 151 206 247 299 367
#     4  10  22  42  63  90 119 156 213 251 282 365
#
# _framework density 24.560745000000001
#
# number of rings (size 3 to 8) (size 9 to 14) (size 15 to 20)
#    0.000    1.231    4.615    0.923    0.000    3.692 
#    0.000    3.077    0.000    0.000    0.000    0.000 
#    0.000    0.000    0.000    0.000    0.000    0.000 
#
# Total GULP energy -72533.177735 kJ/mol
# GULP energy per Si atom -5579.475210 kJ/mol
# Density = 2.450484 g / cm^3
# Si number density = 24.560745 Si / 1000 Ang^3
#
#
#
# Elastic Constant Matrix: (Units=GPa)
#
#
# Indices 1 2 3 4 5 6 
#
# 1 123.1561 23.9525 30.7126 8.6872 10.0672 50.4918
# 2 23.9525 87.3272 -26.6294 -45.5223 -1.0685 27.9350
# 3 30.7126 -26.6294 132.5747 29.8279 31.8783 5.3215
# 4 8.6872 -45.5223 29.8279 67.5222 20.7327 -12.8267
# 5 10.0672 -1.0685 31.8783 20.7327 39.5581 0.2134
# 6 50.4918 27.9350 5.3215 -12.8267 0.2134 49.9124
#
#
#
# Elastic Compliance Matrix: (Units=1/GPa)
#
#
# Indices 1 2 3 4 5 6 
#
# 1 0.016528 -0.003960 -0.002798 -0.007156 0.001778 -0.016052
# 2 -0.003960 0.024957 0.004988 0.017533 -0.011495 -0.005939
# 3 -0.002798 0.004988 0.011012 0.001409 -0.008762 -0.000736
# 4 -0.007156 0.017533 0.001409 0.033000 -0.016167 0.005825
# 5 0.001778 -0.011495 -0.008762 -0.016167 0.040044 0.001243
# 6 -0.016052 -0.005939 -0.000736 0.005825 0.001243 0.041167
#
#
# Mechanical properties :
#
#
# Convention : Reuss Voigt Hill
#
# Bulk Modulus (GPa) = 20.42548 44.34770 32.38659
# Shear Modulus (GPa) = 26.79999 52.40003 39.60001
#
# Velocity S-wave (km/s) = 3.30687 4.62398 4.01974
# Velocity P-wave (km/s) = 4.78695 6.82670 5.89571
#
# Compressibility (1/GPa) = 0.04895846
#
# Stress axis : x y z
#
# Youngs Moduli (GPa) = 60.50374 40.06830 90.80595
#
# Poissons Ratio (x) = 0.15867 0.25405
# Poissons Ratio (y) = 0.23960 -0.45295
# Poissons Ratio (z) = 0.16927 -0.19986
#
# Static dielectric constant tensor:
#      x y z
#    x 1.650230 0.129500 0.783810 
#    y 0.129500 1.956010 -0.388230 
#    z 0.783810 -0.388230 -0.209930 
# 
# From -- ./inp_files/24529.got.cif
#   From: 2010.05.17/outbox.cif.g08.bks.cpg/sg2_13_cif.got.tgz:24529.got - 2010.06.03 11:33:40.
