data_PCOD9028544
_publ_section_title
;
Structure prediction by ZEFSAII (Michael W. Deem and Ramdas Pophale) SiO2 
 PCOD9028544
Probable space group: P -1
;
_chemical_formula_sum "Si O2"
_cell_formula_units_Z 14
_cell_length_a 5.321388
_cell_length_b 5.223120
_cell_length_c 26.820921
_cell_angle_alpha 118.044413
_cell_angle_beta 120.472823
_cell_angle_gamma 58.073922
_cell_volume 524.107953
_symmetry_space_group_name_H-M "P -1"
_symmetry_group_IT_number 2
_symmetry_cell_setting 'triclinic'
loop_
_space_group_symop_operation_xyz
x,y,z
-x,-y,-z
loop_
_atom_site_type_symbol
_atom_site_label
_atom_site_fract_x
_atom_site_fract_y
_atom_site_fract_z
Si Si1 0.856819 0.836732 0.042460
Si Si2 0.601496 0.655892 0.178251
Si Si3 0.283568 0.519301 0.931717
Si Si4 0.050800 0.887395 0.388833
Si Si5 0.459082 0.280851 0.432224
Si Si6 0.707396 0.365426 0.755333
Si Si7 0.517130 0.866687 0.717333
O O1 0.851041 0.746936 0.091802
O O2 0.965731 0.122762 0.066896
O O3 0.000000 0.500000 0.000000
O O4 0.500000 0.000000 0.000000
O O5 0.522910 0.565505 0.107949
O O6 0.500956 0.517622 0.204508
O O7 0.968758 0.586558 0.204358
O O8 0.460966 0.016961 0.213327
O O9 0.500000 0.500000 0.000000
O O10 0.796223 0.068703 0.422855
O O11 0.817340 0.933605 0.322565
O O12 0.281006 0.068376 0.416749
O O13 0.247787 0.530806 0.392573
O O14 0.500000 0.500000 0.500000
O O15 0.554531 0.517548 0.701232
O O16 0.753128 0.996617 0.725172
#
# Coordination Sequence:
#
# PCOD9028544 Si02
#       7
#     2   2   2   2   2   2   2
#     4  10  22  42  63  92 126 167 218 277 334 419
#     4  10  26  44  69  99 139 177 232 296 365 427
#     4  10  23  42  68  95 134 175 231 281 362 438
#     4  12  26  43  78 103 149 199 248 302 363 432
#     4  12  26  47  72 112 153 197 247 302 361 427
#     4  10  25  41  69  93 142 172 235 291 366 415
#     4  10  26  43  71 100 141 180 246 290 363 418
#
# _framework density 26.712054999999999
#
# number of rings (size 3 to 8) (size 9 to 14) (size 15 to 20)
#    0.857    0.571    0.000    3.429    8.000    2.286 
#    7.714    0.000    0.000    0.000    0.000    0.000 
#    0.000    0.000    0.000    0.000    0.000    0.000 
#
# Total GULP energy -78209.065392 kJ/mol
# GULP energy per Si atom -5586.361814 kJ/mol
# Density = 2.665126 g / cm^3
# Si number density = 26.712055 Si / 1000 Ang^3
#
#
#
# Elastic Constant Matrix: (Units=GPa)
#
#
# Indices 1 2 3 4 5 6 
#
# 1 176.8802 44.7044 21.9004 -13.6589 -20.6523 20.2667
# 2 44.7044 138.0723 7.9085 -24.8853 -20.1727 23.9691
# 3 21.9004 7.9085 119.6101 6.4409 -9.6444 6.9693
# 4 -13.6589 -24.8853 6.4409 39.0508 1.3647 -15.7988
# 5 -20.6523 -20.1727 -9.6444 1.3647 42.9322 -4.2592
# 6 20.2667 23.9691 6.9693 -15.7988 -4.2592 41.9335
#
#
#
# Elastic Compliance Matrix: (Units=1/GPa)
#
#
# Indices 1 2 3 4 5 6 
#
# 1 0.006616 -0.001319 -0.000892 0.000832 0.002161 -0.001762
# 2 -0.001319 0.009429 -0.000187 0.004352 0.003344 -0.002742
# 3 -0.000892 -0.000187 0.008898 -0.002679 0.001388 -0.001809
# 4 0.000832 0.004352 -0.002679 0.033196 0.001805 0.010246
# 5 0.002161 0.003344 0.001388 0.001805 0.026173 0.000152
# 6 -0.001762 -0.002742 -0.001809 0.010246 0.000152 0.030442
#
#
# Mechanical properties :
#
#
# Convention : Reuss Voigt Hill
#
# Bulk Modulus (GPa) = 49.63664 64.84326 57.23995
# Shear Modulus (GPa) = 39.59898 48.78660 44.19279
#
# Velocity S-wave (km/s) = 3.85442 4.27826 4.07186
# Velocity P-wave (km/s) = 6.19929 6.98085 6.60165
#
# Compressibility (1/GPa) = 0.02014641
#
# Stress axis : x y z
#
# Youngs Moduli (GPa) = 151.15085 106.05189 112.38791
#
# Poissons Ratio (x) = 0.13993 0.10025
# Poissons Ratio (y) = 0.19943 0.02100
# Poissons Ratio (z) = 0.13483 0.01982
#
# Static dielectric constant tensor:
#      x y z
#    x 2.423680 0.006690 0.000080 
#    y 0.006690 2.272410 -0.026720 
#    z 0.000080 -0.026720 2.234990 
# 
# From -- ./inp_files/614745.got.cif
#   From: 2010.05.17/outbox.cif.g08.bks.cpg/sg2_308_cif.got.tgz:614745.got - 2010.06.03 11:33:40.
