data_PCOD9028028
_publ_section_title
;
Structure prediction by ZEFSAII (Michael W. Deem and Ramdas Pophale) SiO2 
 PCOD9028028
Probable space group: P -1
;
_chemical_formula_sum "Si O2"
_cell_formula_units_Z 14
_cell_length_a 9.455566
_cell_length_b 9.766290
_cell_length_c 9.401762
_cell_angle_alpha 115.917645
_cell_angle_beta 106.149417
_cell_angle_gamma 65.519113
_cell_volume 705.678884
_symmetry_space_group_name_H-M "P -1"
_symmetry_group_IT_number 2
_symmetry_cell_setting 'triclinic'
loop_
_space_group_symop_operation_xyz
x,y,z
-x,-y,-z
loop_
_atom_site_type_symbol
_atom_site_label
_atom_site_fract_x
_atom_site_fract_y
_atom_site_fract_z
Si Si1 0.568382 0.592078 0.945497
Si Si2 0.425539 0.213288 0.428256
Si Si3 0.100228 0.054542 0.671267
Si Si4 0.139345 0.495944 0.434281
Si Si5 0.666707 0.279583 0.323036
Si Si6 0.910381 0.396213 0.847669
Si Si7 0.388977 0.152702 0.711758
O O1 0.444620 0.671122 0.822414
O O2 0.728663 0.467296 0.871074
O O3 0.500000 0.500000 0.000000
O O4 0.606661 0.732984 0.105380
O O5 0.258398 0.314836 0.363930
O O6 0.555203 0.278869 0.426142
O O7 0.412729 0.227770 0.601801
O O8 0.478740 0.023706 0.321077
O O9 0.226313 0.117877 0.655512
O O10 0.990155 0.203558 0.801030
O O11 0.202976 0.899349 0.720664
O O12 0.000000 0.000000 0.500000
O O13 0.243951 0.593942 0.573613
O O14 0.077257 0.574294 0.302560
O O15 0.000000 0.500000 0.500000
O O16 0.000000 0.500000 0.000000
#
# Coordination Sequence:
#
# PCOD9028028 Si02
#       7
#     2   2   2   2   2   2   2
#     4  12  27  45  69 101 146 184 235 292 349 416
#     4  10  22  41  70  98 130 181 240 280 340 419
#     4  11  23  44  71 103 142 179 233 291 351 413
#     4  12  25  42  69  99 140 179 237 284 347 414
#     4  11  25  44  71 101 133 189 239 281 349 422
#     4  12  26  45  70 103 140 183 224 292 358 402
#     4  10  23  42  69 101 139 181 232 290 350 412
#
# _framework density 19.839053
#
# number of rings (size 3 to 8) (size 9 to 14) (size 15 to 20)
#    0.000    0.857    4.286    2.143    4.000    4.571 
#    0.000    0.714    0.000    0.000    0.000    0.000 
#    0.000    0.000    0.000    0.000    0.000    0.000 
#
# Total GULP energy -78297.909105 kJ/mol
# GULP energy per Si atom -5592.707793 kJ/mol
# Density = 1.979390 g / cm^3
# Si number density = 19.839053 Si / 1000 Ang^3
#
#
#
# Elastic Constant Matrix: (Units=GPa)
#
#
# Indices 1 2 3 4 5 6 
#
# 1 118.3463 66.2296 56.3636 -6.1764 1.8295 -0.3768
# 2 66.2296 130.8146 45.9423 -2.3544 -2.0483 -27.7013
# 3 56.3636 45.9423 98.9051 6.4012 10.7371 1.3846
# 4 -6.1764 -2.3544 6.4012 32.1391 1.2290 -7.7373
# 5 1.8295 -2.0483 10.7371 1.2290 35.8051 2.1447
# 6 -0.3768 -27.7013 1.3846 -7.7373 2.1447 48.6093
#
#
#
# Elastic Compliance Matrix: (Units=1/GPa)
#
#
# Indices 1 2 3 4 5 6 
#
# 1 0.014645 -0.005849 -0.005859 0.002893 0.000732 -0.002625
# 2 -0.005849 0.013595 -0.003420 0.002450 0.001532 0.008122
# 3 -0.005859 -0.003420 0.015879 -0.005114 -0.004298 -0.003071
# 4 0.002893 0.002450 -0.005114 0.034574 -0.000084 0.007071
# 5 0.000732 0.001532 -0.004298 -0.000084 0.029289 -0.000305
# 6 -0.002625 0.008122 -0.003071 0.007071 -0.000305 0.026407
#
#
# Mechanical properties :
#
#
# Convention : Reuss Voigt Hill
#
# Bulk Modulus (GPa) = 72.13758 76.12632 74.13195
# Shear Modulus (GPa) = 29.53947 35.27941 32.40944
#
# Velocity S-wave (km/s) = 3.86289 4.22154 4.04619
# Velocity P-wave (km/s) = 7.50574 7.88778 7.69913
#
# Compressibility (1/GPa) = 0.01386240
#
# Stress axis : x y z
#
# Youngs Moduli (GPa) = 68.28470 73.55727 62.97755
#
# Poissons Ratio (x) = 0.43024 0.36896
# Poissons Ratio (y) = 0.39940 0.21540
# Poissons Ratio (z) = 0.40005 0.25158
#
# Static dielectric constant tensor:
#      x y z
#    x 1.707570 -0.030980 0.005110 
#    y -0.030980 1.743550 0.006560 
#    z 0.005110 0.006560 1.679540 
# 
# From -- ./inp_files/159847.got.cif
#   From: 2010.05.17/outbox.cif.g08.bks.cpg/sg2_80_cif.got.tgz:159847.got - 2010.06.03 11:33:40.
