data_PCOD9028159
_publ_section_title
;
Structure prediction by ZEFSAII (Michael W. Deem and Ramdas Pophale) SiO2 
 PCOD9028159
Probable space group: P -1
;
_chemical_formula_sum "Si O2"
_cell_formula_units_Z 16
_cell_length_a 15.578374
_cell_length_b 9.110929
_cell_length_c 8.894908
_cell_angle_alpha 72.826600
_cell_angle_beta 81.571655
_cell_angle_gamma 135.719703
_cell_volume 710.598284
_symmetry_space_group_name_H-M "P -1"
_symmetry_group_IT_number 2
_symmetry_cell_setting 'triclinic'
loop_
_space_group_symop_operation_xyz
x,y,z
-x,-y,-z
loop_
_atom_site_type_symbol
_atom_site_label
_atom_site_fract_x
_atom_site_fract_y
_atom_site_fract_z
Si Si1 0.050966 0.766850 0.351561
Si Si2 0.299085 0.623258 0.998978
Si Si3 0.815155 0.326588 0.743361
Si Si4 0.848751 0.830288 0.017990
Si Si5 0.548241 0.943220 0.383851
Si Si6 0.349368 0.380556 0.589791
Si Si7 0.724482 0.965225 0.511207
Si Si8 0.465763 0.271423 0.094146
O O1 0.074773 0.658670 0.264236
O O2 0.884928 0.518176 0.525970
O O3 0.113053 0.004249 0.181867
O O4 0.152543 0.872721 0.439712
O O5 0.394078 0.617360 0.037220
O O6 0.409891 0.905972 0.821313
O O7 0.198240 0.567686 0.156647
O O8 0.218557 0.425134 0.943536
O O9 0.666096 0.018011 0.852722
O O10 0.741050 0.755468 0.190346
O O11 0.000000 0.000000 0.000000
O O12 0.410312 0.638202 0.479922
O O13 0.692782 0.053206 0.368833
O O14 0.500000 0.000000 0.500000
O O15 0.500000 0.500000 0.500000
O O16 0.261550 0.174515 0.540609
O O17 0.576462 0.787359 0.700293
O O18 0.500000 0.500000 0.000000
#
# Coordination Sequence:
#
# PCOD9028159 Si02
#       8
#     2   2   2   2   2   2   2   2
#     4  10  25  51  69  93 147 185 242 288 351 441
#     4  12  24  42  69 107 139 182 241 296 356 422
#     4  10  25  43  71 102 136 186 240 291 360 413
#     4  12  28  48  69 104 147 191 236 296 363 428
#     4  11  21  40  66 101 149 170 231 301 353 413
#     4  10  23  43  72 105 138 187 240 283 364 428
#     4  10  22  41  71  99 133 191 230 279 360 418
#     4  11  23  44  69 102 144 183 233 300 356 420
#
# _framework density 22.516238999999999
#
# number of rings (size 3 to 8) (size 9 to 14) (size 15 to 20)
#    0.000    1.250    2.500    2.625    7.000    4.500 
#    4.500    1.250    0.000    0.000    0.000    0.000 
#    0.000    0.000    0.000    0.000    0.000    0.000 
#
# Total GULP energy -89139.996418 kJ/mol
# GULP energy per Si atom -5571.249776 kJ/mol
# Density = 2.246499 g / cm^3
# Si number density = 22.516239 Si / 1000 Ang^3
#
#
#
# Elastic Constant Matrix: (Units=GPa)
#
#
# Indices 1 2 3 4 5 6 
#
# 1 73.7802 38.2642 19.3020 1.0637 0.5483 -9.0049
# 2 38.2642 107.1718 26.5439 7.0117 -8.0250 -21.6933
# 3 19.3020 26.5439 79.9885 -2.4774 -13.1675 -21.5569
# 4 1.0637 7.0117 -2.4774 40.9538 -16.5768 -8.5122
# 5 0.5483 -8.0250 -13.1675 -16.5768 36.6248 -1.1820
# 6 -9.0049 -21.6933 -21.5569 -8.5122 -1.1820 41.6674
#
#
#
# Elastic Compliance Matrix: (Units=1/GPa)
#
#
# Indices 1 2 3 4 5 6 
#
# 1 0.017280 -0.005807 -0.003160 -0.001231 -0.003265 -0.001268
# 2 -0.005807 0.012880 -0.001098 -0.000010 0.002670 0.004956
# 3 -0.003160 -0.001098 0.018216 0.007533 0.010088 0.009995
# 4 -0.001231 -0.000010 0.007533 0.034897 0.018884 0.011291
# 5 -0.003265 0.002670 0.010088 0.018884 0.040464 0.010909
# 6 -0.001268 0.004956 0.009995 0.011291 0.010909 0.034093
#
#
# Mechanical properties :
#
#
# Convention : Reuss Voigt Hill
#
# Bulk Modulus (GPa) = 35.40417 47.68452 41.54434
# Shear Modulus (GPa) = 26.68446 35.63790 31.16118
#
# Velocity S-wave (km/s) = 3.44629 3.98271 3.72417
# Velocity P-wave (km/s) = 5.62084 6.50947 6.08141
#
# Compressibility (1/GPa) = 0.02824526
#
# Stress axis : x y z
#
# Youngs Moduli (GPa) = 57.87181 77.63970 54.89645
#
# Poissons Ratio (x) = 0.45089 0.17347
# Poissons Ratio (y) = 0.33609 0.06027
# Poissons Ratio (z) = 0.18287 0.08524
#
# Static dielectric constant tensor:
#      x y z
#    x 1.954180 0.073390 0.007620 
#    y 0.073390 1.947510 -0.020260 
#    z 0.007620 -0.020260 1.900570 
# 
# From -- ./inp_files/328866.got.cif
#   From: 2010.05.17/outbox.cif.g08.bks.cpg/sg2_165_cif.got.tgz:328866.got - 2010.06.03 11:33:40.
