data_PCOD9028300
_publ_section_title
;
Structure prediction by ZEFSAII (Michael W. Deem and Ramdas Pophale) SiO2 
 PCOD9028300
Probable space group: P -1
;
_chemical_formula_sum "Si O2"
_cell_formula_units_Z 16
_cell_length_a 8.637774
_cell_length_b 18.611960
_cell_length_c 13.845530
_cell_angle_alpha 148.854688
_cell_angle_beta 39.922381
_cell_angle_gamma 138.060470
_cell_volume 712.693519
_symmetry_space_group_name_H-M "P -1"
_symmetry_group_IT_number 2
_symmetry_cell_setting 'triclinic'
loop_
_space_group_symop_operation_xyz
x,y,z
-x,-y,-z
loop_
_atom_site_type_symbol
_atom_site_label
_atom_site_fract_x
_atom_site_fract_y
_atom_site_fract_z
Si Si1 0.117009 0.628662 0.872506
Si Si2 0.788862 0.077118 0.937538
Si Si3 0.169169 0.436641 0.773410
Si Si4 0.129555 0.858994 0.497481
Si Si5 0.126007 0.878124 0.833372
Si Si6 0.537617 0.942123 0.569904
Si Si7 0.631380 0.652270 0.237139
Si Si8 0.050359 0.565161 0.444146
O O1 0.285204 0.571612 0.804191
O O2 0.119742 0.538649 0.670683
O O3 0.186252 0.795455 0.004338
O O4 0.834904 0.594123 0.013588
O O5 0.892161 0.144325 0.069583
O O6 0.940376 0.959463 0.708330
O O7 0.500000 0.000000 0.000000
O O8 0.324732 0.364497 0.688760
O O9 0.009821 0.307907 0.635298
O O10 0.000000 0.500000 0.000000
O O11 0.320195 0.895277 0.538212
O O12 0.288135 0.909373 0.381554
O O13 0.410174 0.939894 0.731763
O O14 0.023453 0.726973 0.653774
O O15 0.000000 0.000000 0.000000
O O16 0.674092 0.815452 0.367642
O O17 0.335364 0.580318 0.288768
O O18 0.000000 0.500000 0.500000
#
# Coordination Sequence:
#
# PCOD9028300 Si02
#       8
#     2   2   2   2   2   2   2   2
#     4  11  23  48  65  99 137 175 229 280 338 400
#     4  12  27  45  69  97 137 181 223 277 345 406
#     4  10  24  43  65  99 137 171 223 275 342 398
#     4  11  23  44  71 101 130 179 227 279 336 404
#     4  11  23  44  62 100 135 175 223 272 333 401
#     4  10  22  41  74  99 129 175 233 279 327 397
#     4  10  22  42  69 101 131 179 224 277 336 402
#     4  11  23  41  69  97 134 175 222 277 336 402
#
# _framework density 22.450043999999998
#
# number of rings (size 3 to 8) (size 9 to 14) (size 15 to 20)
#    0.000    1.250    3.750    1.875    3.500    3.500 
#    6.750    1.250    0.000    0.000    0.000    0.000 
#    0.000    0.000    0.000    0.000    0.000    0.000 
#
# Total GULP energy -89360.342424 kJ/mol
# GULP energy per Si atom -5585.021401 kJ/mol
# Density = 2.239895 g / cm^3
# Si number density = 22.450044 Si / 1000 Ang^3
#
#
#
# Elastic Constant Matrix: (Units=GPa)
#
#
# Indices 1 2 3 4 5 6 
#
# 1 67.0418 15.8259 24.3240 22.4080 -16.0866 -20.3424
# 2 15.8259 86.0988 34.2309 15.4566 -11.6999 -32.9754
# 3 24.3240 34.2309 104.5087 17.0289 -5.9510 -2.8960
# 4 22.4080 15.4566 17.0289 27.6572 -14.4797 -7.1341
# 5 -16.0866 -11.6999 -5.9510 -14.4797 29.5412 4.5563
# 6 -20.3424 -32.9754 -2.8960 -7.1341 4.5563 37.5437
#
#
#
# Elastic Compliance Matrix: (Units=1/GPa)
#
#
# Indices 1 2 3 4 5 6 
#
# 1 0.026702 0.007146 -0.005342 -0.014578 0.006563 0.016765
# 2 0.007146 0.023592 -0.007528 -0.005730 0.005477 0.022259
# 3 -0.005342 -0.007528 0.013471 -0.004004 -0.003787 -0.008769
# 4 -0.014578 -0.005730 -0.004004 0.063516 0.020686 -0.003682
# 5 0.006563 0.005477 -0.003787 0.020686 0.048018 0.006178
# 6 0.016765 0.022259 -0.008769 -0.003682 0.006178 0.053145
#
#
# Mechanical properties :
#
#
# Convention : Reuss Voigt Hill
#
# Bulk Modulus (GPa) = 19.11428 45.15677 32.13552
# Shear Modulus (GPa) = 19.43025 31.16631 25.29828
#
# Velocity S-wave (km/s) = 2.94511 3.72997 3.36053
# Velocity P-wave (km/s) = 4.48303 6.22159 5.42244
#
# Compressibility (1/GPa) = 0.05231690
#
# Stress axis : x y z
#
# Youngs Moduli (GPa) = 37.45083 42.38698 74.23151
#
# Poissons Ratio (x) = -0.30288 0.39651
# Poissons Ratio (y) = -0.26761 0.55883
# Poissons Ratio (z) = 0.20004 0.31910
#
# Static dielectric constant tensor:
#      x y z
#    x 1.878170 0.000930 -0.041170 
#    y 0.000930 1.845660 -0.039960 
#    z -0.041170 -0.039960 1.872860 
# 
# From -- ./inp_files/507325.got.cif
#   From: 2010.05.17/outbox.cif.g08.bks.cpg/sg2_254_cif.got.tgz:507325.got - 2010.06.03 11:33:40.
