data_PCOD9028594
_publ_section_title
;
Structure prediction by ZEFSAII (Michael W. Deem and Ramdas Pophale) SiO2 
 PCOD9028594
Probable space group: P -1
;
_chemical_formula_sum "Si O2"
_cell_formula_units_Z 14
_cell_length_a 9.357909
_cell_length_b 9.322195
_cell_length_c 7.761999
_cell_angle_alpha 108.252265
_cell_angle_beta 112.788039
_cell_angle_gamma 62.403693
_cell_volume 545.786167
_symmetry_space_group_name_H-M "P -1"
_symmetry_group_IT_number 2
_symmetry_cell_setting 'triclinic'
loop_
_space_group_symop_operation_xyz
x,y,z
-x,-y,-z
loop_
_atom_site_type_symbol
_atom_site_label
_atom_site_fract_x
_atom_site_fract_y
_atom_site_fract_z
Si Si1 0.014586 0.510991 0.801903
Si Si2 0.254108 0.581917 0.291642
Si Si3 0.751941 0.835106 0.629926
Si Si4 0.823330 0.030792 0.017125
Si Si5 0.515271 0.253032 0.378134
Si Si6 0.158682 0.049727 0.639801
Si Si7 0.301013 0.602152 0.939990
O O1 0.910294 0.398603 0.667646
O O2 0.900838 0.687128 0.738188
O O3 0.197429 0.487477 0.806623
O O4 0.000000 0.500000 0.000000
O O5 0.368348 0.386929 0.247933
O O6 0.367029 0.656841 0.471412
O O7 0.231701 0.656721 0.121129
O O8 0.588989 0.790344 0.536882
O O9 0.815133 0.859423 0.482698
O O10 0.717020 0.987028 0.802746
O O11 0.746618 0.223458 0.110424
O O12 0.862289 0.907087 0.151344
O O13 0.000000 0.000000 0.000000
O O14 0.649407 0.087563 0.305755
O O15 0.000000 0.000000 0.500000
O O16 0.500000 0.500000 0.000000
#
# Coordination Sequence:
#
# PCOD9028594 Si02
#       7
#     2   2   2   2   2   2   2
#     4   9  19  38  67  97 128 183 224 270 341 408
#     4   9  20  39  67  88 131 184 219 273 347 399
#     4  11  23  44  67  99 140 178 226 286 339 407
#     4  12  24  43  71  99 137 185 222 276 350 403
#     4  10  22  42  63  97 135 175 229 286 338 398
#     4  12  24  39  66  99 133 178 228 277 339 415
#     4  11  21  38  66 101 136 170 227 284 334 405
#
# _framework density 25.651071999999999
#
# number of rings (size 3 to 8) (size 9 to 14) (size 15 to 20)
#    0.000    1.429    2.857    2.143    0.000    0.571 
#    0.000    7.143    0.000    8.571    0.000    0.000 
#    0.000    0.000    0.000    0.000    0.000    0.000 
#
# Total GULP energy -78151.348529 kJ/mol
# GULP energy per Si atom -5582.239181 kJ/mol
# Density = 2.559269 g / cm^3
# Si number density = 25.651072 Si / 1000 Ang^3
#
#
#
# Elastic Constant Matrix: (Units=GPa)
#
#
# Indices 1 2 3 4 5 6 
#
# 1 226.3013 66.4174 45.5894 -7.6157 13.3221 22.0491
# 2 66.4174 87.3728 43.0121 -26.6655 -15.5476 21.6728
# 3 45.5894 43.0121 84.5309 -23.0476 -15.3825 15.6058
# 4 -7.6157 -26.6655 -23.0476 39.2048 18.0229 -5.9215
# 5 13.3221 -15.5476 -15.3825 18.0229 50.6471 0.9602
# 6 22.0491 21.6728 15.6058 -5.9215 0.9602 45.5916
#
#
#
# Elastic Compliance Matrix: (Units=1/GPa)
#
#
# Indices 1 2 3 4 5 6 
#
# 1 0.006426 -0.004994 -0.001969 -0.001898 -0.003141 -0.000240
# 2 -0.004994 0.022207 -0.004468 0.008980 0.003683 -0.005523
# 3 -0.001969 -0.004468 0.017515 0.005330 0.002613 -0.002282
# 4 -0.001898 0.008980 0.005330 0.038424 -0.008799 0.000001
# 5 -0.003141 0.003683 0.002613 -0.008799 0.025679 -0.002809
# 6 -0.000240 -0.005523 -0.002282 0.000001 -0.002809 0.025516
#
#
# Mechanical properties :
#
#
# Convention : Reuss Voigt Hill
#
# Bulk Modulus (GPa) = 42.94497 78.69363 60.81930
# Shear Modulus (GPa) = 30.04953 43.30112 36.67533
#
# Velocity S-wave (km/s) = 3.42639 4.11309 3.78534
# Velocity P-wave (km/s) = 5.69490 7.30080 6.54727
#
# Compressibility (1/GPa) = 0.02328561
#
# Stress axis : x y z
#
# Youngs Moduli (GPa) = 155.62484 45.03097 57.09237
#
# Poissons Ratio (x) = 0.22488 0.11244
# Poissons Ratio (y) = 0.77717 0.25509
# Poissons Ratio (z) = 0.30649 0.20120
#
# Static dielectric constant tensor:
#      x y z
#    x 2.059280 -0.027520 0.073410 
#    y -0.027520 2.200880 0.076550 
#    z 0.073410 0.076550 2.081290 
# 
# From -- ./inp_files/159340.got.cif
#   From: 2010.05.17/outbox.cif.g08.bks.cpg/sg2_80_cif.got.tgz:159340.got - 2010.06.03 11:33:40.
