data_PCOD9028967
_publ_section_title
;
Structure prediction by ZEFSAII (Michael W. Deem and Ramdas Pophale) SiO2 
 PCOD9028967
Probable space group: P -1
;
_chemical_formula_sum "Si O2"
_cell_formula_units_Z 14
_cell_length_a 9.131707
_cell_length_b 9.234825
_cell_length_c 9.114886
_cell_angle_alpha 58.057205
_cell_angle_beta 105.457105
_cell_angle_gamma 88.622200
_cell_volume 615.736986
_symmetry_space_group_name_H-M "P -1"
_symmetry_group_IT_number 2
_symmetry_cell_setting 'triclinic'
loop_
_space_group_symop_operation_xyz
x,y,z
-x,-y,-z
loop_
_atom_site_type_symbol
_atom_site_label
_atom_site_fract_x
_atom_site_fract_y
_atom_site_fract_z
Si Si1 0.559678 0.639273 0.040568
Si Si2 0.600966 0.980326 0.686304
Si Si3 0.080557 0.055205 0.844290
Si Si4 0.058311 0.194667 0.206152
Si Si5 0.463177 0.320602 0.649703
Si Si6 0.879953 0.637509 0.153588
Si Si7 0.102284 0.322606 0.475534
O O1 0.495146 0.685215 0.162354
O O2 0.737508 0.544345 0.169411
O O3 0.500000 0.500000 0.000000
O O4 0.562559 0.812617 0.852630
O O5 0.782630 0.945078 0.710574
O O6 0.500000 0.000000 0.500000
O O7 0.559025 0.152480 0.681784
O O8 0.185617 0.171653 0.894324
O O9 0.024331 0.200714 0.626443
O O10 0.091382 0.884176 0.838067
O O11 0.000000 0.000000 0.000000
O O12 0.076401 0.254920 0.341934
O O13 0.068036 0.339255 0.009468
O O14 0.500000 0.500000 0.500000
O O15 0.282510 0.312053 0.572106
O O16 0.020339 0.523861 0.338359
#
# Coordination Sequence:
#
# PCOD9028967 Si02
#       7
#     2   2   2   2   2   2   2
#     4  11  25  47  70 101 140 185 236 291 350 415
#     4  11  23  46  70  97 141 185 235 290 340 419
#     4  10  22  42  65  97 133 178 224 281 343 407
#     4  10  23  42  68  98 137 178 231 281 347 412
#     4  12  27  44  70 105 141 186 238 283 355 417
#     4  10  23  43  68  99 135 178 228 288 344 407
#     4  12  23  43  69 103 141 175 231 286 343 424
#
# _framework density 22.736978000000001
#
# number of rings (size 3 to 8) (size 9 to 14) (size 15 to 20)
#    0.000    1.143    2.857    2.571    4.000    1.143 
#    2.571    0.000    0.000    0.000    0.000    0.000 
#    0.000    0.000    0.000    0.000    0.000    0.000 
#
# Total GULP energy -77943.916260 kJ/mol
# GULP energy per Si atom -5567.422590 kJ/mol
# Density = 2.268523 g / cm^3
# Si number density = 22.736978 Si / 1000 Ang^3
#
#
#
# Elastic Constant Matrix: (Units=GPa)
#
#
# Indices 1 2 3 4 5 6 
#
# 1 42.0988 35.9289 26.1596 -7.6874 -1.2421 6.9623
# 2 35.9289 177.9507 50.4407 35.2907 -17.7175 6.1933
# 3 26.1596 50.4407 160.8001 30.1085 -30.6663 -10.2804
# 4 -7.6874 35.2907 30.1085 50.0213 2.3355 9.0296
# 5 -1.2421 -17.7175 -30.6663 2.3355 35.6584 -3.9386
# 6 6.9623 6.1933 -10.2804 9.0296 -3.9386 28.7350
#
#
#
# Elastic Compliance Matrix: (Units=1/GPa)
#
#
# Indices 1 2 3 4 5 6 
#
# 1 0.066897 -0.018033 -0.022543 0.045194 -0.033301 -0.039153
# 2 -0.018033 0.011939 0.005375 -0.016934 0.012219 0.010715
# 3 -0.022543 0.005375 0.017746 -0.022638 0.020908 0.020632
# 4 0.045194 -0.016934 -0.022638 0.061241 -0.034671 -0.039396
# 5 -0.033301 0.012219 0.020908 -0.034671 0.056695 0.031581
# 6 -0.039153 0.010715 0.020632 -0.039396 0.031581 0.066068
#
#
# Mechanical properties :
#
#
# Convention : Reuss Voigt Hill
#
# Bulk Modulus (GPa) = 38.19798 67.32310 52.76054
# Shear Modulus (GPa) = 13.89998 40.77097 27.33547
#
# Velocity S-wave (km/s) = 2.47521 4.23916 3.47111
# Velocity P-wave (km/s) = 5.00053 7.32356 6.27056
#
# Compressibility (1/GPa) = 0.02617939
#
# Stress axis : x y z
#
# Youngs Moduli (GPa) = 14.94846 83.75989 56.35206
#
# Poissons Ratio (x) = 1.51041 1.27033
# Poissons Ratio (y) = 0.26956 -0.30287
# Poissons Ratio (z) = 0.33698 -0.45018
#
# Static dielectric constant tensor:
#      x y z
#    x 2.241250 -0.165010 0.129420 
#    y -0.165010 1.968060 -0.025780 
#    z 0.129420 -0.025780 1.908710 
# 
# From -- ./inp_files/156930.got.cif
#   From: 2010.05.17/outbox.cif.g08.bks.cpg/sg2_79_cif.got.tgz:156930.got - 2010.06.03 11:33:40.
