data_PCOD9028586
_publ_section_title
;
Structure prediction by ZEFSAII (Michael W. Deem and Ramdas Pophale) SiO2 
 PCOD9028586
Probable space group: P -1
;
_chemical_formula_sum "Si O2"
_cell_formula_units_Z 16
_cell_length_a 23.595663
_cell_length_b 16.829647
_cell_length_c 5.424225
_cell_angle_alpha 89.063529
_cell_angle_beta 76.435618
_cell_angle_gamma 22.178993
_cell_volume 661.565521
_symmetry_space_group_name_H-M "P -1"
_symmetry_group_IT_number 2
_symmetry_cell_setting 'triclinic'
loop_
_space_group_symop_operation_xyz
x,y,z
-x,-y,-z
loop_
_atom_site_type_symbol
_atom_site_label
_atom_site_fract_x
_atom_site_fract_y
_atom_site_fract_z
Si Si1 0.236346 0.664600 0.721240
Si Si2 0.337656 0.691232 0.402071
Si Si3 0.406213 0.868983 0.891125
Si Si4 0.313710 0.439413 0.022435
Si Si5 0.005682 0.123730 0.340132
Si Si6 0.616435 0.829736 0.142899
Si Si7 0.111810 0.380573 0.138105
Si Si8 0.716950 0.130340 0.147772
O O1 0.280126 0.700407 0.672173
O O2 0.419764 0.384291 0.436621
O O3 0.208278 0.647825 0.988174
O O4 0.067987 0.861540 0.704590
O O5 0.545584 0.391601 0.154539
O O6 0.338228 0.777551 0.519500
O O7 0.175416 0.891848 0.363223
O O8 0.267333 0.977205 0.971277
O O9 0.496040 0.766741 0.070969
O O10 0.300618 0.085925 0.937363
O O11 0.348498 0.310396 0.870137
O O12 0.173783 0.602503 0.378438
O O13 0.089661 0.076607 0.064112
O O14 0.500000 0.000000 0.500000
O O15 0.807860 0.633197 0.943722
O O16 0.500000 0.000000 0.000000
O O17 0.000000 0.500000 0.500000
O O18 0.000000 0.500000 0.000000
#
# Coordination Sequence:
#
# PCOD9028586 Si02
#       8
#     2   2   2   2   2   2   2   2
#     4  10  23  42  67  94 135 182 239 291 347 435
#     4  10  22  42  63  96 132 189 232 284 359 422
#     4  10  24  45  67  95 136 183 230 294 362 434
#     4  11  25  43  71  99 133 184 239 292 361 429
#     4  11  23  38  63  99 134 177 233 296 351 424
#     4  12  26  50  82 108 150 201 251 306 374 466
#     4  12  28  47  75 116 150 192 243 316 382 450
#     4  10  23  40  66  93 137 181 231 284 357 428
#
# _framework density 24.185058999999999
#
# number of rings (size 3 to 8) (size 9 to 14) (size 15 to 20)
#    0.000    1.250    1.250    3.000    5.250   10.000 
#    0.000    0.000    0.000    0.000    0.000    0.000 
#    0.000    0.000    0.000    0.000    0.000    0.000 
#
# Total GULP energy -89302.922152 kJ/mol
# GULP energy per Si atom -5581.432635 kJ/mol
# Density = 2.413001 g / cm^3
# Si number density = 24.185059 Si / 1000 Ang^3
#
#
#
# Elastic Constant Matrix: (Units=GPa)
#
#
# Indices 1 2 3 4 5 6 
#
# 1 151.0463 18.0528 28.0024 5.8546 6.5772 -15.6859
# 2 18.0528 98.9593 -3.0581 -16.3154 7.3776 -24.3044
# 3 28.0024 -3.0581 82.8821 4.9089 -6.9823 -9.1037
# 4 5.8546 -16.3154 4.9089 28.9053 -7.1860 6.3318
# 5 6.5772 7.3776 -6.9823 -7.1860 31.8781 9.7353
# 6 -15.6859 -24.3044 -9.1037 6.3318 9.7353 48.5023
#
#
#
# Elastic Compliance Matrix: (Units=1/GPa)
#
#
# Indices 1 2 3 4 5 6 
#
# 1 0.007753 -0.001134 -0.002475 -0.003195 -0.003385 0.002571
# 2 -0.001134 0.012997 0.000969 0.005192 -0.003320 0.006317
# 3 -0.002475 0.000969 0.013406 -0.001030 0.002426 0.001849
# 4 -0.003195 0.005192 -0.001030 0.042395 0.010716 -0.006310
# 5 -0.003385 -0.003320 0.002426 0.010716 0.039324 -0.011595
# 6 0.002571 0.006317 0.001849 -0.006310 -0.011595 0.028112
#
#
# Mechanical properties :
#
#
# Convention : Reuss Voigt Hill
#
# Bulk Modulus (GPa) = 34.62977 46.54242 40.58610
# Shear Modulus (GPa) = 31.46813 41.18318 36.32565
#
# Velocity S-wave (km/s) = 3.61104 4.13102 3.87975
# Velocity P-wave (km/s) = 5.63347 6.48381 6.07354
#
# Compressibility (1/GPa) = 0.02887689
#
# Stress axis : x y z
#
# Youngs Moduli (GPa) = 128.98235 76.94198 74.59519
#
# Poissons Ratio (x) = 0.08723 0.18461
# Poissons Ratio (y) = 0.14623 -0.07230
# Poissons Ratio (z) = 0.31920 -0.07457
#
# Static dielectric constant tensor:
#      x y z
#    x 1.949150 0.005020 -0.062890 
#    y 0.005020 1.948560 -0.080040 
#    z -0.062890 -0.080040 2.069800 
# 
# From -- ./inp_files/124743.got.cif
#   From: 2010.05.17/outbox.cif.g08.bks.cpg/sg2_63_cif.got.tgz:124743.got - 2010.06.03 11:33:40.
