data_PCOD9028800
_publ_section_title
;
Structure prediction by ZEFSAII (Michael W. Deem and Ramdas Pophale) SiO2 
 PCOD9028800
Probable space group: P -1
;
_chemical_formula_sum "Si O2"
_cell_formula_units_Z 16
_cell_length_a 5.546641
_cell_length_b 14.639148
_cell_length_c 15.207327
_cell_angle_alpha 140.631614
_cell_angle_beta 55.149466
_cell_angle_gamma 126.424208
_cell_volume 614.754495
_symmetry_space_group_name_H-M "P -1"
_symmetry_group_IT_number 2
_symmetry_cell_setting 'triclinic'
loop_
_space_group_symop_operation_xyz
x,y,z
-x,-y,-z
loop_
_atom_site_type_symbol
_atom_site_label
_atom_site_fract_x
_atom_site_fract_y
_atom_site_fract_z
Si Si1 0.746104 0.546170 0.143921
Si Si2 0.354368 0.483693 0.614581
Si Si3 0.246745 0.011689 0.204293
Si Si4 0.589705 0.962523 0.334950
Si Si5 0.749334 0.788057 0.804237
Si Si6 0.778002 0.310589 0.692154
Si Si7 0.413931 0.207598 0.978580
Si Si8 0.342821 0.754640 0.576848
O O1 0.538194 0.642364 0.215565
O O2 0.498887 0.385128 0.088164
O O3 0.965428 0.618797 0.233827
O O4 0.000000 0.500000 0.000000
O O5 0.500000 0.500000 0.500000
O O6 0.431062 0.653187 0.761859
O O7 0.541297 0.389999 0.561065
O O8 0.997853 0.381584 0.616287
O O9 0.942615 0.997083 0.313297
O O10 0.231902 0.065054 0.147822
O O11 0.495105 0.147864 0.300124
O O12 0.327095 0.857083 0.079629
O O13 0.348514 0.862258 0.378023
O O14 0.552355 0.122559 0.431677
O O15 0.600906 0.865750 0.169936
O O16 0.833647 0.828974 0.918256
O O17 0.992021 0.722428 0.653568
#
# Coordination Sequence:
#
# PCOD9028800 Si02
#       8
#     2   2   2   2   2   2   2   2
#     4  12  25  45  72 113 150 189 237 298 372 444
#     4  12  26  47  74 102 141 192 251 311 356 429
#     4  10  22  42  65 101 145 188 236 292 368 432
#     4  10  24  44  69 101 145 184 240 294 370 440
#     4  11  23  42  70 103 141 188 244 298 374 429
#     4  12  28  47  75 111 144 198 243 302 370 434
#     4  11  23  37  69 104 145 182 232 299 365 445
#     4  10  24  44  70  98 141 191 246 302 355 424
#
# _framework density 26.026648999999999
#
# number of rings (size 3 to 8) (size 9 to 14) (size 15 to 20)
#    0.000    1.000    3.750    1.875    5.250    7.000 
#    0.000    0.625    0.000    0.000    0.000    0.000 
#    0.000    0.000    0.000    0.000    0.000    0.000 
#
# Total GULP energy -89409.040274 kJ/mol
# GULP energy per Si atom -5588.065017 kJ/mol
# Density = 2.596741 g / cm^3
# Si number density = 26.026649 Si / 1000 Ang^3
#
#
#
# Elastic Constant Matrix: (Units=GPa)
#
#
# Indices 1 2 3 4 5 6 
#
# 1 94.7729 31.6701 37.5485 1.7919 -9.3780 5.8835
# 2 31.6701 175.1441 44.7830 -2.8751 -0.4029 5.1115
# 3 37.5485 44.7830 86.2059 -5.9005 -6.4154 -8.6001
# 4 1.7919 -2.8751 -5.9005 61.1937 -1.1509 -1.6092
# 5 -9.3780 -0.4029 -6.4154 -1.1509 48.5392 9.5172
# 6 5.8835 5.1115 -8.6001 -1.6092 9.5172 33.4627
#
#
#
# Elastic Compliance Matrix: (Units=1/GPa)
#
#
# Indices 1 2 3 4 5 6 
#
# 1 0.013745 -0.000861 -0.005871 -0.001079 0.002755 -0.004629
# 2 -0.000861 0.006763 -0.003324 -0.000026 -0.000222 -0.001674
# 3 -0.005871 -0.003324 0.016588 0.001769 -0.000087 0.005913
# 4 -0.001079 -0.000026 0.001769 0.016582 0.000143 0.001405
# 5 0.002755 -0.000222 -0.000087 0.000143 0.022469 -0.006856
# 6 -0.004629 -0.001674 0.005913 0.001405 -0.006856 0.034491
#
#
# Mechanical properties :
#
#
# Convention : Reuss Voigt Hill
#
# Bulk Modulus (GPa) = 58.86943 64.90289 61.88616
# Shear Modulus (GPa) = 36.65400 44.78055 40.71728
#
# Velocity S-wave (km/s) = 3.75684 4.15247 3.95960
# Velocity P-wave (km/s) = 6.44100 6.92690 6.68836
#
# Compressibility (1/GPa) = 0.01698675
#
# Stress axis : x y z
#
# Youngs Moduli (GPa) = 72.75123 147.86376 60.28325
#
# Poissons Ratio (x) = 0.12726 0.35390
# Poissons Ratio (y) = 0.06262 0.20036
# Poissons Ratio (z) = 0.42710 0.49145
#
# Static dielectric constant tensor:
#      x y z
#    x 2.065640 -0.123640 0.122930 
#    y -0.123640 1.868430 0.029850 
#    z 0.122930 0.029850 2.017420 
# 
# From -- ./inp_files/442165.got.cif
#   From: 2010.05.17/outbox.cif.g08.bks.cpg/sg2_222_cif.got.tgz:442165.got - 2010.06.03 11:33:40.
