data_PCOD9028899
_publ_section_title
;
Structure prediction by ZEFSAII (Michael W. Deem and Ramdas Pophale) SiO2 
 PCOD9028899
Probable space group: P -1
;
_chemical_formula_sum "Si O2"
_cell_formula_units_Z 16
_cell_length_a 20.675372
_cell_length_b 6.783666
_cell_length_c 8.572139
_cell_angle_alpha 46.335178
_cell_angle_beta 116.785986
_cell_angle_gamma 129.127729
_cell_volume 674.439017
_symmetry_space_group_name_H-M "P -1"
_symmetry_group_IT_number 2
_symmetry_cell_setting 'triclinic'
loop_
_space_group_symop_operation_xyz
x,y,z
-x,-y,-z
loop_
_atom_site_type_symbol
_atom_site_label
_atom_site_fract_x
_atom_site_fract_y
_atom_site_fract_z
Si Si1 0.527085 0.262867 0.597216
Si Si2 0.706333 0.635066 0.676453
Si Si3 0.750538 0.767317 0.280912
Si Si4 0.070286 0.646553 0.623187
Si Si5 0.952631 0.595996 0.767558
Si Si6 0.433363 0.582772 0.810276
Si Si7 0.805771 0.258255 0.556754
Si Si8 0.149252 0.484887 0.032924
O O1 0.500000 0.500000 0.500000
O O2 0.612892 0.346685 0.731650
O O3 0.546473 0.336682 0.394697
O O4 0.454931 0.909597 0.734828
O O5 0.727512 0.694214 0.480395
O O6 0.717993 0.935250 0.625311
O O7 0.771350 0.555308 0.873909
O O8 0.664298 0.668201 0.150917
O O9 0.789164 0.550656 0.385696
O O10 0.813803 0.137005 0.123761
O O11 0.152289 0.788086 0.528176
O O12 0.084083 0.391428 0.873817
O O13 0.000000 0.500000 0.500000
O O14 0.028510 0.779702 0.628782
O O15 0.874605 0.328574 0.728111
O O16 0.901670 0.701327 0.768686
O O17 0.000000 0.500000 0.000000
O O18 0.500000 0.500000 0.000000
#
# Coordination Sequence:
#
# PCOD9028899 Si02
#       8
#     2   2   2   2   2   2   2   2
#     4  10  22  42  65  94 129 165 208 259 310 370
#     4  11  23  41  65  95 130 164 209 262 311 373
#     4  11  23  41  65  94 131 165 206 264 313 368
#     4   9  20  40  63  93 127 163 212 261 313 373
#     4   9  20  40  65  93 125 165 214 259 312 375
#     4  10  22  42  65  94 128 167 209 253 313 377
#     4  11  21  42  64  92 130 167 210 259 317 368
#     4  11  21  42  64  92 128 167 212 258 314 370
#
# _framework density 23.723420999999998
#
# number of rings (size 3 to 8) (size 9 to 14) (size 15 to 20)
#    0.000    1.750    2.500    1.500    0.000    1.500 
#    4.500   25.000    0.000    0.000    0.000    0.000 
#    0.000    0.000    0.000    0.000    0.000    0.000 
#
# Total GULP energy -89176.040294 kJ/mol
# GULP energy per Si atom -5573.502518 kJ/mol
# Density = 2.366943 g / cm^3
# Si number density = 23.723421 Si / 1000 Ang^3
#
#
#
# Elastic Constant Matrix: (Units=GPa)
#
#
# Indices 1 2 3 4 5 6 
#
# 1 65.3030 27.0045 24.5647 8.6690 20.0314 7.9394
# 2 27.0045 99.8239 49.0920 0.7404 13.1155 11.6530
# 3 24.5647 49.0920 83.9707 16.8688 25.3728 9.1470
# 4 8.6690 0.7404 16.8688 43.5668 1.8763 13.2151
# 5 20.0314 13.1155 25.3728 1.8763 44.2682 0.6803
# 6 7.9394 11.6530 9.1470 13.2151 0.6803 38.5590
#
#
#
# Elastic Compliance Matrix: (Units=1/GPa)
#
#
# Indices 1 2 3 4 5 6 
#
# 1 0.020017 -0.003958 -0.000535 -0.002879 -0.007430 -0.001681
# 2 -0.003958 0.015792 -0.009436 0.005139 0.002357 -0.003522
# 3 -0.000535 -0.009436 0.021893 -0.008021 -0.009181 0.000679
# 4 -0.002879 0.005139 -0.008021 0.029167 0.003281 -0.009112
# 5 -0.007430 0.002357 -0.009181 0.003281 0.030356 0.001336
# 6 -0.001681 -0.003522 0.000679 -0.009112 0.001336 0.030283
#
#
# Mechanical properties :
#
#
# Convention : Reuss Voigt Hill
#
# Bulk Modulus (GPa) = 33.50654 50.04667 41.77661
# Shear Modulus (GPa) = 26.98118 35.17458 31.07788
#
# Velocity S-wave (km/s) = 3.37608 3.85475 3.62333
# Velocity P-wave (km/s) = 5.41772 6.39952 5.92898
#
# Compressibility (1/GPa) = 0.02984492
#
# Stress axis : x y z
#
# Youngs Moduli (GPa) = 49.95743 63.32302 45.67617
#
# Poissons Ratio (x) = 0.25063 0.02445
# Poissons Ratio (y) = 0.19773 0.43098
# Poissons Ratio (z) = 0.02674 0.59748
#
# Static dielectric constant tensor:
#      x y z
#    x 1.917220 -0.003370 -0.047850 
#    y -0.003370 1.924540 -0.024000 
#    z -0.047850 -0.024000 1.955210 
# 
# From -- ./inp_files/340059.got.cif
#   From: 2010.05.17/outbox.cif.g08.bks.cpg/sg2_171_cif.got.tgz:340059.got - 2010.06.03 11:33:40.
