data_PCOD9028866
_publ_section_title
;
Structure prediction by ZEFSAII (Michael W. Deem and Ramdas Pophale) SiO2 
 PCOD9028866
Probable space group: P -1
;
_chemical_formula_sum "Si O2"
_cell_formula_units_Z 16
_cell_length_a 12.182460
_cell_length_b 21.679155
_cell_length_c 18.181873
_cell_angle_alpha 160.065003
_cell_angle_beta 28.955884
_cell_angle_gamma 140.297836
_cell_volume 750.370250
_symmetry_space_group_name_H-M "P -1"
_symmetry_group_IT_number 2
_symmetry_cell_setting 'triclinic'
loop_
_space_group_symop_operation_xyz
x,y,z
-x,-y,-z
loop_
_atom_site_type_symbol
_atom_site_label
_atom_site_fract_x
_atom_site_fract_y
_atom_site_fract_z
Si Si1 0.746439 0.050636 0.503374
Si Si2 0.377707 0.110302 0.123968
Si Si3 0.219208 0.529673 0.693338
Si Si4 0.043418 0.318785 0.133484
Si Si5 0.525537 0.538207 0.941864
Si Si6 0.902293 0.049631 0.002210
Si Si7 0.610849 0.122366 0.398904
Si Si8 0.885739 0.088707 0.743787
O O1 0.644898 0.260398 0.763409
O O2 0.554653 0.993339 0.602646
O O3 0.969564 0.029154 0.403133
O O4 0.803787 0.886017 0.222304
O O5 0.209687 0.321232 0.480254
O O6 0.604447 0.110033 0.939436
O O7 0.500000 0.000000 0.000000
O O8 0.211610 0.010415 0.069357
O O9 0.500000 0.500000 0.500000
O O10 0.126582 0.584263 0.725907
O O11 0.095748 0.700618 0.013241
O O12 0.917965 0.258850 0.209604
O O13 0.210503 0.440858 0.195996
O O14 0.500000 0.500000 0.000000
O O15 0.490388 0.349951 0.716072
O O16 0.731614 0.044459 0.163771
O O17 0.165449 0.913694 0.716867
O O18 0.000000 0.000000 0.500000
#
# Coordination Sequence:
#
# PCOD9028866 Si02
#       8
#     2   2   2   2   2   2   2   2
#     4  11  22  43  64  94 131 167 217 268 321 391
#     4  11  22  43  66  91 126 173 225 266 323 389
#     4   9  20  38  63  93 119 168 224 258 316 393
#     4  11  21  40  65  90 127 165 218 269 313 383
#     4  12  23  39  65  95 126 171 217 257 327 391
#     4  11  23  41  64  93 133 167 211 272 327 381
#     4  11  24  42  62  98 135 167 208 269 334 390
#     4  10  22  42  65  92 129 170 212 276 331 377
#
# _framework density 21.322807999999998
#
# number of rings (size 3 to 8) (size 9 to 14) (size 15 to 20)
#    0.000    1.250    2.500    4.875    0.000    1.500 
#    9.000    0.625    0.000    0.000    0.000    0.000 
#    0.000    0.000    0.000    0.000    0.000    0.000 
#
# Total GULP energy -89396.386869 kJ/mol
# GULP energy per Si atom -5587.274179 kJ/mol
# Density = 2.127428 g / cm^3
# Si number density = 21.322808 Si / 1000 Ang^3
#
#
#
# Elastic Constant Matrix: (Units=GPa)
#
#
# Indices 1 2 3 4 5 6 
#
# 1 82.0872 16.8237 24.8030 9.4641 -15.9994 -1.4557
# 2 16.8237 116.2166 28.2636 11.2756 -2.1230 -4.6699
# 3 24.8030 28.2636 91.6536 22.4126 -20.6597 -14.8702
# 4 9.4641 11.2756 22.4126 36.9379 -14.0922 -3.3679
# 5 -15.9994 -2.1230 -20.6597 -14.0922 27.1184 -1.6665
# 6 -1.4557 -4.6699 -14.8702 -3.3679 -1.6665 36.9523
#
#
#
# Elastic Compliance Matrix: (Units=1/GPa)
#
#
# Indices 1 2 3 4 5 6 
#
# 1 0.014427 -0.001549 -0.001974 0.000746 0.007273 -0.000026
# 2 -0.001549 0.009661 -0.002874 -0.002175 -0.003499 -0.000353
# 3 -0.001974 -0.002874 0.016532 -0.004567 0.009214 0.006211
# 4 0.000746 -0.002175 -0.004567 0.036567 0.015914 0.001967
# 5 0.007273 -0.003499 0.009214 0.015914 0.056646 0.007557
# 6 -0.000026 -0.000353 0.006211 0.001967 0.007557 0.030036
#
#
# Mechanical properties :
#
#
# Convention : Reuss Voigt Hill
#
# Bulk Modulus (GPa) = 35.93667 47.74865 41.84266
# Shear Modulus (GPa) = 26.89060 34.87286 30.88173
#
# Velocity S-wave (km/s) = 3.55508 4.04848 3.80978
# Velocity P-wave (km/s) = 5.80876 6.65548 6.24648
#
# Compressibility (1/GPa) = 0.02782673
#
# Stress axis : x y z
#
# Youngs Moduli (GPa) = 69.31404 103.51137 60.48709
#
# Poissons Ratio (x) = 0.16035 0.11939
# Poissons Ratio (y) = 0.10737 0.17384
# Poissons Ratio (z) = 0.13681 0.29749
#
# Static dielectric constant tensor:
#      x y z
#    x 1.735210 0.013690 0.009570 
#    y 0.013690 1.829830 0.000810 
#    z 0.009570 0.000810 1.847200 
# 
# From -- ./inp_files/501253.got.cif
#   From: 2010.05.17/outbox.cif.g08.bks.cpg/sg2_251_cif.got.tgz:501253.got - 2010.06.03 11:33:40.
