data_PCOD9028830
_publ_section_title
;
Structure prediction by ZEFSAII (Michael W. Deem and Ramdas Pophale) SiO2 
 PCOD9028830
Probable space group: P -1
;
_chemical_formula_sum "Si O2"
_cell_formula_units_Z 16
_cell_length_a 11.150524
_cell_length_b 20.369050
_cell_length_c 14.164213
_cell_angle_alpha 26.777094
_cell_angle_beta 37.411003
_cell_angle_gamma 55.786424
_cell_volume 743.070768
_symmetry_space_group_name_H-M "P -1"
_symmetry_group_IT_number 2
_symmetry_cell_setting 'triclinic'
loop_
_space_group_symop_operation_xyz
x,y,z
-x,-y,-z
loop_
_atom_site_type_symbol
_atom_site_label
_atom_site_fract_x
_atom_site_fract_y
_atom_site_fract_z
Si Si1 0.143916 0.895602 0.670306
Si Si2 0.748020 0.518898 0.328286
Si Si3 0.487271 0.971253 0.194078
Si Si4 0.234462 0.720621 0.515887
Si Si5 0.037181 0.997501 0.089549
Si Si6 0.824908 0.787556 0.664576
Si Si7 0.898223 0.247450 0.926761
Si Si8 0.302226 0.624051 0.258031
O O1 0.342067 0.979744 0.359670
O O2 0.078903 0.033543 0.566514
O O3 0.934229 0.716450 0.987983
O O4 0.229370 0.846765 0.774869
O O5 0.500000 0.500000 0.500000
O O6 0.801257 0.452244 0.284624
O O7 0.736574 0.397255 0.577920
O O8 0.335676 0.787703 0.470531
O O9 0.723190 0.990200 0.057180
O O10 0.566188 0.125862 0.872284
O O11 0.999304 0.722796 0.651953
O O12 0.035211 0.158660 0.924081
O O13 0.840689 0.836937 0.480659
O O14 0.000000 0.000000 0.000000
O O15 0.559337 0.665045 0.021181
O O16 0.098376 0.440304 0.581857
O O17 0.738535 0.244788 0.945170
#
# Coordination Sequence:
#
# PCOD9028830 Si02
#       8
#     2   2   2   2   2   2   2   2
#     4  10  23  41  63  96 123 165 209 253 315 371
#     4  11  26  41  65  90 128 164 211 256 313 369
#     4  10  23  40  66  90 129 164 207 260 307 369
#     4  10  24  42  62  93 126 166 208 258 311 368
#     4  10  23  38  62  95 127 163 205 258 311 364
#     4  10  23  40  67  92 125 163 211 255 309 377
#     4   9  22  41  63  90 129 162 208 253 313 373
#     4  10  22  42  65  90 123 168 205 258 309 371
#
# _framework density 21.53227
#
# number of rings (size 3 to 8) (size 9 to 14) (size 15 to 20)
#    0.000    2.000    0.000    0.750   17.500    3.000 
#    0.000    0.625    0.000    0.000    0.000    0.000 
#    0.000    0.000    0.000    0.000    0.000    0.000 
#
# Total GULP energy -89411.223419 kJ/mol
# GULP energy per Si atom -5588.201464 kJ/mol
# Density = 2.148326 g / cm^3
# Si number density = 21.532270 Si / 1000 Ang^3
#
#
#
# Elastic Constant Matrix: (Units=GPa)
#
#
# Indices 1 2 3 4 5 6 
#
# 1 48.1452 22.2874 9.5958 -8.9036 5.1071 14.4814
# 2 22.2874 101.9456 17.4681 11.5755 8.6209 8.8019
# 3 9.5958 17.4681 78.8213 7.5273 7.7701 4.9523
# 4 -8.9036 11.5755 7.5273 24.2055 1.1340 -1.4082
# 5 5.1071 8.6209 7.7701 1.1340 22.1276 5.4964
# 6 14.4814 8.8019 4.9523 -1.4082 5.4964 33.0937
#
#
#
# Elastic Compliance Matrix: (Units=1/GPa)
#
#
# Indices 1 2 3 4 5 6 
#
# 1 0.030487 -0.006853 -0.002812 0.014848 -0.001607 -0.010199
# 2 -0.006853 0.012620 -0.000922 -0.008157 -0.002558 -0.000142
# 3 -0.002812 -0.000922 0.014065 -0.004810 -0.003627 -0.000231
# 4 0.014848 -0.008157 -0.004810 0.052143 -0.000925 -0.001235
# 5 -0.001607 -0.002558 -0.003627 -0.000925 0.049452 -0.006326
# 6 -0.010199 -0.000142 -0.000231 -0.001235 -0.006326 0.035751
#
#
# Mechanical properties :
#
#
# Convention : Reuss Voigt Hill
#
# Bulk Modulus (GPa) = 27.77875 36.40163 32.09019
# Shear Modulus (GPa) = 21.95955 27.85608 24.90781
#
# Velocity S-wave (km/s) = 3.19696 3.60069 3.40482
# Velocity P-wave (km/s) = 5.15329 5.85055 5.51296
#
# Compressibility (1/GPa) = 0.03599874
#
# Stress axis : x y z
#
# Youngs Moduli (GPa) = 32.80073 79.23800 71.09808
#
# Poissons Ratio (x) = 0.54300 0.19990
# Poissons Ratio (y) = 0.22478 0.06559
# Poissons Ratio (z) = 0.09222 0.07309
#
# Static dielectric constant tensor:
#      x y z
#    x 1.799700 0.029740 0.052830 
#    y 0.029740 1.801580 -0.044550 
#    z 0.052830 -0.044550 1.814450 
# 
# From -- ./inp_files/207038.got.cif
#   From: 2010.05.17/outbox.cif.g08.bks.cpg/sg2_104_cif.got.tgz:207038.got - 2010.06.03 11:33:40.
