data_PCOD9028464
_publ_section_title
;
Structure prediction by ZEFSAII (Michael W. Deem and Ramdas Pophale) SiO2 
 PCOD9028464
Probable space group: P -1
;
_chemical_formula_sum "Si O2"
_cell_formula_units_Z 12
_cell_length_a 11.552332
_cell_length_b 11.226027
_cell_length_c 6.417305
_cell_angle_alpha 81.001211
_cell_angle_beta 108.477649
_cell_angle_gamma 48.305147
_cell_volume 503.966911
_symmetry_space_group_name_H-M "P -1"
_symmetry_group_IT_number 2
_symmetry_cell_setting 'triclinic'
loop_
_space_group_symop_operation_xyz
x,y,z
-x,-y,-z
loop_
_atom_site_type_symbol
_atom_site_label
_atom_site_fract_x
_atom_site_fract_y
_atom_site_fract_z
Si Si1 0.549973 0.321205 0.101369
Si Si2 0.154095 0.048926 0.428903
Si Si3 0.883759 0.235208 0.859614
Si Si4 0.753145 0.576224 0.804844
Si Si5 0.709125 0.126059 0.847067
Si Si6 0.083732 0.361913 0.392302
O O1 0.412379 0.356661 0.171121
O O2 0.758685 0.131895 0.358362
O O3 0.500000 0.500000 0.000000
O O4 0.553460 0.250523 0.899516
O O5 0.146267 0.177133 0.520389
O O6 0.291742 0.961918 0.326071
O O7 0.956281 0.178559 0.159262
O O8 0.814264 0.420451 0.730903
O O9 0.730478 0.247394 0.741663
O O10 0.076632 0.060063 0.897903
O O11 0.749270 0.693924 0.619501
O O12 0.916076 0.477781 0.095090
O O13 0.000000 0.500000 0.500000
#
# Coordination Sequence:
#
# PCOD9028464 Si02
#       6
#     2   2   2   2   2   2
#     4  12  24  38  61  99 134 163 193 259 328 367
#     4   9  22  39  61  91 122 165 214 248 305 374
#     4   8  17  41  60  86 124 168 200 256 293 377
#     4  10  22  42  62  93 129 150 217 262 297 374
#     4   9  19  39  60  89 130 162 200 253 311 362
#     4  10  23  44  68  87 115 173 220 255 299 365
#
# _framework density 23.811087000000001
#
# number of rings (size 3 to 8) (size 9 to 14) (size 15 to 20)
#    1.000    1.333    1.667    0.000    2.333    3.333 
#    3.000    1.667    0.000    0.000    0.000    0.000 
#    0.000    0.000    0.000    0.000    0.000    0.000 
#
# Total GULP energy -66817.009434 kJ/mol
# GULP energy per Si atom -5568.084119 kJ/mol
# Density = 2.375689 g / cm^3
# Si number density = 23.811087 Si / 1000 Ang^3
#
#
#
# Elastic Constant Matrix: (Units=GPa)
#
#
# Indices 1 2 3 4 5 6 
#
# 1 97.4104 37.4572 23.4608 4.1788 -20.8008 0.9150
# 2 37.4572 140.6399 27.5766 32.1087 -15.9794 17.2247
# 3 23.4608 27.5766 44.2800 -7.5409 -8.1014 8.0990
# 4 4.1788 32.1087 -7.5409 40.6728 -0.5643 -5.2037
# 5 -20.8008 -15.9794 -8.1014 -0.5643 28.4744 1.9767
# 6 0.9150 17.2247 8.0990 -5.2037 1.9767 37.4746
#
#
#
# Elastic Compliance Matrix: (Units=1/GPa)
#
#
# Indices 1 2 3 4 5 6 
#
# 1 0.013825 -0.001783 -0.005159 -0.000724 0.007540 0.001099
# 2 -0.001783 0.013065 -0.007373 -0.012245 0.004126 -0.006286
# 3 -0.005159 -0.007373 0.032661 0.012181 0.001763 -0.001945
# 4 -0.000724 -0.012245 0.012181 0.037613 -0.003775 0.008435
# 5 0.007540 0.004126 0.001763 -0.003775 0.043737 -0.005293
# 6 0.001099 -0.006286 -0.001945 0.008435 -0.005293 0.031418
#
#
# Mechanical properties :
#
#
# Convention : Reuss Voigt Hill
#
# Bulk Modulus (GPa) = 32.33969 51.03552 41.68760
# Shear Modulus (GPa) = 23.66798 34.24673 28.95736
#
# Velocity S-wave (km/s) = 3.15618 3.79657 3.49109
# Velocity P-wave (km/s) = 5.18587 6.37954 5.81342
#
# Compressibility (1/GPa) = 0.03092175
#
# Stress axis : x y z
#
# Youngs Moduli (GPa) = 72.33355 76.54021 30.61717
#
# Poissons Ratio (x) = 0.13646 0.15796
# Poissons Ratio (y) = 0.12896 0.22573
# Poissons Ratio (z) = 0.37318 0.56431
#
# Static dielectric constant tensor:
#      x y z
#    x 1.952410 -0.045730 0.035580 
#    y -0.045730 1.938560 0.004620 
#    z 0.035580 0.004620 2.046090 
# 
# From -- ./inp_files/57439.got.cif
#   From: 2010.05.17/outbox.cif.g08.bks.cpg/sg2_29_cif.got.tgz:57439.got - 2010.06.03 11:33:40.
