data_PCOD9028662
_publ_section_title
;
Structure prediction by ZEFSAII (Michael W. Deem and Ramdas Pophale) SiO2 
 PCOD9028662
Probable space group: P -1
;
_chemical_formula_sum "Si O2"
_cell_formula_units_Z 16
_cell_length_a 13.874528
_cell_length_b 10.539929
_cell_length_c 11.951031
_cell_angle_alpha 91.471997
_cell_angle_beta 32.700788
_cell_angle_gamma 112.213367
_cell_volume 709.113689
_symmetry_space_group_name_H-M "P -1"
_symmetry_group_IT_number 2
_symmetry_cell_setting 'triclinic'
loop_
_space_group_symop_operation_xyz
x,y,z
-x,-y,-z
loop_
_atom_site_type_symbol
_atom_site_label
_atom_site_fract_x
_atom_site_fract_y
_atom_site_fract_z
Si Si1 0.979202 0.693446 0.624648
Si Si2 0.031072 0.849955 0.800613
Si Si3 0.803801 0.319183 0.242585
Si Si4 0.505492 0.944091 0.119245
Si Si5 0.528008 0.156301 0.302309
Si Si6 0.534516 0.613255 0.364434
Si Si7 0.015485 0.119993 0.574829
Si Si8 0.525903 0.398453 0.185334
O O1 0.970712 0.744439 0.509370
O O2 0.981692 0.810365 0.715685
O O3 0.243989 0.756059 0.381102
O O4 0.733570 0.508238 0.892067
O O5 0.096837 0.737168 0.770924
O O6 0.257690 0.042200 0.603493
O O7 0.806127 0.782025 0.090052
O O8 0.683224 0.185598 0.255330
O O9 0.621700 0.334581 0.472403
O O10 0.000000 0.500000 0.000000
O O11 0.517900 0.057728 0.204932
O O12 0.500000 0.000000 0.000000
O O13 0.761004 0.996588 0.883168
O O14 0.618567 0.334495 0.177769
O O15 0.500000 0.500000 0.500000
O O16 0.489652 0.509797 0.293732
O O17 0.267397 0.232562 0.393191
O O18 0.000000 0.000000 0.500000
#
# Coordination Sequence:
#
# PCOD9028662 Si02
#       8
#     2   2   2   2   2   2   2   2
#     4   9  20  43  61  91 128 162 213 260 315 383
#     4  10  22  42  64  91 132 165 217 267 318 382
#     4  12  23  40  67  92 131 171 212 266 319 381
#     4   9  20  40  63  88 124 161 210 257 313 383
#     4  11  23  42  64  92 128 168 212 265 318 380
#     4  11  22  43  63  95 130 169 214 265 321 379
#     4  11  22  40  66  95 128 165 209 266 325 383
#     4  11  22  41  67  92 132 168 208 269 319 381
#
# _framework density 22.563376999999999
#
# number of rings (size 3 to 8) (size 9 to 14) (size 15 to 20)
#    0.000    1.500    2.500    3.750    1.750    0.500 
#   13.500    5.625    0.000    0.000    0.000    0.000 
#    0.000    0.000    0.000    0.000    0.000    0.000 
#
# Total GULP energy -89322.774448 kJ/mol
# GULP energy per Si atom -5582.673403 kJ/mol
# Density = 2.251202 g / cm^3
# Si number density = 22.563377 Si / 1000 Ang^3
#
#
#
# Elastic Constant Matrix: (Units=GPa)
#
#
# Indices 1 2 3 4 5 6 
#
# 1 67.4516 12.2187 22.7225 -3.2914 -3.3716 3.1336
# 2 12.2187 58.0236 25.2171 8.3956 -8.6916 9.8151
# 3 22.7225 25.2171 183.3120 0.2088 -17.5370 -2.6124
# 4 -3.2914 8.3956 0.2088 39.4266 -0.2615 -5.1486
# 5 -3.3716 -8.6916 -17.5370 -0.2615 29.4828 -3.2085
# 6 3.1336 9.8151 -2.6124 -5.1486 -3.2085 39.9872
#
#
#
# Elastic Compliance Matrix: (Units=1/GPa)
#
#
# Indices 1 2 3 4 5 6 
#
# 1 0.015996 -0.002882 -0.001594 0.001905 0.000004 -0.000405
# 2 -0.002882 0.021115 -0.002245 -0.005416 0.003915 -0.005487
# 3 -0.001594 -0.002245 0.006272 0.000514 0.003043 0.001396
# 4 0.001905 -0.005416 0.000514 0.027285 -0.000319 0.004701
# 5 0.000004 0.003915 0.003043 -0.000319 0.037117 0.002175
# 6 -0.000405 -0.005487 0.001396 0.004701 0.002175 0.027257
#
#
# Mechanical properties :
#
#
# Convention : Reuss Voigt Hill
#
# Bulk Modulus (GPa) = 33.39868 47.67820 40.53844
# Shear Modulus (GPa) = 31.55265 38.35458 34.95361
#
# Velocity S-wave (km/s) = 3.74358 4.12741 3.94017
# Velocity P-wave (km/s) = 5.78966 6.62500 6.22137
#
# Compressibility (1/GPa) = 0.02994130
#
# Stress axis : x y z
#
# Youngs Moduli (GPa) = 62.51383 47.35942 159.43872
#
# Poissons Ratio (x) = 0.13651 0.25412
# Poissons Ratio (y) = 0.18019 0.35792
# Poissons Ratio (z) = 0.09964 0.10632
#
# Static dielectric constant tensor:
#      x y z
#    x 1.855130 0.005930 -0.011090 
#    y 0.005930 1.802140 -0.024640 
#    z -0.011090 -0.024640 1.887710 
# 
# From -- ./inp_files/255927.got.cif
#   From: 2010.05.17/outbox.cif.g08.bks.cpg/sg2_128_cif.got.tgz:255927.got - 2010.06.03 11:33:40.
