data_PCOD9028246
_publ_section_title
;
Structure prediction by ZEFSAII (Michael W. Deem and Ramdas Pophale) SiO2 
 PCOD9028246
Probable space group: P -1
;
_chemical_formula_sum "Si O2"
_cell_formula_units_Z 13
_cell_length_a 22.443102
_cell_length_b 8.763995
_cell_length_c 9.736536
_cell_angle_alpha 67.974614
_cell_angle_beta 142.962201
_cell_angle_gamma 140.242241
_cell_volume 579.142380
_symmetry_space_group_name_H-M "P -1"
_symmetry_group_IT_number 2
_symmetry_cell_setting 'triclinic'
loop_
_space_group_symop_operation_xyz
x,y,z
-x,-y,-z
loop_
_atom_site_type_symbol
_atom_site_label
_atom_site_fract_x
_atom_site_fract_y
_atom_site_fract_z
Si Si1 0.500000 0.500000 0.500000
Si Si2 0.449517 0.843954 0.816574
Si Si3 0.821924 0.187653 0.358161
Si Si4 0.164528 0.115111 0.165676
Si Si5 0.169157 0.183749 0.454399
Si Si6 0.413202 0.015073 0.433064
Si Si7 0.983942 0.547746 0.104811
O O1 0.303663 0.191210 0.316609
O O2 0.521406 0.336210 0.542201
O O3 0.288620 0.483659 0.655218
O O4 0.393762 0.902346 0.583489
O O5 0.500000 0.000000 0.000000
O O6 0.630102 0.004674 0.035761
O O7 0.000000 0.500000 0.500000
O O8 0.863497 0.286831 0.561198
O O9 0.808157 0.969797 0.396265
O O10 0.242038 0.289403 0.394328
O O11 0.005128 0.772144 0.048424
O O12 0.045744 0.067617 0.865322
O O13 0.500000 0.000000 0.500000
O O14 0.212231 0.771670 0.088405
O O15 0.000000 0.500000 0.000000
#
# Coordination Sequence:
#
# PCOD9028246 Si02
#       7
#     1   2   2   2   2   2   2
#     4  12  26  38  72 112 136 172 246 308 350 404
#     4  12  26  46  69 102 145 189 233 289 362 434
#     4  11  26  44  68 104 143 184 231 294 364 424
#     4  10  22  41  73 103 131 183 248 297 341 420
#     4  10  23  46  72  96 139 195 238 283 363 433
#     4  12  26  46  73 104 144 183 245 299 350 422
#     4  11  21  45  70  97 135 189 234 290 349 424
#
# _framework density 22.446985000000002
#
# number of rings (size 3 to 8) (size 9 to 14) (size 15 to 20)
#    0.000    0.923    3.077    3.231    8.615    0.000 
#    5.538    0.769    0.000    0.000    0.000    0.000 
#    0.000    0.000    0.000    0.000    0.000    0.000 
#
# Total GULP energy -72383.516176 kJ/mol
# GULP energy per Si atom -5567.962783 kJ/mol
# Density = 2.239589 g / cm^3
# Si number density = 22.446985 Si / 1000 Ang^3
#
#
#
# Elastic Constant Matrix: (Units=GPa)
#
#
# Indices 1 2 3 4 5 6 
#
# 1 123.3410 23.1483 16.8464 8.2346 -5.3200 -12.3426
# 2 23.1483 107.0744 14.7511 3.9293 -13.5266 -28.2339
# 3 16.8464 14.7511 77.1501 1.7431 0.8288 -13.2366
# 4 8.2346 3.9293 1.7431 26.5853 -9.3269 -0.6840
# 5 -5.3200 -13.5266 0.8288 -9.3269 41.1957 12.8020
# 6 -12.3426 -28.2339 -13.2366 -0.6840 12.8020 36.6660
#
#
#
# Elastic Compliance Matrix: (Units=1/GPa)
#
#
# Indices 1 2 3 4 5 6 
#
# 1 0.008842 -0.001253 -0.001360 -0.002531 -0.000307 0.001580
# 2 -0.001253 0.012028 -0.000608 -0.000763 0.001068 0.008233
# 3 -0.001360 -0.000608 0.014302 -0.001177 -0.002512 0.005093
# 4 -0.002531 -0.000763 -0.001177 0.042135 0.010455 -0.004729
# 5 -0.000307 0.001068 -0.002512 0.010455 0.030287 -0.010567
# 6 0.001580 0.008233 0.005093 -0.004729 -0.010567 0.039585
#
#
# Mechanical properties :
#
#
# Convention : Reuss Voigt Hill
#
# Bulk Modulus (GPa) = 34.80538 46.33968 40.57253
# Shear Modulus (GPa) = 30.63760 37.74406 34.19083
#
# Velocity S-wave (km/s) = 3.69845 4.10503 3.90703
# Velocity P-wave (km/s) = 5.81182 6.56942 6.20220
#
# Compressibility (1/GPa) = 0.02873119
#
# Stress axis : x y z
#
# Youngs Moduli (GPa) = 113.09059 83.13953 69.91964
#
# Poissons Ratio (x) = 0.10421 0.09506
# Poissons Ratio (y) = 0.14175 0.04249
# Poissons Ratio (z) = 0.15375 0.05052
#
# Static dielectric constant tensor:
#      x y z
#    x 1.935340 0.016980 0.061400 
#    y 0.016980 1.833330 0.033710 
#    z 0.061400 0.033710 1.919550 
# 
# From -- ./inp_files/155235.got.cif
#   From: 2010.05.17/outbox.cif.g08.bks.cpg/sg2_78_cif.got.tgz:155235.got - 2010.06.03 11:33:40.
