data_PCOD9028757
_publ_section_title
;
Structure prediction by ZEFSAII (Michael W. Deem and Ramdas Pophale) SiO2 
 PCOD9028757
Probable space group: P -1
;
_chemical_formula_sum "Si O2"
_cell_formula_units_Z 15
_cell_length_a 5.113209
_cell_length_b 8.287299
_cell_length_c 17.525200
_cell_angle_alpha 114.763205
_cell_angle_beta 80.646825
_cell_angle_gamma 115.985092
_cell_volume 605.967278
_symmetry_space_group_name_H-M "P -1"
_symmetry_group_IT_number 2
_symmetry_cell_setting 'triclinic'
loop_
_space_group_symop_operation_xyz
x,y,z
-x,-y,-z
loop_
_atom_site_type_symbol
_atom_site_label
_atom_site_fract_x
_atom_site_fract_y
_atom_site_fract_z
Si Si1 0.263250 0.609080 0.806849
Si Si2 0.389083 0.958240 0.108819
Si Si3 0.000000 0.000000 0.000000
Si Si4 0.854278 0.206342 0.751623
Si Si5 0.064461 0.312202 0.475584
Si Si6 0.488658 0.466852 0.622226
Si Si7 0.577692 0.649786 0.957223
Si Si8 0.366780 0.102685 0.639096
O O1 0.427505 0.559607 0.719108
O O2 0.386084 0.577065 0.877142
O O3 0.943248 0.437028 0.780800
O O4 0.360881 0.837803 0.837556
O O5 0.227230 0.836826 0.165063
O O6 0.162972 0.000634 0.075441
O O7 0.554163 0.848496 0.031316
O O8 0.081582 0.242232 0.052573
O O9 0.580889 0.084042 0.688342
O O10 0.124051 0.158505 0.703595
O O11 0.213801 0.347131 0.557540
O O12 0.302836 0.355708 0.405314
O O13 0.000000 0.500000 0.500000
O O14 0.807300 0.101089 0.435412
O O15 0.558649 0.286853 0.612966
O O16 0.500000 0.500000 0.000000
#
# Coordination Sequence:
#
# PCOD9028757 Si02
#       8
#     2   2   1   2   2   2   2   2
#     4  10  23  47  68 103 144 188 245 301 366 433
#     4  11  25  44  72 103 147 192 247 307 365 438
#     4  10  22  42  64  98 132 188 240 294 368 414
#     4  11  27  46  76 111 145 199 243 306 363 432
#     4  11  26  45  76 107 146 194 242 303 367 442
#     4  10  25  46  70 109 144 192 243 301 370 436
#     4  11  25  44  70 105 142 191 243 302 367 435
#     4  11  27  48  75 108 151 192 243 298 369 439
#
# _framework density 24.753810999999999
#
# number of rings (size 3 to 8) (size 9 to 14) (size 15 to 20)
#    0.000    1.333    0.000    3.600   14.933    3.733 
#    9.600    0.000    0.000    0.000    0.000    0.000 
#    0.000    0.000    0.000    0.000    0.000    0.000 
#
# Total GULP energy -83733.027918 kJ/mol
# GULP energy per Si atom -5582.201861 kJ/mol
# Density = 2.469747 g / cm^3
# Si number density = 24.753811 Si / 1000 Ang^3
#
#
#
# Elastic Constant Matrix: (Units=GPa)
#
#
# Indices 1 2 3 4 5 6 
#
# 1 49.5862 10.0890 15.9736 -5.6174 -0.2203 7.6722
# 2 10.0890 113.2452 46.9731 27.2453 6.7186 1.6325
# 3 15.9736 46.9731 130.6462 9.4158 1.7635 -4.1160
# 4 -5.6174 27.2453 9.4158 35.8368 -3.0728 14.3857
# 5 -0.2203 6.7186 1.7635 -3.0728 34.1989 3.3002
# 6 7.6722 1.6325 -4.1160 14.3857 3.3002 29.2786
#
#
#
# Elastic Compliance Matrix: (Units=1/GPa)
#
#
# Indices 1 2 3 4 5 6 
#
# 1 0.026018 -0.004554 -0.003105 0.014553 0.003939 -0.014595
# 2 -0.004554 0.014078 -0.003211 -0.013898 -0.004583 0.007302
# 3 -0.003105 -0.003211 0.009432 -0.001870 -0.000360 0.003278
# 4 0.014553 -0.013898 -0.001870 0.054802 0.010880 -0.031454
# 5 0.003939 -0.004583 -0.000360 0.010880 0.032107 -0.009792
# 6 -0.014595 0.007302 0.003278 -0.031454 -0.009792 0.054591
#
#
# Mechanical properties :
#
#
# Convention : Reuss Voigt Hill
#
# Bulk Modulus (GPa) = 35.99000 48.83880 42.41440
# Shear Modulus (GPa) = 22.51911 34.55900 28.53906
#
# Velocity S-wave (km/s) = 3.01943 3.74051 3.39914
# Velocity P-wave (km/s) = 5.16979 6.19902 5.70765
#
# Compressibility (1/GPa) = 0.02778550
#
# Stress axis : x y z
#
# Youngs Moduli (GPa) = 38.43441 71.03068 106.02740
#
# Poissons Ratio (x) = 0.32351 0.32927
# Poissons Ratio (y) = 0.17505 0.34050
# Poissons Ratio (z) = 0.11936 0.22811
#
# Static dielectric constant tensor:
#      x y z
#    x 1.823620 -0.150130 0.009870 
#    y -0.150130 1.922970 0.041890 
#    z 0.009870 0.041890 2.007240 
# 
# From -- ./inp_files/548311.got.cif
#   From: 2010.05.17/outbox.cif.g08.bks.cpg/sg2_275_cif.got.tgz:548311.got - 2010.06.03 11:33:40.
